CHEMBL234_lig138
                    3D
 Schrodinger Suite 2021-1.
 44 47  0  0  1  0            999 V2000
    4.1505   26.7505   25.3745 C   0  0  0  0  0  0
    5.1030   26.7859   26.4042 C   0  0  0  0  0  0
    6.2049   25.9323   26.3973 C   0  0  0  0  0  0
    4.3398   25.8471   24.3167 C   0  0  0  0  0  0
    5.4373   24.9826   24.3051 C   0  0  0  0  0  0
    6.3590   25.0034   25.3569 C   0  0  0  0  0  0
    7.3920   24.0548   25.3810 N   0  0  0  0  0  0
    7.5413   22.9441   24.5058 C   0  0  0  0  0  0
    6.8133   22.7342   23.4944 N   0  0  0  0  0  0
    5.8283   24.0336   22.8394 S   0  0  0  0  0  0
    8.5920   22.0689   24.8870 N   0  0  0  0  0  0
    9.4907   21.2493   24.1832 C   0  0  0  0  0  0
    9.1755   20.2355   23.2476 C   0  0  0  0  0  0
   10.2329   19.4623   22.7159 C   0  0  0  0  0  0
   11.5510   19.6833   23.0840 C   0  0  0  0  0  0
   11.8379   20.6763   24.0043 C   0  0  0  0  0  0
   10.8211   21.4244   24.5648 C   0  0  0  0  0  0
    7.1027   26.0245   27.4356 O   0  0  0  0  0  0
    6.6333   24.8941   21.9666 O   0  0  0  0  0  0
    4.5920   23.4793   22.2840 O   0  0  0  0  0  0
    2.9834   27.6659   25.3968 N   0  3  0  0  0  0
    2.9187   28.5125   26.2840 O   0  0  0  0  0  0
    2.1221   27.5382   24.5329 O   0  5  0  0  0  0
    7.8496   19.9548   22.9511 O   0  0  0  0  0  0
    7.5251   18.7628   22.3397 C   0  0  0  0  0  0
    6.9920   17.7092   23.0840 C   0  0  0  0  0  0
    6.8073   16.4650   22.4993 C   0  0  0  0  0  0
    7.1177   16.3077   21.1557 C   0  0  0  0  0  0
    7.5866   17.3630   20.3886 C   0  0  0  0  0  0
    7.8026   18.5779   20.9872 C   0  0  0  0  0  0
    4.9947   27.4821   27.2245 H   0  0  0  0  0  0
    3.6521   25.8394   23.4840 H   0  0  0  0  0  0
    8.2313   24.2932   25.8873 H   0  0  0  0  0  0
    9.0693   22.4215   25.7006 H   0  0  0  0  0  0
   10.0662   18.6577   22.0192 H   0  0  0  0  0  0
   12.3444   19.0892   22.6544 H   0  0  0  0  0  0
   12.8537   20.8936   24.2840 H   0  0  0  0  0  0
   11.0905   22.1905   25.2795 H   0  0  0  0  0  0
    8.0023   25.7630   27.2162 H   0  0  0  0  0  0
    6.7281   17.8338   24.1213 H   0  0  0  0  0  0
    6.4158   15.6392   23.0752 H   0  0  0  0  0  0
    6.9647   15.3630   20.6840 H   0  0  0  0  0  0
    7.7920   17.2507   19.3373 H   0  0  0  0  0  0
    8.2409   19.3630   20.4002 H   0  0  0  0  0  0
  1  2  2  0  0  0
  1  4  1  0  0  0
  1 21  1  0  0  0
  2  3  1  0  0  0
  2 31  1  0  0  0
  3 18  1  0  0  0
  3  6  2  0  0  0
  4  5  2  0  0  0
  4 32  1  0  0  0
  5 10  1  0  0  0
  5  6  1  0  0  0
  6  7  1  0  0  0
  7  8  1  0  0  0
  7 33  1  0  0  0
  8  9  2  0  0  0
  8 11  1  0  0  0
  9 10  1  0  0  0
 10 19  2  0  0  0
 10 20  2  0  0  0
 11 12  1  0  0  0
 11 34  1  0  0  0
 12 17  1  0  0  0
 12 13  2  0  0  0
 13 24  1  0  0  0
 13 14  1  0  0  0
 14 15  2  0  0  0
 14 35  1  0  0  0
 15 16  1  0  0  0
 15 36  1  0  0  0
 16 17  2  0  0  0
 16 37  1  0  0  0
 17 38  1  0  0  0
 18 39  1  0  0  0
 21 22  2  0  0  0
 21 23  1  0  0  0
 24 25  1  0  0  0
 25 26  2  0  0  0
 25 30  1  0  0  0
 26 27  1  0  0  0
 26 40  1  0  0  0
 27 28  2  0  0  0
 27 41  1  0  0  0
 28 29  1  0  0  0
 28 42  1  0  0  0
 29 30  2  0  0  0
 29 43  1  0  0  0
 30 44  1  0  0  0
M  CHG  2  21   1  23  -1
M  END
> <s_m_entry_id>
8082

> <s_m_entry_name>
dock_pv.2

> <s_m_Source_Path>
/home/csk/Desktop/cluster/DUD-E-result/drd3

> <s_m_Source_File>
dock_pv.maegz

> <i_m_Source_File_Index>
2

> <chembl_id>
CHEMBL399203

> <chembl_pref_name>
None

> <i_lp_mmshare_version>
53161

> <r_lp_tautomer_probability>
1

> <s_lp_Force_Field>
OPLS_2005

> <r_lp_Energy>
19.035826

> <b_lp_Chiralities_Consistent>
1

> <s_lp_Variant>
CHEMBL234_lig138-1

> <s_i_glide_gridfile>
glide-grid_3pbl

> <i_i_glide_lignum>
186

> <i_i_glide_rotatable_bonds>
6

> <r_i_docking_score>
-7.98710181130893

> <r_i_glide_ligand_efficiency>
-0.266236727043631

> <r_i_glide_ligand_efficiency_sa>
-0.827259411610844

> <r_i_glide_ligand_efficiency_ln>
-1.81475655797389

> <r_i_glide_gscore>
-7.98710181130893

> <r_i_glide_lipo>
-3.45076865294446

> <r_i_glide_hbond>
-0.0124078908707742

> <r_i_glide_metal>
0

> <r_i_glide_rewards>
-1.21983984706926

> <r_i_glide_evdw>
-39.4285545349121

> <r_i_glide_ecoul>
-10.0763263702393

> <r_i_glide_erotb>
0.436602533745618

> <r_i_glide_esite>
-0.257811271888559

> <r_i_glide_emodel>
-61.6881664313792

> <r_i_glide_energy>
-49.5048809051514

> <r_i_glide_einternal>
9.88182926177979

> <i_i_glide_confnum>
12

> <i_i_glide_posenum>
11

> <r_i_glide_eff_state_penalty>
0

> <s_user_duplicate_titles>
CHEMBL234_lig138

> <i_f3d_flags>
0

> <s_m_subgroup_title>
dock_pv

> <s_m_subgroupid>
dock_pv

> <b_m_subgroup_collapsed>
0

$$$$
CHEMBL234_lig104
                    3D
 Schrodinger Suite 2021-1.
 51 53  0  0  1  0            999 V2000
    8.2941   19.5063   22.6824 C   0  0  0  0  0  0
    7.6181   21.7630   23.4600 N   0  0  0  0  0  0
    8.5917   20.8224   23.1137 C   0  0  0  0  0  0
    3.1400   28.6599   27.2220 C   0  0  0  0  0  0
    6.0585   24.2581   23.7017 N   0  0  0  0  0  0
    2.3742   28.6616   28.5105 C   0  0  0  0  0  0
    9.3272   18.5957   22.4162 C   0  0  0  0  0  0
    7.7169   22.6460   24.6386 C   0  0  0  0  0  0
    6.3201   21.9932   22.7955 C   0  0  0  0  0  0
    2.5848   28.9602   26.1683 O   0  0  0  0  0  0
    6.6570   18.9454   22.5147 Cl  0  0  0  0  0  0
    4.4424   28.3468   27.3274 N   0  0  0  0  0  0
    6.0171   26.6476   24.4986 C   0  0  0  0  0  0
    1.3427   29.5873   28.7061 C   0  0  0  0  0  0
    2.6767   27.7339   29.5115 C   0  0  0  0  0  0
    5.0964   27.4057   25.1065 C   0  0  0  0  0  0
    6.0910   23.4796   22.4657 C   0  0  0  0  0  0
    7.3919   24.1168   24.3053 C   0  0  0  0  0  0
    8.9920   16.9791   21.8836 Cl  0  0  0  0  0  0
    0.9104   28.6347   30.8686 C   0  0  0  0  0  0
    1.9444   27.7247   30.6840 C   0  0  0  0  0  0
    0.6183   29.5817   29.8953 C   0  0  0  0  0  0
    5.7267   25.6528   23.3942 C   0  0  0  0  0  0
    9.9405   21.1593   23.3068 C   0  0  0  0  0  0
    0.1747   28.5698   32.0169 O   0  0  0  0  0  0
    5.4135   28.3536   26.2447 C   0  0  0  0  0  0
   10.9630   20.2381   23.0865 C   0  0  0  0  0  0
   10.6557   18.9630   22.6207 C   0  0  0  0  0  0
    8.7033   22.5851   25.0983 H   0  0  0  0  0  0
    7.0358   22.2878   25.4090 H   0  0  0  0  0  0
    6.1925   21.4171   21.8844 H   0  0  0  0  0  0
    5.5293   21.6341   23.4551 H   0  0  0  0  0  0
    4.7867   28.0757   28.2347 H   0  0  0  0  0  0
    7.0467   26.7262   24.8155 H   0  0  0  0  0  0
    1.1055   30.3268   27.9532 H   0  0  0  0  0  0
    3.4634   27.0026   29.3883 H   0  0  0  0  0  0
    4.0649   27.3444   24.7884 H   0  0  0  0  0  0
    5.1728   23.6036   21.8908 H   0  0  0  0  0  0
    6.9069   23.8392   21.8404 H   0  0  0  0  0  0
    8.1377   24.5168   23.6174 H   0  0  0  0  0  0
    7.4711   24.6780   25.2369 H   0  0  0  0  0  0
    2.1923   27.0088   31.4524 H   0  0  0  0  0  0
   -0.1573   30.3134   30.0558 H   0  0  0  0  0  0
    4.6875   25.7336   23.0769 H   0  0  0  0  0  0
    6.3628   25.9658   22.5640 H   0  0  0  0  0  0
   10.2139   22.1505   23.6393 H   0  0  0  0  0  0
    0.4860   27.8487   32.5807 H   0  0  0  0  0  0
    5.4891   29.3649   25.8664 H   0  0  0  0  0  0
    6.3953   28.1181   26.6587 H   0  0  0  0  0  0
   11.9890   20.5254   23.2613 H   0  0  0  0  0  0
   11.4485   18.2571   22.4277 H   0  0  0  0  0  0
  1  3  2  0  0  0
  1  7  1  0  0  0
  1 11  1  0  0  0
  2  3  1  0  0  0
  2  8  1  0  0  0
  2  9  1  0  0  0
  3 24  1  0  0  0
  4 12  1  0  0  0
  4  6  1  0  0  0
  4 10  2  0  0  0
  5 17  1  0  0  0
  5 23  1  0  0  0
  5 18  1  0  0  0
  6 14  2  0  0  0
  6 15  1  0  0  0
  7 19  1  0  0  0
  7 28  2  0  0  0
  8 18  1  0  0  0
  8 29  1  0  0  0
  8 30  1  0  0  0
  9 17  1  0  0  0
  9 31  1  0  0  0
  9 32  1  0  0  0
 12 26  1  0  0  0
 12 33  1  0  0  0
 13 23  1  0  0  0
 13 16  2  0  0  0
 13 34  1  0  0  0
 14 22  1  0  0  0
 14 35  1  0  0  0
 15 21  2  0  0  0
 15 36  1  0  0  0
 16 26  1  0  0  0
 16 37  1  0  0  0
 17 38  1  0  0  0
 17 39  1  0  0  0
 18 40  1  0  0  0
 18 41  1  0  0  0
 20 21  1  0  0  0
 20 25  1  0  0  0
 20 22  2  0  0  0
 21 42  1  0  0  0
 22 43  1  0  0  0
 23 44  1  0  0  0
 23 45  1  0  0  0
 24 27  2  0  0  0
 24 46  1  0  0  0
 25 47  1  0  0  0
 26 48  1  0  0  0
 26 49  1  0  0  0
 27 28  1  0  0  0
 27 50  1  0  0  0
 28 51  1  0  0  0
M  END
> <s_m_entry_id>
8083

> <s_m_entry_name>
dock_pv.3

> <s_m_Source_Path>
/home/csk/Desktop/cluster/DUD-E-result/drd3

> <s_m_Source_File>
dock_pv.maegz

> <i_m_Source_File_Index>
3

> <chembl_id>
CHEMBL195057

> <chembl_pref_name>
None

> <i_lp_mmshare_version>
53161

> <r_lp_tautomer_probability>
0.999999999997365

> <s_lp_Force_Field>
OPLS_2005

> <r_lp_Energy>
45.660088

> <b_lp_Chiralities_Consistent>
1

> <s_lp_Variant>
CHEMBL234_lig104-1

> <s_i_glide_gridfile>
glide-grid_3pbl

> <i_i_glide_lignum>
138

> <i_i_glide_rotatable_bonds>
8

> <r_i_docking_score>
-7.4456902298667

> <r_i_glide_ligand_efficiency>
-0.265917508209525

> <r_i_glide_ligand_efficiency_sa>
-0.807482171960801

> <r_i_glide_ligand_efficiency_ln>
-1.7186839200178

> <r_i_glide_gscore>
-7.4456902298667

> <r_i_glide_lipo>
-2.50937875005045

> <r_i_glide_hbond>
-0.315273539175012

> <r_i_glide_metal>
0

> <r_i_glide_rewards>
-1.303371511679

> <r_i_glide_evdw>
-36.4668121337891

> <r_i_glide_ecoul>
-14.9395999908447

> <r_i_glide_erotb>
0.78413681521713

> <r_i_glide_esite>
-0.0375226388632023

> <r_i_glide_emodel>
-65.1133337481841

> <r_i_glide_energy>
-51.4064121246338

> <r_i_glide_einternal>
10.7745733261108

> <i_i_glide_confnum>
72

> <i_i_glide_posenum>
317

> <r_i_glide_eff_state_penalty>
0

> <s_user_duplicate_titles>
CHEMBL234_lig104,322247

> <i_f3d_flags>
0

> <s_m_subgroup_title>
dock_pv

> <s_m_subgroupid>
dock_pv

> <b_m_subgroup_collapsed>
0

$$$$
CHEMBL234_lig74
                    3D
 Schrodinger Suite 2021-1.
 47 51  0  0  1  0            999 V2000
    4.1945   26.7384   24.8118 C   0  0  0  0  0  0
    5.1122   25.7532   24.4446 N   0  0  0  0  0  0
    4.3259   27.2137   26.0118 N   0  0  0  0  0  0
    5.9454   25.6343   25.5442 C   0  0  0  0  0  0
    8.4567   20.5582   23.0833 C   0  0  0  0  0  0
    5.3859   26.5241   26.5088 C   0  0  0  0  0  0
   10.0475   18.7424   22.6347 C   0  0  0  0  0  0
    8.9799   17.9751   22.1939 C   0  0  0  0  0  0
    9.7785   20.0351   23.1060 C   0  0  0  0  0  0
    7.7003   18.4431   22.2229 C   0  0  0  0  0  0
    7.0411   22.7131   22.9142 N   0  0  1  0  0  0
    7.3971   19.7216   22.6804 C   0  0  0  0  0  0
    5.1188   24.9681   23.1912 C   0  0  0  0  0  0
    8.2154   22.0170   23.4944 C   0  0  0  0  0  0
    3.1838   27.1039   23.9695 O   0  0  0  0  0  0
    8.9878   16.7310   21.6439 O   0  0  0  0  0  0
    6.8747   17.4948   21.7057 O   0  0  0  0  0  0
    6.3261   25.1133   22.2621 C   0  0  0  0  0  0
    4.6936   23.5042   23.2843 C   0  0  0  0  0  0
    7.6487   16.3287   21.6333 C   0  0  0  0  0  0
    5.8230   22.5839   23.7467 C   0  0  0  0  0  0
    7.4483   24.0806   22.4905 C   0  0  0  0  0  0
   11.1252   20.9717   23.6661 Cl  0  0  0  0  0  0
    7.0751   24.8634   25.8382 C   0  0  0  0  0  0
    5.9166   26.5946   27.7971 C   0  0  0  0  0  0
    7.5676   24.9367   27.1331 C   0  0  0  0  0  0
    6.9919   25.7648   28.0868 C   0  0  0  0  0  0
   11.0574   18.3613   22.6063 H   0  0  0  0  0  0
    6.3789   20.0702   22.6466 H   0  0  0  0  0  0
    4.3039   25.4427   22.6847 H   0  0  0  0  0  0
    8.2419   22.0949   24.5823 H   0  0  0  0  0  0
    9.1128   22.5205   23.1364 H   0  0  0  0  0  0
    3.4767   27.6686   23.2427 H   0  0  0  0  0  0
    6.7206   26.1302   22.3004 H   0  0  0  0  0  0
    5.9973   25.0201   21.2264 H   0  0  0  0  0  0
    4.2993   23.1580   22.3328 H   0  0  0  0  0  0
    3.7970   23.3981   23.8859 H   0  0  0  0  0  0
    7.4498   15.7084   22.5103 H   0  0  0  0  0  0
    7.4185   15.7239   20.7541 H   0  0  0  0  0  0
    5.4836   21.5527   23.7791 H   0  0  0  0  0  0
    6.0450   22.8130   24.7848 H   0  0  0  0  0  0
    8.1349   24.5337   23.2026 H   0  0  0  0  0  0
    8.0355   23.9716   21.5711 H   0  0  0  0  0  0
    7.5591   24.2133   25.1348 H   0  0  0  0  0  0
    5.4821   27.2418   28.5446 H   0  0  0  0  0  0
    8.4206   24.3313   27.4051 H   0  0  0  0  0  0
    7.3920   25.7072   29.0857 H   0  0  0  0  0  0
  1  2  1  0  0  0
  1  3  2  0  0  0
  1 15  1  0  0  0
  2  4  1  0  0  0
  2 13  1  0  0  0
  3  6  1  0  0  0
  4 24  2  0  0  0
  4  6  1  0  0  0
  5 14  1  0  0  0
  5  9  1  0  0  0
  5 12  2  0  0  0
  6 25  2  0  0  0
  7  9  2  0  0  0
  7  8  1  0  0  0
  7 28  1  0  0  0
  8 10  2  0  0  0
  8 16  1  0  0  0
  9 23  1  0  0  0
 10 12  1  0  0  0
 10 17  1  0  0  0
 11 21  1  0  0  0
 11 14  1  0  0  0
 11 22  1  0  0  0
 12 29  1  0  0  0
 13 18  1  0  0  0
 13 19  1  0  0  0
 13 30  1  0  0  0
 14 31  1  0  0  0
 14 32  1  0  0  0
 15 33  1  0  0  0
 16 20  1  0  0  0
 17 20  1  0  0  0
 18 22  1  0  0  0
 18 34  1  0  0  0
 18 35  1  0  0  0
 19 21  1  0  0  0
 19 36  1  0  0  0
 19 37  1  0  0  0
 20 38  1  0  0  0
 20 39  1  0  0  0
 21 40  1  0  0  0
 21 41  1  0  0  0
 22 42  1  0  0  0
 22 43  1  0  0  0
 24 26  1  0  0  0
 24 44  1  0  0  0
 25 27  1  0  0  0
 25 45  1  0  0  0
 26 27  2  0  0  0
 26 46  1  0  0  0
 27 47  1  0  0  0
M  END
> <s_m_entry_id>
8084

> <s_m_entry_name>
dock_pv.4

> <s_m_Source_Path>
/home/csk/Desktop/cluster/DUD-E-result/drd3

> <s_m_Source_File>
dock_pv.maegz

> <i_m_Source_File_Index>
4

> <chembl_id>
CHEMBL114379

> <chembl_pref_name>
None

> <i_lp_mmshare_version>
53161

> <r_lp_tautomer_probability>
1

> <s_lp_Force_Field>
OPLS_2005

> <r_lp_Energy>
40.882438

> <b_lp_Chiralities_Consistent>
1

> <s_lp_Variant>
CHEMBL234_lig74-1

> <s_i_glide_gridfile>
glide-grid_3pbl

> <i_i_glide_lignum>
98

> <i_i_glide_rotatable_bonds>
4

> <r_i_docking_score>
-7.05201287395348

> <r_i_glide_ligand_efficiency>
-0.261185661998277

> <r_i_glide_ligand_efficiency_sa>
-0.783556985134006

> <r_i_glide_ligand_efficiency_ln>
-1.64159233553781

> <r_i_glide_gscore>
-7.05201287395348

> <r_i_glide_lipo>
-2.22158884548712

> <r_i_glide_hbond>
-0.32

> <r_i_glide_metal>
0

> <r_i_glide_rewards>
-2.58935891137923

> <r_i_glide_evdw>
-36.0304870605469

> <r_i_glide_ecoul>
-3.41083192825317

> <r_i_glide_erotb>
0.392084025178194

> <r_i_glide_esite>
0

> <r_i_glide_emodel>
-44.302934755037

> <r_i_glide_energy>
-39.4413189888

> <r_i_glide_einternal>
7.24844312667847

> <i_i_glide_confnum>
44

> <i_i_glide_posenum>
104

> <r_i_glide_eff_state_penalty>
0

> <s_user_duplicate_titles>
CHEMBL234_lig74

> <i_f3d_flags>
0

> <s_m_subgroup_title>
dock_pv

> <s_m_subgroupid>
dock_pv

> <b_m_subgroup_collapsed>
0

$$$$
CHEMBL234_lig19
                    3D
 Schrodinger Suite 2021-1.
 47 49  0  0  1  0            999 V2000
    7.5584   24.5016   27.4313 C   0  0  0  0  0  0
    7.7920   23.4770   26.5162 C   0  0  0  0  0  0
    6.9532   23.3629   25.4019 C   0  0  0  0  0  0
    5.8826   24.2297   25.2042 C   0  0  0  0  0  0
    6.4425   25.3630   27.2991 C   0  0  0  0  0  0
    5.5836   25.2318   26.1638 C   0  0  0  0  0  0
    4.4541   26.1034   26.0850 C   0  0  0  0  0  0
    4.2102   26.9929   27.1323 C   0  0  0  0  0  0
    5.0808   27.0190   28.2162 C   0  0  0  0  0  0
    6.1920   26.2537   28.2988 N   0  0  0  0  0  0
    4.8068   27.8411   29.3015 N   0  0  0  0  0  0
    8.9675   22.5165   26.7508 C   0  0  0  0  0  0
    9.5773   22.1630   25.4839 N   0  0  2  0  0  0
   10.8029   21.3864   25.4919 C   0  0  0  0  0  0
   11.2941   21.2138   24.0376 C   0  0  0  0  0  0
   10.4906   20.1719   23.2659 C   0  0  0  0  0  0
   11.1036   19.0023   22.8183 C   0  0  0  0  0  0
   10.3427   18.0055   22.2147 C   0  0  0  0  0  0
    8.9592   18.1488   22.0705 C   0  0  0  0  0  0
    8.3386   19.3368   22.4917 C   0  0  0  0  0  0
    9.1199   20.3490   23.0514 C   0  0  0  0  0  0
    8.1920   17.0406   21.5168 C   0  0  0  0  0  0
    7.5789   16.1630   21.0840 N   0  0  0  0  0  0
    3.5035   26.0354   24.8976 C   0  0  0  0  0  0
    6.8296   19.5473   22.4005 C   0  0  0  0  0  0
    8.2050   24.5997   28.2848 H   0  0  0  0  0  0
    7.1292   22.5836   24.6756 H   0  0  0  0  0  0
    5.2504   24.1030   24.3386 H   0  0  0  0  0  0
    3.3434   27.6371   27.1137 H   0  0  0  0  0  0
    3.9808   28.4207   29.3040 H   0  0  0  0  0  0
    5.4426   27.8381   30.0852 H   0  0  0  0  0  0
    8.5921   21.6157   27.2386 H   0  0  0  0  0  0
    9.7038   22.9858   27.4062 H   0  0  0  0  0  0
    9.7920   23.0602   25.0104 H   0  0  0  0  0  0
   10.5769   20.3961   25.8840 H   0  0  0  0  0  0
   11.5788   21.8387   26.1091 H   0  0  0  0  0  0
   12.3441   20.9205   24.0594 H   0  0  0  0  0  0
   11.2766   22.1630   23.4983 H   0  0  0  0  0  0
   12.1638   18.8502   22.9585 H   0  0  0  0  0  0
   10.8415   17.1043   21.8840 H   0  0  0  0  0  0
    8.6409   21.2623   23.3669 H   0  0  0  0  0  0
    2.7031   26.7721   24.9752 H   0  0  0  0  0  0
    4.0409   26.2260   23.9680 H   0  0  0  0  0  0
    3.0458   25.0473   24.8347 H   0  0  0  0  0  0
    6.5318   20.5581   22.6831 H   0  0  0  0  0  0
    6.4752   19.3630   21.3857 H   0  0  0  0  0  0
    6.3184   18.8467   23.0604 H   0  0  0  0  0  0
  1  5  1  0  0  0
  1  2  2  0  0  0
  1 26  1  0  0  0
  2  3  1  0  0  0
  2 12  1  0  0  0
  3  4  2  0  0  0
  3 27  1  0  0  0
  4  6  1  0  0  0
  4 28  1  0  0  0
  5  6  1  0  0  0
  5 10  2  0  0  0
  6  7  2  0  0  0
  7  8  1  0  0  0
  7 24  1  0  0  0
  8  9  2  0  0  0
  8 29  1  0  0  0
  9 10  1  0  0  0
  9 11  1  0  0  0
 11 30  1  0  0  0
 11 31  1  0  0  0
 12 13  1  0  0  0
 12 32  1  0  0  0
 12 33  1  0  0  0
 13 14  1  0  0  0
 13 34  1  0  0  0
 14 15  1  0  0  0
 14 35  1  0  0  0
 14 36  1  0  0  0
 15 16  1  0  0  0
 15 37  1  0  0  0
 15 38  1  0  0  0
 16 17  2  0  0  0
 16 21  1  0  0  0
 17 18  1  0  0  0
 17 39  1  0  0  0
 18 19  2  0  0  0
 18 40  1  0  0  0
 19 20  1  0  0  0
 19 22  1  0  0  0
 20 21  2  0  0  0
 20 25  1  0  0  0
 21 41  1  0  0  0
 22 23  3  0  0  0
 24 42  1  0  0  0
 24 43  1  0  0  0
 24 44  1  0  0  0
 25 45  1  0  0  0
 25 46  1  0  0  0
 25 47  1  0  0  0
M  END
> <s_m_entry_id>
8085

> <s_m_entry_name>
dock_pv.5

> <s_m_Source_Path>
/home/csk/Desktop/cluster/DUD-E-result/drd3

> <s_m_Source_File>
dock_pv.maegz

> <i_m_Source_File_Index>
5

> <chembl_id>
CHEMBL4092027

> <chembl_pref_name>
None

> <i_lp_mmshare_version>
53161

> <r_lp_tautomer_probability>
1

> <s_lp_Force_Field>
OPLS_2005

> <r_lp_Energy>
17.84742

> <b_lp_Chiralities_Consistent>
1

> <s_lp_Variant>
CHEMBL234_lig19-1

> <s_i_glide_gridfile>
glide-grid_3pbl

> <i_i_glide_lignum>
21

> <i_i_glide_rotatable_bonds>
5

> <r_i_docking_score>
-7.03787353903927

> <r_i_glide_ligand_efficiency>
-0.281514941561571

> <r_i_glide_ligand_efficiency_sa>
-0.823154681814781

> <r_i_glide_ligand_efficiency_ln>
-1.66818693680304

> <r_i_glide_gscore>
-7.03787353903927

> <r_i_glide_lipo>
-2.39225986101135

> <r_i_glide_hbond>
-0.16

> <r_i_glide_metal>
0

> <r_i_glide_rewards>
-2.50618513636363

> <r_i_glide_evdw>
-40.4283180236816

> <r_i_glide_ecoul>
-5.46219682693481

> <r_i_glide_erotb>
0.861316883560018

> <r_i_glide_esite>
0

> <r_i_glide_emodel>
-62.4451462623327

> <r_i_glide_energy>
-45.8905148506165

> <r_i_glide_einternal>
3.65908169746399

> <i_i_glide_confnum>
184

> <i_i_glide_posenum>
254

> <r_i_glide_eff_state_penalty>
0

> <s_user_duplicate_titles>
CHEMBL234_lig19

> <i_f3d_flags>
0

> <s_m_subgroup_title>
dock_pv

> <s_m_subgroupid>
dock_pv

> <b_m_subgroup_collapsed>
0

$$$$
407827
                    3D
 Schrodinger Suite 2021-1.
 48 51  0  0  1  0            999 V2000
    2.8032   28.4640   26.2826 C   0  0  0  0  0  0
    3.3354   28.6698   27.5520 C   0  0  0  0  0  0
    4.5945   28.1878   27.9085 C   0  0  0  0  0  0
    5.3041   27.4802   26.9309 C   0  0  0  0  0  0
    4.7836   27.2476   25.6187 C   0  0  0  0  0  0
    3.5126   27.7627   25.3078 C   0  0  0  0  0  0
    5.7573   26.4813   24.8785 C   0  0  0  0  0  0
    6.8251   26.3193   25.7546 C   0  0  0  0  0  0
    6.5489   26.8965   26.9664 N   0  0  0  0  0  0
    5.6167   26.0749   23.4104 C   0  0  0  0  0  0
    6.1786   24.7721   23.0287 N   0  0  1  0  0  0
    7.6404   24.7857   22.8422 C   0  0  0  0  0  0
    8.1918   23.3907   22.4739 C   0  0  0  0  0  0
    7.7561   22.2444   23.4167 C   0  0  0  0  0  0
    6.2073   22.2841   23.3074 C   0  0  0  0  0  0
    5.6056   23.6337   23.7690 C   0  0  0  0  0  0
    8.4473   20.9004   23.0840 C   0  0  0  0  0  0
    9.8439   20.7963   23.1791 C   0  0  0  0  0  0
   10.4983   19.6066   22.8647 C   0  0  0  0  0  0
    9.7686   18.5008   22.4360 C   0  0  0  0  0  0
    8.3734   18.5652   22.3501 C   0  0  0  0  0  0
    7.7245   19.7629   22.6840 C   0  0  0  0  0  0
    7.5546   17.3446   21.9326 C   0  0  0  0  0  0
    6.5919   17.7017   21.0837 F   0  0  0  0  0  0
    8.2991   16.4072   21.3435 F   0  0  0  0  0  0
    6.9910   16.8076   23.0147 F   0  0  0  0  0  0
    8.1553   22.5630   24.7409 O   0  0  0  0  0  0
    7.2012   26.8790   27.7374 H   0  0  0  0  0  0
    1.8252   28.8607   26.0491 H   0  0  0  0  0  0
    2.7575   29.2220   28.2801 H   0  0  0  0  0  0
    4.9923   28.3597   28.8980 H   0  0  0  0  0  0
    3.0861   27.6190   24.3258 H   0  0  0  0  0  0
    7.7806   25.8297   25.6303 H   0  0  0  0  0  0
    4.5664   26.0929   23.1177 H   0  0  0  0  0  0
    6.0745   26.8412   22.7826 H   0  0  0  0  0  0
    7.8993   25.5121   22.0706 H   0  0  0  0  0  0
    8.1231   25.1437   23.7428 H   0  0  0  0  0  0
    7.8373   23.1847   21.4840 H   0  0  0  0  0  0
    9.2718   23.4164   22.3296 H   0  0  0  0  0  0
    5.7581   21.4876   23.8840 H   0  0  0  0  0  0
    5.8746   22.0420   22.2972 H   0  0  0  0  0  0
    5.7841   23.7712   24.8367 H   0  0  0  0  0  0
    4.5219   23.6306   23.6444 H   0  0  0  0  0  0
   10.4292   21.6476   23.4990 H   0  0  0  0  0  0
   11.5742   19.5479   22.9415 H   0  0  0  0  0  0
   10.2943   17.5903   22.1848 H   0  0  0  0  0  0
    6.6473   19.7960   22.6181 H   0  0  0  0  0  0
    8.8737   23.2137   24.6837 H   0  0  0  0  0  0
  1  6  1  0  0  0
  1  2  2  0  0  0
  1 29  1  0  0  0
  2  3  1  0  0  0
  2 30  1  0  0  0
  3  4  2  0  0  0
  3 31  1  0  0  0
  4  9  1  0  0  0
  4  5  1  0  0  0
  5  6  2  0  0  0
  5  7  1  0  0  0
  6 32  1  0  0  0
  7  8  2  0  0  0
  7 10  1  0  0  0
  8  9  1  0  0  0
  8 33  1  0  0  0
  9 28  1  0  0  0
 10 11  1  0  0  0
 10 34  1  0  0  0
 10 35  1  0  0  0
 11 16  1  0  0  0
 11 12  1  0  0  0
 12 13  1  0  0  0
 12 36  1  0  0  0
 12 37  1  0  0  0
 13 14  1  0  0  0
 13 38  1  0  0  0
 13 39  1  0  0  0
 14 15  1  0  0  0
 14 17  1  0  0  0
 14 27  1  0  0  0
 15 16  1  0  0  0
 15 40  1  0  0  0
 15 41  1  0  0  0
 16 42  1  0  0  0
 16 43  1  0  0  0
 17 22  1  0  0  0
 17 18  2  0  0  0
 18 19  1  0  0  0
 18 44  1  0  0  0
 19 20  2  0  0  0
 19 45  1  0  0  0
 20 21  1  0  0  0
 20 46  1  0  0  0
 21 22  2  0  0  0
 21 23  1  0  0  0
 22 47  1  0  0  0
 23 24  1  0  0  0
 23 25  1  0  0  0
 23 26  1  0  0  0
 27 48  1  0  0  0
M  END
> <s_m_entry_id>
8246

> <s_m_entry_name>
ligand_docking-pose.1

> <s_m_Source_Path>
/home/csk/Desktop/cluster/DUD-E-result/drd3

> <s_m_Source_File>
ligand_docking-pose.sdf

> <i_m_Source_File_Index>
1

> <i_lp_mmshare_version>
53161

> <i_f3d_flags>
0

> <r_lp_tautomer_probability>
1

> <s_lp_Force_Field>
OPLS_2005

> <r_lp_Energy>
27.482899

> <b_lp_Chiralities_Consistent>
1

> <s_lp_Variant>
407827-1

> <s_i_glide_gridfile>
glide-grid_3pbl

> <i_i_glide_lignum>
2819

> <i_i_glide_rotatable_bonds>
5

> <r_i_docking_score>
-8.25122139523816

> <r_i_glide_ligand_efficiency>
-0.305600792416228

> <r_i_glide_ligand_efficiency_sa>
-0.916802376241474

> <r_i_glide_ligand_efficiency_ln>
-1.92074830879526

> <r_i_glide_gscore>
-8.25122139523816

> <r_i_glide_lipo>
-2.95083901452366

> <r_i_glide_hbond>
-0.16

> <r_i_glide_metal>
0

> <r_i_glide_rewards>
-2.68440008587398

> <r_i_glide_evdw>
-36.4893112182617

> <r_i_glide_ecoul>
-6.9688892364502

> <r_i_glide_erotb>
0.413816651540089

> <r_i_glide_esite>
0

> <r_i_glide_emodel>
-54.4828558345254

> <r_i_glide_energy>
-43.4582004547119

> <r_i_glide_einternal>
11.6566352844238

> <i_i_glide_confnum>
3

> <i_i_glide_posenum>
84

> <r_i_glide_eff_state_penalty>
0

> <s_user_duplicate_titles>
407827

> <s_m_subgroup_title>
dock_pv

> <s_m_subgroupid>
dock_pv1

> <b_m_subgroup_collapsed>
0

$$$$
336721
                    3D
 Schrodinger Suite 2021-1.
 58 60  0  0  1  0            999 V2000
   11.8339   21.1981   23.9393 C   0  0  0  0  0  0
   11.2291   19.7868   23.7149 C   0  0  0  0  0  0
   12.1683   18.9447   22.8115 C   0  0  0  0  0  0
   11.0656   19.1385   25.1064 C   0  0  0  0  0  0
    9.8327   19.8488   23.0867 C   0  0  0  0  0  0
    9.3019   18.6766   22.6509 N   0  0  0  0  0  0
    7.9639   18.6605   22.4271 C   0  0  0  0  0  0
    7.1666   19.7844   22.6845 C   0  0  0  0  0  0
    7.8094   20.9771   23.0840 C   0  0  0  0  0  0
    9.1558   21.0114   23.2165 N   0  0  0  0  0  0
    7.1587   22.2095   23.0844 N   0  0  0  0  0  0
    5.7158   22.3651   23.2623 C   0  0  0  0  0  0
    5.2970   23.6094   24.0920 C   0  0  0  0  0  0
    5.9393   24.8490   23.6447 N   0  0  0  0  0  0
    7.3921   24.6677   23.6222 C   0  0  0  0  0  0
    7.7922   23.4894   22.7145 C   0  0  0  0  0  0
    5.5687   26.0185   24.4586 C   0  0  0  0  0  0
    5.8520   25.9040   25.9871 C   0  0  0  0  0  0
    6.5041   27.1457   26.6319 C   0  0  0  0  0  0
    5.5320   28.6889   26.6833 S   0  0  0  0  0  0
    4.4020   28.3978   28.0537 C   0  0  0  0  0  0
    3.6558   29.3777   28.4250 N   0  0  0  0  0  0
    2.7865   29.2045   29.4685 C   0  0  0  0  0  0
    2.6308   28.0167   30.0922 C   0  0  0  0  0  0
    3.4392   26.8940   29.6859 C   0  0  0  0  0  0
    4.2952   27.1900   28.6840 N   0  0  0  0  0  0
    3.3926   25.7679   30.1639 O   0  0  0  0  0  0
    7.3763   17.3623   21.8788 C   0  0  0  0  0  0
    6.5931   17.6397   20.8380 F   0  0  0  0  0  0
    8.3093   16.4979   21.4663 F   0  0  0  0  0  0
    6.6465   16.7658   22.8210 F   0  0  0  0  0  0
   12.8647   21.1534   24.2837 H   0  0  0  0  0  0
   11.2872   21.7595   24.6993 H   0  0  0  0  0  0
   11.7925   21.8026   23.0374 H   0  0  0  0  0  0
   11.8162   17.9214   22.6836 H   0  0  0  0  0  0
   12.1977   19.3643   21.8084 H   0  0  0  0  0  0
   13.1850   18.8836   23.1927 H   0  0  0  0  0  0
   10.5933   18.1630   25.0459 H   0  0  0  0  0  0
   12.0112   19.0243   25.6268 H   0  0  0  0  0  0
   10.4225   19.7442   25.7462 H   0  0  0  0  0  0
    6.1110   19.7602   22.4847 H   0  0  0  0  0  0
    5.2256   22.3697   22.2886 H   0  0  0  0  0  0
    5.3916   21.4752   23.7959 H   0  0  0  0  0  0
    4.2180   23.7424   24.0054 H   0  0  0  0  0  0
    5.4999   23.4144   25.1451 H   0  0  0  0  0  0
    7.7928   24.5084   24.6217 H   0  0  0  0  0  0
    7.8641   25.5767   23.2376 H   0  0  0  0  0  0
    8.8765   23.4012   22.6832 H   0  0  0  0  0  0
    7.5153   23.7197   21.6863 H   0  0  0  0  0  0
    6.0507   26.9046   24.0402 H   0  0  0  0  0  0
    4.5009   26.1882   24.3059 H   0  0  0  0  0  0
    4.9049   25.6891   26.4817 H   0  0  0  0  0  0
    6.4641   25.0363   26.2264 H   0  0  0  0  0  0
    6.8281   26.9160   27.6475 H   0  0  0  0  0  0
    7.4273   27.3630   26.0930 H   0  0  0  0  0  0
    2.2091   30.0649   29.7740 H   0  0  0  0  0  0
    1.9536   27.8965   30.9224 H   0  0  0  0  0  0
    4.8664   26.4207   28.3869 H   0  0  0  0  0  0
  1  2  1  0  0  0
  1 32  1  0  0  0
  1 33  1  0  0  0
  1 34  1  0  0  0
  2  3  1  0  0  0
  2  4  1  0  0  0
  2  5  1  0  0  0
  3 35  1  0  0  0
  3 36  1  0  0  0
  3 37  1  0  0  0
  4 38  1  0  0  0
  4 39  1  0  0  0
  4 40  1  0  0  0
  5 10  1  0  0  0
  5  6  2  0  0  0
  6  7  1  0  0  0
  7  8  2  0  0  0
  7 28  1  0  0  0
  8  9  1  0  0  0
  8 41  1  0  0  0
  9 10  2  0  0  0
  9 11  1  0  0  0
 11 16  1  0  0  0
 11 12  1  0  0  0
 12 13  1  0  0  0
 12 42  1  0  0  0
 12 43  1  0  0  0
 13 14  1  0  0  0
 13 44  1  0  0  0
 13 45  1  0  0  0
 14 15  1  0  0  0
 14 17  1  0  0  0
 15 16  1  0  0  0
 15 46  1  0  0  0
 15 47  1  0  0  0
 16 48  1  0  0  0
 16 49  1  0  0  0
 17 18  1  0  0  0
 17 50  1  0  0  0
 17 51  1  0  0  0
 18 19  1  0  0  0
 18 52  1  0  0  0
 18 53  1  0  0  0
 19 54  1  0  0  0
 19 55  1  0  0  0
 19 20  1  0  0  0
 20 21  1  0  0  0
 21 26  1  0  0  0
 21 22  2  0  0  0
 22 23  1  0  0  0
 23 24  2  0  0  0
 23 56  1  0  0  0
 24 25  1  0  0  0
 24 57  1  0  0  0
 25 26  1  0  0  0
 25 27  2  0  0  0
 26 58  1  0  0  0
 28 29  1  0  0  0
 28 30  1  0  0  0
 28 31  1  0  0  0
M  END
> <s_m_entry_id>
8247

> <s_m_entry_name>
ligand_docking-pose.2

> <s_m_Source_Path>
/home/csk/Desktop/cluster/DUD-E-result/drd3

> <s_m_Source_File>
ligand_docking-pose.sdf

> <i_m_Source_File_Index>
2

> <i_lp_mmshare_version>
53161

> <i_f3d_flags>
0

> <r_lp_tautomer_probability>
0.660323467326753

> <s_lp_Force_Field>
OPLS_2005

> <r_lp_Energy>
32.067494

> <b_lp_Chiralities_Consistent>
1

> <s_lp_Variant>
336721-1

> <s_i_glide_gridfile>
glide-grid_3pbl

> <i_i_glide_lignum>
643

> <i_i_glide_rotatable_bonds>
8

> <r_i_docking_score>
-8.18921404370047

> <r_i_glide_ligand_efficiency>
-0.26416819495808

> <r_i_glide_ligand_efficiency_sa>
-0.829852855668567

> <r_i_glide_ligand_efficiency_ln>
-1.84691873612463

> <r_i_glide_gscore>
-8.18921404370047

> <r_i_glide_lipo>
-2.74020279739228

> <r_i_glide_hbond>
-0.32

> <r_i_glide_metal>
0

> <r_i_glide_rewards>
-2.47858994341727

> <r_i_glide_evdw>
-45.7572326660156

> <r_i_glide_ecoul>
-5.40959787368774

> <r_i_glide_erotb>
0.482147135928592

> <r_i_glide_esite>
-0.0332671244655712

> <r_i_glide_emodel>
-59.712256855096

> <r_i_glide_energy>
-51.1668305397034

> <r_i_glide_einternal>
17.9337520599365

> <i_i_glide_confnum>
94

> <i_i_glide_posenum>
171

> <r_i_glide_eff_state_penalty>
0

> <s_user_duplicate_titles>
336721

> <s_m_subgroup_title>
dock_pv

> <s_m_subgroupid>
dock_pv1

> <b_m_subgroup_collapsed>
0

$$$$
579961
                    3D
 Schrodinger Suite 2021-1.
 70 74  0  0  1  0            999 V2000
    0.9199   26.0844   25.2096 C   0  0  0  0  0  0
    2.1847   25.3447   24.7375 C   0  0  0  0  0  0
    3.4115   26.2562   24.4703 C   0  0  0  0  0  0
    4.3944   26.2572   25.5712 N   0  0  1  0  0  0
    5.6847   26.8712   25.2176 C   0  0  0  0  0  0
    6.4042   26.3027   23.9629 C   0  0  0  0  0  0
    6.4358   24.8378   23.7978 N   0  0  0  0  0  0
    7.0215   24.1377   24.9459 C   0  0  0  0  0  0
    7.0227   22.6003   24.7261 C   0  0  0  0  0  0
    7.6670   22.1383   23.4823 N   0  0  0  0  0  0
    7.3592   23.0244   22.3459 C   0  0  0  0  0  0
    7.2666   24.5359   22.6348 C   0  0  0  0  0  0
    8.6246   21.1194   23.4006 C   0  0  0  0  0  0
    9.8865   21.3631   23.9454 C   0  0  0  0  0  0
   10.9516   20.4890   23.7923 C   0  0  0  0  0  0
   10.7889   19.3088   23.0852 C   0  0  0  0  0  0
    9.5220   18.9559   22.5687 C   0  0  0  0  0  0
    8.4078   19.8417   22.7476 C   0  0  0  0  0  0
    7.1338   19.3865   22.2853 C   0  0  0  0  0  0
    6.9929   18.1699   21.6248 C   0  0  0  0  0  0
    8.0911   17.3493   21.4185 C   0  0  0  0  0  0
    9.3439   17.7292   21.8848 C   0  0  0  0  0  0
    3.8577   26.6953   26.8722 C   0  0  1  0  0  0
    4.7622   26.3877   28.0807 C   0  0  0  0  0  0
    3.9765   26.4701   29.4039 C   0  0  0  0  0  0
    2.9531   27.6086   29.4438 C   0  0  0  0  0  0
    2.2208   27.8230   30.6143 C   0  0  0  0  0  0
    1.2299   28.7962   30.6836 C   0  0  0  0  0  0
    0.9625   29.5877   29.5766 C   0  0  0  0  0  0
    1.6767   29.3874   28.3979 C   0  0  0  0  0  0
    2.6703   28.4039   28.3073 C   0  0  0  0  0  0
    3.4069   28.1697   26.9883 C   0  0  0  0  0  0
    0.0063   30.5628   29.6572 O   0  0  0  0  0  0
    0.1184   25.3753   25.4168 H   0  0  0  0  0  0
    1.0789   26.6624   26.1178 H   0  0  0  0  0  0
    0.5601   26.7687   24.4419 H   0  0  0  0  0  0
    1.9434   24.7291   23.8841 H   0  0  0  0  0  0
    2.4445   24.6018   25.4837 H   0  0  0  0  0  0
    3.0924   27.2789   24.2649 H   0  0  0  0  0  0
    3.8803   25.9025   23.5522 H   0  0  0  0  0  0
    5.5469   27.9440   25.0800 H   0  0  0  0  0  0
    6.3842   26.7787   26.0468 H   0  0  0  0  0  0
    5.9457   26.7499   23.0802 H   0  0  0  0  0  0
    7.4253   26.6897   23.9702 H   0  0  0  0  0  0
    8.0300   24.4956   25.1551 H   0  0  0  0  0  0
    6.4318   24.3527   25.8374 H   0  0  0  0  0  0
    5.9974   22.2278   24.7484 H   0  0  0  0  0  0
    7.5327   22.1624   25.5825 H   0  0  0  0  0  0
    6.4352   22.6776   21.8846 H   0  0  0  0  0  0
    8.1539   22.9620   21.6090 H   0  0  0  0  0  0
    6.8396   25.0256   21.7579 H   0  0  0  0  0  0
    8.2694   24.9497   22.7496 H   0  0  0  0  0  0
   10.0572   22.2611   24.5087 H   0  0  0  0  0  0
   11.9126   20.7400   24.2181 H   0  0  0  0  0  0
   11.6262   18.6385   22.9538 H   0  0  0  0  0  0
    6.2689   20.0173   22.4329 H   0  0  0  0  0  0
    6.0237   17.8618   21.2646 H   0  0  0  0  0  0
    7.9717   16.4093   20.8993 H   0  0  0  0  0  0
   10.1927   17.0789   21.7278 H   0  0  0  0  0  0
    2.9714   26.0899   27.0214 H   0  0  0  0  0  0
    5.6319   27.0464   28.0964 H   0  0  0  0  0  0
    5.1709   25.3816   27.9773 H   0  0  0  0  0  0
    4.6685   26.5600   30.2420 H   0  0  0  0  0  0
    3.4318   25.5349   29.5470 H   0  0  0  0  0  0
    2.4219   27.2241   31.4893 H   0  0  0  0  0  0
    0.6889   28.9456   31.6064 H   0  0  0  0  0  0
    1.4497   29.9999   27.5388 H   0  0  0  0  0  0
    2.8131   28.4779   26.1292 H   0  0  0  0  0  0
    4.2842   28.8171   26.9661 H   0  0  0  0  0  0
    0.2729   31.3686   29.1942 H   0  0  0  0  0  0
  1  2  1  0  0  0
  1 34  1  0  0  0
  1 35  1  0  0  0
  1 36  1  0  0  0
  2  3  1  0  0  0
  2 37  1  0  0  0
  2 38  1  0  0  0
  3  4  1  0  0  0
  3 39  1  0  0  0
  3 40  1  0  0  0
  4  5  1  0  0  0
  4 23  1  0  0  0
  5  6  1  0  0  0
  5 41  1  0  0  0
  5 42  1  0  0  0
  6  7  1  0  0  0
  6 43  1  0  0  0
  6 44  1  0  0  0
  7 12  1  0  0  0
  7  8  1  0  0  0
  8  9  1  0  0  0
  8 45  1  0  0  0
  8 46  1  0  0  0
  9 10  1  0  0  0
  9 47  1  0  0  0
  9 48  1  0  0  0
 10 11  1  0  0  0
 10 13  1  0  0  0
 11 12  1  0  0  0
 11 49  1  0  0  0
 11 50  1  0  0  0
 12 51  1  0  0  0
 12 52  1  0  0  0
 13 18  1  0  0  0
 13 14  2  0  0  0
 14 15  1  0  0  0
 14 53  1  0  0  0
 15 16  2  0  0  0
 15 54  1  0  0  0
 16 17  1  0  0  0
 16 55  1  0  0  0
 17 22  2  0  0  0
 17 18  1  0  0  0
 18 19  2  0  0  0
 19 20  1  0  0  0
 19 56  1  0  0  0
 20 21  2  0  0  0
 20 57  1  0  0  0
 21 22  1  0  0  0
 21 58  1  0  0  0
 22 59  1  0  0  0
 23 32  1  0  0  0
 23 24  1  0  0  0
 23 60  1  0  0  0
 24 25  1  0  0  0
 24 61  1  0  0  0
 24 62  1  0  0  0
 25 26  1  0  0  0
 25 63  1  0  0  0
 25 64  1  0  0  0
 26 31  2  0  0  0
 26 27  1  0  0  0
 27 28  2  0  0  0
 27 65  1  0  0  0
 28 29  1  0  0  0
 28 66  1  0  0  0
 29 30  2  0  0  0
 29 33  1  0  0  0
 30 31  1  0  0  0
 30 67  1  0  0  0
 31 32  1  0  0  0
 32 68  1  0  0  0
 32 69  1  0  0  0
 33 70  1  0  0  0
M  END
> <s_m_entry_id>
8248

> <s_m_entry_name>
ligand_docking-pose.3

> <s_m_Source_Path>
/home/csk/Desktop/cluster/DUD-E-result/drd3

> <s_m_Source_File>
ligand_docking-pose.sdf

> <i_m_Source_File_Index>
3

> <i_lp_mmshare_version>
53161

> <i_f3d_flags>
0

> <r_lp_tautomer_probability>
0.999999999997365

> <s_lp_Force_Field>
OPLS_2005

> <r_lp_Energy>
81.61254

> <b_lp_Chiralities_Consistent>
1

> <s_lp_Variant>
579961-2

> <s_i_glide_gridfile>
glide-grid_3pbl

> <i_i_glide_lignum>
148

> <i_i_glide_rotatable_bonds>
8

> <r_i_docking_score>
-8.13713890267824

> <r_i_glide_ligand_efficiency>
-0.246579966747825

> <r_i_glide_ligand_efficiency_sa>
-0.790913707511068

> <r_i_glide_ligand_efficiency_ln>
-1.80965756010525

> <r_i_glide_gscore>
-8.13713890267824

> <r_i_glide_lipo>
-3.39550416951988

> <r_i_glide_hbond>
-0.32

> <r_i_glide_metal>
0

> <r_i_glide_rewards>
-1.04271801515151

> <r_i_glide_evdw>
-41.0658340454102

> <r_i_glide_ecoul>
-12.5416021347046

> <r_i_glide_erotb>
0.609543109595728

> <r_i_glide_esite>
-0.0539278051263835

> <r_i_glide_emodel>
-64.5508892465683

> <r_i_glide_energy>
-53.6074361801147

> <r_i_glide_einternal>
13.6832389831543

> <i_i_glide_confnum>
107

> <i_i_glide_posenum>
286

> <r_i_glide_eff_state_penalty>
0

> <s_user_duplicate_titles>
579961

> <s_m_subgroup_title>
dock_pv

> <s_m_subgroupid>
dock_pv1

> <b_m_subgroup_collapsed>
0

$$$$
141007
                    3D
 Schrodinger Suite 2021-1.
 40 42  0  0  1  0            999 V2000
    5.3995   28.0466   26.9589 C   0  0  0  0  0  0
    6.5917   27.3291   27.0041 C   0  0  0  0  0  0
    6.9851   26.5697   25.9049 C   0  0  0  0  0  0
    6.1665   26.5016   24.7688 C   0  0  0  0  0  0
    4.9763   27.2344   24.7308 C   0  0  0  0  0  0
    4.5920   28.0045   25.8254 C   0  0  0  0  0  0
    6.5239   25.6322   23.5592 C   0  0  0  0  0  0
    7.3919   24.4851   23.8147 N   0  0  2  0  0  0
    6.9129   23.5228   24.8036 C   0  0  0  0  0  0
    8.0576   22.5628   25.1563 C   0  0  0  0  0  0
    8.2459   21.7154   24.0252 O   0  0  0  0  0  0
    9.4230   21.0178   23.8658 C   0  0  0  0  0  0
   10.6615   21.3244   24.4365 C   0  0  0  0  0  0
   11.7908   20.5651   24.1483 C   0  0  0  0  0  0
   11.7608   19.4649   23.2865 C   0  0  0  0  0  0
   10.5177   19.1471   22.7379 C   0  0  0  0  0  0
    9.3515   19.9025   23.0187 C   0  0  0  0  0  0
    8.2561   19.3630   22.3994 N   0  0  0  0  0  0
    8.7090   18.3098   21.7733 C   0  0  0  0  0  0
   10.0731   18.1640   21.8841 N   0  0  0  0  0  0
    7.8363   17.3757   20.9687 C   0  0  0  0  0  0
    7.7918   17.7629   19.6947 F   0  0  0  0  0  0
    8.2794   16.1201   21.0385 F   0  0  0  0  0  0
    6.5891   17.3618   21.4284 F   0  0  0  0  0  0
   10.5923   17.4424   21.3973 H   0  0  0  0  0  0
    5.0981   28.6407   27.8098 H   0  0  0  0  0  0
    7.2166   27.3627   27.8847 H   0  0  0  0  0  0
    7.9189   26.0259   25.9467 H   0  0  0  0  0  0
    4.3406   27.2029   23.8570 H   0  0  0  0  0  0
    3.6679   28.5619   25.7972 H   0  0  0  0  0  0
    5.6314   25.3375   23.0050 H   0  0  0  0  0  0
    7.0711   26.2783   22.8709 H   0  0  0  0  0  0
    8.4010   24.6663   23.8869 H   0  0  0  0  0  0
    6.5763   24.0142   25.7155 H   0  0  0  0  0  0
    6.0647   22.9659   24.4025 H   0  0  0  0  0  0
    8.9371   23.1084   25.4840 H   0  0  0  0  0  0
    7.7922   21.9609   26.0216 H   0  0  0  0  0  0
   10.7809   22.1723   25.0910 H   0  0  0  0  0  0
   12.7124   20.8668   24.6107 H   0  0  0  0  0  0
   12.6507   18.8931   23.0698 H   0  0  0  0  0  0
  1  6  1  0  0  0
  1  2  2  0  0  0
  1 26  1  0  0  0
  2  3  1  0  0  0
  2 27  1  0  0  0
  3  4  2  0  0  0
  3 28  1  0  0  0
  4  5  1  0  0  0
  4  7  1  0  0  0
  5  6  2  0  0  0
  5 29  1  0  0  0
  6 30  1  0  0  0
  7  8  1  0  0  0
  7 31  1  0  0  0
  7 32  1  0  0  0
  8  9  1  0  0  0
  8 33  1  0  0  0
  9 10  1  0  0  0
  9 34  1  0  0  0
  9 35  1  0  0  0
 10 11  1  0  0  0
 10 36  1  0  0  0
 10 37  1  0  0  0
 11 12  1  0  0  0
 12 17  1  0  0  0
 12 13  2  0  0  0
 13 14  1  0  0  0
 13 38  1  0  0  0
 14 15  2  0  0  0
 14 39  1  0  0  0
 15 16  1  0  0  0
 15 40  1  0  0  0
 16 20  1  0  0  0
 16 17  2  0  0  0
 17 18  1  0  0  0
 18 19  2  0  0  0
 19 20  1  0  0  0
 19 21  1  0  0  0
 20 25  1  0  0  0
 21 22  1  0  0  0
 21 23  1  0  0  0
 21 24  1  0  0  0
M  END
> <s_m_entry_id>
8249

> <s_m_entry_name>
ligand_docking-pose.4

> <s_m_Source_Path>
/home/csk/Desktop/cluster/DUD-E-result/drd3

> <s_m_Source_File>
ligand_docking-pose.sdf

> <i_m_Source_File_Index>
4

> <i_lp_mmshare_version>
53161

> <i_f3d_flags>
0

> <r_lp_tautomer_probability>
1

> <s_lp_Force_Field>
OPLS_2005

> <r_lp_Energy>
22.502499

> <b_lp_Chiralities_Consistent>
1

> <s_lp_Variant>
141007-1

> <s_i_glide_gridfile>
glide-grid_3pbl

> <i_i_glide_lignum>
372

> <i_i_glide_rotatable_bonds>
7

> <r_i_docking_score>
-7.81984536445855

> <r_i_glide_ligand_efficiency>
-0.325826890185773

> <r_i_glide_ligand_efficiency_sa>
-0.939847383734432

> <r_i_glide_ligand_efficiency_ln>
-1.87164782503707

> <r_i_glide_gscore>
-7.81984536445855

> <r_i_glide_lipo>
-2.42996393825077

> <r_i_glide_hbond>
-0.358053634099409

> <r_i_glide_metal>
0

> <r_i_glide_rewards>
-2.97377039896049

> <r_i_glide_evdw>
-33.8376770019531

> <r_i_glide_ecoul>
-7.99666690826416

> <r_i_glide_erotb>
0.839188732877355

> <r_i_glide_esite>
-0.00586223968795535

> <r_i_glide_emodel>
-59.5769141721246

> <r_i_glide_energy>
-41.8343439102173

> <r_i_glide_einternal>
5.22695207595825

> <i_i_glide_confnum>
48

> <i_i_glide_posenum>
45

> <r_i_glide_eff_state_penalty>
0

> <s_user_duplicate_titles>
141007

> <s_m_subgroup_title>
dock_pv

> <s_m_subgroupid>
dock_pv1

> <b_m_subgroup_collapsed>
0

$$$$
344075
                    3D
 Schrodinger Suite 2021-1.
 62 64  0  0  1  0            999 V2000
    8.7176   16.4674   21.7034 C   0  0  0  0  0  0
    8.0056   17.8111   21.4421 C   0  0  0  0  0  0
    8.2389   18.1788   19.9710 C   0  0  0  0  0  0
    6.5058   17.5573   21.6495 C   0  0  0  0  0  0
    8.5307   18.9541   22.3442 C   0  0  0  0  0  0
    9.8325   18.8832   22.7157 N   0  0  0  0  0  0
   10.3088   19.9143   23.4546 C   0  0  0  0  0  0
    9.5363   21.0302   23.7761 C   0  0  0  0  0  0
    8.1920   21.0315   23.3974 C   0  0  0  0  0  0
    7.6853   19.9741   22.6840 N   0  0  0  0  0  0
    7.3845   22.1630   23.5806 N   0  0  0  0  0  0
    5.9969   22.2823   23.0997 C   0  0  0  0  0  0
    5.5568   23.7395   22.8038 C   0  0  0  0  0  0
    5.7451   24.6203   23.9619 N   0  0  0  0  0  0
    7.1653   24.5631   24.3265 C   0  0  0  0  0  0
    7.5816   23.1207   24.6862 C   0  0  0  0  0  0
    5.3207   25.9845   23.6156 C   0  0  0  0  0  0
    5.4382   27.0186   24.7610 C   0  0  0  0  0  0
    4.5401   26.7595   25.9881 C   0  0  0  0  0  0
    4.7781   27.8060   27.0988 C   0  0  0  0  0  0
    3.7160   27.8697   28.1168 N   0  0  0  0  0  0
    2.6860   28.7832   28.0293 C   0  0  0  0  0  0
    1.7115   28.9367   28.9477 C   0  0  0  0  0  0
    1.7540   28.0803   30.1196 C   0  0  0  0  0  0
    2.7647   27.1879   30.2131 C   0  0  0  0  0  0
    3.8100   27.0214   29.2060 C   0  0  0  0  0  0
    4.6792   26.1630   29.3697 O   0  0  0  0  0  0
    0.8062   28.1641   31.0840 O   0  0  0  0  0  0
   11.7125   19.7605   23.9894 C   0  0  0  0  0  0
   11.6224   18.9630   25.0504 F   0  0  0  0  0  0
   12.5320   19.2180   23.0841 F   0  0  0  0  0  0
   12.1920   20.9420   24.3741 F   0  0  0  0  0  0
    8.3249   15.6633   21.0788 H   0  0  0  0  0  0
    8.5919   16.1631   22.7418 H   0  0  0  0  0  0
    9.7845   16.5385   21.4840 H   0  0  0  0  0  0
    7.7919   19.1361   19.7666 H   0  0  0  0  0  0
    9.2988   18.2759   19.7388 H   0  0  0  0  0  0
    7.7920   17.4580   19.2853 H   0  0  0  0  0  0
    5.9043   18.4124   21.3387 H   0  0  0  0  0  0
    6.1918   16.7017   21.0552 H   0  0  0  0  0  0
    6.2743   17.3388   22.6933 H   0  0  0  0  0  0
    9.9768   21.8411   24.3299 H   0  0  0  0  0  0
    5.8314   21.6586   22.2254 H   0  0  0  0  0  0
    5.3571   21.8788   23.8836 H   0  0  0  0  0  0
    6.1047   24.1195   21.9388 H   0  0  0  0  0  0
    4.5002   23.7349   22.5338 H   0  0  0  0  0  0
    7.3611   25.1856   25.1986 H   0  0  0  0  0  0
    7.7918   24.9478   23.5193 H   0  0  0  0  0  0
    6.9682   22.7860   25.5246 H   0  0  0  0  0  0
    8.5920   23.1164   25.0839 H   0  0  0  0  0  0
    5.8705   26.3457   22.7437 H   0  0  0  0  0  0
    4.2703   25.9392   23.3229 H   0  0  0  0  0  0
    6.4788   27.1366   25.0620 H   0  0  0  0  0  0
    5.1673   27.9903   24.3458 H   0  0  0  0  0  0
    3.4953   26.7749   25.6734 H   0  0  0  0  0  0
    4.7301   25.7597   26.3833 H   0  0  0  0  0  0
    5.7551   27.6353   27.5561 H   0  0  0  0  0  0
    4.8631   28.7951   26.6461 H   0  0  0  0  0  0
    2.7265   29.3629   27.1186 H   0  0  0  0  0  0
    0.9277   29.6710   28.8288 H   0  0  0  0  0  0
    2.8302   26.5630   31.0841 H   0  0  0  0  0  0
    0.9920   27.5135   31.7749 H   0  0  0  0  0  0
  1  2  1  0  0  0
  1 33  1  0  0  0
  1 34  1  0  0  0
  1 35  1  0  0  0
  2  3  1  0  0  0
  2  4  1  0  0  0
  2  5  1  0  0  0
  3 36  1  0  0  0
  3 37  1  0  0  0
  3 38  1  0  0  0
  4 39  1  0  0  0
  4 40  1  0  0  0
  4 41  1  0  0  0
  5 10  1  0  0  0
  5  6  2  0  0  0
  6  7  1  0  0  0
  7  8  2  0  0  0
  7 29  1  0  0  0
  8  9  1  0  0  0
  8 42  1  0  0  0
  9 10  2  0  0  0
  9 11  1  0  0  0
 11 16  1  0  0  0
 11 12  1  0  0  0
 12 13  1  0  0  0
 12 43  1  0  0  0
 12 44  1  0  0  0
 13 14  1  0  0  0
 13 45  1  0  0  0
 13 46  1  0  0  0
 14 15  1  0  0  0
 14 17  1  0  0  0
 15 16  1  0  0  0
 15 47  1  0  0  0
 15 48  1  0  0  0
 16 49  1  0  0  0
 16 50  1  0  0  0
 17 18  1  0  0  0
 17 51  1  0  0  0
 17 52  1  0  0  0
 18 19  1  0  0  0
 18 53  1  0  0  0
 18 54  1  0  0  0
 19 20  1  0  0  0
 19 55  1  0  0  0
 19 56  1  0  0  0
 20 21  1  0  0  0
 20 57  1  0  0  0
 20 58  1  0  0  0
 21 26  1  0  0  0
 21 22  1  0  0  0
 22 23  2  0  0  0
 22 59  1  0  0  0
 23 24  1  0  0  0
 23 60  1  0  0  0
 24 25  2  0  0  0
 24 28  1  0  0  0
 25 26  1  0  0  0
 25 61  1  0  0  0
 26 27  2  0  0  0
 28 62  1  0  0  0
 29 30  1  0  0  0
 29 31  1  0  0  0
 29 32  1  0  0  0
M  END
> <s_m_entry_id>
8250

> <s_m_entry_name>
ligand_docking-pose.5

> <s_m_Source_Path>
/home/csk/Desktop/cluster/DUD-E-result/drd3

> <s_m_Source_File>
ligand_docking-pose.sdf

> <i_m_Source_File_Index>
5

> <i_lp_mmshare_version>
53161

> <i_f3d_flags>
0

> <r_lp_tautomer_probability>
0.999984367117196

> <s_lp_Force_Field>
OPLS_2005

> <r_lp_Energy>
42.389552

> <b_lp_Chiralities_Consistent>
1

> <s_lp_Variant>
344075-1

> <s_i_glide_gridfile>
glide-grid_3pbl

> <i_i_glide_lignum>
364

> <i_i_glide_rotatable_bonds>
9

> <r_i_docking_score>
-7.77800000117644

> <r_i_glide_ligand_efficiency>
-0.243062500036764

> <r_i_glide_ligand_efficiency_sa>
-0.771675335613285

> <r_i_glide_ligand_efficiency_ln>
-1.74170622053582

> <r_i_glide_gscore>
-7.77800000117644

> <r_i_glide_lipo>
-2.51403565897694

> <r_i_glide_hbond>
-0.608

> <r_i_glide_metal>
0

> <r_i_glide_rewards>
-2.13603305723221

> <r_i_glide_evdw>
-38.8365249633789

> <r_i_glide_ecoul>
-7.46273946762085

> <r_i_glide_erotb>
0.58562618355728

> <r_i_glide_esite>
-0.0443203002124978

> <r_i_glide_emodel>
-60.3812978353441

> <r_i_glide_energy>
-46.2992644309998

> <r_i_glide_einternal>
5.55304336547852

> <i_i_glide_confnum>
14

> <i_i_glide_posenum>
112

> <r_i_glide_eff_state_penalty>
0

> <s_user_duplicate_titles>
344075

> <s_m_subgroup_title>
dock_pv

> <s_m_subgroupid>
dock_pv1

> <b_m_subgroup_collapsed>
0

$$$$
12890
                    3D
 Schrodinger Suite 2021-1.
 62 66  0  0  1  0            999 V2000
    6.7337   15.9449   21.9894 C   0  0  0  0  0  0
    6.4832   16.9630   21.0845 C   0  0  0  0  0  0
    7.0274   18.2265   21.2329 C   0  0  0  0  0  0
    7.9201   18.4435   22.2723 C   0  0  0  0  0  0
    8.2558   17.3632   23.0985 C   0  0  0  0  0  0
    7.6000   16.1547   23.0261 C   0  0  0  0  0  0
    8.6785   19.7772   22.3612 C   0  0  0  0  0  0
   10.1413   19.4922   22.6743 C   0  0  0  0  0  0
   10.7792   18.5888   21.8136 C   0  0  0  0  0  0
   12.1006   18.2372   21.9858 C   0  0  0  0  0  0
   12.7879   18.8202   23.0272 C   0  0  0  0  0  0
   12.1666   19.7206   23.8960 C   0  0  0  0  0  0
   10.8292   20.0309   23.7508 C   0  0  0  0  0  0
    7.9879   20.8920   23.0846 N   0  0  0  0  0  0
    8.6130   22.2276   22.9004 C   0  0  0  0  0  0
    7.7918   23.4727   23.3742 C   0  0  0  0  0  0
    6.3548   23.4086   23.0823 N   0  0  0  0  0  0
    5.9104   22.1710   23.7054 C   0  0  0  0  0  0
    6.5165   20.9716   22.9224 C   0  0  0  0  0  0
    5.6100   24.5267   23.6785 C   0  0  0  0  0  0
    5.9826   25.9202   23.1204 C   0  0  0  0  0  0
    4.9927   27.0596   23.4898 C   0  0  0  0  0  0
    4.5372   27.0759   24.8868 N   0  0  0  0  0  0
    5.2793   26.8902   26.0468 C   0  0  0  0  0  0
    6.6305   26.6264   26.3135 C   0  0  0  0  0  0
    6.9905   26.4641   27.6506 C   0  0  0  0  0  0
    6.0633   26.5638   28.6861 C   0  0  0  0  0  0
    4.7222   26.8477   28.4296 C   0  0  0  0  0  0
    4.3275   27.0184   27.0961 C   0  0  0  0  0  0
    3.0869   27.3231   26.6123 N   0  0  0  0  0  0
    3.2623   27.3946   25.3233 C   0  0  0  0  0  0
    2.3032   27.7619   24.4152 O   0  0  0  0  0  0
    6.2577   14.9814   21.8856 H   0  0  0  0  0  0
    5.7936   16.7379   20.2940 H   0  0  0  0  0  0
    6.7942   19.0098   20.5311 H   0  0  0  0  0  0
    9.0147   17.4394   23.8629 H   0  0  0  0  0  0
    7.7897   15.3657   23.7320 H   0  0  0  0  0  0
    8.8699   20.1084   21.3481 H   0  0  0  0  0  0
   10.2262   18.1629   20.9933 H   0  0  0  0  0  0
   12.5881   17.5399   21.3214 H   0  0  0  0  0  0
   13.8222   18.5529   23.1608 H   0  0  0  0  0  0
   12.6548   20.1737   24.7381 H   0  0  0  0  0  0
   10.3522   20.6733   24.4747 H   0  0  0  0  0  0
    9.5366   22.2571   23.4680 H   0  0  0  0  0  0
    8.9369   22.3772   21.8834 H   0  0  0  0  0  0
    8.1931   24.3547   22.8786 H   0  0  0  0  0  0
    7.9489   23.6258   24.4444 H   0  0  0  0  0  0
    6.2075   22.1638   24.7563 H   0  0  0  0  0  0
    4.8294   22.1634   23.7186 H   0  0  0  0  0  0
    6.0714   20.0445   23.2838 H   0  0  0  0  0  0
    6.1921   21.0413   21.8841 H   0  0  0  0  0  0
    5.7554   24.5171   24.7607 H   0  0  0  0  0  0
    4.5396   24.3751   23.5360 H   0  0  0  0  0  0
    6.1264   25.8680   22.0399 H   0  0  0  0  0  0
    6.9605   26.2022   23.5050 H   0  0  0  0  0  0
    4.1170   26.9574   22.8576 H   0  0  0  0  0  0
    5.3913   28.0463   23.2799 H   0  0  0  0  0  0
    7.3814   26.5405   25.5445 H   0  0  0  0  0  0
    8.0244   26.2576   27.8841 H   0  0  0  0  0  0
    6.3970   26.4436   29.7072 H   0  0  0  0  0  0
    4.0091   26.9491   29.2337 H   0  0  0  0  0  0
    2.6931   28.0373   23.5805 H   0  0  0  0  0  0
  1  6  1  0  0  0
  1  2  2  0  0  0
  1 33  1  0  0  0
  2  3  1  0  0  0
  2 34  1  0  0  0
  3  4  2  0  0  0
  3 35  1  0  0  0
  4  5  1  0  0  0
  4  7  1  0  0  0
  5  6  2  0  0  0
  5 36  1  0  0  0
  6 37  1  0  0  0
  7  8  1  0  0  0
  7 14  1  0  0  0
  7 38  1  0  0  0
  8 13  1  0  0  0
  8  9  2  0  0  0
  9 10  1  0  0  0
  9 39  1  0  0  0
 10 11  2  0  0  0
 10 40  1  0  0  0
 11 12  1  0  0  0
 11 41  1  0  0  0
 12 13  2  0  0  0
 12 42  1  0  0  0
 13 43  1  0  0  0
 14 19  1  0  0  0
 14 15  1  0  0  0
 15 16  1  0  0  0
 15 44  1  0  0  0
 15 45  1  0  0  0
 16 17  1  0  0  0
 16 46  1  0  0  0
 16 47  1  0  0  0
 17 18  1  0  0  0
 17 20  1  0  0  0
 18 19  1  0  0  0
 18 48  1  0  0  0
 18 49  1  0  0  0
 19 50  1  0  0  0
 19 51  1  0  0  0
 20 21  1  0  0  0
 20 52  1  0  0  0
 20 53  1  0  0  0
 21 22  1  0  0  0
 21 54  1  0  0  0
 21 55  1  0  0  0
 22 23  1  0  0  0
 22 56  1  0  0  0
 22 57  1  0  0  0
 23 31  1  0  0  0
 23 24  1  0  0  0
 24 29  2  0  0  0
 24 25  1  0  0  0
 25 26  2  0  0  0
 25 58  1  0  0  0
 26 27  1  0  0  0
 26 59  1  0  0  0
 27 28  2  0  0  0
 27 60  1  0  0  0
 28 29  1  0  0  0
 28 61  1  0  0  0
 29 30  1  0  0  0
 30 31  2  0  0  0
 31 32  1  0  0  0
 32 62  1  0  0  0
M  END
> <s_m_entry_id>
8251

> <s_m_entry_name>
ligand_docking-pose.6

> <s_m_Source_Path>
/home/csk/Desktop/cluster/DUD-E-result/drd3

> <s_m_Source_File>
ligand_docking-pose.sdf

> <i_m_Source_File_Index>
6

> <i_lp_mmshare_version>
53161

> <i_f3d_flags>
0

> <r_lp_tautomer_probability>
1

> <s_lp_Force_Field>
OPLS_2005

> <r_lp_Energy>
49.499408

> <b_lp_Chiralities_Consistent>
1

> <s_lp_Variant>
12890-1

> <s_i_glide_gridfile>
glide-grid_3pbl

> <i_i_glide_lignum>
1883

> <i_i_glide_rotatable_bonds>
8

> <r_i_docking_score>
-7.76101227709978

> <r_i_glide_ligand_efficiency>
-0.242531633659368

> <r_i_glide_ligand_efficiency_sa>
-0.769989939923367

> <r_i_glide_ligand_efficiency_ln>
-1.73790220604719

> <r_i_glide_gscore>
-7.76101227709978

> <r_i_glide_lipo>
-4.56010776648091

> <r_i_glide_hbond>
-0.32

> <r_i_glide_metal>
0

> <r_i_glide_rewards>
-1.85582817370011

> <r_i_glide_evdw>
-17.0229892730713

> <r_i_glide_ecoul>
-6.24997472763062

> <r_i_glide_erotb>
0.763569335879397

> <r_i_glide_esite>
0

> <r_i_glide_emodel>
-34.8447914618908

> <r_i_glide_energy>
-23.2729640007019

> <r_i_glide_einternal>
9.82383346557617

> <i_i_glide_confnum>
136

> <i_i_glide_posenum>
83

> <r_i_glide_eff_state_penalty>
0

> <s_user_duplicate_titles>
12890

> <s_m_subgroup_title>
dock_pv

> <s_m_subgroupid>
dock_pv1

> <b_m_subgroup_collapsed>
0

$$$$
337352
                    3D
 Schrodinger Suite 2021-1.
 63 65  0  0  1  0            999 V2000
    1.4470   28.2218   30.8456 C   0  0  0  0  0  0
    2.6121   28.2489   29.8820 C   0  0  0  0  0  0
    2.7301   29.2031   28.8115 C   0  0  0  0  0  0
    3.7969   29.0927   27.9980 C   0  0  0  0  0  0
    4.7749   28.1410   28.1447 N   0  0  0  0  0  0
    4.7013   27.2955   29.2484 C   0  0  0  0  0  0
    5.6628   26.5630   29.4842 O   0  0  0  0  0  0
    3.5192   27.3379   30.0308 N   0  0  0  0  0  0
    5.9624   28.1011   27.2660 C   0  0  0  0  0  0
    6.0597   26.8711   26.3452 C   0  0  0  0  0  0
    4.9795   26.7737   25.2473 C   0  0  0  0  0  0
    4.5965   25.3446   24.7907 C   0  0  0  0  0  0
    5.6146   24.5961   24.0325 N   0  0  0  0  0  0
    4.9726   23.3967   23.4877 C   0  0  0  0  0  0
    5.9318   22.5191   22.6749 C   0  0  0  0  0  0
    7.1500   22.1226   23.3895 N   0  0  0  0  0  0
    7.7362   23.2833   24.0761 C   0  0  0  0  0  0
    6.7202   24.1225   24.8763 C   0  0  0  0  0  0
    7.8672   20.9637   23.0840 C   0  0  0  0  0  0
    7.2482   19.7630   22.6840 C   0  0  0  0  0  0
    8.0564   18.6423   22.4486 C   0  0  0  0  0  0
    9.3914   18.6717   22.6840 N   0  0  0  0  0  0
    9.8932   19.8303   23.1886 C   0  0  0  0  0  0
    9.1819   20.9629   23.4102 N   0  0  0  0  0  0
   11.3212   19.7974   23.7395 C   0  0  0  0  0  0
   11.9110   21.2253   23.9023 C   0  0  0  0  0  0
   12.2403   18.9723   22.7961 C   0  0  0  0  0  0
   11.2287   19.1591   25.1402 C   0  0  0  0  0  0
    7.4765   17.3151   21.9655 C   0  0  0  0  0  0
    8.4056   16.4854   21.4838 F   0  0  0  0  0  0
    6.8576   16.7081   22.9783 F   0  0  0  0  0  0
    6.5920   17.5409   20.9983 F   0  0  0  0  0  0
    0.8385   29.1219   30.7604 H   0  0  0  0  0  0
    0.8047   27.3624   30.6578 H   0  0  0  0  0  0
    1.7920   28.1631   31.8789 H   0  0  0  0  0  0
    2.0023   29.9872   28.6608 H   0  0  0  0  0  0
    3.9925   29.7624   27.1752 H   0  0  0  0  0  0
    6.8597   28.1284   27.8823 H   0  0  0  0  0  0
    5.9863   29.0035   26.6538 H   0  0  0  0  0  0
    6.0733   25.9665   26.9547 H   0  0  0  0  0  0
    7.0345   26.9250   25.8600 H   0  0  0  0  0  0
    5.2563   27.3813   24.3844 H   0  0  0  0  0  0
    4.0634   27.2251   25.6290 H   0  0  0  0  0  0
    3.6925   25.4373   24.1856 H   0  0  0  0  0  0
    4.3070   24.7600   25.6667 H   0  0  0  0  0  0
    4.1249   23.6756   22.8618 H   0  0  0  0  0  0
    4.5920   22.7757   24.2840 H   0  0  0  0  0  0
    6.2607   23.1166   21.8353 H   0  0  0  0  0  0
    5.3927   21.6609   22.2840 H   0  0  0  0  0  0
    8.5296   22.9631   24.7536 H   0  0  0  0  0  0
    8.1920   23.9207   23.3174 H   0  0  0  0  0  0
    6.3512   23.5561   25.7342 H   0  0  0  0  0  0
    7.2874   24.9573   25.2709 H   0  0  0  0  0  0
    6.1920   19.7079   22.5142 H   0  0  0  0  0  0
   12.9673   21.2141   24.1565 H   0  0  0  0  0  0
   11.4115   21.7869   24.6941 H   0  0  0  0  0  0
   11.7920   21.8149   22.9959 H   0  0  0  0  0  0
   11.9207   17.9366   22.6840 H   0  0  0  0  0  0
   12.2235   19.3827   21.7908 H   0  0  0  0  0  0
   13.2770   18.9574   23.1215 H   0  0  0  0  0  0
   10.7943   18.1630   25.1090 H   0  0  0  0  0  0
   12.1918   19.0936   25.6275 H   0  0  0  0  0  0
   10.5896   19.7486   25.7981 H   0  0  0  0  0  0
  1  2  1  0  0  0
  1 33  1  0  0  0
  1 34  1  0  0  0
  1 35  1  0  0  0
  2  8  2  0  0  0
  2  3  1  0  0  0
  3  4  2  0  0  0
  3 36  1  0  0  0
  4  5  1  0  0  0
  4 37  1  0  0  0
  5  6  1  0  0  0
  5  9  1  0  0  0
  6  7  2  0  0  0
  6  8  1  0  0  0
  9 10  1  0  0  0
  9 38  1  0  0  0
  9 39  1  0  0  0
 10 11  1  0  0  0
 10 40  1  0  0  0
 10 41  1  0  0  0
 11 12  1  0  0  0
 11 42  1  0  0  0
 11 43  1  0  0  0
 12 13  1  0  0  0
 12 44  1  0  0  0
 12 45  1  0  0  0
 13 18  1  0  0  0
 13 14  1  0  0  0
 14 15  1  0  0  0
 14 46  1  0  0  0
 14 47  1  0  0  0
 15 16  1  0  0  0
 15 48  1  0  0  0
 15 49  1  0  0  0
 16 17  1  0  0  0
 16 19  1  0  0  0
 17 18  1  0  0  0
 17 50  1  0  0  0
 17 51  1  0  0  0
 18 52  1  0  0  0
 18 53  1  0  0  0
 19 24  1  0  0  0
 19 20  2  0  0  0
 20 21  1  0  0  0
 20 54  1  0  0  0
 21 22  2  0  0  0
 21 29  1  0  0  0
 22 23  1  0  0  0
 23 24  2  0  0  0
 23 25  1  0  0  0
 25 26  1  0  0  0
 25 27  1  0  0  0
 25 28  1  0  0  0
 26 55  1  0  0  0
 26 56  1  0  0  0
 26 57  1  0  0  0
 27 58  1  0  0  0
 27 59  1  0  0  0
 27 60  1  0  0  0
 28 61  1  0  0  0
 28 62  1  0  0  0
 28 63  1  0  0  0
 29 30  1  0  0  0
 29 31  1  0  0  0
 29 32  1  0  0  0
M  END
> <s_m_entry_id>
8252

> <s_m_entry_name>
ligand_docking-pose.7

> <s_m_Source_Path>
/home/csk/Desktop/cluster/DUD-E-result/drd3

> <s_m_Source_File>
ligand_docking-pose.sdf

> <i_m_Source_File_Index>
7

> <i_lp_mmshare_version>
53161

> <i_f3d_flags>
0

> <r_lp_tautomer_probability>
1

> <s_lp_Force_Field>
OPLS_2005

> <r_lp_Energy>
30.781428

> <b_lp_Chiralities_Consistent>
1

> <s_lp_Variant>
337352-1

> <s_i_glide_gridfile>
glide-grid_3pbl

> <i_i_glide_lignum>
789

> <i_i_glide_rotatable_bonds>
8

> <r_i_docking_score>
-7.67186860782087

> <r_i_glide_ligand_efficiency>
-0.239745893994402

> <r_i_glide_ligand_efficiency_sa>
-0.761145767784231

> <r_i_glide_ligand_efficiency_ln>
-1.71794050853099

> <r_i_glide_gscore>
-7.67186860782087

> <r_i_glide_lipo>
-3.00158652221912

> <r_i_glide_hbond>
-0.102456796166248

> <r_i_glide_metal>
0

> <r_i_glide_rewards>
-2.59603365363239

> <r_i_glide_evdw>
-40.7985000610352

> <r_i_glide_ecoul>
-3.25541949272156

> <r_i_glide_erotb>
0.587946659098396

> <r_i_glide_esite>
-0.0315003679415191

> <r_i_glide_emodel>
-55.1848648581592

> <r_i_glide_energy>
-44.0539195537567

> <r_i_glide_einternal>
4.38343000411987

> <i_i_glide_confnum>
1

> <i_i_glide_posenum>
82

> <r_i_glide_eff_state_penalty>
0

> <s_user_duplicate_titles>
337352

> <s_m_subgroup_title>
dock_pv

> <s_m_subgroupid>
dock_pv1

> <b_m_subgroup_collapsed>
0

$$$$
350867
                    3D
 Schrodinger Suite 2021-1.
 59 63  0  0  1  0            999 V2000
   12.1074   20.1231   24.1769 C   0  0  0  0  0  0
   10.6617   20.2373   23.7660 C   0  0  0  0  0  0
   10.0346   19.2327   23.0466 C   0  0  0  0  0  0
    8.6764   19.3111   22.7057 C   0  0  0  0  0  0
    7.9588   20.4990   23.0285 C   0  0  0  0  0  0
    6.6774   20.9151   22.7375 N   0  0  0  0  0  0
    6.6438   22.2052   23.0605 C   0  0  0  0  0  0
    7.7917   22.5632   23.7680 C   0  0  0  0  0  0
    8.6524   21.5090   23.6988 N   0  0  0  0  0  0
    9.9460   21.3651   24.1166 C   0  0  0  0  0  0
    5.5334   23.0870   22.4637 C   0  0  0  0  0  0
    5.1361   24.3553   23.0846 N   0  0  0  0  0  0
    6.1659   25.3863   23.2638 C   0  0  0  0  0  0
    5.5791   26.7069   23.8320 C   0  0  0  0  0  0
    4.6554   26.5477   24.9704 N   0  0  0  0  0  0
    3.6792   25.4926   24.6850 C   0  0  0  0  0  0
    4.3468   24.1648   24.2830 C   0  0  0  0  0  0
    5.0049   26.7800   26.2940 C   0  0  0  0  0  0
    4.2389   27.7335   26.9757 C   0  0  0  0  0  0
    4.4267   27.9688   28.3338 C   0  0  0  0  0  0
    5.3918   27.2519   29.0287 C   0  0  0  0  0  0
    6.1826   26.3186   28.3611 C   0  0  0  0  0  0
    5.9915   26.0467   26.9951 C   0  0  0  0  0  0
    6.7118   25.0688   26.3270 O   0  0  0  0  0  0
    7.7395   24.3353   26.9982 C   0  0  0  0  0  0
    8.0261   18.0609   22.2924 C   0  0  0  0  0  0
    8.5625   17.2690   21.2811 C   0  0  0  0  0  0
    8.0644   15.9891   21.0839 C   0  0  0  0  0  0
    7.0300   15.5159   21.8768 C   0  0  0  0  0  0
    6.5042   16.2857   22.8892 C   0  0  0  0  0  0
    6.9920   17.5666   23.0839 C   0  0  0  0  0  0
   12.5950   19.2710   23.7038 H   0  0  0  0  0  0
   12.6302   21.0318   23.8845 H   0  0  0  0  0  0
   12.1913   20.0371   25.2603 H   0  0  0  0  0  0
   10.5880   18.3293   22.8310 H   0  0  0  0  0  0
    8.1397   23.5019   24.1597 H   0  0  0  0  0  0
   10.3798   22.1818   24.6679 H   0  0  0  0  0  0
    4.6277   22.5103   22.2862 H   0  0  0  0  0  0
    5.8421   23.3920   21.4840 H   0  0  0  0  0  0
    6.6476   25.5819   22.3053 H   0  0  0  0  0  0
    6.9453   25.0599   23.9380 H   0  0  0  0  0  0
    5.0571   27.2457   23.0400 H   0  0  0  0  0  0
    6.4072   27.3468   24.1392 H   0  0  0  0  0  0
    3.0476   25.3192   25.5563 H   0  0  0  0  0  0
    3.0131   25.8343   23.8920 H   0  0  0  0  0  0
    4.9777   23.7638   25.0806 H   0  0  0  0  0  0
    3.5629   23.4473   24.0430 H   0  0  0  0  0  0
    3.4719   28.2867   26.4506 H   0  0  0  0  0  0
    3.8221   28.7021   28.8479 H   0  0  0  0  0  0
    5.5437   27.4365   30.0832 H   0  0  0  0  0  0
    6.9339   25.7979   28.9300 H   0  0  0  0  0  0
    8.1499   23.5775   26.3362 H   0  0  0  0  0  0
    8.5640   24.9729   27.2941 H   0  0  0  0  0  0
    7.3912   23.8088   27.8826 H   0  0  0  0  0  0
    9.3882   17.6296   20.6840 H   0  0  0  0  0  0
    8.4621   15.3631   20.3026 H   0  0  0  0  0  0
    6.5919   14.5604   21.6786 H   0  0  0  0  0  0
    5.6978   15.8923   23.4836 H   0  0  0  0  0  0
    6.5881   18.1655   23.8849 H   0  0  0  0  0  0
  1  2  1  0  0  0
  1 32  1  0  0  0
  1 33  1  0  0  0
  1 34  1  0  0  0
  2 10  2  0  0  0
  2  3  1  0  0  0
  3  4  2  0  0  0
  3 35  1  0  0  0
  4  5  1  0  0  0
  4 26  1  0  0  0
  5  9  1  0  0  0
  5  6  2  0  0  0
  6  7  1  0  0  0
  7  8  2  0  0  0
  7 11  1  0  0  0
  8  9  1  0  0  0
  8 36  1  0  0  0
  9 10  1  0  0  0
 10 37  1  0  0  0
 11 12  1  0  0  0
 11 38  1  0  0  0
 11 39  1  0  0  0
 12 17  1  0  0  0
 12 13  1  0  0  0
 13 14  1  0  0  0
 13 40  1  0  0  0
 13 41  1  0  0  0
 14 15  1  0  0  0
 14 42  1  0  0  0
 14 43  1  0  0  0
 15 16  1  0  0  0
 15 18  1  0  0  0
 16 17  1  0  0  0
 16 44  1  0  0  0
 16 45  1  0  0  0
 17 46  1  0  0  0
 17 47  1  0  0  0
 18 23  1  0  0  0
 18 19  2  0  0  0
 19 20  1  0  0  0
 19 48  1  0  0  0
 20 21  2  0  0  0
 20 49  1  0  0  0
 21 22  1  0  0  0
 21 50  1  0  0  0
 22 23  2  0  0  0
 22 51  1  0  0  0
 23 24  1  0  0  0
 24 25  1  0  0  0
 25 52  1  0  0  0
 25 53  1  0  0  0
 25 54  1  0  0  0
 26 31  1  0  0  0
 26 27  2  0  0  0
 27 28  1  0  0  0
 27 55  1  0  0  0
 28 29  2  0  0  0
 28 56  1  0  0  0
 29 30  1  0  0  0
 29 57  1  0  0  0
 30 31  2  0  0  0
 30 58  1  0  0  0
 31 59  1  0  0  0
M  END
> <s_m_entry_id>
8253

> <s_m_entry_name>
ligand_docking-pose.8

> <s_m_Source_Path>
/home/csk/Desktop/cluster/DUD-E-result/drd3

> <s_m_Source_File>
ligand_docking-pose.sdf

> <i_m_Source_File_Index>
8

> <i_lp_mmshare_version>
53161

> <i_f3d_flags>
0

> <r_lp_tautomer_probability>
1

> <s_lp_Force_Field>
OPLS_2005

> <r_lp_Energy>
52.98248

> <b_lp_Chiralities_Consistent>
1

> <s_lp_Variant>
350867-1

> <s_i_glide_gridfile>
glide-grid_3pbl

> <i_i_glide_lignum>
2668

> <i_i_glide_rotatable_bonds>
5

> <r_i_docking_score>
-7.48746820784684

> <r_i_glide_ligand_efficiency>
-0.241531232511188

> <r_i_glide_ligand_efficiency_sa>
-0.758741539890392

> <r_i_glide_ligand_efficiency_ln>
-1.68865354421253

> <r_i_glide_gscore>
-7.48746820784684

> <r_i_glide_lipo>
-3.94622406046598

> <r_i_glide_hbond>
0

> <r_i_glide_metal>
0

> <r_i_glide_rewards>
-1.5702347476319

> <r_i_glide_evdw>
-32.550106048584

> <r_i_glide_ecoul>
-4.99286699295044

> <r_i_glide_erotb>
0.463508262404071

> <r_i_glide_esite>
-0.0580823107812678

> <r_i_glide_emodel>
-38.9819889713858

> <r_i_glide_energy>
-37.5429730415344

> <r_i_glide_einternal>
12.8643054962158

> <i_i_glide_confnum>
38

> <i_i_glide_posenum>
366

> <r_i_glide_eff_state_penalty>
0

> <s_user_duplicate_titles>
350867

> <s_m_subgroup_title>
dock_pv

> <s_m_subgroupid>
dock_pv1

> <b_m_subgroup_collapsed>
0

$$$$
404512
                    3D
 Schrodinger Suite 2021-1.
 56 59  0  0  1  0            999 V2000
    1.4832   27.3680   29.5315 C   0  0  0  0  0  0
    2.5865   27.9878   30.1256 C   0  0  0  0  0  0
    3.6783   28.3830   29.3477 C   0  0  0  0  0  0
    3.6504   28.1419   27.9715 C   0  0  0  0  0  0
    2.5581   27.5322   27.3783 C   0  0  0  0  0  0
    1.4657   27.1403   28.1535 C   0  0  0  0  0  0
    2.8120   27.4121   25.9095 C   0  0  0  0  0  0
    4.1432   27.9956   25.7768 N   0  0  0  0  0  0
    4.6865   28.4398   26.9331 C   0  0  0  0  0  0
    5.7907   28.9615   27.0839 O   0  0  0  0  0  0
    4.8830   27.9852   24.5143 C   0  0  0  0  0  0
    5.2557   26.5695   24.0443 C   0  0  0  0  0  0
    6.0995   26.5593   22.7539 C   0  0  0  0  0  0
    6.0321   25.2181   21.9996 C   0  0  0  0  0  0
    6.5822   24.1100   22.7642 N   0  0  0  0  0  0
    5.8500   22.8636   22.5271 C   0  0  0  0  0  0
    6.4369   21.7630   23.4163 C   0  0  0  0  0  0
    7.8465   21.4674   23.0848 N   0  0  0  0  0  0
    8.5918   22.7243   23.1684 C   0  0  0  0  0  0
    7.9833   23.9145   22.4024 C   0  0  0  0  0  0
    8.4611   20.2200   22.9529 C   0  0  0  0  0  0
    9.8559   20.0781   23.0630 C   0  0  0  0  0  0
   10.4910   18.9011   22.6851 C   0  0  0  0  0  0
    9.7381   17.8212   22.2429 C   0  0  0  0  0  0
    8.3419   17.8837   22.2450 C   0  0  0  0  0  0
    7.7154   19.0898   22.5872 C   0  0  0  0  0  0
    7.5019   16.6749   21.8467 C   0  0  0  0  0  0
    7.0083   16.0994   22.9435 F   0  0  0  0  0  0
    6.4897   17.0697   21.0839 F   0  0  0  0  0  0
    8.1982   15.7633   21.1669 F   0  0  0  0  0  0
    0.6451   27.0678   30.1444 H   0  0  0  0  0  0
    2.5921   28.1625   31.1918 H   0  0  0  0  0  0
    4.5246   28.8615   29.8193 H   0  0  0  0  0  0
    0.6076   26.6627   27.7039 H   0  0  0  0  0  0
    2.7992   26.3784   25.5640 H   0  0  0  0  0  0
    2.0919   27.9687   25.3103 H   0  0  0  0  0  0
    4.2841   28.4789   23.7489 H   0  0  0  0  0  0
    5.7900   28.5850   24.5925 H   0  0  0  0  0  0
    5.8017   26.0416   24.8298 H   0  0  0  0  0  0
    4.3365   26.0073   23.8753 H   0  0  0  0  0  0
    5.7420   27.3389   22.0794 H   0  0  0  0  0  0
    7.1349   26.8155   22.9830 H   0  0  0  0  0  0
    4.9919   24.9630   21.8842 H   0  0  0  0  0  0
    6.4426   25.3012   20.9936 H   0  0  0  0  0  0
    4.7994   22.9994   22.7894 H   0  0  0  0  0  0
    5.8841   22.5630   21.4840 H   0  0  0  0  0  0
    5.7957   20.8844   23.3960 H   0  0  0  0  0  0
    6.3923   22.1628   24.4371 H   0  0  0  0  0  0
    9.6209   22.6153   22.8324 H   0  0  0  0  0  0
    8.6110   22.9627   24.2323 H   0  0  0  0  0  0
    8.1049   23.7629   21.3343 H   0  0  0  0  0  0
    8.5430   24.8197   22.6464 H   0  0  0  0  0  0
   10.4880   20.8888   23.3886 H   0  0  0  0  0  0
   11.5685   18.8331   22.7126 H   0  0  0  0  0  0
   10.2591   16.9499   21.8845 H   0  0  0  0  0  0
    6.6411   19.1523   22.5147 H   0  0  0  0  0  0
  1  6  1  0  0  0
  1  2  2  0  0  0
  1 31  1  0  0  0
  2  3  1  0  0  0
  2 32  1  0  0  0
  3  4  2  0  0  0
  3 33  1  0  0  0
  4  9  1  0  0  0
  4  5  1  0  0  0
  5  6  2  0  0  0
  5  7  1  0  0  0
  6 34  1  0  0  0
  7  8  1  0  0  0
  7 35  1  0  0  0
  7 36  1  0  0  0
  8  9  1  0  0  0
  8 11  1  0  0  0
  9 10  2  0  0  0
 11 12  1  0  0  0
 11 37  1  0  0  0
 11 38  1  0  0  0
 12 13  1  0  0  0
 12 39  1  0  0  0
 12 40  1  0  0  0
 13 14  1  0  0  0
 13 41  1  0  0  0
 13 42  1  0  0  0
 14 15  1  0  0  0
 14 43  1  0  0  0
 14 44  1  0  0  0
 15 20  1  0  0  0
 15 16  1  0  0  0
 16 17  1  0  0  0
 16 45  1  0  0  0
 16 46  1  0  0  0
 17 18  1  0  0  0
 17 47  1  0  0  0
 17 48  1  0  0  0
 18 19  1  0  0  0
 18 21  1  0  0  0
 19 20  1  0  0  0
 19 49  1  0  0  0
 19 50  1  0  0  0
 20 51  1  0  0  0
 20 52  1  0  0  0
 21 26  1  0  0  0
 21 22  2  0  0  0
 22 23  1  0  0  0
 22 53  1  0  0  0
 23 24  2  0  0  0
 23 54  1  0  0  0
 24 25  1  0  0  0
 24 55  1  0  0  0
 25 26  2  0  0  0
 25 27  1  0  0  0
 26 56  1  0  0  0
 27 28  1  0  0  0
 27 29  1  0  0  0
 27 30  1  0  0  0
M  END
> <s_m_entry_id>
8254

> <s_m_entry_name>
ligand_docking-pose.9

> <s_m_Source_Path>
/home/csk/Desktop/cluster/DUD-E-result/drd3

> <s_m_Source_File>
ligand_docking-pose.sdf

> <i_m_Source_File_Index>
9

> <i_lp_mmshare_version>
53161

> <i_f3d_flags>
0

> <r_lp_tautomer_probability>
1

> <s_lp_Force_Field>
OPLS_2005

> <r_lp_Energy>
62.624058

> <b_lp_Chiralities_Consistent>
1

> <s_lp_Variant>
404512-1

> <s_i_glide_gridfile>
glide-grid_3pbl

> <i_i_glide_lignum>
1225

> <i_i_glide_rotatable_bonds>
7

> <r_i_docking_score>
-7.47334481014441

> <r_i_glide_ligand_efficiency>
-0.24911149367148

> <r_i_glide_ligand_efficiency_sa>
-0.77404732986518

> <r_i_glide_ligand_efficiency_ln>
-1.69802536947844

> <r_i_glide_gscore>
-7.47334481014441

> <r_i_glide_lipo>
-3.07209026227472

> <r_i_glide_hbond>
0

> <r_i_glide_metal>
0

> <r_i_glide_rewards>
-2.81589425500002

> <r_i_glide_evdw>
-36.844051361084

> <r_i_glide_ecoul>
-1.86047005653381

> <r_i_glide_erotb>
0.567062346402064

> <r_i_glide_esite>
-0.0311495627374602

> <r_i_glide_emodel>
-48.013757091338

> <r_i_glide_energy>
-38.7045214176178

> <r_i_glide_einternal>
6.49416351318359

> <i_i_glide_confnum>
16

> <i_i_glide_posenum>
349

> <r_i_glide_eff_state_penalty>
0

> <s_user_duplicate_titles>
404512

> <s_m_subgroup_title>
dock_pv

> <s_m_subgroupid>
dock_pv1

> <b_m_subgroup_collapsed>
0

$$$$
336839
                    3D
 Schrodinger Suite 2021-1.
 61 63  0  0  1  0            999 V2000
   12.2416   18.9199   22.8689 C   0  0  0  0  0  0
   11.2916   19.7706   23.7582 C   0  0  0  0  0  0
   11.1284   19.1037   25.1407 C   0  0  0  0  0  0
   11.9042   21.1822   23.9666 C   0  0  0  0  0  0
    9.8854   19.8527   23.1415 C   0  0  0  0  0  0
    9.4102   18.7394   22.5245 N   0  0  0  0  0  0
    8.0781   18.7121   22.2712 C   0  0  0  0  0  0
    7.2386   19.7634   22.6590 C   0  0  0  0  0  0
    7.8374   20.9662   23.0840 C   0  0  0  0  0  0
    9.1545   20.9638   23.4178 N   0  0  0  0  0  0
    7.0925   22.0898   23.4711 N   0  0  0  0  0  0
    7.5547   23.1375   24.3940 C   0  0  0  0  0  0
    7.4379   24.5430   23.7747 C   0  0  0  0  0  0
    6.0622   24.8737   23.4090 N   0  0  0  0  0  0
    5.5770   23.8620   22.4689 C   0  0  0  0  0  0
    5.7255   22.4196   23.0348 C   0  0  0  0  0  0
    6.0255   26.2237   22.8279 C   0  0  0  0  0  0
    5.0372   27.1114   23.6011 C   0  0  0  0  0  0
    5.4326   27.3608   25.0800 C   0  0  0  0  0  0
    4.5798   26.5805   26.1081 C   0  0  0  0  0  0
    3.4096   27.3249   26.6122 N   0  0  0  0  0  0
    2.5765   28.0555   25.7997 C   0  0  0  0  0  0
    1.5979   28.8698   26.2320 C   0  0  0  0  0  0
    1.3900   29.0038   27.6649 C   0  0  0  0  0  0
    0.5543   29.7326   28.1925 O   0  0  0  0  0  0
    2.2262   28.2122   28.3979 N   0  0  0  0  0  0
    3.2148   27.3565   27.9832 C   0  0  0  0  0  0
    3.8233   26.6797   28.8157 O   0  0  0  0  0  0
    0.5921   29.7629   25.0847 Cl  0  0  0  0  0  0
    7.5828   17.5248   21.4496 C   0  0  0  0  0  0
    8.1659   16.3842   21.8260 F   0  0  0  0  0  0
    6.2659   17.3625   21.5400 F   0  0  0  0  0  0
    7.8674   17.7610   20.1704 F   0  0  0  0  0  0
    2.0924   28.2609   29.3968 H   0  0  0  0  0  0
   13.2208   18.7812   23.3224 H   0  0  0  0  0  0
   12.3903   19.3627   21.8860 H   0  0  0  0  0  0
   11.8509   17.9202   22.6835 H   0  0  0  0  0  0
   10.5535   19.7339   25.8202 H   0  0  0  0  0  0
   10.5918   18.1630   25.0721 H   0  0  0  0  0  0
   12.0790   18.8993   25.6200 H   0  0  0  0  0  0
   11.4051   21.7289   24.7690 H   0  0  0  0  0  0
   12.9611   21.1519   24.2208 H   0  0  0  0  0  0
   11.7919   21.8002   23.0766 H   0  0  0  0  0  0
    6.1920   19.7142   22.4600 H   0  0  0  0  0  0
    6.9825   23.0756   25.3216 H   0  0  0  0  0  0
    8.5894   22.9630   24.7037 H   0  0  0  0  0  0
    7.7919   25.2699   24.5065 H   0  0  0  0  0  0
    8.1022   24.6192   22.9110 H   0  0  0  0  0  0
    6.0798   23.9702   21.5078 H   0  0  0  0  0  0
    4.5183   24.0537   22.2879 H   0  0  0  0  0  0
    5.3928   21.7129   22.2841 H   0  0  0  0  0  0
    5.0536   22.2769   23.8813 H   0  0  0  0  0  0
    7.0075   26.7017   22.8806 H   0  0  0  0  0  0
    5.7920   26.2135   21.7631 H   0  0  0  0  0  0
    4.9916   28.0743   23.0908 H   0  0  0  0  0  0
    4.0349   26.6957   23.4986 H   0  0  0  0  0  0
    6.4792   27.0854   25.2186 H   0  0  0  0  0  0
    5.3949   28.4287   25.3017 H   0  0  0  0  0  0
    4.2474   25.6377   25.6703 H   0  0  0  0  0  0
    5.2414   26.2844   26.9252 H   0  0  0  0  0  0
    2.7517   27.8918   24.7487 H   0  0  0  0  0  0
  1  2  1  0  0  0
  1 35  1  0  0  0
  1 36  1  0  0  0
  1 37  1  0  0  0
  2  3  1  0  0  0
  2  4  1  0  0  0
  2  5  1  0  0  0
  3 38  1  0  0  0
  3 39  1  0  0  0
  3 40  1  0  0  0
  4 41  1  0  0  0
  4 42  1  0  0  0
  4 43  1  0  0  0
  5 10  1  0  0  0
  5  6  2  0  0  0
  6  7  1  0  0  0
  7  8  2  0  0  0
  7 30  1  0  0  0
  8  9  1  0  0  0
  8 44  1  0  0  0
  9 10  2  0  0  0
  9 11  1  0  0  0
 11 16  1  0  0  0
 11 12  1  0  0  0
 12 13  1  0  0  0
 12 45  1  0  0  0
 12 46  1  0  0  0
 13 14  1  0  0  0
 13 47  1  0  0  0
 13 48  1  0  0  0
 14 15  1  0  0  0
 14 17  1  0  0  0
 15 16  1  0  0  0
 15 49  1  0  0  0
 15 50  1  0  0  0
 16 51  1  0  0  0
 16 52  1  0  0  0
 17 18  1  0  0  0
 17 53  1  0  0  0
 17 54  1  0  0  0
 18 19  1  0  0  0
 18 55  1  0  0  0
 18 56  1  0  0  0
 19 20  1  0  0  0
 19 57  1  0  0  0
 19 58  1  0  0  0
 20 21  1  0  0  0
 20 59  1  0  0  0
 20 60  1  0  0  0
 21 27  1  0  0  0
 21 22  1  0  0  0
 22 23  2  0  0  0
 22 61  1  0  0  0
 23 24  1  0  0  0
 23 29  1  0  0  0
 24 25  2  0  0  0
 24 26  1  0  0  0
 26 34  1  0  0  0
 26 27  1  0  0  0
 27 28  2  0  0  0
 30 31  1  0  0  0
 30 32  1  0  0  0
 30 33  1  0  0  0
M  END
> <s_m_entry_id>
8256

> <s_m_entry_name>
ligand_docking-pose.11

> <s_m_Source_Path>
/home/csk/Desktop/cluster/DUD-E-result/drd3

> <s_m_Source_File>
ligand_docking-pose.sdf

> <i_m_Source_File_Index>
11

> <i_lp_mmshare_version>
53161

> <i_f3d_flags>
0

> <r_lp_tautomer_probability>
0.999537046341301

> <s_lp_Force_Field>
OPLS_2005

> <r_lp_Energy>
34.090916

> <b_lp_Chiralities_Consistent>
1

> <s_lp_Variant>
336839-1

> <s_i_glide_gridfile>
glide-grid_3pbl

> <i_i_glide_lignum>
570

> <i_i_glide_rotatable_bonds>
8

> <r_i_docking_score>
-7.38079548579858

> <r_i_glide_ligand_efficiency>
-0.223660469266624

> <r_i_glide_ligand_efficiency_sa>
-0.717398632599542

> <r_i_glide_ligand_efficiency_ln>
-1.64145070032784

> <r_i_glide_gscore>
-7.38079548579858

> <r_i_glide_lipo>
-3.52617534543758

> <r_i_glide_hbond>
0

> <r_i_glide_metal>
0

> <r_i_glide_rewards>
-2.14476773207346

> <r_i_glide_evdw>
-42.0494384765625

> <r_i_glide_ecoul>
-0.0403316244482994

> <r_i_glide_erotb>
0.425421405334769

> <r_i_glide_esite>
-0.0267521461269317

> <r_i_glide_emodel>
-49.4480234871968

> <r_i_glide_energy>
-42.0897701010108

> <r_i_glide_einternal>
12.0155258178711

> <i_i_glide_confnum>
11

> <i_i_glide_posenum>
117

> <r_i_glide_eff_state_penalty>
0

> <s_user_duplicate_titles>
336839

> <s_m_subgroup_title>
dock_pv

> <s_m_subgroupid>
dock_pv1

> <b_m_subgroup_collapsed>
0

$$$$
610734
                    3D
 Schrodinger Suite 2021-1.
 53 57  0  0  1  0            999 V2000
    4.4324   29.7638   28.8776 C   0  0  0  0  0  0
    3.4791   28.9342   28.0496 C   0  0  0  0  0  0
    3.6973   27.7230   27.3922 C   0  0  0  0  0  0
    2.5233   27.3798   26.8078 O   0  0  0  0  0  0
    1.6850   28.3913   27.1373 C   0  0  0  0  0  0
    2.2242   29.3217   27.8839 N   0  0  0  0  0  0
    4.8251   26.7971   27.2809 C   0  0  0  0  0  0
    5.8301   26.7922   28.1204 N   0  0  0  0  0  0
    6.6830   25.7627   27.7439 N   0  0  0  0  0  0
    6.1649   25.1754   26.6892 C   0  0  0  0  0  0
    4.9943   25.8124   26.3248 N   0  0  0  0  0  0
    4.1502   25.5295   25.1701 C   0  0  0  0  0  0
    6.8367   23.7458   25.8840 S   0  0  0  0  0  0
    8.3598   23.4774   26.8559 C   0  0  0  0  0  0
    9.1441   22.1889   26.5330 C   0  0  0  0  0  0
    9.6593   22.1324   25.0837 C   0  0  0  0  0  0
    9.7927   20.7932   24.5451 N   0  0  2  0  0  0
   10.9611   20.0619   24.9823 C   0  0  0  0  0  0
   10.9455   18.8513   24.0769 C   0  0  2  0  0  0
   11.7090   18.9561   22.7741 C   0  0  0  0  0  0
   10.2295   19.2539   22.8075 C   0  0  2  0  0  0
    9.8479   20.7144   23.0957 C   0  0  0  0  0  0
    9.1872   18.3561   22.1577 C   0  0  0  0  0  0
    8.8400   18.5655   20.8247 C   0  0  0  0  0  0
    7.7691   17.8756   20.2678 C   0  0  0  0  0  0
    7.0523   16.9644   21.0405 C   0  0  0  0  0  0
    7.4434   16.6803   22.3368 C   0  0  0  0  0  0
    8.5129   17.3686   22.8872 C   0  0  0  0  0  0
    6.5920   15.5005   23.2588 Cl  0  0  0  0  0  0
    4.6295   29.2965   29.8433 H   0  0  0  0  0  0
    5.3909   29.8854   28.3749 H   0  0  0  0  0  0
    4.0567   30.7677   29.0826 H   0  0  0  0  0  0
    0.6715   28.3145   26.7732 H   0  0  0  0  0  0
    4.6982   24.9401   24.4354 H   0  0  0  0  0  0
    3.2780   24.9627   25.4891 H   0  0  0  0  0  0
    3.8332   26.4645   24.7065 H   0  0  0  0  0  0
    8.9925   24.3455   26.6877 H   0  0  0  0  0  0
    8.1121   23.4818   27.9165 H   0  0  0  0  0  0
   10.0176   22.1781   27.1841 H   0  0  0  0  0  0
    8.5921   21.2943   26.8120 H   0  0  0  0  0  0
    8.9886   22.6771   24.4250 H   0  0  0  0  0  0
   10.6573   22.5630   25.0437 H   0  0  0  0  0  0
   11.8756   20.6566   24.9208 H   0  0  0  0  0  0
   10.8500   19.7742   26.0155 H   0  0  0  0  0  0
   10.5920   17.9584   24.5636 H   0  0  0  0  0  0
   12.4316   19.7630   22.6805 H   0  0  0  0  0  0
   12.0512   18.0394   22.2920 H   0  0  0  0  0  0
    8.8822   21.0004   22.6777 H   0  0  0  0  0  0
   10.5562   21.4386   22.6858 H   0  0  0  0  0  0
    9.3704   19.3007   20.2355 H   0  0  0  0  0  0
    7.4754   18.0721   19.2486 H   0  0  0  0  0  0
    6.1934   16.4685   20.6382 H   0  0  0  0  0  0
    8.7781   17.1405   23.9007 H   0  0  0  0  0  0
  1  2  1  0  0  0
  1 30  1  0  0  0
  1 31  1  0  0  0
  1 32  1  0  0  0
  2  6  1  0  0  0
  2  3  2  0  0  0
  3  4  1  0  0  0
  3  7  1  0  0  0
  4  5  1  0  0  0
  5  6  2  0  0  0
  5 33  1  0  0  0
  7 11  1  0  0  0
  7  8  2  0  0  0
  8  9  1  0  0  0
  9 10  2  0  0  0
 10 11  1  0  0  0
 10 13  1  0  0  0
 11 12  1  0  0  0
 12 34  1  0  0  0
 12 35  1  0  0  0
 12 36  1  0  0  0
 13 14  1  0  0  0
 14 15  1  0  0  0
 14 37  1  0  0  0
 14 38  1  0  0  0
 15 16  1  0  0  0
 15 39  1  0  0  0
 15 40  1  0  0  0
 16 17  1  0  0  0
 16 41  1  0  0  0
 16 42  1  0  0  0
 17 22  1  0  0  0
 17 18  1  0  0  0
 18 19  1  0  0  0
 18 43  1  0  0  0
 18 44  1  0  0  0
 19 21  1  0  0  0
 19 20  1  0  0  0
 19 45  1  0  0  0
 20 21  1  0  0  0
 20 46  1  0  0  0
 20 47  1  0  0  0
 21 22  1  0  0  0
 21 23  1  0  0  0
 22 48  1  0  0  0
 22 49  1  0  0  0
 23 28  1  0  0  0
 23 24  2  0  0  0
 24 25  1  0  0  0
 24 50  1  0  0  0
 25 26  2  0  0  0
 25 51  1  0  0  0
 26 27  1  0  0  0
 26 52  1  0  0  0
 27 28  2  0  0  0
 27 29  1  0  0  0
 28 53  1  0  0  0
M  END
> <s_m_entry_id>
8257

> <s_m_entry_name>
ligand_docking-pose.12

> <s_m_Source_Path>
/home/csk/Desktop/cluster/DUD-E-result/drd3

> <s_m_Source_File>
ligand_docking-pose.sdf

> <i_m_Source_File_Index>
12

> <i_lp_mmshare_version>
53161

> <i_f3d_flags>
0

> <r_lp_tautomer_probability>
1

> <s_lp_Force_Field>
OPLS_2005

> <r_lp_Energy>
54.985491

> <b_lp_Chiralities_Consistent>
1

> <s_lp_Variant>
610734-1

> <s_i_glide_gridfile>
glide-grid_3pbl

> <i_i_glide_lignum>
284

> <i_i_glide_rotatable_bonds>
7

> <r_i_docking_score>
-7.36208699908983

> <r_i_glide_ligand_efficiency>
-0.253865068934132

> <r_i_glide_ligand_efficiency_sa>
-0.779953921864787

> <r_i_glide_ligand_efficiency_ln>
-1.68573123637302

> <r_i_glide_gscore>
-7.36208699908983

> <r_i_glide_lipo>
-3.99904812308794

> <r_i_glide_hbond>
0

> <r_i_glide_metal>
0

> <r_i_glide_rewards>
-1.76222996775032

> <r_i_glide_evdw>
-42.7380790710449

> <r_i_glide_ecoul>
-1.44355368614197

> <r_i_glide_erotb>
0.75262809822197

> <r_i_glide_esite>
0

> <r_i_glide_emodel>
-57.8528691869451

> <r_i_glide_energy>
-44.1816327571869

> <r_i_glide_einternal>
4.9528636932373

> <i_i_glide_confnum>
83

> <i_i_glide_posenum>
291

> <r_i_glide_eff_state_penalty>
0

> <s_user_duplicate_titles>
610734

> <s_m_subgroup_title>
dock_pv

> <s_m_subgroupid>
dock_pv1

> <b_m_subgroup_collapsed>
0

$$$$
337087
                    3D
 Schrodinger Suite 2021-1.
 60 62  0  0  1  0            999 V2000
    6.5931   18.1119   21.1030 C   0  0  0  0  0  0
    7.7946   17.7939   22.0096 C   0  0  0  0  0  0
    7.3309   16.8904   23.1756 C   0  0  0  0  0  0
    8.7839   17.0152   21.1189 C   0  0  0  0  0  0
    8.4413   19.0736   22.5847 C   0  0  0  0  0  0
    9.7419   18.9918   22.9569 N   0  0  0  0  0  0
   10.2624   20.0773   23.5794 C   0  0  0  0  0  0
    9.5215   21.2376   23.8259 C   0  0  0  0  0  0
    8.1716   21.2345   23.4536 C   0  0  0  0  0  0
    7.6489   20.1626   22.7780 N   0  0  0  0  0  0
    7.3964   22.3939   23.5364 N   0  0  0  0  0  0
    7.5369   23.3621   24.6393 C   0  0  0  0  0  0
    7.3919   24.8257   24.1831 C   0  0  0  0  0  0
    6.0833   25.0496   23.5746 N   0  0  0  0  0  0
    5.9746   24.1619   22.4135 C   0  0  0  0  0  0
    6.1496   22.6638   22.7955 C   0  0  0  0  0  0
    5.9511   26.4626   23.1981 C   0  0  0  0  0  0
    4.6025   27.0321   23.6668 C   0  0  0  0  0  0
    4.3297   26.9578   25.1842 C   0  0  0  0  0  0
    5.3143   27.7942   26.0303 C   0  0  0  0  0  0
    4.9891   27.8025   27.4683 N   0  0  0  0  0  0
    4.3411   28.8639   28.0581 C   0  0  0  0  0  0
    4.0114   28.9042   29.3623 C   0  0  0  0  0  0
    4.3615   27.7628   30.1620 C   0  0  0  0  0  0
    4.9801   26.7554   29.6355 N   0  0  0  0  0  0
    5.3740   26.7300   28.2720 C   0  0  0  0  0  0
    6.0316   25.8222   27.7591 O   0  0  0  0  0  0
   11.6748   19.9002   24.0834 C   0  0  0  0  0  0
   12.4527   19.3631   23.1398 F   0  0  0  0  0  0
   12.1922   21.0553   24.4882 F   0  0  0  0  0  0
   11.5975   19.0718   25.1210 F   0  0  0  0  0  0
    6.1920   17.1925   20.6833 H   0  0  0  0  0  0
    6.8971   18.7569   20.2838 H   0  0  0  0  0  0
    5.7951   18.6280   21.6261 H   0  0  0  0  0  0
    8.1626   16.6103   23.8242 H   0  0  0  0  0  0
    6.5917   17.3960   23.7988 H   0  0  0  0  0  0
    6.8765   15.9664   22.8154 H   0  0  0  0  0  0
    9.6966   16.7277   21.6382 H   0  0  0  0  0  0
    8.3439   16.1029   20.7111 H   0  0  0  0  0  0
    9.0715   17.6506   20.2836 H   0  0  0  0  0  0
    9.9752   22.1032   24.2895 H   0  0  0  0  0  0
    6.7616   23.1421   25.3750 H   0  0  0  0  0  0
    8.4646   23.2353   25.1931 H   0  0  0  0  0  0
    7.5142   25.4742   25.0527 H   0  0  0  0  0  0
    8.1894   25.0890   23.4824 H   0  0  0  0  0  0
    6.7126   24.4433   21.6596 H   0  0  0  0  0  0
    4.9936   24.3027   21.9645 H   0  0  0  0  0  0
    6.1141   22.0613   21.8878 H   0  0  0  0  0  0
    5.3118   22.3464   23.4163 H   0  0  0  0  0  0
    6.7478   27.0685   23.6363 H   0  0  0  0  0  0
    6.0541   26.5999   22.1209 H   0  0  0  0  0  0
    4.5912   28.0842   23.3851 H   0  0  0  0  0  0
    3.7933   26.5748   23.0937 H   0  0  0  0  0  0
    3.3139   27.3094   25.3655 H   0  0  0  0  0  0
    4.3545   25.9147   25.5041 H   0  0  0  0  0  0
    6.3336   27.4349   25.8767 H   0  0  0  0  0  0
    5.3252   28.8184   25.6550 H   0  0  0  0  0  0
    4.1322   29.6704   27.3679 H   0  0  0  0  0  0
    3.5022   29.7618   29.7815 H   0  0  0  0  0  0
    4.1097   27.7135   31.2182 H   0  0  0  0  0  0
  1  2  1  0  0  0
  1 32  1  0  0  0
  1 33  1  0  0  0
  1 34  1  0  0  0
  2  3  1  0  0  0
  2  4  1  0  0  0
  2  5  1  0  0  0
  3 35  1  0  0  0
  3 36  1  0  0  0
  3 37  1  0  0  0
  4 38  1  0  0  0
  4 39  1  0  0  0
  4 40  1  0  0  0
  5 10  1  0  0  0
  5  6  2  0  0  0
  6  7  1  0  0  0
  7  8  2  0  0  0
  7 28  1  0  0  0
  8  9  1  0  0  0
  8 41  1  0  0  0
  9 10  2  0  0  0
  9 11  1  0  0  0
 11 16  1  0  0  0
 11 12  1  0  0  0
 12 13  1  0  0  0
 12 42  1  0  0  0
 12 43  1  0  0  0
 13 14  1  0  0  0
 13 44  1  0  0  0
 13 45  1  0  0  0
 14 15  1  0  0  0
 14 17  1  0  0  0
 15 16  1  0  0  0
 15 46  1  0  0  0
 15 47  1  0  0  0
 16 48  1  0  0  0
 16 49  1  0  0  0
 17 18  1  0  0  0
 17 50  1  0  0  0
 17 51  1  0  0  0
 18 19  1  0  0  0
 18 52  1  0  0  0
 18 53  1  0  0  0
 19 20  1  0  0  0
 19 54  1  0  0  0
 19 55  1  0  0  0
 20 21  1  0  0  0
 20 56  1  0  0  0
 20 57  1  0  0  0
 21 26  1  0  0  0
 21 22  1  0  0  0
 22 23  2  0  0  0
 22 58  1  0  0  0
 23 24  1  0  0  0
 23 59  1  0  0  0
 24 25  2  0  0  0
 24 60  1  0  0  0
 25 26  1  0  0  0
 26 27  2  0  0  0
 28 29  1  0  0  0
 28 30  1  0  0  0
 28 31  1  0  0  0
M  END
> <s_m_entry_id>
8258

> <s_m_entry_name>
ligand_docking-pose.13

> <s_m_Source_Path>
/home/csk/Desktop/cluster/DUD-E-result/drd3

> <s_m_Source_File>
ligand_docking-pose.sdf

> <i_m_Source_File_Index>
13

> <i_lp_mmshare_version>
53161

> <i_f3d_flags>
0

> <r_lp_tautomer_probability>
1

> <s_lp_Force_Field>
OPLS_2005

> <r_lp_Energy>
34.517216

> <b_lp_Chiralities_Consistent>
1

> <s_lp_Variant>
337087-1

> <s_i_glide_gridfile>
glide-grid_3pbl

> <i_i_glide_lignum>
1178

> <i_i_glide_rotatable_bonds>
8

> <r_i_docking_score>
-7.31368753937076

> <r_i_glide_ligand_efficiency>
-0.235925404495831

> <r_i_glide_ligand_efficiency_sa>
-0.741131500242472

> <r_i_glide_ligand_efficiency_ln>
-1.64946067773328

> <r_i_glide_gscore>
-7.31368753937076

> <r_i_glide_lipo>
-2.63565747479733

> <r_i_glide_hbond>
-0.184474337746593

> <r_i_glide_metal>
0

> <r_i_glide_rewards>
-2.54604755280829

> <r_i_glide_evdw>
-41.0084953308105

> <r_i_glide_ecoul>
-2.42041158676147

> <r_i_glide_erotb>
0.51879904459709

> <r_i_glide_esite>
-0.0528207140608868

> <r_i_glide_emodel>
-56.6262664748217

> <r_i_glide_energy>
-43.428906917572

> <r_i_glide_einternal>
7.84923124313354

> <i_i_glide_confnum>
24

> <i_i_glide_posenum>
369

> <r_i_glide_eff_state_penalty>
0

> <s_user_duplicate_titles>
337087

> <s_m_subgroup_title>
dock_pv

> <s_m_subgroupid>
dock_pv1

> <b_m_subgroup_collapsed>
0

$$$$
337908
                    3D
 Schrodinger Suite 2021-1.
 66 69  0  0  1  0            999 V2000
    7.2804   16.9343   23.2282 C   0  0  0  0  0  0
    7.7801   17.7995   22.0492 C   0  0  0  0  0  0
    8.7666   16.9734   21.1974 C   0  0  0  0  0  0
    6.6007   18.1176   21.1049 C   0  0  0  0  0  0
    8.4258   19.0881   22.6117 C   0  0  0  0  0  0
    9.7283   19.0300   22.9800 N   0  0  0  0  0  0
   10.2335   20.1266   23.6004 C   0  0  0  0  0  0
    9.4759   21.2804   23.8390 C   0  0  0  0  0  0
    8.1254   21.2541   23.4691 C   0  0  0  0  0  0
    7.6217   20.1633   22.8079 N   0  0  0  0  0  0
    7.3259   22.3994   23.5129 N   0  0  0  0  0  0
    7.4449   23.4215   24.5663 C   0  0  0  0  0  0
    7.2194   24.8562   24.0381 C   0  0  0  0  0  0
    5.8925   25.0173   23.4363 N   0  0  0  0  0  0
    5.7935   24.0580   22.3364 C   0  0  0  0  0  0
    6.0646   22.5867   22.7699 C   0  0  0  0  0  0
    4.7451   24.9636   24.3552 C   0  0  0  0  0  0
    3.8281   26.1916   24.1507 C   0  0  0  0  0  0
    4.2774   27.5276   24.8076 C   0  0  0  0  0  0
    3.7390   27.7673   26.1750 N   0  0  0  0  0  0
    4.5399   27.4134   27.3044 C   0  0  0  0  0  0
    5.7526   26.7176   27.1788 C   0  0  0  0  0  0
    6.4753   26.3101   28.2929 C   0  0  0  0  0  0
    6.0146   26.6219   29.5663 C   0  0  0  0  0  0
    4.8552   27.3814   29.7163 C   0  0  0  0  0  0
    4.1288   27.8008   28.5945 C   0  0  0  0  0  0
    2.8928   28.6715   28.7181 C   0  0  0  0  0  0
    1.8455   28.2695   27.6587 C   0  0  0  0  0  0
    2.4270   28.1652   26.2258 C   0  0  0  0  0  0
    1.7159   28.3927   25.2432 O   0  0  0  0  0  0
   11.6456   19.9660   24.1169 C   0  0  0  0  0  0
   11.5525   19.2013   25.2028 F   0  0  0  0  0  0
   12.4195   19.3630   23.2095 F   0  0  0  0  0  0
   12.1920   21.1335   24.4517 F   0  0  0  0  0  0
    6.7582   16.0409   22.8840 H   0  0  0  0  0  0
    6.5919   17.4887   23.8655 H   0  0  0  0  0  0
    8.1054   16.6022   23.8585 H   0  0  0  0  0  0
    8.9931   17.5183   20.2842 H   0  0  0  0  0  0
    9.7057   16.7666   21.7062 H   0  0  0  0  0  0
    8.3437   16.0134   20.8982 H   0  0  0  0  0  0
    6.9380   18.7456   20.2840 H   0  0  0  0  0  0
    6.1920   17.2018   20.6825 H   0  0  0  0  0  0
    5.7925   18.6523   21.5957 H   0  0  0  0  0  0
    9.9202   22.1584   24.2928 H   0  0  0  0  0  0
    6.7042   23.1976   25.3348 H   0  0  0  0  0  0
    8.3931   23.3625   25.0957 H   0  0  0  0  0  0
    7.3815   25.5800   24.8313 H   0  0  0  0  0  0
    7.9781   25.0938   23.2892 H   0  0  0  0  0  0
    6.4938   24.3623   21.5574 H   0  0  0  0  0  0
    4.8009   24.1315   21.8962 H   0  0  0  0  0  0
    6.0567   21.9540   21.8852 H   0  0  0  0  0  0
    5.2510   22.2392   23.4053 H   0  0  0  0  0  0
    4.1648   24.0476   24.2375 H   0  0  0  0  0  0
    5.0928   24.9228   25.3832 H   0  0  0  0  0  0
    3.7920   26.4001   23.0843 H   0  0  0  0  0  0
    2.8088   25.9429   24.4470 H   0  0  0  0  0  0
    5.3603   27.6308   24.7646 H   0  0  0  0  0  0
    3.9415   28.3424   24.1613 H   0  0  0  0  0  0
    6.1629   26.4670   26.2221 H   0  0  0  0  0  0
    7.3920   25.7548   28.1644 H   0  0  0  0  0  0
    6.5800   26.3221   30.4395 H   0  0  0  0  0  0
    4.5308   27.6661   30.7084 H   0  0  0  0  0  0
    3.1706   29.7182   28.5839 H   0  0  0  0  0  0
    2.4649   28.6030   29.7204 H   0  0  0  0  0  0
    1.0249   28.9860   27.6451 H   0  0  0  0  0  0
    1.4194   27.2950   27.8959 H   0  0  0  0  0  0
  1  2  1  0  0  0
  1 35  1  0  0  0
  1 36  1  0  0  0
  1 37  1  0  0  0
  2  3  1  0  0  0
  2  4  1  0  0  0
  2  5  1  0  0  0
  3 38  1  0  0  0
  3 39  1  0  0  0
  3 40  1  0  0  0
  4 41  1  0  0  0
  4 42  1  0  0  0
  4 43  1  0  0  0
  5 10  1  0  0  0
  5  6  2  0  0  0
  6  7  1  0  0  0
  7  8  2  0  0  0
  7 31  1  0  0  0
  8  9  1  0  0  0
  8 44  1  0  0  0
  9 10  2  0  0  0
  9 11  1  0  0  0
 11 16  1  0  0  0
 11 12  1  0  0  0
 12 13  1  0  0  0
 12 45  1  0  0  0
 12 46  1  0  0  0
 13 14  1  0  0  0
 13 47  1  0  0  0
 13 48  1  0  0  0
 14 15  1  0  0  0
 14 17  1  0  0  0
 15 16  1  0  0  0
 15 49  1  0  0  0
 15 50  1  0  0  0
 16 51  1  0  0  0
 16 52  1  0  0  0
 17 18  1  0  0  0
 17 53  1  0  0  0
 17 54  1  0  0  0
 18 19  1  0  0  0
 18 55  1  0  0  0
 18 56  1  0  0  0
 19 20  1  0  0  0
 19 57  1  0  0  0
 19 58  1  0  0  0
 20 29  1  0  0  0
 20 21  1  0  0  0
 21 26  2  0  0  0
 21 22  1  0  0  0
 22 23  2  0  0  0
 22 59  1  0  0  0
 23 24  1  0  0  0
 23 60  1  0  0  0
 24 25  2  0  0  0
 24 61  1  0  0  0
 25 26  1  0  0  0
 25 62  1  0  0  0
 26 27  1  0  0  0
 27 28  1  0  0  0
 27 63  1  0  0  0
 27 64  1  0  0  0
 28 29  1  0  0  0
 28 65  1  0  0  0
 28 66  1  0  0  0
 29 30  2  0  0  0
 31 32  1  0  0  0
 31 33  1  0  0  0
 31 34  1  0  0  0
M  END
> <s_m_entry_id>
8259

> <s_m_entry_name>
ligand_docking-pose.14

> <s_m_Source_Path>
/home/csk/Desktop/cluster/DUD-E-result/drd3

> <s_m_Source_File>
ligand_docking-pose.sdf

> <i_m_Source_File_Index>
14

> <i_lp_mmshare_version>
53161

> <i_f3d_flags>
0

> <r_lp_tautomer_probability>
1

> <s_lp_Force_Field>
OPLS_2005

> <r_lp_Energy>
48.907116

> <b_lp_Chiralities_Consistent>
1

> <s_lp_Variant>
337908-1

> <s_i_glide_gridfile>
glide-grid_3pbl

> <i_i_glide_lignum>
2064

> <i_i_glide_rotatable_bonds>
7

> <r_i_docking_score>
-7.31194368290292

> <r_i_glide_ligand_efficiency>
-0.215057167144203

> <r_i_glide_ligand_efficiency_sa>
-0.696701735810725

> <r_i_glide_ligand_efficiency_ln>
-1.61541345262659

> <r_i_glide_gscore>
-7.31194368290292

> <r_i_glide_lipo>
-3.06206262583732

> <r_i_glide_hbond>
0

> <r_i_glide_metal>
0

> <r_i_glide_rewards>
-2.37996098054296

> <r_i_glide_evdw>
-41.0573081970215

> <r_i_glide_ecoul>
-0.837706744670868

> <r_i_glide_erotb>
0.358053027406146

> <r_i_glide_esite>
-0.0494516823770857

> <r_i_glide_emodel>
-52.382668796108

> <r_i_glide_energy>
-41.8950149416924

> <r_i_glide_einternal>
11.968430519104

> <i_i_glide_confnum>
7

> <i_i_glide_posenum>
329

> <r_i_glide_eff_state_penalty>
0

> <s_user_duplicate_titles>
337908

> <s_m_subgroup_title>
dock_pv

> <s_m_subgroupid>
dock_pv1

> <b_m_subgroup_collapsed>
0

$$$$
275057
                    3D
 Schrodinger Suite 2021-1.
 52 56  0  0  1  0            999 V2000
    4.0370   27.4149   30.3118 C   0  0  0  0  0  0
    3.2418   27.9333   29.2899 C   0  0  0  0  0  0
    3.6892   27.9986   27.9674 C   0  0  0  0  0  0
    4.9704   27.4911   27.7139 C   0  0  0  0  0  0
    5.7919   26.9629   28.7416 C   0  0  0  0  0  0
    5.3314   26.9631   30.0609 C   0  0  0  0  0  0
    6.9874   26.5117   28.2528 N   0  0  0  0  0  0
    6.8998   26.7328   26.9732 C   0  0  0  0  0  0
    5.7311   27.3449   26.5712 N   0  0  0  0  0  0
    5.3293   27.6872   25.2162 C   0  0  0  0  0  0
    4.2100   26.7425   24.7409 C   0  0  0  0  0  0
    4.5178   26.0547   23.4080 C   0  0  0  0  0  0
    5.5729   25.0383   23.4973 N   0  0  1  0  0  0
    5.0049   23.7304   23.8221 C   0  0  0  0  0  0
    6.0861   22.6687   24.1188 C   0  0  0  0  0  0
    7.0728   22.5000   22.9414 C   0  0  0  0  0  0
    7.5335   23.9043   22.4681 C   0  0  0  0  0  0
    6.3992   24.9390   22.2911 C   0  0  0  0  0  0
    8.1925   21.4455   23.0870 C   0  0  0  0  0  0
    8.1696   20.0555   22.7187 C   0  0  0  0  0  0
    7.2206   19.1252   22.2758 C   0  0  0  0  0  0
    7.6461   17.8653   21.8512 C   0  0  0  0  0  0
    8.9971   17.5206   21.8788 C   0  0  0  0  0  0
    9.9640   18.4029   22.3665 C   0  0  0  0  0  0
    9.5125   19.6581   22.7857 C   0  0  0  0  0  0
   10.2625   20.6732   23.2833 O   0  0  0  0  0  0
    9.4065   21.7630   23.4863 N   0  0  0  0  0  0
    6.7397   16.9817   21.3756 F   0  0  0  0  0  0
    7.8483   26.4190   26.0433 O   0  0  0  0  0  0
    3.6436   27.3634   31.3180 H   0  0  0  0  0  0
    2.2525   28.2937   29.5351 H   0  0  0  0  0  0
    3.0652   28.4025   27.1840 H   0  0  0  0  0  0
    5.9530   26.5775   30.8518 H   0  0  0  0  0  0
    4.9917   28.7242   25.2267 H   0  0  0  0  0  0
    6.1920   27.6432   24.5540 H   0  0  0  0  0  0
    3.9497   25.9886   25.4867 H   0  0  0  0  0  0
    3.3025   27.3344   24.6140 H   0  0  0  0  0  0
    3.5864   25.6090   23.0840 H   0  0  0  0  0  0
    4.7962   26.8246   22.6858 H   0  0  0  0  0  0
    4.3754   23.8543   24.6905 H   0  0  0  0  0  0
    4.3373   23.4023   23.0231 H   0  0  0  0  0  0
    6.5946   22.9508   25.0431 H   0  0  0  0  0  0
    5.5153   21.7626   24.2838 H   0  0  0  0  0  0
    6.4276   22.1838   22.1217 H   0  0  0  0  0  0
    8.0505   23.8267   21.5115 H   0  0  0  0  0  0
    8.1917   24.3522   23.2004 H   0  0  0  0  0  0
    5.7860   24.7043   21.4231 H   0  0  0  0  0  0
    6.8422   25.9172   22.0999 H   0  0  0  0  0  0
    6.1920   19.4068   22.1922 H   0  0  0  0  0  0
    9.3005   16.5623   21.4867 H   0  0  0  0  0  0
   11.0118   18.1440   22.3904 H   0  0  0  0  0  0
    8.6691   26.1619   26.4838 H   0  0  0  0  0  0
  1  6  1  0  0  0
  1  2  2  0  0  0
  1 30  1  0  0  0
  2  3  1  0  0  0
  2 31  1  0  0  0
  3  4  2  0  0  0
  3 32  1  0  0  0
  4  9  1  0  0  0
  4  5  1  0  0  0
  5  6  2  0  0  0
  5  7  1  0  0  0
  6 33  1  0  0  0
  7  8  2  0  0  0
  8  9  1  0  0  0
  8 29  1  0  0  0
  9 10  1  0  0  0
 10 11  1  0  0  0
 10 34  1  0  0  0
 10 35  1  0  0  0
 11 12  1  0  0  0
 11 36  1  0  0  0
 11 37  1  0  0  0
 12 13  1  0  0  0
 12 38  1  0  0  0
 12 39  1  0  0  0
 13 18  1  0  0  0
 13 14  1  0  0  0
 14 15  1  0  0  0
 14 40  1  0  0  0
 14 41  1  0  0  0
 15 16  1  0  0  0
 15 42  1  0  0  0
 15 43  1  0  0  0
 16 17  1  0  0  0
 16 19  1  0  0  0
 16 44  1  0  0  0
 17 18  1  0  0  0
 17 45  1  0  0  0
 17 46  1  0  0  0
 18 47  1  0  0  0
 18 48  1  0  0  0
 19 27  2  0  0  0
 19 20  1  0  0  0
 20 25  2  0  0  0
 20 21  1  0  0  0
 21 22  2  0  0  0
 21 49  1  0  0  0
 22 23  1  0  0  0
 22 28  1  0  0  0
 23 24  2  0  0  0
 23 50  1  0  0  0
 24 25  1  0  0  0
 24 51  1  0  0  0
 25 26  1  0  0  0
 26 27  1  0  0  0
 29 52  1  0  0  0
M  END
> <s_m_entry_id>
8260

> <s_m_entry_name>
ligand_docking-pose.15

> <s_m_Source_Path>
/home/csk/Desktop/cluster/DUD-E-result/drd3

> <s_m_Source_File>
ligand_docking-pose.sdf

> <i_m_Source_File_Index>
15

> <i_lp_mmshare_version>
53161

> <i_f3d_flags>
0

> <r_lp_tautomer_probability>
1

> <s_lp_Force_Field>
OPLS_2005

> <r_lp_Energy>
31.469767

> <b_lp_Chiralities_Consistent>
1

> <s_lp_Variant>
275057-1

> <s_i_glide_gridfile>
glide-grid_3pbl

> <i_i_glide_lignum>
2236

> <i_i_glide_rotatable_bonds>
6

> <r_i_docking_score>
-7.2991014496805

> <r_i_glide_ligand_efficiency>
-0.251693153437259

> <r_i_glide_ligand_efficiency_sa>
-0.773281109347264

> <r_i_glide_ligand_efficiency_ln>
-1.67130914273401

> <r_i_glide_gscore>
-7.2991014496805

> <r_i_glide_lipo>
-2.83948296162864

> <r_i_glide_hbond>
-0.32

> <r_i_glide_metal>
0

> <r_i_glide_rewards>
-2.20705826085518

> <r_i_glide_evdw>
-37.5644683837891

> <r_i_glide_ecoul>
-3.95309472084045

> <r_i_glide_erotb>
0.628112644872457

> <r_i_glide_esite>
-0.0894852447536168

> <r_i_glide_emodel>
-39.7042735132262

> <r_i_glide_energy>
-41.5175631046295

> <r_i_glide_einternal>
11.9139575958252

> <i_i_glide_confnum>
100

> <i_i_glide_posenum>
345

> <r_i_glide_eff_state_penalty>
0

> <s_user_duplicate_titles>
275057

> <s_m_subgroup_title>
dock_pv

> <s_m_subgroupid>
dock_pv1

> <b_m_subgroup_collapsed>
0

$$$$
336845
                    3D
 Schrodinger Suite 2021-1.
 64 66  0  0  1  0            999 V2000
    8.7053   16.4857   21.5435 C   0  0  0  0  0  0
    8.0032   17.8565   21.3730 C   0  0  0  0  0  0
    8.2615   18.3995   19.9603 C   0  0  0  0  0  0
    6.4948   17.5895   21.5130 C   0  0  0  0  0  0
    8.5049   18.9222   22.3690 C   0  0  0  0  0  0
    9.7999   18.8238   22.7596 N   0  0  0  0  0  0
   10.2913   19.8553   23.4856 C   0  0  0  0  0  0
    9.5328   20.9812   23.8004 C   0  0  0  0  0  0
    8.1923   21.0023   23.4108 C   0  0  0  0  0  0
    7.6749   19.9633   22.6842 N   0  0  0  0  0  0
    7.4281   22.1636   23.5558 N   0  0  0  0  0  0
    7.6156   23.0924   24.6861 C   0  0  0  0  0  0
    7.3915   24.5613   24.2883 C   0  0  0  0  0  0
    6.0047   24.7524   23.8577 N   0  0  0  0  0  0
    5.8406   23.9312   22.6524 C   0  0  0  0  0  0
    6.1237   22.4249   22.9225 C   0  0  0  0  0  0
    5.7401   26.1700   23.5819 C   0  0  0  0  0  0
    5.2109   26.9481   24.8121 C   0  0  0  0  0  0
    6.1353   27.0394   26.0510 C   0  0  0  0  0  0
    5.6942   28.0817   27.1017 C   0  0  0  0  0  0
    4.3774   27.8069   27.6962 N   0  0  0  0  0  0
    3.2190   28.3066   27.1633 C   0  0  0  0  0  0
    1.9756   28.0547   27.6294 C   0  0  0  0  0  0
    1.8562   27.1868   28.8006 C   0  0  0  0  0  0
    0.8038   26.8212   29.3196 O   0  0  0  0  0  0
    3.0587   26.7806   29.2944 N   0  0  0  0  0  0
    4.3254   27.0282   28.8367 C   0  0  0  0  0  0
    5.2935   26.5633   29.4397 O   0  0  0  0  0  0
    0.6985   28.6060   26.9957 C   0  0  0  0  0  0
    0.0331   29.3565   27.8726 F   0  0  0  0  0  0
    0.9880   29.3596   25.9335 F   0  0  0  0  0  0
   -0.0779   27.6024   26.5871 F   0  0  0  0  0  0
   11.7065   19.7133   23.9882 C   0  0  0  0  0  0
   12.1923   20.9089   24.3138 F   0  0  0  0  0  0
   11.6360   18.9634   25.0831 F   0  0  0  0  0  0
   12.5075   19.1356   23.0858 F   0  0  0  0  0  0
    2.9974   26.2092   30.1222 H   0  0  0  0  0  0
    8.3927   15.7731   20.7791 H   0  0  0  0  0  0
    8.4663   16.0524   22.5154 H   0  0  0  0  0  0
    9.7906   16.5651   21.4834 H   0  0  0  0  0  0
    7.7700   19.3628   19.8837 H   0  0  0  0  0  0
    9.3221   18.5604   19.7636 H   0  0  0  0  0  0
    7.8582   17.7598   19.1748 H   0  0  0  0  0  0
    5.9011   18.4758   21.2849 H   0  0  0  0  0  0
    6.1923   16.8076   20.8184 H   0  0  0  0  0  0
    6.2364   17.2595   22.5207 H   0  0  0  0  0  0
    9.9890   21.7974   24.3339 H   0  0  0  0  0  0
    6.8964   22.8240   25.4621 H   0  0  0  0  0  0
    8.5804   22.9811   25.1726 H   0  0  0  0  0  0
    7.6519   25.1892   25.1342 H   0  0  0  0  0  0
    8.0849   24.8367   23.4870 H   0  0  0  0  0  0
    6.4989   24.2903   21.8599 H   0  0  0  0  0  0
    4.8179   24.0388   22.2882 H   0  0  0  0  0  0
    6.0389   21.8687   21.9916 H   0  0  0  0  0  0
    5.3609   22.0422   23.5990 H   0  0  0  0  0  0
    6.6343   26.6579   23.1858 H   0  0  0  0  0  0
    4.9879   26.2618   22.7989 H   0  0  0  0  0  0
    5.0124   27.9664   24.4719 H   0  0  0  0  0  0
    4.2322   26.5535   25.0887 H   0  0  0  0  0  0
    6.2211   26.0635   26.5308 H   0  0  0  0  0  0
    7.1418   27.3036   25.7268 H   0  0  0  0  0  0
    6.4530   28.1565   27.8804 H   0  0  0  0  0  0
    5.6561   29.0688   26.6377 H   0  0  0  0  0  0
    3.4103   28.9369   26.3036 H   0  0  0  0  0  0
  1  2  1  0  0  0
  1 38  1  0  0  0
  1 39  1  0  0  0
  1 40  1  0  0  0
  2  3  1  0  0  0
  2  4  1  0  0  0
  2  5  1  0  0  0
  3 41  1  0  0  0
  3 42  1  0  0  0
  3 43  1  0  0  0
  4 44  1  0  0  0
  4 45  1  0  0  0
  4 46  1  0  0  0
  5 10  1  0  0  0
  5  6  2  0  0  0
  6  7  1  0  0  0
  7  8  2  0  0  0
  7 33  1  0  0  0
  8  9  1  0  0  0
  8 47  1  0  0  0
  9 10  2  0  0  0
  9 11  1  0  0  0
 11 16  1  0  0  0
 11 12  1  0  0  0
 12 13  1  0  0  0
 12 48  1  0  0  0
 12 49  1  0  0  0
 13 14  1  0  0  0
 13 50  1  0  0  0
 13 51  1  0  0  0
 14 15  1  0  0  0
 14 17  1  0  0  0
 15 16  1  0  0  0
 15 52  1  0  0  0
 15 53  1  0  0  0
 16 54  1  0  0  0
 16 55  1  0  0  0
 17 18  1  0  0  0
 17 56  1  0  0  0
 17 57  1  0  0  0
 18 19  1  0  0  0
 18 58  1  0  0  0
 18 59  1  0  0  0
 19 20  1  0  0  0
 19 60  1  0  0  0
 19 61  1  0  0  0
 20 21  1  0  0  0
 20 62  1  0  0  0
 20 63  1  0  0  0
 21 27  1  0  0  0
 21 22  1  0  0  0
 22 23  2  0  0  0
 22 64  1  0  0  0
 23 24  1  0  0  0
 23 29  1  0  0  0
 24 25  2  0  0  0
 24 26  1  0  0  0
 26 37  1  0  0  0
 26 27  1  0  0  0
 27 28  2  0  0  0
 29 30  1  0  0  0
 29 31  1  0  0  0
 29 32  1  0  0  0
 33 34  1  0  0  0
 33 35  1  0  0  0
 33 36  1  0  0  0
M  END
> <s_m_entry_id>
8261

> <s_m_entry_name>
ligand_docking-pose.16

> <s_m_Source_Path>
/home/csk/Desktop/cluster/DUD-E-result/drd3

> <s_m_Source_File>
ligand_docking-pose.sdf

> <i_m_Source_File_Index>
16

> <i_lp_mmshare_version>
53161

> <i_f3d_flags>
0

> <r_lp_tautomer_probability>
0.999537046341301

> <s_lp_Force_Field>
OPLS_2005

> <r_lp_Energy>
32.67958

> <b_lp_Chiralities_Consistent>
1

> <s_lp_Variant>
336845-1

> <s_i_glide_gridfile>
glide-grid_3pbl

> <i_i_glide_lignum>
876

> <i_i_glide_rotatable_bonds>
9

> <r_i_docking_score>
-7.26946759107247

> <r_i_glide_ligand_efficiency>
-0.201929655307569

> <r_i_glide_ligand_efficiency_sa>
-0.666757030423515

> <r_i_glide_ligand_efficiency_ln>
-1.58600143005432

> <r_i_glide_gscore>
-7.26946759107247

> <r_i_glide_lipo>
-2.72853557687293

> <r_i_glide_hbond>
-0.173068124415731

> <r_i_glide_metal>
0

> <r_i_glide_rewards>
-2.24519441738825

> <r_i_glide_evdw>
-42.021656036377

> <r_i_glide_ecoul>
-2.85029983520508

> <r_i_glide_erotb>
0.451971810255944

> <r_i_glide_esite>
-0.0460135055518906

> <r_i_glide_emodel>
-54.8284739210089

> <r_i_glide_energy>
-44.871955871582

> <r_i_glide_einternal>
7.31176948547363

> <i_i_glide_confnum>
32

> <i_i_glide_posenum>
273

> <r_i_glide_eff_state_penalty>
0

> <s_user_duplicate_titles>
336845

> <s_m_subgroup_title>
dock_pv

> <s_m_subgroupid>
dock_pv1

> <b_m_subgroup_collapsed>
0

$$$$
615540
                    3D
 Schrodinger Suite 2021-1.
 43 45  0  0  1  0            999 V2000
   11.1739   19.3633   22.8559 C   0  0  0  0  0  0
   10.3631   18.5319   22.0845 C   0  0  0  0  0  0
    8.9873   18.7610   21.9925 C   0  0  0  0  0  0
    8.4374   19.8457   22.6841 C   0  0  0  0  0  0
    9.2400   20.7071   23.4503 C   0  0  0  0  0  0
   10.6148   20.4434   23.5378 C   0  0  0  0  0  0
    8.6813   21.7628   24.2118 N   0  0  0  0  0  0
    9.1673   22.0739   25.5523 C   0  0  0  0  0  0
    8.1917   23.0828   26.0742 C   0  0  0  0  0  0
    7.2919   23.2303   24.9561 N   0  0  0  0  0  0
    7.6292   22.5515   23.8356 C   0  0  0  0  0  0
    7.0603   22.5947   22.7393 O   0  0  0  0  0  0
    6.0096   23.9241   25.1007 C   0  0  0  0  0  0
    6.1516   25.3832   25.5933 C   0  0  2  0  0  0
    4.7927   26.1220   25.6685 C   0  0  0  0  0  0
    4.2398   26.4490   24.2670 C   0  0  0  0  0  0
    5.3123   27.2141   23.4732 C   0  0  0  0  0  0
    6.6783   26.4933   23.4722 C   0  0  0  0  0  0
    7.1142   26.1954   24.8379 N   0  0  2  0  0  0
    8.1018   17.8346   21.1570 C   0  0  0  0  0  0
    8.1925   18.1838   19.8739 F   0  0  0  0  0  0
    6.8189   17.9144   21.5141 F   0  0  0  0  0  0
    8.4816   16.5626   21.2907 F   0  0  0  0  0  0
   12.2351   19.1736   22.9220 H   0  0  0  0  0  0
   10.8127   17.7049   21.5528 H   0  0  0  0  0  0
    7.3705   20.0161   22.6416 H   0  0  0  0  0  0
   11.2608   21.0774   24.1281 H   0  0  0  0  0  0
    9.1763   21.1843   26.1829 H   0  0  0  0  0  0
   10.1673   22.5071   25.5114 H   0  0  0  0  0  0
    7.6649   22.7218   26.9569 H   0  0  0  0  0  0
    8.6779   24.0318   26.3062 H   0  0  0  0  0  0
    5.4672   23.9093   24.1548 H   0  0  0  0  0  0
    5.3940   23.3668   25.8069 H   0  0  0  0  0  0
    6.5505   25.3274   26.6074 H   0  0  0  0  0  0
    4.0685   25.5547   26.2567 H   0  0  0  0  0  0
    4.9442   27.0781   26.1745 H   0  0  0  0  0  0
    3.9632   25.5338   23.7427 H   0  0  0  0  0  0
    3.3303   27.0470   24.3441 H   0  0  0  0  0  0
    4.9923   27.3629   22.4434 H   0  0  0  0  0  0
    5.4282   28.2167   23.8849 H   0  0  0  0  0  0
    6.6189   25.5635   22.9050 H   0  0  0  0  0  0
    7.4365   27.1079   22.9869 H   0  0  0  0  0  0
    8.0182   25.7309   24.8225 H   0  0  0  0  0  0
  1  6  1  0  0  0
  1  2  2  0  0  0
  1 24  1  0  0  0
  2  3  1  0  0  0
  2 25  1  0  0  0
  3  4  2  0  0  0
  3 20  1  0  0  0
  4  5  1  0  0  0
  4 26  1  0  0  0
  5  6  2  0  0  0
  5  7  1  0  0  0
  6 27  1  0  0  0
  7 11  1  0  0  0
  7  8  1  0  0  0
  8  9  1  0  0  0
  8 28  1  0  0  0
  8 29  1  0  0  0
  9 10  1  0  0  0
  9 30  1  0  0  0
  9 31  1  0  0  0
 10 11  1  0  0  0
 10 13  1  0  0  0
 11 12  2  0  0  0
 13 14  1  0  0  0
 13 32  1  0  0  0
 13 33  1  0  0  0
 14 19  1  0  0  0
 14 15  1  0  0  0
 14 34  1  0  0  0
 15 16  1  0  0  0
 15 35  1  0  0  0
 15 36  1  0  0  0
 16 17  1  0  0  0
 16 37  1  0  0  0
 16 38  1  0  0  0
 17 18  1  0  0  0
 17 39  1  0  0  0
 17 40  1  0  0  0
 18 19  1  0  0  0
 18 41  1  0  0  0
 18 42  1  0  0  0
 19 43  1  0  0  0
 20 21  1  0  0  0
 20 22  1  0  0  0
 20 23  1  0  0  0
M  END
> <s_m_entry_id>
8262

> <s_m_entry_name>
ligand_docking-pose.17

> <s_m_Source_Path>
/home/csk/Desktop/cluster/DUD-E-result/drd3

> <s_m_Source_File>
ligand_docking-pose.sdf

> <i_m_Source_File_Index>
17

> <i_lp_mmshare_version>
53161

> <i_f3d_flags>
0

> <r_lp_tautomer_probability>
1

> <s_lp_Force_Field>
OPLS_2005

> <r_lp_Energy>
59.187319

> <b_lp_Chiralities_Consistent>
1

> <s_lp_Variant>
615540-1

> <s_i_glide_gridfile>
glide-grid_3pbl

> <i_i_glide_lignum>
79

> <i_i_glide_rotatable_bonds>
4

> <r_i_docking_score>
-7.21846012136664

> <r_i_glide_ligand_efficiency>
-0.313846092233332

> <r_i_glide_ligand_efficiency_sa>
-0.892536537524975

> <r_i_glide_ligand_efficiency_ln>
-1.74548911072405

> <r_i_glide_gscore>
-7.21846012136664

> <r_i_glide_lipo>
-2.23411141885978

> <r_i_glide_hbond>
0

> <r_i_glide_metal>
0

> <r_i_glide_rewards>
-2.98964532240298

> <r_i_glide_evdw>
-33.4560585021973

> <r_i_glide_ecoul>
-4.21048402786255

> <r_i_glide_erotb>
0.525416469824981

> <r_i_glide_esite>
-0.215744320639613

> <r_i_glide_emodel>
-49.7126180731568

> <r_i_glide_energy>
-37.6665425300598

> <r_i_glide_einternal>
6.14978122711182

> <i_i_glide_confnum>
58

> <i_i_glide_posenum>
66

> <r_i_glide_eff_state_penalty>
0

> <s_user_duplicate_titles>
615540

> <s_m_subgroup_title>
dock_pv

> <s_m_subgroupid>
dock_pv1

> <b_m_subgroup_collapsed>
0

$$$$
338038
                    3D
 Schrodinger Suite 2021-1.
 72 75  0  0  1  0            999 V2000
    2.4834   28.1821   24.7752 C   0  0  0  0  0  0
    3.5849   27.2232   25.2568 C   0  0  2  0  0  0
    4.1110   26.3860   24.0578 C   0  0  0  0  0  0
    5.5647   25.9240   24.2338 C   0  0  0  0  0  0
    5.9236   24.7678   23.4117 N   0  0  0  0  0  0
    7.3764   24.6141   23.5159 C   0  0  0  0  0  0
    7.8520   23.4148   22.6811 C   0  0  0  0  0  0
    7.2284   22.1435   23.0875 N   0  0  0  0  0  0
    5.7749   22.2719   23.2230 C   0  0  0  0  0  0
    5.3106   23.5495   23.9616 C   0  0  0  0  0  0
    7.8927   20.9164   23.0839 C   0  0  0  0  0  0
    7.2515   19.7265   22.6840 C   0  0  0  0  0  0
    8.0522   18.5914   22.4826 C   0  0  0  0  0  0
    9.3955   18.6178   22.6811 N   0  0  0  0  0  0
    9.9210   19.8005   23.0974 C   0  0  0  0  0  0
    9.2355   20.9618   23.2236 N   0  0  0  0  0  0
   11.3323   19.7497   23.6936 C   0  0  0  0  0  0
   11.9235   21.1740   23.8987 C   0  0  0  0  0  0
   12.2730   18.9415   22.7528 C   0  0  0  0  0  0
   11.2175   19.0626   25.0801 C   0  0  0  0  0  0
    7.4628   17.2517   22.0353 C   0  0  0  0  0  0
    6.8446   16.6808   23.0670 F   0  0  0  0  0  0
    6.5747   17.4715   21.0716 F   0  0  0  0  0  0
    8.3769   16.4059   21.5617 F   0  0  0  0  0  0
    3.0915   26.2950   26.4047 C   0  0  0  0  0  0
    3.3571   26.7567   27.8029 N   0  0  0  0  0  0
    2.3905   27.5815   28.4522 C   0  0  0  0  0  0
    1.2546   28.1003   27.7961 C   0  0  0  0  0  0
    0.4114   29.0093   28.4229 C   0  0  0  0  0  0
    0.6337   29.3546   29.7476 C   0  0  0  0  0  0
    1.6660   28.7542   30.4481 C   0  0  0  0  0  0
    2.5399   27.8629   29.8225 C   0  0  0  0  0  0
    3.6501   27.1660   30.5841 C   0  0  0  0  0  0
    4.9032   26.9607   29.7096 C   0  0  0  0  0  0
    4.6130   26.4761   28.2703 C   0  0  0  0  0  0
    5.5038   25.8998   27.6351 O   0  0  0  0  0  0
    4.4074   27.8425   25.6182 H   0  0  0  0  0  0
    1.5660   27.6519   24.5251 H   0  0  0  0  0  0
    2.2702   28.9607   25.5007 H   0  0  0  0  0  0
    2.7903   28.7071   23.8763 H   0  0  0  0  0  0
    4.1398   27.0376   23.1822 H   0  0  0  0  0  0
    3.4198   25.5930   23.7767 H   0  0  0  0  0  0
    5.7920   25.7281   25.2759 H   0  0  0  0  0  0
    6.1997   26.7648   23.9536 H   0  0  0  0  0  0
    7.6824   24.4919   24.5541 H   0  0  0  0  0  0
    7.8691   25.5126   23.1439 H   0  0  0  0  0  0
    8.9393   23.3613   22.6861 H   0  0  0  0  0  0
    7.5979   23.5922   21.6366 H   0  0  0  0  0  0
    5.3213   22.2551   22.2264 H   0  0  0  0  0  0
    5.4186   21.4182   23.7834 H   0  0  0  0  0  0
    4.2265   23.6055   23.8825 H   0  0  0  0  0  0
    5.5233   23.4569   25.0241 H   0  0  0  0  0  0
    6.1909   19.7011   22.5003 H   0  0  0  0  0  0
   12.9851   21.1605   24.1492 H   0  0  0  0  0  0
   11.4269   21.7014   24.7191 H   0  0  0  0  0  0
   11.7895   21.7996   23.0179 H   0  0  0  0  0  0
   11.9774   17.8927   22.6735 H   0  0  0  0  0  0
   12.2476   19.3437   21.7446 H   0  0  0  0  0  0
   13.3109   18.9242   23.0858 H   0  0  0  0  0  0
   10.5931   18.1733   25.0459 H   0  0  0  0  0  0
   12.1838   18.7431   25.4476 H   0  0  0  0  0  0
   10.7857   19.7173   25.8364 H   0  0  0  0  0  0
    2.0341   26.0664   26.2826 H   0  0  0  0  0  0
    3.5729   25.3265   26.2766 H   0  0  0  0  0  0
    1.0111   27.8363   26.7845 H   0  0  0  0  0  0
   -0.4061   29.4444   27.8777 H   0  0  0  0  0  0
   -0.0098   30.0694   30.2403 H   0  0  0  0  0  0
    1.7904   28.9827   31.4918 H   0  0  0  0  0  0
    3.2848   26.2000   30.9346 H   0  0  0  0  0  0
    3.9152   27.7347   31.4805 H   0  0  0  0  0  0
    5.5760   26.2220   30.1583 H   0  0  0  0  0  0
    5.4393   27.9029   29.6243 H   0  0  0  0  0  0
  1  2  1  0  0  0
  1 38  1  0  0  0
  1 39  1  0  0  0
  1 40  1  0  0  0
  2 37  1  0  0  0
  2  3  1  0  0  0
  2 25  1  0  0  0
  3  4  1  0  0  0
  3 41  1  0  0  0
  3 42  1  0  0  0
  4  5  1  0  0  0
  4 43  1  0  0  0
  4 44  1  0  0  0
  5 10  1  0  0  0
  5  6  1  0  0  0
  6  7  1  0  0  0
  6 45  1  0  0  0
  6 46  1  0  0  0
  7  8  1  0  0  0
  7 47  1  0  0  0
  7 48  1  0  0  0
  8  9  1  0  0  0
  8 11  1  0  0  0
  9 10  1  0  0  0
  9 49  1  0  0  0
  9 50  1  0  0  0
 10 51  1  0  0  0
 10 52  1  0  0  0
 11 16  1  0  0  0
 11 12  2  0  0  0
 12 13  1  0  0  0
 12 53  1  0  0  0
 13 14  2  0  0  0
 13 21  1  0  0  0
 14 15  1  0  0  0
 15 16  2  0  0  0
 15 17  1  0  0  0
 17 18  1  0  0  0
 17 19  1  0  0  0
 17 20  1  0  0  0
 18 54  1  0  0  0
 18 55  1  0  0  0
 18 56  1  0  0  0
 19 57  1  0  0  0
 19 58  1  0  0  0
 19 59  1  0  0  0
 20 60  1  0  0  0
 20 61  1  0  0  0
 20 62  1  0  0  0
 21 22  1  0  0  0
 21 23  1  0  0  0
 21 24  1  0  0  0
 25 26  1  0  0  0
 25 63  1  0  0  0
 25 64  1  0  0  0
 26 35  1  0  0  0
 26 27  1  0  0  0
 27 32  2  0  0  0
 27 28  1  0  0  0
 28 29  2  0  0  0
 28 65  1  0  0  0
 29 30  1  0  0  0
 29 66  1  0  0  0
 30 31  2  0  0  0
 30 67  1  0  0  0
 31 32  1  0  0  0
 31 68  1  0  0  0
 32 33  1  0  0  0
 33 34  1  0  0  0
 33 69  1  0  0  0
 33 70  1  0  0  0
 34 35  1  0  0  0
 34 71  1  0  0  0
 34 72  1  0  0  0
 35 36  2  0  0  0
M  END
> <s_m_entry_id>
8263

> <s_m_entry_name>
ligand_docking-pose.18

> <s_m_Source_Path>
/home/csk/Desktop/cluster/DUD-E-result/drd3

> <s_m_Source_File>
ligand_docking-pose.sdf

> <i_m_Source_File_Index>
18

> <i_lp_mmshare_version>
53161

> <i_f3d_flags>
0

> <r_lp_tautomer_probability>
1

> <s_lp_Force_Field>
OPLS_2005

> <r_lp_Energy>
51.452542

> <b_lp_Chiralities_Consistent>
1

> <s_lp_Variant>
338038-1

> <s_i_glide_gridfile>
glide-grid_3pbl

> <i_i_glide_lignum>
1905

> <i_i_glide_rotatable_bonds>
8

> <r_i_docking_score>
-7.18913807977647

> <r_i_glide_ligand_efficiency>
-0.199698279993791

> <r_i_glide_ligand_efficiency_sa>
-0.659389191481242

> <r_i_glide_ligand_efficiency_ln>
-1.56847570094213

> <r_i_glide_gscore>
-7.18913807977647

> <r_i_glide_lipo>
-3.15324129688526

> <r_i_glide_hbond>
0

> <r_i_glide_metal>
0

> <r_i_glide_rewards>
-2.34795252012236

> <r_i_glide_evdw>
-43.526309967041

> <r_i_glide_ecoul>
0.811915040016174

> <r_i_glide_erotb>
0.402992189808617

> <r_i_glide_esite>
-0.0364082102278492

> <r_i_glide_emodel>
-48.0986577805742

> <r_i_glide_energy>
-42.7143949270248

> <r_i_glide_einternal>
9.97428607940674

> <i_i_glide_confnum>
51

> <i_i_glide_posenum>
302

> <r_i_glide_eff_state_penalty>
0

> <s_user_duplicate_titles>
338038

> <s_m_subgroup_title>
dock_pv

> <s_m_subgroupid>
dock_pv1

> <b_m_subgroup_collapsed>
0

$$$$
344147
                    3D
 Schrodinger Suite 2021-1.
 64 66  0  0  1  0            999 V2000
   11.9149   21.2059   23.9508 C   0  0  0  0  0  0
   11.3274   19.7786   23.7821 C   0  0  0  0  0  0
   12.2696   18.9303   22.8753 C   0  0  0  0  0  0
   11.2204   19.1464   25.1878 C   0  0  0  0  0  0
    9.9067   19.8148   23.2052 C   0  0  0  0  0  0
    9.4231   18.6552   22.6843 N   0  0  0  0  0  0
    8.0895   18.6012   22.4540 C   0  0  0  0  0  0
    7.2638   19.7077   22.6840 C   0  0  0  0  0  0
    7.8652   20.9179   23.0840 C   0  0  0  0  0  0
    9.1779   20.9403   23.4264 N   0  0  0  0  0  0
    7.1146   22.0645   23.3512 N   0  0  0  0  0  0
    7.6463   23.2719   24.0118 C   0  0  0  0  0  0
    6.5764   24.1791   24.6838 C   0  0  0  0  0  0
    5.4509   24.4717   23.7824 N   0  0  0  0  0  0
    4.8770   23.1916   23.3972 C   0  0  0  0  0  0
    5.8819   22.3560   22.6145 C   0  0  0  0  0  0
    4.3659   25.2106   24.4316 C   0  0  0  0  0  0
    4.7685   26.5740   25.0028 C   0  0  0  0  0  0
    3.5382   27.4732   25.2200 C   0  0  0  0  0  0
    3.7454   28.6408   26.1998 C   0  0  0  0  0  0
    3.5538   28.2881   27.6132 N   0  0  0  0  0  0
    2.3398   28.4848   28.2340 C   0  0  0  0  0  0
    2.0434   28.2035   29.5213 C   0  0  0  0  0  0
    3.1477   27.6375   30.2847 C   0  0  0  0  0  0
    4.3620   27.4655   29.7128 C   0  0  0  0  0  0
    4.6443   27.8403   28.3303 C   0  0  0  0  0  0
    5.7892   27.7615   27.8837 O   0  0  0  0  0  0
    0.6789   28.4722   30.1400 C   0  0  0  0  0  0
    0.0315   27.3186   30.2823 F   0  0  0  0  0  0
    0.8195   29.0489   31.3321 F   0  0  0  0  0  0
   -0.0450   29.2797   29.3627 F   0  0  0  0  0  0
    7.5305   17.2554   22.0011 C   0  0  0  0  0  0
    8.4646   16.4560   21.4817 F   0  0  0  0  0  0
    6.9821   16.6353   23.0460 F   0  0  0  0  0  0
    6.5917   17.4424   21.0783 F   0  0  0  0  0  0
   12.9708   21.1954   24.2004 H   0  0  0  0  0  0
   11.4169   21.7623   24.7469 H   0  0  0  0  0  0
   11.7921   21.8058   23.0531 H   0  0  0  0  0  0
   11.8834   17.9300   22.6838 H   0  0  0  0  0  0
   12.4008   19.3631   21.8866 H   0  0  0  0  0  0
   13.2556   18.7919   23.3116 H   0  0  0  0  0  0
   10.7541   18.1630   25.1638 H   0  0  0  0  0  0
   12.1920   19.0512   25.6611 H   0  0  0  0  0  0
   10.6104   19.7568   25.8560 H   0  0  0  0  0  0
    6.2039   19.6139   22.5223 H   0  0  0  0  0  0
    8.3675   22.9650   24.7707 H   0  0  0  0  0  0
    8.1804   23.8635   23.2663 H   0  0  0  0  0  0
    6.2225   23.7144   25.6059 H   0  0  0  0  0  0
    7.0596   25.1121   24.9762 H   0  0  0  0  0  0
    3.9820   23.3497   22.7924 H   0  0  0  0  0  0
    4.5919   22.6299   24.2838 H   0  0  0  0  0  0
    6.1567   22.9148   21.7291 H   0  0  0  0  0  0
    5.3921   21.4499   22.2839 H   0  0  0  0  0  0
    3.5461   25.3566   23.7256 H   0  0  0  0  0  0
    3.9474   24.6050   25.2405 H   0  0  0  0  0  0
    5.2147   26.3623   25.9689 H   0  0  0  0  0  0
    5.5538   27.0581   24.4204 H   0  0  0  0  0  0
    3.2699   27.8856   24.2458 H   0  0  0  0  0  0
    2.6781   26.8820   25.5422 H   0  0  0  0  0  0
    4.7216   29.1016   26.0334 H   0  0  0  0  0  0
    3.0093   29.4019   25.9525 H   0  0  0  0  0  0
    1.6180   28.9272   27.5609 H   0  0  0  0  0  0
    2.9936   27.3628   31.3209 H   0  0  0  0  0  0
    5.1784   27.0699   30.2970 H   0  0  0  0  0  0
  1  2  1  0  0  0
  1 36  1  0  0  0
  1 37  1  0  0  0
  1 38  1  0  0  0
  2  3  1  0  0  0
  2  4  1  0  0  0
  2  5  1  0  0  0
  3 39  1  0  0  0
  3 40  1  0  0  0
  3 41  1  0  0  0
  4 42  1  0  0  0
  4 43  1  0  0  0
  4 44  1  0  0  0
  5 10  1  0  0  0
  5  6  2  0  0  0
  6  7  1  0  0  0
  7  8  2  0  0  0
  7 32  1  0  0  0
  8  9  1  0  0  0
  8 45  1  0  0  0
  9 10  2  0  0  0
  9 11  1  0  0  0
 11 16  1  0  0  0
 11 12  1  0  0  0
 12 13  1  0  0  0
 12 46  1  0  0  0
 12 47  1  0  0  0
 13 14  1  0  0  0
 13 48  1  0  0  0
 13 49  1  0  0  0
 14 15  1  0  0  0
 14 17  1  0  0  0
 15 16  1  0  0  0
 15 50  1  0  0  0
 15 51  1  0  0  0
 16 52  1  0  0  0
 16 53  1  0  0  0
 17 18  1  0  0  0
 17 54  1  0  0  0
 17 55  1  0  0  0
 18 19  1  0  0  0
 18 56  1  0  0  0
 18 57  1  0  0  0
 19 20  1  0  0  0
 19 58  1  0  0  0
 19 59  1  0  0  0
 20 21  1  0  0  0
 20 60  1  0  0  0
 20 61  1  0  0  0
 21 26  1  0  0  0
 21 22  1  0  0  0
 22 23  2  0  0  0
 22 62  1  0  0  0
 23 24  1  0  0  0
 23 28  1  0  0  0
 24 25  2  0  0  0
 24 63  1  0  0  0
 25 26  1  0  0  0
 25 64  1  0  0  0
 26 27  2  0  0  0
 28 29  1  0  0  0
 28 30  1  0  0  0
 28 31  1  0  0  0
 32 33  1  0  0  0
 32 34  1  0  0  0
 32 35  1  0  0  0
M  END
> <s_m_entry_id>
8264

> <s_m_entry_name>
ligand_docking-pose.19

> <s_m_Source_Path>
/home/csk/Desktop/cluster/DUD-E-result/drd3

> <s_m_Source_File>
ligand_docking-pose.sdf

> <i_m_Source_File_Index>
19

> <i_lp_mmshare_version>
53161

> <i_f3d_flags>
0

> <r_lp_tautomer_probability>
1

> <s_lp_Force_Field>
OPLS_2005

> <r_lp_Energy>
45.349985

> <b_lp_Chiralities_Consistent>
1

> <s_lp_Variant>
344147-1

> <s_i_glide_gridfile>
glide-grid_3pbl

> <i_i_glide_lignum>
1630

> <i_i_glide_rotatable_bonds>
9

> <r_i_docking_score>
-7.18798453278079

> <r_i_glide_ligand_efficiency>
-0.20537098665088

> <r_i_glide_ligand_efficiency_sa>
-0.671782114727743

> <r_i_glide_ligand_efficiency_ln>
-1.57792213366691

> <r_i_glide_gscore>
-7.18798453278079

> <r_i_glide_lipo>
-2.8304480856934

> <r_i_glide_hbond>
0

> <r_i_glide_metal>
0

> <r_i_glide_rewards>
-2.09583822517931

> <r_i_glide_evdw>
-37.5936584472656

> <r_i_glide_ecoul>
-5.22932052612305

> <r_i_glide_erotb>
0.480266766024739

> <r_i_glide_esite>
-0.0778839866510805

> <r_i_glide_emodel>
-53.9398149158279

> <r_i_glide_energy>
-42.8229789733887

> <r_i_glide_einternal>
6.84086894989014

> <i_i_glide_confnum>
11

> <i_i_glide_posenum>
110

> <r_i_glide_eff_state_penalty>
0

> <s_user_duplicate_titles>
344147

> <s_m_subgroup_title>
dock_pv

> <s_m_subgroupid>
dock_pv1

> <b_m_subgroup_collapsed>
0

$$$$
407864
                    3D
 Schrodinger Suite 2021-1.
 53 56  0  0  1  0            999 V2000
    0.8957   28.9674   24.8668 C   0  0  0  0  0  0
    1.4244   29.0270   26.1876 O   0  0  0  0  0  0
    2.7033   28.5630   26.4214 C   0  0  0  0  0  0
    3.2113   28.7709   27.7022 C   0  0  0  0  0  0
    4.5054   28.4008   28.0701 C   0  0  0  0  0  0
    5.2952   27.8057   27.0824 C   0  0  0  0  0  0
    4.8137   27.5626   25.7603 C   0  0  0  0  0  0
    3.4979   27.9376   25.4495 C   0  0  0  0  0  0
    5.8740   26.9449   25.0073 C   0  0  0  0  0  0
    6.9454   26.8612   25.8842 C   0  0  0  0  0  0
    6.5922   27.3480   27.1155 N   0  0  0  0  0  0
    5.8037   26.5218   23.5413 C   0  0  0  0  0  0
    6.1852   25.1291   23.2650 N   0  0  1  0  0  0
    7.6191   24.9723   22.9966 C   0  0  0  0  0  0
    7.9898   23.5127   22.6286 C   0  0  0  0  0  0
    7.5281   22.4225   23.6309 C   0  0  0  0  0  0
    6.0158   22.7269   23.8805 C   0  0  0  0  0  0
    5.6787   24.1734   24.2571 C   0  0  0  0  0  0
    7.8334   21.0113   23.0840 C   0  0  0  0  0  0
    9.1543   20.5410   22.9804 C   0  0  0  0  0  0
    9.4078   19.2581   22.4811 C   0  0  0  0  0  0
    8.3412   18.4415   22.0982 C   0  0  0  0  0  0
    7.0386   18.9013   22.1964 C   0  0  0  0  0  0
    6.8016   20.1638   22.6840 C   0  0  0  0  0  0
    8.6223   16.8155   21.4881 S   0  0  0  0  0  0
    7.0214   15.9868   21.4051 C   0  0  0  0  0  0
    8.1920   22.5838   24.8676 O   0  0  0  0  0  0
    7.2325   27.3630   27.8974 H   0  0  0  0  0  0
   -0.0706   29.4660   24.8445 H   0  0  0  0  0  0
    0.7485   27.9368   24.5399 H   0  0  0  0  0  0
    1.5370   29.4798   24.1467 H   0  0  0  0  0  0
    2.5786   29.2496   28.4375 H   0  0  0  0  0  0
    4.8737   28.5823   29.0690 H   0  0  0  0  0  0
    3.1246   27.7611   24.4531 H   0  0  0  0  0  0
    7.9438   26.4679   25.7388 H   0  0  0  0  0  0
    4.7875   26.6525   23.1660 H   0  0  0  0  0  0
    6.4009   27.1983   22.9290 H   0  0  0  0  0  0
    7.8955   25.6278   22.1695 H   0  0  0  0  0  0
    8.1858   25.3303   23.8535 H   0  0  0  0  0  0
    7.6267   23.3034   21.6276 H   0  0  0  0  0  0
    9.0628   23.4167   22.4804 H   0  0  0  0  0  0
    5.6390   22.1001   24.6826 H   0  0  0  0  0  0
    5.3931   22.4583   23.0292 H   0  0  0  0  0  0
    6.0785   24.3930   25.2465 H   0  0  0  0  0  0
    4.5967   24.2875   24.3325 H   0  0  0  0  0  0
    9.9791   21.1686   23.2838 H   0  0  0  0  0  0
   10.4247   18.9012   22.4032 H   0  0  0  0  0  0
    6.1921   18.3119   21.8978 H   0  0  0  0  0  0
    5.7897   20.4738   22.7387 H   0  0  0  0  0  0
    7.1600   14.9630   21.0843 H   0  0  0  0  0  0
    6.5336   15.9828   22.3800 H   0  0  0  0  0  0
    6.3907   16.5034   20.6841 H   0  0  0  0  0  0
    8.9141   23.2189   24.7222 H   0  0  0  0  0  0
  1  2  1  0  0  0
  1 29  1  0  0  0
  1 30  1  0  0  0
  1 31  1  0  0  0
  2  3  1  0  0  0
  3  8  1  0  0  0
  3  4  2  0  0  0
  4  5  1  0  0  0
  4 32  1  0  0  0
  5  6  2  0  0  0
  5 33  1  0  0  0
  6 11  1  0  0  0
  6  7  1  0  0  0
  7  8  2  0  0  0
  7  9  1  0  0  0
  8 34  1  0  0  0
  9 10  2  0  0  0
  9 12  1  0  0  0
 10 11  1  0  0  0
 10 35  1  0  0  0
 11 28  1  0  0  0
 12 13  1  0  0  0
 12 36  1  0  0  0
 12 37  1  0  0  0
 13 18  1  0  0  0
 13 14  1  0  0  0
 14 15  1  0  0  0
 14 38  1  0  0  0
 14 39  1  0  0  0
 15 16  1  0  0  0
 15 40  1  0  0  0
 15 41  1  0  0  0
 16 17  1  0  0  0
 16 19  1  0  0  0
 16 27  1  0  0  0
 17 18  1  0  0  0
 17 42  1  0  0  0
 17 43  1  0  0  0
 18 44  1  0  0  0
 18 45  1  0  0  0
 19 24  1  0  0  0
 19 20  2  0  0  0
 20 21  1  0  0  0
 20 46  1  0  0  0
 21 22  2  0  0  0
 21 47  1  0  0  0
 22 23  1  0  0  0
 22 25  1  0  0  0
 23 24  2  0  0  0
 23 48  1  0  0  0
 24 49  1  0  0  0
 25 26  1  0  0  0
 26 50  1  0  0  0
 26 51  1  0  0  0
 26 52  1  0  0  0
 27 53  1  0  0  0
M  END
> <s_m_entry_id>
8265

> <s_m_entry_name>
ligand_docking-pose.20

> <s_m_Source_Path>
/home/csk/Desktop/cluster/DUD-E-result/drd3

> <s_m_Source_File>
ligand_docking-pose.sdf

> <i_m_Source_File_Index>
20

> <i_lp_mmshare_version>
53161

> <i_f3d_flags>
0

> <r_lp_tautomer_probability>
1

> <s_lp_Force_Field>
OPLS_2005

> <r_lp_Energy>
28.859677

> <b_lp_Chiralities_Consistent>
1

> <s_lp_Variant>
407864-1

> <s_i_glide_gridfile>
glide-grid_3pbl

> <i_i_glide_lignum>
2827

> <i_i_glide_rotatable_bonds>
6

> <r_i_docking_score>
-7.1876936992932

> <r_i_glide_ligand_efficiency>
-0.2662108777516

> <r_i_glide_ligand_efficiency_sa>
-0.798632632377413

> <r_i_glide_ligand_efficiency_ln>
-1.67317659480367

> <r_i_glide_gscore>
-7.1876936992932

> <r_i_glide_lipo>
-3.59549607761785

> <r_i_glide_hbond>
-0.16

> <r_i_glide_metal>
0

> <r_i_glide_rewards>
-1.32201243854318

> <r_i_glide_evdw>
-33.3375015258789

> <r_i_glide_ecoul>
-5.61016845703125

> <r_i_glide_erotb>
0.398215161716462

> <r_i_glide_esite>
0

> <r_i_glide_emodel>
-49.4432556183322

> <r_i_glide_energy>
-38.9476699829102

> <r_i_glide_einternal>
10.0196647644043

> <i_i_glide_confnum>
6

> <i_i_glide_posenum>
219

> <r_i_glide_eff_state_penalty>
0

> <s_user_duplicate_titles>
407864

> <s_m_subgroup_title>
dock_pv

> <s_m_subgroupid>
dock_pv1

> <b_m_subgroup_collapsed>
0

$$$$
338059
                    3D
 Schrodinger Suite 2021-1.
 67 70  0  0  1  0            999 V2000
    7.3448   16.5810   23.2131 C   0  0  0  0  0  0
    7.7985   17.4895   22.0509 C   0  0  0  0  0  0
    8.8065   16.7439   21.1583 C   0  0  0  0  0  0
    6.5969   17.7849   21.1147 C   0  0  0  0  0  0
    8.4215   18.7784   22.6328 C   0  0  0  0  0  0
    9.7086   18.7354   23.0764 N   0  0  0  0  0  0
   10.2221   19.8942   23.5698 C   0  0  0  0  0  0
    9.5006   21.0942   23.5783 C   0  0  0  0  0  0
    8.1939   21.0553   23.0840 C   0  0  0  0  0  0
    7.6290   19.8772   22.6841 N   0  0  0  0  0  0
    7.3671   22.1718   23.0840 N   0  0  0  0  0  0
    7.8221   23.5452   22.8358 C   0  0  0  0  0  0
    7.2372   24.5061   23.8970 C   0  0  0  0  0  0
    5.7776   24.5344   23.7398 N   0  0  0  0  0  0
    5.2349   23.1775   23.8840 C   0  0  0  0  0  0
    5.9070   22.1639   22.9381 C   0  0  0  0  0  0
    5.1035   25.4991   24.6201 C   0  0  0  0  0  0
    5.1041   25.2122   26.1519 C   0  0  0  0  0  0
    6.1926   25.9404   26.9604 C   0  0  0  0  0  0
    5.9077   27.4202   27.3025 C   0  0  0  0  0  0
    4.6941   27.6756   28.1218 N   0  0  0  0  0  0
    3.4988   28.1170   27.4869 C   0  0  0  0  0  0
    3.2814   28.1170   26.0996 C   0  0  0  0  0  0
    2.0652   28.5526   25.5680 C   0  0  0  0  0  0
    1.0633   29.0369   26.4082 C   0  0  0  0  0  0
    1.2782   29.0985   27.7839 C   0  0  0  0  0  0
    2.4839   28.6335   28.3053 C   0  0  0  0  0  0
    2.6861   28.7193   29.6618 O   0  0  0  0  0  0
    3.4356   27.6147   30.2009 C   0  0  0  0  0  0
    4.7774   27.3713   29.4545 C   0  0  0  0  0  0
    5.7826   26.9626   30.0380 O   0  0  0  0  0  0
   11.5895   19.7752   24.2128 C   0  0  0  0  0  0
   12.1746   20.9631   24.3731 F   0  0  0  0  0  0
   11.3922   19.2175   25.4075 F   0  0  0  0  0  0
   12.3904   18.9956   23.4819 F   0  0  0  0  0  0
    6.9131   15.6456   22.8550 H   0  0  0  0  0  0
    6.5927   17.0743   23.8298 H   0  0  0  0  0  0
    8.1802   16.3294   23.8674 H   0  0  0  0  0  0
    8.9921   17.3628   20.2839 H   0  0  0  0  0  0
    9.7678   16.5638   21.6341 H   0  0  0  0  0  0
    8.4229   15.7831   20.8109 H   0  0  0  0  0  0
    6.8959   18.4229   20.2837 H   0  0  0  0  0  0
    6.1921   16.8688   20.6893 H   0  0  0  0  0  0
    5.7921   18.3057   21.6202 H   0  0  0  0  0  0
    9.9184   22.0079   23.9805 H   0  0  0  0  0  0
    8.8998   23.6046   22.6856 H   0  0  0  0  0  0
    7.4755   23.8409   21.8452 H   0  0  0  0  0  0
    7.5222   24.1760   24.8972 H   0  0  0  0  0  0
    7.6539   25.5043   23.7573 H   0  0  0  0  0  0
    4.1599   23.1988   23.7062 H   0  0  0  0  0  0
    5.3923   22.7923   24.8883 H   0  0  0  0  0  0
    5.6411   22.3669   21.9009 H   0  0  0  0  0  0
    5.5403   21.1702   23.1640 H   0  0  0  0  0  0
    5.5608   26.4711   24.4285 H   0  0  0  0  0  0
    4.0729   25.6012   24.2769 H   0  0  0  0  0  0
    4.1153   25.3953   26.5720 H   0  0  0  0  0  0
    5.2959   24.1627   26.3509 H   0  0  0  0  0  0
    6.3725   25.3973   27.8900 H   0  0  0  0  0  0
    7.1400   25.8862   26.4232 H   0  0  0  0  0  0
    6.7859   27.7845   27.8351 H   0  0  0  0  0  0
    5.8640   28.0047   26.3848 H   0  0  0  0  0  0
    4.0317   27.7733   25.4105 H   0  0  0  0  0  0
    1.9065   28.5263   24.4990 H   0  0  0  0  0  0
    0.1278   29.3765   25.9893 H   0  0  0  0  0  0
    0.5195   29.4973   28.4418 H   0  0  0  0  0  0
    2.8531   26.6992   30.0844 H   0  0  0  0  0  0
    3.6296   27.7613   31.2626 H   0  0  0  0  0  0
  1  2  1  0  0  0
  1 36  1  0  0  0
  1 37  1  0  0  0
  1 38  1  0  0  0
  2  3  1  0  0  0
  2  4  1  0  0  0
  2  5  1  0  0  0
  3 39  1  0  0  0
  3 40  1  0  0  0
  3 41  1  0  0  0
  4 42  1  0  0  0
  4 43  1  0  0  0
  4 44  1  0  0  0
  5 10  1  0  0  0
  5  6  2  0  0  0
  6  7  1  0  0  0
  7  8  2  0  0  0
  7 32  1  0  0  0
  8  9  1  0  0  0
  8 45  1  0  0  0
  9 10  2  0  0  0
  9 11  1  0  0  0
 11 16  1  0  0  0
 11 12  1  0  0  0
 12 13  1  0  0  0
 12 46  1  0  0  0
 12 47  1  0  0  0
 13 14  1  0  0  0
 13 48  1  0  0  0
 13 49  1  0  0  0
 14 15  1  0  0  0
 14 17  1  0  0  0
 15 16  1  0  0  0
 15 50  1  0  0  0
 15 51  1  0  0  0
 16 52  1  0  0  0
 16 53  1  0  0  0
 17 18  1  0  0  0
 17 54  1  0  0  0
 17 55  1  0  0  0
 18 19  1  0  0  0
 18 56  1  0  0  0
 18 57  1  0  0  0
 19 20  1  0  0  0
 19 58  1  0  0  0
 19 59  1  0  0  0
 20 21  1  0  0  0
 20 60  1  0  0  0
 20 61  1  0  0  0
 21 30  1  0  0  0
 21 22  1  0  0  0
 22 27  2  0  0  0
 22 23  1  0  0  0
 23 24  2  0  0  0
 23 62  1  0  0  0
 24 25  1  0  0  0
 24 63  1  0  0  0
 25 26  2  0  0  0
 25 64  1  0  0  0
 26 27  1  0  0  0
 26 65  1  0  0  0
 27 28  1  0  0  0
 28 29  1  0  0  0
 29 30  1  0  0  0
 29 66  1  0  0  0
 29 67  1  0  0  0
 30 31  2  0  0  0
 32 33  1  0  0  0
 32 34  1  0  0  0
 32 35  1  0  0  0
M  END
> <s_m_entry_id>
8266

> <s_m_entry_name>
ligand_docking-pose.21

> <s_m_Source_Path>
/home/csk/Desktop/cluster/DUD-E-result/drd3

> <s_m_Source_File>
ligand_docking-pose.sdf

> <i_m_Source_File_Index>
21

> <i_lp_mmshare_version>
53161

> <i_f3d_flags>
0

> <r_lp_tautomer_probability>
1

> <s_lp_Force_Field>
OPLS_2005

> <r_lp_Energy>
45.544043

> <b_lp_Chiralities_Consistent>
1

> <s_lp_Variant>
338059-1

> <s_i_glide_gridfile>
glide-grid_3pbl

> <i_i_glide_lignum>
1159

> <i_i_glide_rotatable_bonds>
8

> <r_i_docking_score>
-7.17969850307915

> <r_i_glide_ligand_efficiency>
-0.205134242945119

> <r_i_glide_ligand_efficiency_sa>
-0.671007710368597

> <r_i_glide_ligand_efficiency_ln>
-1.57610316624888

> <r_i_glide_gscore>
-7.17969850307915

> <r_i_glide_lipo>
-3.05531932428702

> <r_i_glide_hbond>
-0.0302994488660318

> <r_i_glide_metal>
0

> <r_i_glide_rewards>
-2.04082829157809

> <r_i_glide_evdw>
-43.5976905822754

> <r_i_glide_ecoul>
-1.68802380561829

> <r_i_glide_erotb>
0.421287334984451

> <r_i_glide_esite>
-0.0414506733759453

> <r_i_glide_emodel>
-51.4455185786199

> <r_i_glide_energy>
-45.2857143878937

> <r_i_glide_einternal>
16.7331562042236

> <i_i_glide_confnum>
60

> <i_i_glide_posenum>
155

> <r_i_glide_eff_state_penalty>
0

> <s_user_duplicate_titles>
338059

> <s_m_subgroup_title>
dock_pv

> <s_m_subgroupid>
dock_pv1

> <b_m_subgroup_collapsed>
0

$$$$
338058
                    3D
 Schrodinger Suite 2021-1.
 72 75  0  0  1  0            999 V2000
    6.1918   26.6556   22.2859 C   0  0  0  0  0  0
    5.5896   26.1293   23.6082 C   0  0  1  0  0  0
    4.0634   26.3790   23.6615 C   0  0  0  0  0  0
    3.6024   27.3940   24.7321 C   0  0  0  0  0  0
    2.8164   26.7337   25.8835 C   0  0  0  0  0  0
    2.7865   27.5295   27.1306 N   0  0  0  0  0  0
    3.8495   27.3376   28.0601 C   0  0  0  0  0  0
    5.0422   26.6705   27.7193 C   0  0  0  0  0  0
    6.0558   26.4979   28.6561 C   0  0  0  0  0  0
    5.8834   26.9629   29.9545 C   0  0  0  0  0  0
    4.7072   27.6135   30.3114 C   0  0  0  0  0  0
    3.6848   27.7995   29.3787 C   0  0  0  0  0  0
    2.3859   28.5030   29.7295 C   0  0  0  0  0  0
    1.8902   29.3323   28.5194 C   0  0  0  0  0  0
    1.8311   28.5088   27.2069 C   0  0  0  0  0  0
    1.0048   28.7670   26.3286 O   0  0  0  0  0  0
    5.9129   24.7160   23.8784 N   0  0  0  0  0  0
    5.6497   23.7885   22.7643 C   0  0  0  0  0  0
    6.0012   22.3233   23.1260 C   0  0  0  0  0  0
    7.3836   22.1630   23.6098 N   0  0  0  0  0  0
    7.6051   23.1298   24.6992 C   0  0  0  0  0  0
    7.3224   24.5749   24.2567 C   0  0  0  0  0  0
    8.1921   21.0389   23.3974 C   0  0  0  0  0  0
    9.5453   21.0556   23.7411 C   0  0  0  0  0  0
   10.3112   19.9325   23.4284 C   0  0  0  0  0  0
    9.8276   18.8950   22.7015 N   0  0  0  0  0  0
    8.5234   18.9639   22.3373 C   0  0  0  0  0  0
    7.6793   19.9832   22.6840 N   0  0  0  0  0  0
    7.9960   17.8146   21.4419 C   0  0  0  0  0  0
    8.7024   16.4691   21.7157 C   0  0  0  0  0  0
    8.2380   18.1631   19.9669 C   0  0  0  0  0  0
    6.4923   17.5723   21.6390 C   0  0  0  0  0  0
   11.7069   19.7652   23.9795 C   0  0  0  0  0  0
   12.5321   19.2175   23.0841 F   0  0  0  0  0  0
   12.1920   20.9399   24.3754 F   0  0  0  0  0  0
   11.5980   18.9644   25.0373 F   0  0  0  0  0  0
    6.0484   26.7134   24.4082 H   0  0  0  0  0  0
    5.9170   27.6976   22.1339 H   0  0  0  0  0  0
    7.2798   26.5925   22.2840 H   0  0  0  0  0  0
    5.7948   26.1226   21.4239 H   0  0  0  0  0  0
    3.7821   26.7796   22.6936 H   0  0  0  0  0  0
    3.4987   25.4494   23.7496 H   0  0  0  0  0  0
    4.4446   27.9694   25.1177 H   0  0  0  0  0  0
    2.9534   28.1380   24.2675 H   0  0  0  0  0  0
    1.8087   26.4836   25.5459 H   0  0  0  0  0  0
    3.2586   25.7633   26.1091 H   0  0  0  0  0  0
    5.2204   26.2925   26.7241 H   0  0  0  0  0  0
    6.9731   26.0006   28.3736 H   0  0  0  0  0  0
    6.6695   26.8294   30.6836 H   0  0  0  0  0  0
    4.5901   27.9765   31.3225 H   0  0  0  0  0  0
    2.5177   29.1487   30.5997 H   0  0  0  0  0  0
    1.6326   27.7656   30.0128 H   0  0  0  0  0  0
    2.5669   30.1657   28.3354 H   0  0  0  0  0  0
    0.9040   29.7553   28.7156 H   0  0  0  0  0  0
    6.2319   24.0620   21.8844 H   0  0  0  0  0  0
    4.5986   23.8470   22.4828 H   0  0  0  0  0  0
    5.8052   21.6682   22.2811 H   0  0  0  0  0  0
    5.3355   21.9840   23.9190 H   0  0  0  0  0  0
    6.9413   22.8665   25.5251 H   0  0  0  0  0  0
    8.5921   23.0599   25.1425 H   0  0  0  0  0  0
    7.5720   25.2500   25.0770 H   0  0  0  0  0  0
    7.9758   24.8350   23.4231 H   0  0  0  0  0  0
    9.9896   21.8865   24.2679 H   0  0  0  0  0  0
    8.3011   15.6593   21.1038 H   0  0  0  0  0  0
    8.5911   16.1746   22.7585 H   0  0  0  0  0  0
    9.7670   16.5323   21.4841 H   0  0  0  0  0  0
    7.7920   19.1147   19.7406 H   0  0  0  0  0  0
    9.2989   18.2545   19.7386 H   0  0  0  0  0  0
    7.7919   17.4329   19.2905 H   0  0  0  0  0  0
    5.9003   18.4298   21.3173 H   0  0  0  0  0  0
    6.1791   16.7159   21.0462 H   0  0  0  0  0  0
    6.2454   17.3609   22.6806 H   0  0  0  0  0  0
  1  2  1  0  0  0
  1 38  1  0  0  0
  1 39  1  0  0  0
  1 40  1  0  0  0
  2 37  1  0  0  0
  2  3  1  0  0  0
  2 17  1  0  0  0
  3  4  1  0  0  0
  3 41  1  0  0  0
  3 42  1  0  0  0
  4  5  1  0  0  0
  4 43  1  0  0  0
  4 44  1  0  0  0
  5  6  1  0  0  0
  5 45  1  0  0  0
  5 46  1  0  0  0
  6 15  1  0  0  0
  6  7  1  0  0  0
  7 12  2  0  0  0
  7  8  1  0  0  0
  8  9  2  0  0  0
  8 47  1  0  0  0
  9 10  1  0  0  0
  9 48  1  0  0  0
 10 11  2  0  0  0
 10 49  1  0  0  0
 11 12  1  0  0  0
 11 50  1  0  0  0
 12 13  1  0  0  0
 13 14  1  0  0  0
 13 51  1  0  0  0
 13 52  1  0  0  0
 14 15  1  0  0  0
 14 53  1  0  0  0
 14 54  1  0  0  0
 15 16  2  0  0  0
 17 22  1  0  0  0
 17 18  1  0  0  0
 18 19  1  0  0  0
 18 55  1  0  0  0
 18 56  1  0  0  0
 19 20  1  0  0  0
 19 57  1  0  0  0
 19 58  1  0  0  0
 20 21  1  0  0  0
 20 23  1  0  0  0
 21 22  1  0  0  0
 21 59  1  0  0  0
 21 60  1  0  0  0
 22 61  1  0  0  0
 22 62  1  0  0  0
 23 28  1  0  0  0
 23 24  2  0  0  0
 24 25  1  0  0  0
 24 63  1  0  0  0
 25 26  2  0  0  0
 25 33  1  0  0  0
 26 27  1  0  0  0
 27 28  2  0  0  0
 27 29  1  0  0  0
 29 30  1  0  0  0
 29 31  1  0  0  0
 29 32  1  0  0  0
 30 64  1  0  0  0
 30 65  1  0  0  0
 30 66  1  0  0  0
 31 67  1  0  0  0
 31 68  1  0  0  0
 31 69  1  0  0  0
 32 70  1  0  0  0
 32 71  1  0  0  0
 32 72  1  0  0  0
 33 34  1  0  0  0
 33 35  1  0  0  0
 33 36  1  0  0  0
M  END
> <s_m_entry_id>
8267

> <s_m_entry_name>
ligand_docking-pose.22

> <s_m_Source_Path>
/home/csk/Desktop/cluster/DUD-E-result/drd3

> <s_m_Source_File>
ligand_docking-pose.sdf

> <i_m_Source_File_Index>
22

> <i_lp_mmshare_version>
53161

> <i_f3d_flags>
0

> <r_lp_tautomer_probability>
1

> <s_lp_Force_Field>
OPLS_2005

> <r_lp_Energy>
53.286601

> <b_lp_Chiralities_Consistent>
1

> <s_lp_Variant>
338058-1

> <s_i_glide_gridfile>
glide-grid_3pbl

> <i_i_glide_lignum>
1405

> <i_i_glide_rotatable_bonds>
8

> <r_i_docking_score>
-7.17527406051298

> <r_i_glide_ligand_efficiency>
-0.199313168347583

> <r_i_glide_ligand_efficiency_sa>
-0.65811758084428

> <r_i_glide_ligand_efficiency_ln>
-1.56545094650135

> <r_i_glide_gscore>
-7.17527406051298

> <r_i_glide_lipo>
-3.097836342656

> <r_i_glide_hbond>
0

> <r_i_glide_metal>
0

> <r_i_glide_rewards>
-2.14772751022485

> <r_i_glide_evdw>
-40.9982376098633

> <r_i_glide_ecoul>
-1.58903706073761

> <r_i_glide_erotb>
0.402992189808617

> <r_i_glide_esite>
-0.0444349578369454

> <r_i_glide_emodel>
-47.1830936737652

> <r_i_glide_energy>
-42.5872746706009

> <r_i_glide_einternal>
17.8809394836426

> <i_i_glide_confnum>
19

> <i_i_glide_posenum>
303

> <r_i_glide_eff_state_penalty>
0

> <s_user_duplicate_titles>
338058

> <s_m_subgroup_title>
dock_pv

> <s_m_subgroupid>
dock_pv1

> <b_m_subgroup_collapsed>
0

$$$$
336727
                    3D
 Schrodinger Suite 2021-1.
 64 66  0  0  1  0            999 V2000
    1.3904   29.2409   27.0458 C   0  0  0  0  0  0
    2.5720   28.6955   27.8361 C   0  0  0  0  0  0
    3.7308   28.2933   27.2702 C   0  0  0  0  0  0
    4.7953   27.7569   27.9548 N   0  0  0  0  0  0
    4.6914   27.5553   29.3200 C   0  0  0  0  0  0
    5.5170   26.9707   30.0216 O   0  0  0  0  0  0
    3.5409   28.0411   29.8842 N   0  0  0  0  0  0
    2.4562   28.6129   29.2915 C   0  0  0  0  0  0
    1.4914   28.9952   29.9499 O   0  0  0  0  0  0
    6.0712   27.4098   27.2950 C   0  0  0  0  0  0
    6.2847   25.9053   27.0370 C   0  0  0  0  0  0
    5.1650   25.2195   26.2325 C   0  0  0  0  0  0
    5.1307   25.5500   24.7099 C   0  0  0  0  0  0
    5.7783   24.6003   23.7902 N   0  0  0  0  0  0
    5.2187   23.2467   23.9067 C   0  0  0  0  0  0
    5.8641   22.2361   22.9374 C   0  0  0  0  0  0
    7.3256   22.2140   23.0841 N   0  0  0  0  0  0
    7.7931   23.5854   22.8445 C   0  0  0  0  0  0
    7.2389   24.5410   23.9275 C   0  0  0  0  0  0
    8.1471   21.0893   23.0840 C   0  0  0  0  0  0
    9.4648   21.1244   23.5501 C   0  0  0  0  0  0
   10.2050   19.9396   23.4672 C   0  0  0  0  0  0
    9.7025   18.8040   22.9190 N   0  0  0  0  0  0
    8.3938   18.8294   22.5610 C   0  0  0  0  0  0
    7.5791   19.9101   22.6847 N   0  0  0  0  0  0
    7.7797   17.5228   22.0229 C   0  0  0  0  0  0
    8.7862   16.7477   21.1545 C   0  0  0  0  0  0
    6.5931   17.7971   21.0785 C   0  0  0  0  0  0
    7.3251   16.6521   23.2132 C   0  0  0  0  0  0
   11.5812   19.8000   24.0873 C   0  0  0  0  0  0
   11.3922   19.1988   25.2625 F   0  0  0  0  0  0
   12.3793   19.0490   23.3229 F   0  0  0  0  0  0
   12.1685   20.9783   24.2896 F   0  0  0  0  0  0
    3.4784   27.9632   30.8900 H   0  0  0  0  0  0
    0.5673   28.5258   27.0566 H   0  0  0  0  0  0
    1.0276   30.1711   27.4818 H   0  0  0  0  0  0
    1.6516   29.4380   26.0061 H   0  0  0  0  0  0
    3.8833   28.3000   26.1993 H   0  0  0  0  0  0
    6.9129   27.7635   27.8871 H   0  0  0  0  0  0
    6.1234   27.9480   26.3479 H   0  0  0  0  0  0
    6.3986   25.3987   27.9962 H   0  0  0  0  0  0
    7.2432   25.7672   26.5366 H   0  0  0  0  0  0
    4.1903   25.4188   26.6774 H   0  0  0  0  0  0
    5.3345   24.1608   26.4037 H   0  0  0  0  0  0
    5.5851   26.5266   24.5364 H   0  0  0  0  0  0
    4.0932   25.6697   24.3953 H   0  0  0  0  0  0
    4.1400   23.2856   23.7565 H   0  0  0  0  0  0
    5.3948   22.8384   24.8986 H   0  0  0  0  0  0
    5.5982   22.4651   21.9047 H   0  0  0  0  0  0
    5.4713   21.2493   23.1449 H   0  0  0  0  0  0
    8.8703   23.6304   22.6849 H   0  0  0  0  0  0
    7.4427   23.8999   21.8607 H   0  0  0  0  0  0
    7.5298   24.1872   24.9177 H   0  0  0  0  0  0
    7.6763   25.5327   23.8016 H   0  0  0  0  0  0
    9.8871   22.0212   23.9760 H   0  0  0  0  0  0
    8.3947   15.7893   20.8104 H   0  0  0  0  0  0
    9.7384   16.5627   21.6455 H   0  0  0  0  0  0
    8.9925   17.3632   20.2839 H   0  0  0  0  0  0
    5.7921   18.3386   21.5646 H   0  0  0  0  0  0
    6.9014   18.4076   20.2313 H   0  0  0  0  0  0
    6.1919   16.8665   20.6847 H   0  0  0  0  0  0
    6.5884   17.1727   23.8258 H   0  0  0  0  0  0
    6.8765   15.7136   22.8848 H   0  0  0  0  0  0
    8.1632   16.4052   23.8651 H   0  0  0  0  0  0
  1  2  1  0  0  0
  1 35  1  0  0  0
  1 36  1  0  0  0
  1 37  1  0  0  0
  2  8  1  0  0  0
  2  3  2  0  0  0
  3  4  1  0  0  0
  3 38  1  0  0  0
  4  5  1  0  0  0
  4 10  1  0  0  0
  5  6  2  0  0  0
  5  7  1  0  0  0
  7 34  1  0  0  0
  7  8  1  0  0  0
  8  9  2  0  0  0
 10 11  1  0  0  0
 10 39  1  0  0  0
 10 40  1  0  0  0
 11 12  1  0  0  0
 11 41  1  0  0  0
 11 42  1  0  0  0
 12 13  1  0  0  0
 12 43  1  0  0  0
 12 44  1  0  0  0
 13 14  1  0  0  0
 13 45  1  0  0  0
 13 46  1  0  0  0
 14 19  1  0  0  0
 14 15  1  0  0  0
 15 16  1  0  0  0
 15 47  1  0  0  0
 15 48  1  0  0  0
 16 17  1  0  0  0
 16 49  1  0  0  0
 16 50  1  0  0  0
 17 18  1  0  0  0
 17 20  1  0  0  0
 18 19  1  0  0  0
 18 51  1  0  0  0
 18 52  1  0  0  0
 19 53  1  0  0  0
 19 54  1  0  0  0
 20 25  1  0  0  0
 20 21  2  0  0  0
 21 22  1  0  0  0
 21 55  1  0  0  0
 22 23  2  0  0  0
 22 30  1  0  0  0
 23 24  1  0  0  0
 24 25  2  0  0  0
 24 26  1  0  0  0
 26 27  1  0  0  0
 26 28  1  0  0  0
 26 29  1  0  0  0
 27 56  1  0  0  0
 27 57  1  0  0  0
 27 58  1  0  0  0
 28 59  1  0  0  0
 28 60  1  0  0  0
 28 61  1  0  0  0
 29 62  1  0  0  0
 29 63  1  0  0  0
 29 64  1  0  0  0
 30 31  1  0  0  0
 30 32  1  0  0  0
 30 33  1  0  0  0
M  END
> <s_m_entry_id>
8268

> <s_m_entry_name>
ligand_docking-pose.23

> <s_m_Source_Path>
/home/csk/Desktop/cluster/DUD-E-result/drd3

> <s_m_Source_File>
ligand_docking-pose.sdf

> <i_m_Source_File_Index>
23

> <i_lp_mmshare_version>
53161

> <i_f3d_flags>
0

> <r_lp_tautomer_probability>
0.999537046341301

> <s_lp_Force_Field>
OPLS_2005

> <r_lp_Energy>
29.73943

> <b_lp_Chiralities_Consistent>
1

> <s_lp_Variant>
336727-1

> <s_i_glide_gridfile>
glide-grid_3pbl

> <i_i_glide_lignum>
405

> <i_i_glide_rotatable_bonds>
8

> <r_i_docking_score>
-7.17335490341266

> <r_i_glide_ligand_efficiency>
-0.217374391012505

> <r_i_glide_ligand_efficiency_sa>
-0.697235820821916

> <r_i_glide_ligand_efficiency_ln>
-1.59531698887506

> <r_i_glide_gscore>
-7.17335490341266

> <r_i_glide_lipo>
-2.63451598803227

> <r_i_glide_hbond>
-0.073201350478671

> <r_i_glide_metal>
0

> <r_i_glide_rewards>
-2.31980903940941

> <r_i_glide_evdw>
-44.9377937316895

> <r_i_glide_ecoul>
-2.44052934646606

> <r_i_glide_erotb>
0.551887605489304

> <r_i_glide_esite>
-0.0847470424272252

> <r_i_glide_emodel>
-53.7069634805737

> <r_i_glide_energy>
-47.3783230781555

> <r_i_glide_einternal>
15.9232769012451

> <i_i_glide_confnum>
2

> <i_i_glide_posenum>
285

> <r_i_glide_eff_state_penalty>
0

> <s_user_duplicate_titles>
336727

> <s_m_subgroup_title>
dock_pv

> <s_m_subgroupid>
dock_pv1

> <b_m_subgroup_collapsed>
0

$$$$
39187
                    3D
 Schrodinger Suite 2021-1.
 56 59  0  0  1  0            999 V2000
    6.5756   25.4767   23.2345 C   0  0  0  0  0  0
    5.5680   25.0997   24.1669 O   0  0  0  0  0  0
    5.7314   25.6359   25.4270 C   0  0  0  0  0  0
    4.8698   26.7057   25.8177 C   0  0  0  0  0  0
    3.8106   27.1675   24.9885 C   0  0  0  0  0  0
    2.9395   28.1589   25.4344 C   0  0  0  0  0  0
    3.1120   28.7386   26.6852 C   0  0  0  0  0  0
    4.1648   28.3514   27.5064 C   0  0  0  0  0  0
    5.0474   27.3201   27.0955 C   0  0  0  0  0  0
    6.0852   26.8714   27.9331 C   0  0  0  0  0  0
    6.8593   25.7771   27.5664 C   0  0  0  0  0  0
    6.6753   25.1205   26.3446 C   0  0  0  0  0  0
    7.3793   23.8023   26.0856 C   0  0  0  0  0  0
    6.8290   22.9472   25.3983 O   0  0  0  0  0  0
    8.5619   23.5940   26.6977 N   0  0  0  0  0  0
    9.2322   22.2967   26.8832 C   0  0  0  0  0  0
   10.5248   22.0743   26.0480 C   0  0  0  0  0  0
   10.4770   21.3225   24.7844 N   0  0  0  0  0  0
   10.8584   19.9088   24.8931 C   0  0  0  0  0  0
   10.9484   19.2453   23.4981 C   0  0  0  0  0  0
    9.7682   19.4612   22.6540 N   0  0  0  0  0  0
    9.2759   20.8465   22.6780 C   0  0  0  0  0  0
    9.2203   21.4843   24.0671 C   0  0  0  0  0  0
    8.9831   18.4562   22.1230 C   0  0  0  0  0  0
    8.5919   17.3629   22.8896 C   0  0  0  0  0  0
    7.7253   16.4073   22.3787 C   0  0  0  0  0  0
    7.2518   16.5570   21.0839 C   0  0  0  0  0  0
    7.6455   17.6356   20.2934 C   0  0  0  0  0  0
    8.5314   18.5629   20.8104 C   0  0  0  0  0  0
    6.3469   25.0416   22.2626 H   0  0  0  0  0  0
    6.6188   26.5600   23.1092 H   0  0  0  0  0  0
    7.5642   25.1231   23.5295 H   0  0  0  0  0  0
    3.6617   26.7240   24.0144 H   0  0  0  0  0  0
    2.1279   28.4825   24.8007 H   0  0  0  0  0  0
    2.4229   29.5002   27.0207 H   0  0  0  0  0  0
    4.2956   28.8138   28.4746 H   0  0  0  0  0  0
    6.2278   27.3550   28.8913 H   0  0  0  0  0  0
    7.5732   25.4042   28.2836 H   0  0  0  0  0  0
    9.0602   24.4074   27.0314 H   0  0  0  0  0  0
    9.5150   22.2685   27.9374 H   0  0  0  0  0  0
    8.5514   21.4526   26.7838 H   0  0  0  0  0  0
   11.1313   22.9631   25.9492 H   0  0  0  0  0  0
   11.1240   21.4276   26.6698 H   0  0  0  0  0  0
   11.8425   19.8478   25.3577 H   0  0  0  0  0  0
   10.1920   19.3594   25.5510 H   0  0  0  0  0  0
   11.0978   18.1685   23.6182 H   0  0  0  0  0  0
   11.8270   19.6072   22.9630 H   0  0  0  0  0  0
    8.2468   20.8258   22.3333 H   0  0  0  0  0  0
    9.7925   21.4885   21.9704 H   0  0  0  0  0  0
    8.4036   21.0321   24.6235 H   0  0  0  0  0  0
    8.9917   22.5454   23.9607 H   0  0  0  0  0  0
    8.9645   17.2493   23.8899 H   0  0  0  0  0  0
    7.4242   15.5644   22.9818 H   0  0  0  0  0  0
    6.5921   15.8065   20.6839 H   0  0  0  0  0  0
    7.2943   17.7626   19.2806 H   0  0  0  0  0  0
    8.8769   19.3631   20.1841 H   0  0  0  0  0  0
  1  2  1  0  0  0
  1 30  1  0  0  0
  1 31  1  0  0  0
  1 32  1  0  0  0
  2  3  1  0  0  0
  3 12  1  0  0  0
  3  4  2  0  0  0
  4  9  1  0  0  0
  4  5  1  0  0  0
  5  6  2  0  0  0
  5 33  1  0  0  0
  6  7  1  0  0  0
  6 34  1  0  0  0
  7  8  2  0  0  0
  7 35  1  0  0  0
  8  9  1  0  0  0
  8 36  1  0  0  0
  9 10  2  0  0  0
 10 11  1  0  0  0
 10 37  1  0  0  0
 11 12  2  0  0  0
 11 38  1  0  0  0
 12 13  1  0  0  0
 13 14  2  0  0  0
 13 15  1  0  0  0
 15 16  1  0  0  0
 15 39  1  0  0  0
 16 17  1  0  0  0
 16 40  1  0  0  0
 16 41  1  0  0  0
 17 18  1  0  0  0
 17 42  1  0  0  0
 17 43  1  0  0  0
 18 23  1  0  0  0
 18 19  1  0  0  0
 19 20  1  0  0  0
 19 44  1  0  0  0
 19 45  1  0  0  0
 20 21  1  0  0  0
 20 46  1  0  0  0
 20 47  1  0  0  0
 21 22  1  0  0  0
 21 24  1  0  0  0
 22 23  1  0  0  0
 22 48  1  0  0  0
 22 49  1  0  0  0
 23 50  1  0  0  0
 23 51  1  0  0  0
 24 29  1  0  0  0
 24 25  2  0  0  0
 25 26  1  0  0  0
 25 52  1  0  0  0
 26 27  2  0  0  0
 26 53  1  0  0  0
 27 28  1  0  0  0
 27 54  1  0  0  0
 28 29  2  0  0  0
 28 55  1  0  0  0
 29 56  1  0  0  0
M  END
> <s_m_entry_id>
8269

> <s_m_entry_name>
ligand_docking-pose.24

> <s_m_Source_Path>
/home/csk/Desktop/cluster/DUD-E-result/drd3

> <s_m_Source_File>
ligand_docking-pose.sdf

> <i_m_Source_File_Index>
24

> <i_lp_mmshare_version>
53161

> <i_f3d_flags>
0

> <r_lp_tautomer_probability>
1

> <s_lp_Force_Field>
OPLS_2005

> <r_lp_Energy>
54.654889

> <b_lp_Chiralities_Consistent>
1

> <s_lp_Variant>
39187-1

> <s_i_glide_gridfile>
glide-grid_3pbl

> <i_i_glide_lignum>
2539

> <i_i_glide_rotatable_bonds>
7

> <r_i_docking_score>
-7.11941542144024

> <r_i_glide_ligand_efficiency>
-0.245497083497939

> <r_i_glide_ligand_efficiency_sa>
-0.754244819440934

> <r_i_glide_ligand_efficiency_ln>
-1.63016559871152

> <r_i_glide_gscore>
-7.11941542144024

> <r_i_glide_lipo>
-3.86596379466221

> <r_i_glide_hbond>
-0.249157554018141

> <r_i_glide_metal>
0

> <r_i_glide_rewards>
-1.61493048995938

> <r_i_glide_evdw>
-39.9352951049805

> <r_i_glide_ecoul>
-0.474409610033035

> <r_i_glide_erotb>
0.771040230715126

> <r_i_glide_esite>
-0.0924776167616602

> <r_i_glide_emodel>
-46.2416214583291

> <r_i_glide_energy>
-40.4097047150135

> <r_i_glide_einternal>
11.8144340515137

> <i_i_glide_confnum>
85

> <i_i_glide_posenum>
53

> <r_i_glide_eff_state_penalty>
0

> <s_user_duplicate_titles>
39187

> <s_m_subgroup_title>
dock_pv

> <s_m_subgroupid>
dock_pv1

> <b_m_subgroup_collapsed>
0

$$$$
66843
                    3D
 Schrodinger Suite 2021-1.
 63 66  0  0  1  0            999 V2000
   10.8357   19.9979   23.3779 C   0  0  0  0  0  0
   12.1920   19.7630   23.4840 C   0  0  0  0  0  0
   12.8040   18.7673   22.7069 C   0  0  0  0  0  0
   12.0499   17.9332   21.9319 C   0  0  0  0  0  0
   10.6951   18.1285   21.8840 C   0  0  0  0  0  0
   10.0758   19.2070   22.5154 C   0  0  0  0  0  0
    8.6288   19.5452   22.1540 C   0  0  0  0  0  0
    8.0493   20.7485   22.9907 C   0  0  0  0  0  0
    6.5944   21.2079   22.6840 C   0  0  0  0  0  0
    6.5045   22.7035   22.2840 C   0  0  0  0  0  0
    6.3922   23.6158   23.4211 N   0  0  1  0  0  0
    6.9976   24.9186   23.1256 C   0  0  0  0  0  0
    6.8909   25.8976   24.3146 C   0  0  0  0  0  0
    5.4605   26.0891   24.9097 C   0  0  0  0  0  0
    4.7708   24.6999   24.9683 C   0  0  0  0  0  0
    4.9812   23.7764   23.7608 C   0  0  0  0  0  0
    5.4309   26.6319   26.3556 C   0  0  0  0  0  0
    6.3459   26.1978   27.3262 C   0  0  0  0  0  0
    6.1920   26.5630   28.6600 C   0  0  0  0  0  0
    5.1163   27.3508   29.0616 C   0  0  0  0  0  0
    4.1752   27.7905   28.1172 C   0  0  0  0  0  0
    4.3421   27.4115   26.7776 C   0  0  0  0  0  0
    2.9748   28.6486   28.5315 C   0  0  0  0  0  0
    2.1908   28.9632   27.4978 F   0  0  0  0  0  0
    2.2329   27.9881   29.4210 F   0  0  0  0  0  0
    3.4000   29.7847   29.0835 F   0  0  0  0  0  0
    4.9921   27.7478   30.7397 Cl  0  0  0  0  0  0
    4.7060   26.8401   23.9688 O   0  0  0  0  0  0
    7.7678   18.3080   22.0223 C   0  0  0  0  0  0
    7.8926   17.4840   20.8971 C   0  0  0  0  0  0
    7.4995   16.1628   20.9950 C   0  0  0  0  0  0
    6.8047   15.7475   22.1126 C   0  0  0  0  0  0
    6.5666   16.6019   23.1348 C   0  0  0  0  0  0
    6.9920   17.9049   23.0840 C   0  0  0  0  0  0
    6.1955   14.5629   22.1973 F   0  0  0  0  0  0
   14.1337   18.5616   22.6840 F   0  0  0  0  0  0
   10.4271   20.8302   23.9300 H   0  0  0  0  0  0
   12.7515   20.4192   24.1278 H   0  0  0  0  0  0
   12.5144   17.1318   21.3858 H   0  0  0  0  0  0
   10.1864   17.4346   21.2560 H   0  0  0  0  0  0
    8.7434   19.7630   21.0998 H   0  0  0  0  0  0
    8.1920   20.5631   24.0525 H   0  0  0  0  0  0
    8.7081   21.5982   22.8063 H   0  0  0  0  0  0
    6.1919   20.5945   21.8839 H   0  0  0  0  0  0
    5.9081   20.9954   23.4840 H   0  0  0  0  0  0
    7.4230   22.9629   21.7586 H   0  0  0  0  0  0
    5.6975   22.8654   21.5701 H   0  0  0  0  0  0
    8.0533   24.7650   22.8932 H   0  0  0  0  0  0
    6.5495   25.3505   22.2285 H   0  0  0  0  0  0
    7.6412   25.6239   25.0529 H   0  0  0  0  0  0
    7.2652   26.8698   23.9927 H   0  0  0  0  0  0
    3.6986   24.8405   25.1182 H   0  0  0  0  0  0
    5.0454   24.1629   25.8768 H   0  0  0  0  0  0
    4.4153   24.1446   22.9031 H   0  0  0  0  0  0
    4.5914   22.7876   23.9840 H   0  0  0  0  0  0
    7.1659   25.5411   27.0800 H   0  0  0  0  0  0
    6.9065   26.2162   29.3915 H   0  0  0  0  0  0
    3.6020   27.7095   26.0487 H   0  0  0  0  0  0
    5.2952   27.4430   23.5110 H   0  0  0  0  0  0
    8.4575   17.7977   20.0303 H   0  0  0  0  0  0
    7.7470   15.4683   20.2167 H   0  0  0  0  0  0
    5.9472   16.1985   23.8840 H   0  0  0  0  0  0
    6.7604   18.5759   23.8840 H   0  0  0  0  0  0
  1  6  1  0  0  0
  1  2  2  0  0  0
  1 37  1  0  0  0
  2  3  1  0  0  0
  2 38  1  0  0  0
  3  4  2  0  0  0
  3 36  1  0  0  0
  4  5  1  0  0  0
  4 39  1  0  0  0
  5  6  2  0  0  0
  5 40  1  0  0  0
  6  7  1  0  0  0
  7  8  1  0  0  0
  7 29  1  0  0  0
  7 41  1  0  0  0
  8  9  1  0  0  0
  8 42  1  0  0  0
  8 43  1  0  0  0
  9 10  1  0  0  0
  9 44  1  0  0  0
  9 45  1  0  0  0
 10 11  1  0  0  0
 10 46  1  0  0  0
 10 47  1  0  0  0
 11 16  1  0  0  0
 11 12  1  0  0  0
 12 13  1  0  0  0
 12 48  1  0  0  0
 12 49  1  0  0  0
 13 14  1  0  0  0
 13 50  1  0  0  0
 13 51  1  0  0  0
 14 15  1  0  0  0
 14 17  1  0  0  0
 14 28  1  0  0  0
 15 16  1  0  0  0
 15 52  1  0  0  0
 15 53  1  0  0  0
 16 54  1  0  0  0
 16 55  1  0  0  0
 17 22  1  0  0  0
 17 18  2  0  0  0
 18 19  1  0  0  0
 18 56  1  0  0  0
 19 20  2  0  0  0
 19 57  1  0  0  0
 20 21  1  0  0  0
 20 27  1  0  0  0
 21 22  2  0  0  0
 21 23  1  0  0  0
 22 58  1  0  0  0
 23 24  1  0  0  0
 23 25  1  0  0  0
 23 26  1  0  0  0
 28 59  1  0  0  0
 29 34  1  0  0  0
 29 30  2  0  0  0
 30 31  1  0  0  0
 30 60  1  0  0  0
 31 32  2  0  0  0
 31 61  1  0  0  0
 32 33  1  0  0  0
 32 35  1  0  0  0
 33 34  2  0  0  0
 33 62  1  0  0  0
 34 63  1  0  0  0
M  END
> <s_m_entry_id>
8270

> <s_m_entry_name>
ligand_docking-pose.25

> <s_m_Source_Path>
/home/csk/Desktop/cluster/DUD-E-result/drd3

> <s_m_Source_File>
ligand_docking-pose.sdf

> <i_m_Source_File_Index>
25

> <i_lp_mmshare_version>
53161

> <i_f3d_flags>
0

> <r_lp_tautomer_probability>
1

> <s_lp_Force_Field>
OPLS_2005

> <r_lp_Energy>
38.288773

> <b_lp_Chiralities_Consistent>
1

> <s_lp_Variant>
66843-1

> <s_i_glide_gridfile>
glide-grid_3pbl

> <i_i_glide_lignum>
1878

> <i_i_glide_rotatable_bonds>
9

> <r_i_docking_score>
-7.11911734379669

> <r_i_glide_ligand_efficiency>
-0.197753259549908

> <r_i_glide_ligand_efficiency_sa>
-0.6529668754856

> <r_i_glide_ligand_efficiency_ln>
-1.55319906809301

> <r_i_glide_gscore>
-7.11911734379669

> <r_i_glide_lipo>
-4.55830573519333

> <r_i_glide_hbond>
0

> <r_i_glide_metal>
0

> <r_i_glide_rewards>
-1.58732975867748

> <r_i_glide_evdw>
-23.5334243774414

> <r_i_glide_ecoul>
-2.00809574127197

> <r_i_glide_erotb>
0.524568163873039

> <r_i_glide_esite>
-0.0201644337360491

> <r_i_glide_emodel>
-53.7959372066872

> <r_i_glide_energy>
-25.5415201187134

> <r_i_glide_einternal>
9.68619537353516

> <i_i_glide_confnum>
9

> <i_i_glide_posenum>
146

> <r_i_glide_eff_state_penalty>
0

> <s_user_duplicate_titles>
66843

> <s_m_subgroup_title>
dock_pv

> <s_m_subgroupid>
dock_pv1

> <b_m_subgroup_collapsed>
0

$$$$
470655
                    3D
 Schrodinger Suite 2021-1.
 54 59  0  0  1  0            999 V2000
    7.6305   16.9647   21.1909 C   0  0  0  0  0  0
    6.8450   18.0319   21.5863 C   0  0  0  0  0  0
    7.3874   19.1058   22.2818 C   0  0  0  0  0  0
    8.7823   19.1679   22.5417 C   0  0  0  0  0  0
    9.6034   18.0997   22.0760 C   0  0  0  0  0  0
    8.9920   16.9888   21.4427 C   0  0  0  0  0  0
   11.0055   18.1569   22.2836 C   0  0  0  0  0  0
   11.5876   19.1260   23.0966 C   0  0  0  0  0  0
   10.7457   20.0960   23.6365 C   0  0  0  0  0  0
    9.3813   20.2057   23.3151 C   0  0  0  0  0  0
    8.9172   21.4373   23.8985 C   0  0  0  0  0  0
    9.9579   21.7607   24.7707 C   0  0  0  0  0  0
   11.0907   21.0360   24.5530 O   0  0  0  0  0  0
    7.6450   22.2215   23.5930 C   0  0  0  0  0  0
    7.3919   23.3504   24.5089 N   0  0  1  0  0  0
    7.2931   24.6516   23.8268 C   0  0  1  0  0  0
    5.9217   24.6058   23.1323 C   0  0  0  0  0  0
    5.0669   23.7971   24.1097 C   0  0  0  0  0  0
    6.0806   23.2741   25.1533 C   0  0  2  0  0  0
    6.1677   24.1323   26.4392 C   0  0  0  0  0  0
    6.5943   25.6140   26.2010 C   0  0  1  0  0  0
    7.4290   25.7988   24.8830 C   0  0  0  0  0  0
    5.3456   26.5379   26.3465 C   0  0  0  0  0  0
    4.7017   26.6619   27.5944 C   0  0  0  0  0  0
    3.5267   27.3958   27.7344 C   0  0  0  0  0  0
    2.9535   27.9935   26.6170 C   0  0  0  0  0  0
    3.5532   27.8626   25.3697 C   0  0  0  0  0  0
    4.7426   27.1531   25.2384 C   0  0  0  0  0  0
    1.4903   28.8962   26.7746 Cl  0  0  0  0  0  0
    7.3918   26.0293   27.3062 O   0  0  0  0  0  0
    7.1876   16.1199   20.6842 H   0  0  0  0  0  0
    5.7919   18.0128   21.3760 H   0  0  0  0  0  0
    6.7172   19.8725   22.6166 H   0  0  0  0  0  0
    9.6070   16.1645   21.1106 H   0  0  0  0  0  0
   11.6215   17.3634   21.8834 H   0  0  0  0  0  0
   12.6394   19.0987   23.3364 H   0  0  0  0  0  0
   10.0820   22.5630   25.4803 H   0  0  0  0  0  0
    6.7598   21.6010   23.5215 H   0  0  0  0  0  0
    7.7607   22.6143   22.5821 H   0  0  0  0  0  0
    8.0888   24.7733   23.0873 H   0  0  0  0  0  0
    5.5156   25.5824   22.8830 H   0  0  0  0  0  0
    6.0064   24.0691   22.1865 H   0  0  0  0  0  0
    4.2734   24.3904   24.5658 H   0  0  0  0  0  0
    4.5927   22.9651   23.5904 H   0  0  0  0  0  0
    5.8406   22.2531   25.4518 H   0  0  0  0  0  0
    6.9044   23.6477   27.0822 H   0  0  0  0  0  0
    5.2262   24.0670   26.9841 H   0  0  0  0  0  0
    7.2758   26.7707   24.4178 H   0  0  0  0  0  0
    8.4856   25.8124   25.1533 H   0  0  0  0  0  0
    5.1180   26.1815   28.4673 H   0  0  0  0  0  0
    3.0572   27.4892   28.7028 H   0  0  0  0  0  0
    3.1016   28.3175   24.5003 H   0  0  0  0  0  0
    5.1699   27.0989   24.2548 H   0  0  0  0  0  0
    8.3125   26.0980   27.0264 H   0  0  0  0  0  0
  1  6  1  0  0  0
  1  2  2  0  0  0
  1 31  1  0  0  0
  2  3  1  0  0  0
  2 32  1  0  0  0
  3  4  2  0  0  0
  3 33  1  0  0  0
  4 10  1  0  0  0
  4  5  1  0  0  0
  5  6  2  0  0  0
  5  7  1  0  0  0
  6 34  1  0  0  0
  7  8  2  0  0  0
  7 35  1  0  0  0
  8  9  1  0  0  0
  8 36  1  0  0  0
  9 13  1  0  0  0
  9 10  2  0  0  0
 10 11  1  0  0  0
 11 12  2  0  0  0
 11 14  1  0  0  0
 12 13  1  0  0  0
 12 37  1  0  0  0
 14 15  1  0  0  0
 14 38  1  0  0  0
 14 39  1  0  0  0
 15 19  1  0  0  0
 15 16  1  0  0  0
 16 22  1  0  0  0
 16 17  1  0  0  0
 16 40  1  0  0  0
 17 18  1  0  0  0
 17 41  1  0  0  0
 17 42  1  0  0  0
 18 19  1  0  0  0
 18 43  1  0  0  0
 18 44  1  0  0  0
 19 20  1  0  0  0
 19 45  1  0  0  0
 20 21  1  0  0  0
 20 46  1  0  0  0
 20 47  1  0  0  0
 21 22  1  0  0  0
 21 23  1  0  0  0
 21 30  1  0  0  0
 22 48  1  0  0  0
 22 49  1  0  0  0
 23 28  1  0  0  0
 23 24  2  0  0  0
 24 25  1  0  0  0
 24 50  1  0  0  0
 25 26  2  0  0  0
 25 51  1  0  0  0
 26 27  1  0  0  0
 26 29  1  0  0  0
 27 28  2  0  0  0
 27 52  1  0  0  0
 28 53  1  0  0  0
 30 54  1  0  0  0
M  END
> <s_m_entry_id>
8271

> <s_m_entry_name>
ligand_docking-pose.26

> <s_m_Source_Path>
/home/csk/Desktop/cluster/DUD-E-result/drd3

> <s_m_Source_File>
ligand_docking-pose.sdf

> <i_m_Source_File_Index>
26

> <i_lp_mmshare_version>
53161

> <i_f3d_flags>
0

> <r_lp_tautomer_probability>
1

> <s_lp_Force_Field>
OPLS_2005

> <r_lp_Energy>
69.712591

> <b_lp_Chiralities_Consistent>
1

> <s_lp_Variant>
470655-2

> <s_i_glide_gridfile>
glide-grid_3pbl

> <i_i_glide_lignum>
1024

> <i_i_glide_rotatable_bonds>
4

> <r_i_docking_score>
-7.11653239162355

> <r_i_glide_ligand_efficiency>
-0.237217746387452

> <r_i_glide_ligand_efficiency_sa>
-0.737090691728545

> <r_i_glide_ligand_efficiency_ln>
-1.61695370020781

> <r_i_glide_gscore>
-7.11653239162355

> <r_i_glide_lipo>
-3.50187679322424

> <r_i_glide_hbond>
-0.260542614931489

> <r_i_glide_metal>
0

> <r_i_glide_rewards>
-1.37086544668291

> <r_i_glide_evdw>
-40.5437393188477

> <r_i_glide_ecoul>
-1.9708137512207

> <r_i_glide_erotb>
0.339561491840581

> <r_i_glide_esite>
0

> <r_i_glide_emodel>
-44.2063569046614

> <r_i_glide_energy>
-42.5145530700684

> <r_i_glide_einternal>
4.7813720703125

> <i_i_glide_confnum>
12

> <i_i_glide_posenum>
386

> <r_i_glide_eff_state_penalty>
0

> <s_user_duplicate_titles>
470655

> <s_m_subgroup_title>
dock_pv

> <s_m_subgroupid>
dock_pv1

> <b_m_subgroup_collapsed>
0

$$$$
344083
                    3D
 Schrodinger Suite 2021-1.
 64 66  0  0  1  0            999 V2000
    1.4810   29.5272   27.3866 C   0  0  0  0  0  0
    2.6237   28.7994   28.0897 C   0  0  0  0  0  0
    3.1301   29.2865   29.2440 C   0  0  0  0  0  0
    4.2073   28.5630   29.8840 C   0  0  0  0  0  0
    4.6612   27.4269   29.3212 C   0  0  0  0  0  0
    4.0875   26.8608   28.1089 C   0  0  0  0  0  0
    4.4899   25.7632   27.7221 O   0  0  0  0  0  0
    3.0976   27.6203   27.5010 N   0  0  0  0  0  0
    2.5495   27.0676   26.2402 C   0  0  0  0  0  0
    3.3116   27.5141   24.9690 C   0  0  0  0  0  0
    4.6022   26.7456   24.6306 C   0  0  0  0  0  0
    4.3195   25.2538   24.4265 C   0  0  0  0  0  0
    5.3854   24.5397   23.7240 N   0  0  0  0  0  0
    4.8331   23.2395   23.3844 C   0  0  0  0  0  0
    5.8360   22.4136   22.5946 C   0  0  0  0  0  0
    7.0666   22.1326   23.3343 N   0  0  0  0  0  0
    7.6016   23.3625   23.9532 C   0  0  0  0  0  0
    6.5432   24.3019   24.5995 C   0  0  0  0  0  0
    7.8110   20.9769   23.0840 C   0  0  0  0  0  0
    7.2117   19.7629   22.6840 C   0  0  0  0  0  0
    8.0368   18.6580   22.4460 C   0  0  0  0  0  0
    9.3684   18.7099   22.6840 N   0  0  0  0  0  0
    9.8488   19.8682   23.2128 C   0  0  0  0  0  0
    9.1220   20.9956   23.4309 N   0  0  0  0  0  0
   11.2734   19.8287   23.7768 C   0  0  0  0  0  0
   12.1957   19.0181   22.8253 C   0  0  0  0  0  0
   11.1912   19.1566   25.1622 C   0  0  0  0  0  0
   11.8590   21.2528   23.9730 C   0  0  0  0  0  0
    7.4770   17.3227   21.9596 C   0  0  0  0  0  0
    6.5943   17.5365   20.9875 F   0  0  0  0  0  0
    8.4199   16.5055   21.4834 F   0  0  0  0  0  0
    6.8593   16.7080   22.9689 F   0  0  0  0  0  0
    1.2390   30.4685   27.8837 H   0  0  0  0  0  0
    1.7420   29.7626   26.3545 H   0  0  0  0  0  0
    0.5753   28.9203   27.3911 H   0  0  0  0  0  0
    2.7453   30.1927   29.6921 H   0  0  0  0  0  0
    4.6590   28.9484   30.7878 H   0  0  0  0  0  0
    5.4818   26.8987   29.7815 H   0  0  0  0  0  0
    1.5025   27.3487   26.1389 H   0  0  0  0  0  0
    2.5152   25.9790   26.2763 H   0  0  0  0  0  0
    3.5534   28.5630   25.0459 H   0  0  0  0  0  0
    2.6394   27.4269   24.1141 H   0  0  0  0  0  0
    5.3008   26.8698   25.4576 H   0  0  0  0  0  0
    5.1030   27.1700   23.7585 H   0  0  0  0  0  0
    3.3763   25.1677   23.8841 H   0  0  0  0  0  0
    4.1317   24.7762   25.3901 H   0  0  0  0  0  0
    3.9187   23.3610   22.8012 H   0  0  0  0  0  0
    4.5920   22.6851   24.2839 H   0  0  0  0  0  0
    6.0959   22.9659   21.7004 H   0  0  0  0  0  0
    5.3571   21.4976   22.2839 H   0  0  0  0  0  0
    8.3210   23.0869   24.7246 H   0  0  0  0  0  0
    8.1298   23.9264   23.1821 H   0  0  0  0  0  0
    6.2280   23.8868   25.5596 H   0  0  0  0  0  0
    7.0203   25.2574   24.8231 H   0  0  0  0  0  0
    6.1553   19.6662   22.5160 H   0  0  0  0  0  0
   13.2249   18.9630   23.1684 H   0  0  0  0  0  0
   12.1927   19.4594   21.8327 H   0  0  0  0  0  0
   11.8622   17.9904   22.6840 H   0  0  0  0  0  0
   10.5656   19.7342   25.8432 H   0  0  0  0  0  0
   10.7507   18.1630   25.1103 H   0  0  0  0  0  0
   12.1658   19.0709   25.6291 H   0  0  0  0  0  0
   11.3238   21.8132   24.7417 H   0  0  0  0  0  0
   12.9004   21.2320   24.2815 H   0  0  0  0  0  0
   11.7919   21.8450   23.0635 H   0  0  0  0  0  0
  1  2  1  0  0  0
  1 33  1  0  0  0
  1 34  1  0  0  0
  1 35  1  0  0  0
  2  8  1  0  0  0
  2  3  2  0  0  0
  3  4  1  0  0  0
  3 36  1  0  0  0
  4  5  2  0  0  0
  4 37  1  0  0  0
  5  6  1  0  0  0
  5 38  1  0  0  0
  6  7  2  0  0  0
  6  8  1  0  0  0
  8  9  1  0  0  0
  9 10  1  0  0  0
  9 39  1  0  0  0
  9 40  1  0  0  0
 10 11  1  0  0  0
 10 41  1  0  0  0
 10 42  1  0  0  0
 11 12  1  0  0  0
 11 43  1  0  0  0
 11 44  1  0  0  0
 12 13  1  0  0  0
 12 45  1  0  0  0
 12 46  1  0  0  0
 13 18  1  0  0  0
 13 14  1  0  0  0
 14 15  1  0  0  0
 14 47  1  0  0  0
 14 48  1  0  0  0
 15 16  1  0  0  0
 15 49  1  0  0  0
 15 50  1  0  0  0
 16 17  1  0  0  0
 16 19  1  0  0  0
 17 18  1  0  0  0
 17 51  1  0  0  0
 17 52  1  0  0  0
 18 53  1  0  0  0
 18 54  1  0  0  0
 19 24  1  0  0  0
 19 20  2  0  0  0
 20 21  1  0  0  0
 20 55  1  0  0  0
 21 22  2  0  0  0
 21 29  1  0  0  0
 22 23  1  0  0  0
 23 24  2  0  0  0
 23 25  1  0  0  0
 25 26  1  0  0  0
 25 27  1  0  0  0
 25 28  1  0  0  0
 26 56  1  0  0  0
 26 57  1  0  0  0
 26 58  1  0  0  0
 27 59  1  0  0  0
 27 60  1  0  0  0
 27 61  1  0  0  0
 28 62  1  0  0  0
 28 63  1  0  0  0
 28 64  1  0  0  0
 29 30  1  0  0  0
 29 31  1  0  0  0
 29 32  1  0  0  0
M  END
> <s_m_entry_id>
8272

> <s_m_entry_name>
ligand_docking-pose.27

> <s_m_Source_Path>
/home/csk/Desktop/cluster/DUD-E-result/drd3

> <s_m_Source_File>
ligand_docking-pose.sdf

> <i_m_Source_File_Index>
27

> <i_lp_mmshare_version>
53161

> <i_f3d_flags>
0

> <r_lp_tautomer_probability>
1

> <s_lp_Force_Field>
OPLS_2005

> <r_lp_Energy>
44.727011

> <b_lp_Chiralities_Consistent>
1

> <s_lp_Variant>
344083-1

> <s_i_glide_gridfile>
glide-grid_3pbl

> <i_i_glide_lignum>
1160

> <i_i_glide_rotatable_bonds>
8

> <r_i_docking_score>
-7.09497836195415

> <r_i_glide_ligand_efficiency>
-0.221718073811067

> <r_i_glide_ligand_efficiency_sa>
-0.703911006402912

> <r_i_glide_ligand_efficiency_ln>
-1.58875905704725

> <r_i_glide_gscore>
-7.09497836195415

> <r_i_glide_lipo>
-3.07195518986634

> <r_i_glide_hbond>
0

> <r_i_glide_metal>
0

> <r_i_glide_rewards>
-2.37405772739978

> <r_i_glide_evdw>
-38.5324783325195

> <r_i_glide_ecoul>
-1.92290413379669

> <r_i_glide_erotb>
0.590288845785165

> <r_i_glide_esite>
-0.0241947537777073

> <r_i_glide_emodel>
-50.163341878348

> <r_i_glide_energy>
-40.4553824663162

> <r_i_glide_einternal>
6.02901840209961

> <i_i_glide_confnum>
29

> <i_i_glide_posenum>
273

> <r_i_glide_eff_state_penalty>
0

> <s_user_duplicate_titles>
344083

> <s_m_subgroup_title>
dock_pv

> <s_m_subgroupid>
dock_pv1

> <b_m_subgroup_collapsed>
0

$$$$
649688
                    3D
 Schrodinger Suite 2021-1.
 47 51  0  0  1  0            999 V2000
    6.8458   17.9470   21.6504 C   0  0  0  0  0  0
    7.6983   16.9229   21.2805 C   0  0  0  0  0  0
    9.0608   17.0365   21.4993 C   0  0  0  0  0  0
    9.5580   18.2139   22.0837 C   0  0  0  0  0  0
    8.7037   19.3094   22.4153 C   0  0  0  0  0  0
    7.3201   19.1187   22.2325 C   0  0  0  0  0  0
    9.4499   20.4633   22.8426 C   0  0  0  0  0  0
   10.7683   20.1253   23.0822 C   0  0  0  0  0  0
   11.2304   18.5647   22.4660 S   0  0  0  0  0  0
    8.9286   21.8903   22.9171 C   0  0  0  0  0  0
    7.7709   22.0756   23.7983 N   0  0  2  0  0  0
    6.6020   22.5903   23.0719 C   0  0  0  0  0  0
    5.4115   22.8563   24.0260 C   0  0  0  0  0  0
    5.7496   23.7707   25.2493 C   0  0  0  0  0  0
    7.0016   23.1791   25.9114 C   0  0  0  0  0  0
    8.1093   22.9874   24.8949 C   0  0  0  0  0  0
    5.7366   25.2438   25.0676 N   0  0  0  0  0  0
    5.5754   26.1389   26.1153 C   0  0  0  0  0  0
    5.6711   25.9959   27.4999 C   0  0  0  0  0  0
    5.3803   27.0946   28.3158 C   0  0  0  0  0  0
    5.0023   28.3167   27.7432 C   0  0  0  0  0  0
    4.9539   28.4481   26.3531 C   0  0  0  0  0  0
    5.2656   27.3484   25.5657 C   0  0  0  0  0  0
    5.2847   27.1767   24.2133 N   0  0  0  0  0  0
    5.5858   25.9087   23.8831 C   0  0  0  0  0  0
    5.6419   25.4812   22.7368 O   0  0  0  0  0  0
    5.0665   27.8884   23.5318 H   0  0  0  0  0  0
    5.7924   17.8285   21.4742 H   0  0  0  0  0  0
    7.2997   16.0262   20.8267 H   0  0  0  0  0  0
    9.7285   16.2401   21.2039 H   0  0  0  0  0  0
    6.6195   19.8857   22.5123 H   0  0  0  0  0  0
   11.5426   20.7919   23.4374 H   0  0  0  0  0  0
    9.7661   22.5017   23.2490 H   0  0  0  0  0  0
    8.7379   22.2663   21.9102 H   0  0  0  0  0  0
    6.9079   23.4992   22.5596 H   0  0  0  0  0  0
    6.2990   21.9105   22.2814 H   0  0  0  0  0  0
    4.5648   23.2588   23.4723 H   0  0  0  0  0  0
    5.0560   21.8847   24.3588 H   0  0  0  0  0  0
    4.9917   23.6870   26.0149 H   0  0  0  0  0  0
    6.7772   22.2216   26.3726 H   0  0  0  0  0  0
    7.3672   23.8164   26.7154 H   0  0  0  0  0  0
    9.0332   22.7053   25.4028 H   0  0  0  0  0  0
    8.1918   23.9697   24.4376 H   0  0  0  0  0  0
    5.9544   25.0583   27.9452 H   0  0  0  0  0  0
    5.4376   26.9994   29.3899 H   0  0  0  0  0  0
    4.7615   29.1593   28.3743 H   0  0  0  0  0  0
    4.6569   29.3684   25.8903 H   0  0  0  0  0  0
  1  6  1  0  0  0
  1  2  2  0  0  0
  1 28  1  0  0  0
  2  3  1  0  0  0
  2 29  1  0  0  0
  3  4  2  0  0  0
  3 30  1  0  0  0
  4  9  1  0  0  0
  4  5  1  0  0  0
  5  6  2  0  0  0
  5  7  1  0  0  0
  6 31  1  0  0  0
  7  8  2  0  0  0
  7 10  1  0  0  0
  8  9  1  0  0  0
  8 32  1  0  0  0
 10 11  1  0  0  0
 10 33  1  0  0  0
 10 34  1  0  0  0
 11 16  1  0  0  0
 11 12  1  0  0  0
 12 13  1  0  0  0
 12 35  1  0  0  0
 12 36  1  0  0  0
 13 14  1  0  0  0
 13 37  1  0  0  0
 13 38  1  0  0  0
 14 15  1  0  0  0
 14 17  1  0  0  0
 14 39  1  0  0  0
 15 16  1  0  0  0
 15 40  1  0  0  0
 15 41  1  0  0  0
 16 42  1  0  0  0
 16 43  1  0  0  0
 17 25  1  0  0  0
 17 18  1  0  0  0
 18 23  2  0  0  0
 18 19  1  0  0  0
 19 20  2  0  0  0
 19 44  1  0  0  0
 20 21  1  0  0  0
 20 45  1  0  0  0
 21 22  2  0  0  0
 21 46  1  0  0  0
 22 23  1  0  0  0
 22 47  1  0  0  0
 23 24  1  0  0  0
 24 27  1  0  0  0
 24 25  1  0  0  0
 25 26  2  0  0  0
M  END
> <s_m_entry_id>
8273

> <s_m_entry_name>
ligand_docking-pose.28

> <s_m_Source_Path>
/home/csk/Desktop/cluster/DUD-E-result/drd3

> <s_m_Source_File>
ligand_docking-pose.sdf

> <i_m_Source_File_Index>
28

> <i_lp_mmshare_version>
53161

> <i_f3d_flags>
0

> <r_lp_tautomer_probability>
1

> <s_lp_Force_Field>
OPLS_2005

> <r_lp_Energy>
54.843261

> <b_lp_Chiralities_Consistent>
1

> <s_lp_Variant>
649688-1

> <s_i_glide_gridfile>
glide-grid_3pbl

> <i_i_glide_lignum>
1748

> <i_i_glide_rotatable_bonds>
3

> <r_i_docking_score>
-7.08449222480463

> <r_i_glide_ligand_efficiency>
-0.272480470184794

> <r_i_glide_ligand_efficiency_sa>
-0.807222320763574

> <r_i_glide_ligand_efficiency_ln>
-1.66376975288034

> <r_i_glide_gscore>
-7.08449222480463

> <r_i_glide_lipo>
-3.42761751212128

> <r_i_glide_hbond>
0

> <r_i_glide_metal>
0

> <r_i_glide_rewards>
-1.99588999390488

> <r_i_glide_evdw>
-33.6942749023438

> <r_i_glide_ecoul>
-2.75045394897461

> <r_i_glide_erotb>
0.436297118684909

> <r_i_glide_esite>
0

> <r_i_glide_emodel>
-49.1079777091534

> <r_i_glide_energy>
-36.4447288513184

> <r_i_glide_einternal>
2.93145823478699

> <i_i_glide_confnum>
39

> <i_i_glide_posenum>
258

> <r_i_glide_eff_state_penalty>
0

> <s_user_duplicate_titles>
649688

> <s_m_subgroup_title>
dock_pv

> <s_m_subgroupid>
dock_pv1

> <b_m_subgroup_collapsed>
0

$$$$
264026
                    3D
 Schrodinger Suite 2021-1.
 51 54  0  0  1  0            999 V2000
    4.8060   28.5427   28.4920 C   0  0  0  0  0  0
    4.6253   27.4540   27.5424 N   0  0  0  0  0  0
    3.5076   27.2482   26.7528 C   0  0  0  0  0  0
    2.2967   27.9516   26.6785 C   0  0  0  0  0  0
    1.3198   27.4441   25.8240 C   0  0  0  0  0  0
    1.5342   26.3033   25.0596 C   0  0  0  0  0  0
    2.7571   25.6373   25.0840 C   0  0  0  0  0  0
    3.7641   26.0899   25.9499 C   0  0  0  0  0  0
    5.0820   25.6265   26.2722 C   0  0  0  0  0  0
    5.5666   26.4956   27.2344 C   0  0  0  0  0  0
    6.9687   26.4080   27.8111 C   0  0  0  0  0  0
    7.7921   25.3591   27.0158 C   0  0  0  0  0  0
    7.0100   24.1679   26.6845 N   0  0  1  0  0  0
    5.9406   24.4814   25.7267 C   0  0  0  0  0  0
    7.8615   23.0048   26.3816 C   0  0  0  0  0  0
    8.1069   22.6587   24.8964 C   0  0  0  0  0  0
    9.3133   21.7031   24.6817 C   0  0  0  0  0  0
    9.6907   21.3394   23.2175 C   0  0  1  0  0  0
    9.1289   19.9966   22.7320 C   0  0  0  0  0  0
    7.7493   19.7627   22.6841 C   0  0  0  0  0  0
    7.2562   18.5419   22.2334 C   0  0  0  0  0  0
    8.1387   17.5448   21.8340 C   0  0  0  0  0  0
    9.5112   17.7630   21.8840 C   0  0  0  0  0  0
   10.0076   18.9825   22.3331 C   0  0  0  0  0  0
    7.6597   16.3595   21.3928 F   0  0  0  0  0  0
    9.3924   22.4126   22.3453 O   0  0  0  0  0  0
    0.5345   25.8304   24.2843 F   0  0  0  0  0  0
    3.8411   28.8764   28.8746 H   0  0  0  0  0  0
    5.3910   28.1899   29.3408 H   0  0  0  0  0  0
    5.3140   29.3747   28.0029 H   0  0  0  0  0  0
    2.1038   28.8301   27.2776 H   0  0  0  0  0  0
    0.3615   27.9389   25.7616 H   0  0  0  0  0  0
    2.9040   24.7498   24.4878 H   0  0  0  0  0  0
    6.9076   26.0745   28.8463 H   0  0  0  0  0  0
    7.4967   27.3609   27.8607 H   0  0  0  0  0  0
    8.5917   25.0496   27.6842 H   0  0  0  0  0  0
    8.2790   25.7694   26.1291 H   0  0  0  0  0  0
    6.3746   24.8060   24.7801 H   0  0  0  0  0  0
    5.3848   23.5703   25.5324 H   0  0  0  0  0  0
    7.3773   22.1601   26.8551 H   0  0  0  0  0  0
    8.8154   23.0672   26.9081 H   0  0  0  0  0  0
    8.1918   23.5684   24.3090 H   0  0  0  0  0  0
    7.2176   22.1631   24.5150 H   0  0  0  0  0  0
    9.1837   20.7945   25.2642 H   0  0  0  0  0  0
   10.1912   22.1631   25.1348 H   0  0  0  0  0  0
   10.7793   21.2567   23.1869 H   0  0  0  0  0  0
    7.0558   20.5357   22.9768 H   0  0  0  0  0  0
    6.1929   18.3703   22.1870 H   0  0  0  0  0  0
   10.1901   16.9884   21.5591 H   0  0  0  0  0  0
   11.0765   19.1383   22.3578 H   0  0  0  0  0  0
    9.6034   23.2247   22.8323 H   0  0  0  0  0  0
  1  2  1  0  0  0
  1 28  1  0  0  0
  1 29  1  0  0  0
  1 30  1  0  0  0
  2 10  1  0  0  0
  2  3  1  0  0  0
  3  8  2  0  0  0
  3  4  1  0  0  0
  4  5  2  0  0  0
  4 31  1  0  0  0
  5  6  1  0  0  0
  5 32  1  0  0  0
  6  7  2  0  0  0
  6 27  1  0  0  0
  7  8  1  0  0  0
  7 33  1  0  0  0
  8  9  1  0  0  0
  9 14  1  0  0  0
  9 10  2  0  0  0
 10 11  1  0  0  0
 11 12  1  0  0  0
 11 34  1  0  0  0
 11 35  1  0  0  0
 12 13  1  0  0  0
 12 36  1  0  0  0
 12 37  1  0  0  0
 13 14  1  0  0  0
 13 15  1  0  0  0
 14 38  1  0  0  0
 14 39  1  0  0  0
 15 16  1  0  0  0
 15 40  1  0  0  0
 15 41  1  0  0  0
 16 17  1  0  0  0
 16 42  1  0  0  0
 16 43  1  0  0  0
 17 18  1  0  0  0
 17 44  1  0  0  0
 17 45  1  0  0  0
 18 19  1  0  0  0
 18 26  1  0  0  0
 18 46  1  0  0  0
 19 24  1  0  0  0
 19 20  2  0  0  0
 20 21  1  0  0  0
 20 47  1  0  0  0
 21 22  2  0  0  0
 21 48  1  0  0  0
 22 23  1  0  0  0
 22 25  1  0  0  0
 23 24  2  0  0  0
 23 49  1  0  0  0
 24 50  1  0  0  0
 26 51  1  0  0  0
M  END
> <s_m_entry_id>
8274

> <s_m_entry_name>
ligand_docking-pose.29

> <s_m_Source_Path>
/home/csk/Desktop/cluster/DUD-E-result/drd3

> <s_m_Source_File>
ligand_docking-pose.sdf

> <i_m_Source_File_Index>
29

> <i_lp_mmshare_version>
53161

> <i_f3d_flags>
0

> <r_lp_tautomer_probability>
1

> <s_lp_Force_Field>
OPLS_2005

> <r_lp_Energy>
23.620169

> <b_lp_Chiralities_Consistent>
1

> <s_lp_Variant>
264026-2

> <s_i_glide_gridfile>
glide-grid_3pbl

> <i_i_glide_lignum>
2102

> <i_i_glide_rotatable_bonds>
6

> <r_i_docking_score>
-7.06461453066324

> <r_i_glide_ligand_efficiency>
-0.261652390024565

> <r_i_glide_ligand_efficiency_sa>
-0.78495716921133

> <r_i_glide_ligand_efficiency_ln>
-1.6445257934653

> <r_i_glide_gscore>
-7.06461453066324

> <r_i_glide_lipo>
-3.06331595904825

> <r_i_glide_hbond>
-0.16

> <r_i_glide_metal>
0

> <r_i_glide_rewards>
-2.10243315644871

> <r_i_glide_evdw>
-32.0858459472656

> <r_i_glide_ecoul>
-4.64621067047119

> <r_i_glide_erotb>
0.562358482767677

> <r_i_glide_esite>
0

> <r_i_glide_emodel>
-40.9478988493652

> <r_i_glide_energy>
-36.7320566177368

> <r_i_glide_einternal>
14.6380710601807

> <i_i_glide_confnum>
26

> <i_i_glide_posenum>
219

> <r_i_glide_eff_state_penalty>
0

> <s_user_duplicate_titles>
264026

> <s_m_subgroup_title>
dock_pv

> <s_m_subgroupid>
dock_pv1

> <b_m_subgroup_collapsed>
0

$$$$
38849
                    3D
 Schrodinger Suite 2021-1.
 57 60  0  0  1  0            999 V2000
    7.3824   27.0318   28.0733 C   0  0  0  0  0  0
    6.5941   25.8805   28.2847 O   0  0  0  0  0  0
    6.1736   25.3632   27.0893 C   0  0  0  0  0  0
    4.9751   25.8773   26.5170 C   0  0  0  0  0  0
    4.1749   26.8407   27.1951 C   0  0  0  0  0  0
    3.0133   27.3392   26.6173 C   0  0  0  0  0  0
    2.6090   26.8942   25.3677 C   0  0  0  0  0  0
    3.3610   25.9458   24.6838 C   0  0  0  0  0  0
    4.5639   25.4168   25.2312 C   0  0  0  0  0  0
    5.3757   24.4458   24.5722 C   0  0  0  0  0  0
    6.5197   23.9527   25.1761 C   0  0  0  0  0  0
    6.9324   24.3797   26.4341 C   0  0  0  0  0  0
    8.1311   23.7224   27.0831 C   0  0  0  0  0  0
    8.3307   23.7666   28.2839 O   0  0  0  0  0  0
    8.9232   23.0080   26.2921 N   0  0  0  0  0  0
    9.8865   22.0125   26.7078 C   0  0  0  0  0  0
   11.1164   21.9637   25.7806 C   0  0  0  0  0  0
   10.9159   21.3141   24.4774 N   0  0  0  0  0  0
   11.1908   19.8816   24.4998 C   0  0  0  0  0  0
   11.1123   19.3346   23.0592 C   0  0  0  0  0  0
    9.7929   19.5618   22.4297 N   0  0  0  0  0  0
    9.4375   20.9877   22.5411 C   0  0  0  0  0  0
    9.5654   21.5081   23.9444 C   0  0  0  0  0  0
    8.9077   18.5491   22.0729 C   0  0  0  0  0  0
    7.5361   18.7722   21.8848 C   0  0  0  0  0  0
    6.7097   17.7467   21.4493 C   0  0  0  0  0  0
    7.2168   16.4678   21.2730 C   0  0  0  0  0  0
    8.5571   16.2189   21.4834 C   0  0  0  0  0  0
    9.3915   17.2626   21.8452 C   0  0  0  0  0  0
    5.0467   23.8517   23.2965 C   0  0  0  0  0  0
    4.7988   23.3615   22.2853 N   0  0  0  0  0  0
    7.7917   27.3619   29.0206 H   0  0  0  0  0  0
    8.2034   26.8455   27.3856 H   0  0  0  0  0  0
    6.7865   27.8465   27.6607 H   0  0  0  0  0  0
    4.4701   27.1898   28.1742 H   0  0  0  0  0  0
    2.4207   28.0724   27.1454 H   0  0  0  0  0  0
    1.7033   27.2837   24.9263 H   0  0  0  0  0  0
    3.0226   25.6084   23.7211 H   0  0  0  0  0  0
    7.0832   23.1864   24.6587 H   0  0  0  0  0  0
    9.0264   23.3276   25.3338 H   0  0  0  0  0  0
   10.1920   22.1649   27.7423 H   0  0  0  0  0  0
    9.3715   21.0533   26.6839 H   0  0  0  0  0  0
   11.5444   22.9518   25.6689 H   0  0  0  0  0  0
   11.8972   21.3940   26.2808 H   0  0  0  0  0  0
   12.1926   19.7075   24.8932 H   0  0  0  0  0  0
   10.4972   19.3556   25.1571 H   0  0  0  0  0  0
   11.3641   18.2820   23.1274 H   0  0  0  0  0  0
   11.8889   19.7619   22.4266 H   0  0  0  0  0  0
    8.4063   21.1815   22.2950 H   0  0  0  0  0  0
   10.0087   21.6387   21.8845 H   0  0  0  0  0  0
    8.8080   21.0174   24.5565 H   0  0  0  0  0  0
    9.3173   22.5630   23.8919 H   0  0  0  0  0  0
    7.0753   19.7328   22.0406 H   0  0  0  0  0  0
    5.6829   17.9603   21.2336 H   0  0  0  0  0  0
    6.5923   15.6570   20.9387 H   0  0  0  0  0  0
    8.9604   15.2345   21.3125 H   0  0  0  0  0  0
   10.4441   17.0324   21.8898 H   0  0  0  0  0  0
  1  2  1  0  0  0
  1 32  1  0  0  0
  1 33  1  0  0  0
  1 34  1  0  0  0
  2  3  1  0  0  0
  3 12  1  0  0  0
  3  4  2  0  0  0
  4  9  1  0  0  0
  4  5  1  0  0  0
  5  6  2  0  0  0
  5 35  1  0  0  0
  6  7  1  0  0  0
  6 36  1  0  0  0
  7  8  2  0  0  0
  7 37  1  0  0  0
  8  9  1  0  0  0
  8 38  1  0  0  0
  9 10  2  0  0  0
 10 11  1  0  0  0
 10 30  1  0  0  0
 11 12  2  0  0  0
 11 39  1  0  0  0
 12 13  1  0  0  0
 13 14  2  0  0  0
 13 15  1  0  0  0
 15 16  1  0  0  0
 15 40  1  0  0  0
 16 17  1  0  0  0
 16 41  1  0  0  0
 16 42  1  0  0  0
 17 18  1  0  0  0
 17 43  1  0  0  0
 17 44  1  0  0  0
 18 23  1  0  0  0
 18 19  1  0  0  0
 19 20  1  0  0  0
 19 45  1  0  0  0
 19 46  1  0  0  0
 20 21  1  0  0  0
 20 47  1  0  0  0
 20 48  1  0  0  0
 21 22  1  0  0  0
 21 24  1  0  0  0
 22 23  1  0  0  0
 22 49  1  0  0  0
 22 50  1  0  0  0
 23 51  1  0  0  0
 23 52  1  0  0  0
 24 29  1  0  0  0
 24 25  2  0  0  0
 25 26  1  0  0  0
 25 53  1  0  0  0
 26 27  2  0  0  0
 26 54  1  0  0  0
 27 28  1  0  0  0
 27 55  1  0  0  0
 28 29  2  0  0  0
 28 56  1  0  0  0
 29 57  1  0  0  0
 30 31  3  0  0  0
M  END
> <s_m_entry_id>
8275

> <s_m_entry_name>
ligand_docking-pose.30

> <s_m_Source_Path>
/home/csk/Desktop/cluster/DUD-E-result/drd3

> <s_m_Source_File>
ligand_docking-pose.sdf

> <i_m_Source_File_Index>
30

> <i_lp_mmshare_version>
53161

> <i_f3d_flags>
0

> <r_lp_tautomer_probability>
1

> <s_lp_Force_Field>
OPLS_2005

> <r_lp_Energy>
56.716333

> <b_lp_Chiralities_Consistent>
1

> <s_lp_Variant>
38849-1

> <s_i_glide_gridfile>
glide-grid_3pbl

> <i_i_glide_lignum>
2217

> <i_i_glide_rotatable_bonds>
7

> <r_i_docking_score>
-7.05883067127471

> <r_i_glide_ligand_efficiency>
-0.22770421520241

> <r_i_glide_ligand_efficiency_sa>
-0.715305615286033

> <r_i_glide_ligand_efficiency_ln>
-1.59198264355261

> <r_i_glide_gscore>
-7.05883067127471

> <r_i_glide_lipo>
-3.46795394758026

> <r_i_glide_hbond>
-0.302266480133727

> <r_i_glide_metal>
0

> <r_i_glide_rewards>
-1.46041303948947

> <r_i_glide_evdw>
-29.635383605957

> <r_i_glide_ecoul>
-5.96151924133301

> <r_i_glide_erotb>
0.689300019883333

> <r_i_glide_esite>
-0.141500157456776

> <r_i_glide_emodel>
-43.3709208473153

> <r_i_glide_energy>
-35.59690284729

> <r_i_glide_einternal>
10.9300603866577

> <i_i_glide_confnum>
29

> <i_i_glide_posenum>
94

> <r_i_glide_eff_state_penalty>
0

> <s_user_duplicate_titles>
38849

> <s_m_subgroup_title>
dock_pv

> <s_m_subgroupid>
dock_pv1

> <b_m_subgroup_collapsed>
0

$$$$
80461
                    3D
 Schrodinger Suite 2021-1.
 54 57  0  0  1  0            999 V2000
    6.1920   25.3452   21.5054 C   0  0  0  0  0  0
    5.3339   24.5185   22.2844 O   0  0  0  0  0  0
    5.6315   24.5874   23.6220 C   0  0  0  0  0  0
    5.1004   25.6514   24.4163 C   0  0  0  0  0  0
    4.1474   26.5734   23.9149 C   0  0  0  0  0  0
    3.6607   27.6103   24.7018 C   0  0  0  0  0  0
    4.1159   27.7790   26.0014 C   0  0  0  0  0  0
    5.0647   26.9103   26.5279 C   0  0  0  0  0  0
    5.5712   25.8311   25.7510 C   0  0  0  0  0  0
    6.5544   24.9408   26.2390 C   0  0  0  0  0  0
    6.9908   23.8699   25.4802 C   0  0  0  0  0  0
    6.5451   23.6810   24.1756 C   0  0  0  0  0  0
    7.1329   22.5654   23.3603 C   0  0  0  0  0  0
    6.4260   21.7651   22.7502 O   0  0  0  0  0  0
    8.4718   22.5628   23.3713 N   0  0  0  0  0  0
    9.4089   21.6434   22.7510 C   0  0  0  0  0  0
    9.8444   20.4926   23.6490 C   0  0  2  0  0  0
   10.4547   20.9401   24.9899 C   0  0  0  0  0  0
   11.7919   20.2216   25.0285 C   0  0  0  0  0  0
   11.6196   19.0580   24.0663 C   0  0  0  0  0  0
   10.8485   19.6503   22.9898 N   0  0  1  0  0  0
   10.4366   18.7742   21.8718 C   0  0  0  0  0  0
    9.0743   18.0910   21.9577 C   0  0  0  0  0  0
    8.7396   17.3630   23.0840 C   0  0  0  0  0  0
    7.5502   16.6684   23.1985 C   0  0  0  0  0  0
    6.6694   16.6951   22.1411 C   0  0  0  0  0  0
    6.9805   17.4129   20.9857 C   0  0  0  0  0  0
    8.1898   18.0975   20.8794 C   0  0  0  0  0  0
    7.3918   25.2183   27.9038 Br  0  0  0  0  0  0
    8.9652   19.8945   23.8662 H   0  0  0  0  0  0
    5.8525   25.3641   20.4699 H   0  0  0  0  0  0
    6.1924   26.3703   21.8839 H   0  0  0  0  0  0
    7.2179   24.9740   21.5137 H   0  0  0  0  0  0
    3.7921   26.4801   22.9065 H   0  0  0  0  0  0
    2.9300   28.2923   24.2924 H   0  0  0  0  0  0
    3.7366   28.5931   26.6021 H   0  0  0  0  0  0
    5.4139   27.0623   27.5382 H   0  0  0  0  0  0
    7.7391   23.2129   25.9030 H   0  0  0  0  0  0
    8.9299   23.3502   23.8336 H   0  0  0  0  0  0
    8.9920   21.1846   21.8837 H   0  0  0  0  0  0
   10.2776   22.2205   22.4292 H   0  0  0  0  0  0
   10.5767   22.0204   25.0905 H   0  0  0  0  0  0
    9.8370   20.5807   25.8143 H   0  0  0  0  0  0
   12.5919   20.8783   24.6897 H   0  0  0  0  0  0
   12.0654   19.8817   26.0218 H   0  0  0  0  0  0
   12.5637   18.6849   23.6674 H   0  0  0  0  0  0
   11.1260   18.2016   24.5209 H   0  0  0  0  0  0
   10.4207   19.3628   20.9622 H   0  0  0  0  0  0
   11.2054   18.0243   21.6796 H   0  0  0  0  0  0
    9.3925   17.3629   23.9343 H   0  0  0  0  0  0
    7.3135   16.1316   24.1054 H   0  0  0  0  0  0
    5.7440   16.1626   22.2807 H   0  0  0  0  0  0
    6.2788   17.4484   20.1769 H   0  0  0  0  0  0
    8.4288   18.6349   19.9735 H   0  0  0  0  0  0
  1  2  1  0  0  0
  1 31  1  0  0  0
  1 32  1  0  0  0
  1 33  1  0  0  0
  2  3  1  0  0  0
  3 12  1  0  0  0
  3  4  2  0  0  0
  4  9  1  0  0  0
  4  5  1  0  0  0
  5  6  2  0  0  0
  5 34  1  0  0  0
  6  7  1  0  0  0
  6 35  1  0  0  0
  7  8  2  0  0  0
  7 36  1  0  0  0
  8  9  1  0  0  0
  8 37  1  0  0  0
  9 10  2  0  0  0
 10 11  1  0  0  0
 10 29  1  0  0  0
 11 12  2  0  0  0
 11 38  1  0  0  0
 12 13  1  0  0  0
 13 14  2  0  0  0
 13 15  1  0  0  0
 15 16  1  0  0  0
 15 39  1  0  0  0
 16 17  1  0  0  0
 16 40  1  0  0  0
 16 41  1  0  0  0
 17 30  1  0  0  0
 17 21  1  0  0  0
 17 18  1  0  0  0
 18 19  1  0  0  0
 18 42  1  0  0  0
 18 43  1  0  0  0
 19 20  1  0  0  0
 19 44  1  0  0  0
 19 45  1  0  0  0
 20 21  1  0  0  0
 20 46  1  0  0  0
 20 47  1  0  0  0
 21 22  1  0  0  0
 22 23  1  0  0  0
 22 48  1  0  0  0
 22 49  1  0  0  0
 23 28  1  0  0  0
 23 24  2  0  0  0
 24 25  1  0  0  0
 24 50  1  0  0  0
 25 26  2  0  0  0
 25 51  1  0  0  0
 26 27  1  0  0  0
 26 52  1  0  0  0
 27 28  2  0  0  0
 27 53  1  0  0  0
 28 54  1  0  0  0
M  END
> <s_m_entry_id>
8276

> <s_m_entry_name>
ligand_docking-pose.31

> <s_m_Source_Path>
/home/csk/Desktop/cluster/DUD-E-result/drd3

> <s_m_Source_File>
ligand_docking-pose.sdf

> <i_m_Source_File_Index>
31

> <i_lp_mmshare_version>
53161

> <i_f3d_flags>
0

> <r_lp_tautomer_probability>
1

> <s_lp_Force_Field>
OPLS_2005

> <r_lp_Energy>
49.676775

> <b_lp_Chiralities_Consistent>
1

> <s_lp_Variant>
80461-1

> <s_i_glide_gridfile>
glide-grid_3pbl

> <i_i_glide_lignum>
1230

> <i_i_glide_rotatable_bonds>
7

> <r_i_docking_score>
-7.05004895750002

> <r_i_glide_ligand_efficiency>
-0.243105136465518

> <r_i_glide_ligand_efficiency_sa>
-0.746896000335325

> <r_i_glide_ligand_efficiency_ln>
-1.61428243745097

> <r_i_glide_gscore>
-7.05004895750002

> <r_i_glide_lipo>
-3.31033875809094

> <r_i_glide_hbond>
-0.456

> <r_i_glide_metal>
0

> <r_i_glide_rewards>
-0.978959001014986

> <r_i_glide_evdw>
-35.0406913757324

> <r_i_glide_ecoul>
-6.70740413665771

> <r_i_glide_erotb>
0.585930804086443

> <r_i_glide_esite>
-0.132536813195264

> <r_i_glide_emodel>
-43.0645950276754

> <r_i_glide_energy>
-41.7480955123901

> <r_i_glide_einternal>
13.2113161087036

> <i_i_glide_confnum>
161

> <i_i_glide_posenum>
5

> <r_i_glide_eff_state_penalty>
0

> <s_user_duplicate_titles>
80461

> <s_m_subgroup_title>
dock_pv

> <s_m_subgroupid>
dock_pv1

> <b_m_subgroup_collapsed>
0

$$$$
141037
                    3D
 Schrodinger Suite 2021-1.
 40 42  0  0  1  0            999 V2000
    5.4759   27.8382   27.0679 C   0  0  0  0  0  0
    4.6648   28.1630   25.9833 C   0  0  0  0  0  0
    4.9745   27.6747   24.7164 C   0  0  0  0  0  0
    6.0930   26.8566   24.5335 C   0  0  0  0  0  0
    6.9109   26.5451   25.6292 C   0  0  0  0  0  0
    6.5961   27.0293   26.8963 C   0  0  0  0  0  0
    6.3930   26.3148   23.1316 C   0  0  0  0  0  0
    6.9920   24.9819   23.1014 N   0  0  2  0  0  0
    6.1449   23.9500   23.6982 C   0  0  0  0  0  0
    7.0131   22.9122   24.4182 C   0  0  0  0  0  0
    7.4540   21.9273   23.4840 O   0  0  0  0  0  0
    8.6504   21.2646   23.6864 C   0  0  0  0  0  0
    9.7128   21.6646   24.4995 C   0  0  0  0  0  0
   10.9158   20.9663   24.5339 C   0  0  0  0  0  0
   11.1169   19.7924   23.8103 C   0  0  0  0  0  0
   10.0265   19.3373   23.0711 C   0  0  0  0  0  0
    8.7992   20.0500   23.0078 C   0  0  0  0  0  0
    7.8694   19.3595   22.2840 N   0  0  0  0  0  0
    8.4859   18.2750   21.8960 C   0  0  0  0  0  0
    9.8028   18.2270   22.2938 N   0  0  0  0  0  0
    7.8385   17.2236   21.0339 C   0  0  0  0  0  0
    7.7920   17.6568   19.7768 F   0  0  0  0  0  0
    8.5066   16.0706   21.0841 F   0  0  0  0  0  0
    6.5921   16.9694   21.4277 F   0  0  0  0  0  0
   12.1920   21.6030   25.4840 Cl  0  0  0  0  0  0
   10.4318   17.4737   22.0532 H   0  0  0  0  0  0
    5.2338   28.2174   28.0501 H   0  0  0  0  0  0
    3.7987   28.7933   26.1237 H   0  0  0  0  0  0
    4.3374   27.9288   23.8807 H   0  0  0  0  0  0
    7.7889   25.9263   25.5049 H   0  0  0  0  0  0
    7.2268   26.7850   27.7388 H   0  0  0  0  0  0
    5.5205   26.3813   22.4809 H   0  0  0  0  0  0
    7.1184   26.9954   22.6850 H   0  0  0  0  0  0
    7.9459   24.9631   23.4583 H   0  0  0  0  0  0
    5.4533   24.3723   24.4288 H   0  0  0  0  0  0
    5.5342   23.4797   22.9271 H   0  0  0  0  0  0
    7.8040   23.4250   24.9608 H   0  0  0  0  0  0
    6.4054   22.4197   25.1766 H   0  0  0  0  0  0
    9.6578   22.5630   25.0871 H   0  0  0  0  0  0
   12.0553   19.2607   23.8542 H   0  0  0  0  0  0
  1  6  1  0  0  0
  1  2  2  0  0  0
  1 27  1  0  0  0
  2  3  1  0  0  0
  2 28  1  0  0  0
  3  4  2  0  0  0
  3 29  1  0  0  0
  4  5  1  0  0  0
  4  7  1  0  0  0
  5  6  2  0  0  0
  5 30  1  0  0  0
  6 31  1  0  0  0
  7  8  1  0  0  0
  7 32  1  0  0  0
  7 33  1  0  0  0
  8  9  1  0  0  0
  8 34  1  0  0  0
  9 10  1  0  0  0
  9 35  1  0  0  0
  9 36  1  0  0  0
 10 11  1  0  0  0
 10 37  1  0  0  0
 10 38  1  0  0  0
 11 12  1  0  0  0
 12 17  1  0  0  0
 12 13  2  0  0  0
 13 14  1  0  0  0
 13 39  1  0  0  0
 14 15  2  0  0  0
 14 25  1  0  0  0
 15 16  1  0  0  0
 15 40  1  0  0  0
 16 20  1  0  0  0
 16 17  2  0  0  0
 17 18  1  0  0  0
 18 19  2  0  0  0
 19 20  1  0  0  0
 19 21  1  0  0  0
 20 26  1  0  0  0
 21 22  1  0  0  0
 21 23  1  0  0  0
 21 24  1  0  0  0
M  END
> <s_m_entry_id>
8277

> <s_m_entry_name>
ligand_docking-pose.32

> <s_m_Source_Path>
/home/csk/Desktop/cluster/DUD-E-result/drd3

> <s_m_Source_File>
ligand_docking-pose.sdf

> <i_m_Source_File_Index>
32

> <i_lp_mmshare_version>
53161

> <i_f3d_flags>
0

> <r_lp_tautomer_probability>
1

> <s_lp_Force_Field>
OPLS_2005

> <r_lp_Energy>
21.929803

> <b_lp_Chiralities_Consistent>
1

> <s_lp_Variant>
141037-1

> <s_i_glide_gridfile>
glide-grid_3pbl

> <i_i_glide_lignum>
1700

> <i_i_glide_rotatable_bonds>
7

> <r_i_docking_score>
-7.04780244410781

> <r_i_glide_ligand_efficiency>
-0.281912097764312

> <r_i_glide_ligand_efficiency_sa>
-0.824315973595192

> <r_i_glide_ligand_efficiency_ln>
-1.67054038484956

> <r_i_glide_gscore>
-7.04780244410781

> <r_i_glide_lipo>
-2.41958745242379

> <r_i_glide_hbond>
-0.0291487686815574

> <r_i_glide_metal>
0

> <r_i_glide_rewards>
-2.77735178896936

> <r_i_glide_evdw>
-36.976634979248

> <r_i_glide_ecoul>
-4.52066135406494

> <r_i_glide_erotb>
0.705216518039044

> <r_i_glide_esite>
0

> <r_i_glide_emodel>
-54.4989652336959

> <r_i_glide_energy>
-41.497296333313

> <r_i_glide_einternal>
5.30513620376587

> <i_i_glide_confnum>
44

> <i_i_glide_posenum>
41

> <r_i_glide_eff_state_penalty>
0

> <s_user_duplicate_titles>
141037

> <s_m_subgroup_title>
dock_pv

> <s_m_subgroupid>
dock_pv1

> <b_m_subgroup_collapsed>
0

$$$$
337918
                    3D
 Schrodinger Suite 2021-1.
 69 72  0  0  1  0            999 V2000
    6.5224   17.5149   21.7341 C   0  0  0  0  0  0
    8.0053   17.8194   21.4660 C   0  0  0  0  0  0
    8.7526   16.4807   21.6502 C   0  0  0  0  0  0
    8.1499   18.2806   20.0096 C   0  0  0  0  0  0
    8.5325   18.9468   22.3816 C   0  0  0  0  0  0
    9.8295   18.8725   22.7705 N   0  0  0  0  0  0
   10.3090   19.9218   23.4840 C   0  0  0  0  0  0
    9.5363   21.0451   23.7830 C   0  0  0  0  0  0
    8.1920   21.0319   23.4035 C   0  0  0  0  0  0
    7.6930   19.9800   22.6840 N   0  0  0  0  0  0
    7.4029   22.1775   23.5315 N   0  0  0  0  0  0
    6.1383   22.4576   22.8267 C   0  0  0  0  0  0
    5.9693   23.9551   22.4438 C   0  0  0  0  0  0
    6.0790   24.8331   23.6113 N   0  0  0  0  0  0
    7.3920   24.6038   24.2021 C   0  0  0  0  0  0
    7.5602   23.1368   24.6408 C   0  0  0  0  0  0
    5.9649   26.2512   23.2457 C   0  0  0  0  0  0
    4.5935   26.8102   23.6471 C   0  0  0  0  0  0
    4.2792   26.7636   25.1560 C   0  0  0  0  0  0
    5.0093   27.8614   25.9659 C   0  0  0  0  0  0
    4.7770   27.7793   27.4261 N   0  0  0  0  0  0
    3.5786   28.3521   27.9521 C   0  0  0  0  0  0
    2.5419   28.8343   27.1299 C   0  0  0  0  0  0
    1.3764   29.3630   27.6784 C   0  0  0  0  0  0
    1.2327   29.4460   29.0583 C   0  0  0  0  0  0
    2.2621   29.0088   29.8855 C   0  0  0  0  0  0
    3.4377   28.4771   29.3473 C   0  0  0  0  0  0
    4.5827   28.0151   30.2282 C   0  0  0  0  0  0
    5.2792   26.7857   29.6062 C   0  0  0  0  0  0
    5.6380   26.9626   28.1125 C   0  0  0  0  0  0
    6.5981   26.3620   27.6261 O   0  0  0  0  0  0
   11.7194   19.7821   24.0063 C   0  0  0  0  0  0
   12.1920   20.9626   24.4059 F   0  0  0  0  0  0
   11.6512   18.9632   25.0527 F   0  0  0  0  0  0
   12.5349   19.2638   23.0840 F   0  0  0  0  0  0
    6.1920   16.6731   21.1279 H   0  0  0  0  0  0
    5.8854   18.3638   21.4838 H   0  0  0  0  0  0
    6.3473   17.2592   22.7804 H   0  0  0  0  0  0
    9.8253   16.5779   21.4840 H   0  0  0  0  0  0
    8.5920   16.1011   22.6595 H   0  0  0  0  0  0
    8.3949   15.7153   20.9596 H   0  0  0  0  0  0
    9.1787   18.5418   19.7552 H   0  0  0  0  0  0
    7.7920   17.5386   19.2959 H   0  0  0  0  0  0
    7.5446   19.1687   19.8840 H   0  0  0  0  0  0
    9.9732   21.8893   24.2953 H   0  0  0  0  0  0
    6.0650   21.8431   21.9325 H   0  0  0  0  0  0
    5.3153   22.1618   23.4760 H   0  0  0  0  0  0
    6.7194   24.2327   21.7008 H   0  0  0  0  0  0
    4.9923   24.1039   21.9867 H   0  0  0  0  0  0
    7.5287   25.2463   25.0742 H   0  0  0  0  0  0
    8.1708   24.8740   23.4840 H   0  0  0  0  0  0
    6.8072   22.9025   25.3951 H   0  0  0  0  0  0
    8.5040   23.0175   25.1682 H   0  0  0  0  0  0
    6.7224   26.8513   23.7549 H   0  0  0  0  0  0
    6.1441   26.4120   22.1812 H   0  0  0  0  0  0
    4.5742   27.8493   23.3213 H   0  0  0  0  0  0
    3.8098   26.3065   23.0840 H   0  0  0  0  0  0
    3.2016   26.8577   25.2802 H   0  0  0  0  0  0
    4.5288   25.7785   25.5535 H   0  0  0  0  0  0
    6.0770   27.8005   25.7476 H   0  0  0  0  0  0
    4.7387   28.8515   25.5980 H   0  0  0  0  0  0
    2.6056   28.8067   26.0545 H   0  0  0  0  0  0
    0.5879   29.7184   27.0322 H   0  0  0  0  0  0
    0.3352   29.8672   29.4870 H   0  0  0  0  0  0
    2.1529   29.0940   30.9580 H   0  0  0  0  0  0
    4.2221   27.7630   31.2268 H   0  0  0  0  0  0
    5.2966   28.8292   30.3625 H   0  0  0  0  0  0
    4.6168   25.9223   29.6460 H   0  0  0  0  0  0
    6.1888   26.5448   30.1583 H   0  0  0  0  0  0
  1  2  1  0  0  0
  1 36  1  0  0  0
  1 37  1  0  0  0
  1 38  1  0  0  0
  2  3  1  0  0  0
  2  4  1  0  0  0
  2  5  1  0  0  0
  3 39  1  0  0  0
  3 40  1  0  0  0
  3 41  1  0  0  0
  4 42  1  0  0  0
  4 43  1  0  0  0
  4 44  1  0  0  0
  5 10  1  0  0  0
  5  6  2  0  0  0
  6  7  1  0  0  0
  7  8  2  0  0  0
  7 32  1  0  0  0
  8  9  1  0  0  0
  8 45  1  0  0  0
  9 10  2  0  0  0
  9 11  1  0  0  0
 11 16  1  0  0  0
 11 12  1  0  0  0
 12 13  1  0  0  0
 12 46  1  0  0  0
 12 47  1  0  0  0
 13 14  1  0  0  0
 13 48  1  0  0  0
 13 49  1  0  0  0
 14 15  1  0  0  0
 14 17  1  0  0  0
 15 16  1  0  0  0
 15 50  1  0  0  0
 15 51  1  0  0  0
 16 52  1  0  0  0
 16 53  1  0  0  0
 17 18  1  0  0  0
 17 54  1  0  0  0
 17 55  1  0  0  0
 18 19  1  0  0  0
 18 56  1  0  0  0
 18 57  1  0  0  0
 19 20  1  0  0  0
 19 58  1  0  0  0
 19 59  1  0  0  0
 20 21  1  0  0  0
 20 60  1  0  0  0
 20 61  1  0  0  0
 21 30  1  0  0  0
 21 22  1  0  0  0
 22 27  2  0  0  0
 22 23  1  0  0  0
 23 24  2  0  0  0
 23 62  1  0  0  0
 24 25  1  0  0  0
 24 63  1  0  0  0
 25 26  2  0  0  0
 25 64  1  0  0  0
 26 27  1  0  0  0
 26 65  1  0  0  0
 27 28  1  0  0  0
 28 29  1  0  0  0
 28 66  1  0  0  0
 28 67  1  0  0  0
 29 30  1  0  0  0
 29 68  1  0  0  0
 29 69  1  0  0  0
 30 31  2  0  0  0
 32 33  1  0  0  0
 32 34  1  0  0  0
 32 35  1  0  0  0
M  END
> <s_m_entry_id>
8278

> <s_m_entry_name>
ligand_docking-pose.33

> <s_m_Source_Path>
/home/csk/Desktop/cluster/DUD-E-result/drd3

> <s_m_Source_File>
ligand_docking-pose.sdf

> <i_m_Source_File_Index>
33

> <i_lp_mmshare_version>
53161

> <i_f3d_flags>
0

> <r_lp_tautomer_probability>
1

> <s_lp_Force_Field>
OPLS_2005

> <r_lp_Energy>
50.913624

> <b_lp_Chiralities_Consistent>
1

> <s_lp_Variant>
337918-1

> <s_i_glide_gridfile>
glide-grid_3pbl

> <i_i_glide_lignum>
697

> <i_i_glide_rotatable_bonds>
8

> <r_i_docking_score>
-7.00879993267745

> <r_i_glide_ligand_efficiency>
-0.200251426647927

> <r_i_glide_ligand_efficiency_sa>
-0.655035694498943

> <r_i_glide_ligand_efficiency_ln>
-1.53858713715629

> <r_i_glide_gscore>
-7.00879993267745

> <r_i_glide_lipo>
-2.91866361826648

> <r_i_glide_hbond>
0

> <r_i_glide_metal>
0

> <r_i_glide_rewards>
-2.36247250453716

> <r_i_glide_evdw>
-45.362434387207

> <r_i_glide_ecoul>
1.07595527172089

> <r_i_glide_erotb>
0.42440035251614

> <r_i_glide_esite>
-0.0453357337877329

> <r_i_glide_emodel>
-56.2128894364867

> <r_i_glide_energy>
-44.2864791154861

> <r_i_glide_einternal>
7.84816026687622

> <i_i_glide_confnum>
51

> <i_i_glide_posenum>
75

> <r_i_glide_eff_state_penalty>
0

> <s_user_duplicate_titles>
337918

> <s_m_subgroup_title>
dock_pv

> <s_m_subgroupid>
dock_pv1

> <b_m_subgroup_collapsed>
0

$$$$
244090
                    3D
 Schrodinger Suite 2021-1.
 53 56  0  0  1  0            999 V2000
    7.0135   15.4686   21.9653 C   0  0  0  0  0  0
    6.5303   16.3785   22.8813 C   0  0  0  0  0  0
    7.2049   17.5710   23.0839 C   0  0  0  0  0  0
    8.4313   17.8019   22.4545 C   0  0  0  0  0  0
    8.9115   16.8772   21.5445 C   0  0  0  0  0  0
    8.1921   15.7226   21.2843 C   0  0  0  0  0  0
    9.2294   19.0001   22.7319 C   0  0  0  0  0  0
    8.6141   20.1849   22.6840 C   0  0  0  0  0  0
    9.3421   21.4753   22.9647 C   0  0  0  0  0  0
   10.4117   21.3630   23.9660 N   0  0  2  0  0  0
   11.3106   20.2680   23.5594 C   0  0  0  0  0  0
   10.6021   18.8897   23.4037 C   0  0  0  0  0  0
    9.9703   21.2375   25.3680 C   0  0  0  0  0  0
    9.3162   22.4714   26.0708 C   0  0  2  0  0  0
    8.9970   22.2074   27.5523 C   0  0  0  0  0  0
    8.8062   23.5338   28.2837 C   0  0  0  0  0  0
    7.7918   24.4083   27.5522 C   0  0  0  0  0  0
    7.4591   24.2576   26.2523 C   0  0  0  0  0  0
    8.0193   23.0790   25.4474 C   0  0  0  0  0  0
    6.3869   25.0867   25.6378 C   0  0  0  0  0  0
    5.2004   25.3630   26.3276 C   0  0  0  0  0  0
    4.1976   26.1254   25.7347 C   0  0  0  0  0  0
    4.3761   26.6321   24.4508 C   0  0  0  0  0  0
    5.5613   26.3951   23.7595 C   0  0  0  0  0  0
    6.5622   25.6272   24.3545 C   0  0  0  0  0  0
    3.3663   27.3629   23.8841 O   0  0  0  0  0  0
   10.1002   23.2252   26.0835 H   0  0  0  0  0  0
    6.4637   14.5630   21.7824 H   0  0  0  0  0  0
    5.6157   16.1630   23.4053 H   0  0  0  0  0  0
    6.7937   18.2853   23.7814 H   0  0  0  0  0  0
    9.8617   17.0504   21.0840 H   0  0  0  0  0  0
    8.5643   14.9806   20.6001 H   0  0  0  0  0  0
    7.5959   20.2148   22.3250 H   0  0  0  0  0  0
    8.6158   22.2421   23.1494 H   0  0  0  0  0  0
    9.7920   21.7829   22.0215 H   0  0  0  0  0  0
   11.7917   20.5395   22.6259 H   0  0  0  0  0  0
   12.1374   20.1833   24.2667 H   0  0  0  0  0  0
   11.2299   18.1630   22.8912 H   0  0  0  0  0  0
   10.4543   18.4645   24.3961 H   0  0  0  0  0  0
   10.8901   21.0537   25.9235 H   0  0  0  0  0  0
    9.3920   20.3378   25.5081 H   0  0  0  0  0  0
    9.8408   21.7630   28.0541 H   0  0  0  0  0  0
    8.1920   21.4873   27.6846 H   0  0  0  0  0  0
    9.7628   24.0408   28.2840 H   0  0  0  0  0  0
    8.5919   23.3627   29.3348 H   0  0  0  0  0  0
    7.3413   25.2217   28.1020 H   0  0  0  0  0  0
    7.2496   22.3235   25.2995 H   0  0  0  0  0  0
    8.1918   23.5129   24.4778 H   0  0  0  0  0  0
    5.0393   24.9648   27.3173 H   0  0  0  0  0  0
    3.2786   26.3168   26.2684 H   0  0  0  0  0  0
    5.7113   26.8020   22.7704 H   0  0  0  0  0  0
    7.4844   25.4650   23.8140 H   0  0  0  0  0  0
    3.5179   27.7394   23.0009 H   0  0  0  0  0  0
  1  6  1  0  0  0
  1  2  2  0  0  0
  1 28  1  0  0  0
  2  3  1  0  0  0
  2 29  1  0  0  0
  3  4  2  0  0  0
  3 30  1  0  0  0
  4  5  1  0  0  0
  4  7  1  0  0  0
  5  6  2  0  0  0
  5 31  1  0  0  0
  6 32  1  0  0  0
  7 12  1  0  0  0
  7  8  2  0  0  0
  8  9  1  0  0  0
  8 33  1  0  0  0
  9 10  1  0  0  0
  9 34  1  0  0  0
  9 35  1  0  0  0
 10 11  1  0  0  0
 10 13  1  0  0  0
 11 12  1  0  0  0
 11 36  1  0  0  0
 11 37  1  0  0  0
 12 38  1  0  0  0
 12 39  1  0  0  0
 13 14  1  0  0  0
 13 40  1  0  0  0
 13 41  1  0  0  0
 14 27  1  0  0  0
 14 19  1  0  0  0
 14 15  1  0  0  0
 15 16  1  0  0  0
 15 42  1  0  0  0
 15 43  1  0  0  0
 16 17  1  0  0  0
 16 44  1  0  0  0
 16 45  1  0  0  0
 17 18  2  0  0  0
 17 46  1  0  0  0
 18 19  1  0  0  0
 18 20  1  0  0  0
 19 47  1  0  0  0
 19 48  1  0  0  0
 20 25  1  0  0  0
 20 21  2  0  0  0
 21 22  1  0  0  0
 21 49  1  0  0  0
 22 23  2  0  0  0
 22 50  1  0  0  0
 23 24  1  0  0  0
 23 26  1  0  0  0
 24 25  2  0  0  0
 24 51  1  0  0  0
 25 52  1  0  0  0
 26 53  1  0  0  0
M  END
> <s_m_entry_id>
8279

> <s_m_entry_name>
ligand_docking-pose.34

> <s_m_Source_Path>
/home/csk/Desktop/cluster/DUD-E-result/drd3

> <s_m_Source_File>
ligand_docking-pose.sdf

> <i_m_Source_File_Index>
34

> <i_lp_mmshare_version>
53161

> <i_f3d_flags>
0

> <r_lp_tautomer_probability>
1

> <s_lp_Force_Field>
OPLS_2005

> <r_lp_Energy>
36.834218

> <b_lp_Chiralities_Consistent>
1

> <s_lp_Variant>
244090-1

> <s_i_glide_gridfile>
glide-grid_3pbl

> <i_i_glide_lignum>
190

> <i_i_glide_rotatable_bonds>
5

> <r_i_docking_score>
-6.96332313264523

> <r_i_glide_ligand_efficiency>
-0.267820120486355

> <r_i_glide_ligand_efficiency_sa>
-0.79341605311954

> <r_i_glide_ligand_efficiency_ln>
-1.63531358917492

> <r_i_glide_gscore>
-6.96332313264523

> <r_i_glide_lipo>
-3.43917314869016

> <r_i_glide_hbond>
-0.32

> <r_i_glide_metal>
0

> <r_i_glide_rewards>
-1.953564

> <r_i_glide_evdw>
-22.1094875335693

> <r_i_glide_ecoul>
-5.21252870559692

> <r_i_glide_erotb>
0.636767698562934

> <r_i_glide_esite>
0

> <r_i_glide_emodel>
-26.5386890126458

> <r_i_glide_energy>
-27.3220162391663

> <r_i_glide_einternal>
5.67358016967773

> <i_i_glide_confnum>
27

> <i_i_glide_posenum>
338

> <r_i_glide_eff_state_penalty>
0

> <s_user_duplicate_titles>
244090

> <s_m_subgroup_title>
dock_pv

> <s_m_subgroupid>
dock_pv1

> <b_m_subgroup_collapsed>
0

$$$$
206815
                    3D
 Schrodinger Suite 2021-1.
 53 57  0  0  1  0            999 V2000
    7.1030   14.9630   22.7783 C   0  0  0  0  0  0
    6.5920   15.8805   23.6665 C   0  0  0  0  0  0
    6.6067   17.2199   23.3242 C   0  0  0  0  0  0
    7.1003   17.6040   22.0809 C   0  0  0  0  0  0
    7.6865   16.6879   21.2227 C   0  0  0  0  0  0
    7.7127   15.3630   21.5914 C   0  0  0  0  0  0
    6.9968   19.0243   21.6277 C   0  0  0  0  0  0
    7.2458   19.9503   22.6840 O   0  0  0  0  0  0
    8.5427   20.2251   23.0840 C   0  0  0  0  0  0
    9.6314   19.3735   22.8110 C   0  0  0  0  0  0
   10.8694   19.5842   23.4118 C   0  0  0  0  0  0
   11.0325   20.6390   24.3009 C   0  0  0  0  0  0
    9.9737   21.5112   24.5383 C   0  0  0  0  0  0
    8.7430   21.3654   23.8840 C   0  0  0  0  0  0
    7.6985   22.4447   24.0790 C   0  0  0  0  0  0
    7.4247   23.2279   25.2023 C   0  0  0  0  0  0
    6.4878   24.2667   25.0128 C   0  0  0  0  0  0
    5.9878   24.2220   23.7195 C   0  0  0  0  0  0
    6.6765   22.9607   22.7651 S   0  0  0  0  0  0
    6.1506   25.2817   26.0674 C   0  0  0  0  0  0
    7.2398   25.7455   26.8073 C   0  0  0  0  0  0
    7.0655   26.6682   27.8273 C   0  0  0  0  0  0
    5.7920   27.0768   28.2002 C   0  0  0  0  0  0
    4.6988   26.6577   27.4577 C   0  0  0  0  0  0
    4.8762   25.8228   26.3484 C   0  0  0  0  0  0
    3.7048   25.6148   25.4134 C   0  0  2  0  0  0
    3.5203   26.5759   24.2840 C   0  0  0  0  0  0
    2.4619   26.5159   25.3761 C   0  0  1  0  0  0
    1.1534   25.7626   25.0839 C   0  0  0  0  0  0
    1.0692   24.7603   24.3774 O   0  0  0  0  0  0
    0.1018   26.3509   25.7176 O   0  0  0  0  0  0
    7.0727   13.9281   23.0840 H   0  0  0  0  0  0
    6.1921   15.5401   24.6083 H   0  0  0  0  0  0
    6.1921   17.9537   23.9997 H   0  0  0  0  0  0
    8.1177   16.9966   20.2831 H   0  0  0  0  0  0
    8.1920   14.6636   20.9296 H   0  0  0  0  0  0
    5.9916   19.1967   21.2447 H   0  0  0  0  0  0
    7.6703   19.2168   20.7907 H   0  0  0  0  0  0
    9.5306   18.5109   22.1735 H   0  0  0  0  0  0
   11.6916   18.9132   23.2117 H   0  0  0  0  0  0
   11.9828   20.7979   24.7905 H   0  0  0  0  0  0
   10.1376   22.3481   25.2016 H   0  0  0  0  0  0
    7.9493   23.0832   26.1353 H   0  0  0  0  0  0
    5.2803   24.8920   23.2632 H   0  0  0  0  0  0
    8.2424   25.4221   26.5670 H   0  0  0  0  0  0
    7.9426   27.0769   28.2933 H   0  0  0  0  0  0
    5.6525   27.7630   29.0215 H   0  0  0  0  0  0
    3.7253   27.0405   27.7222 H   0  0  0  0  0  0
    3.5508   24.5630   25.1757 H   0  0  0  0  0  0
    3.3920   26.1446   23.2974 H   0  0  0  0  0  0
    4.1553   27.4619   24.2337 H   0  0  0  0  0  0
    2.3761   27.3816   26.0317 H   0  0  0  0  0  0
    0.3633   27.1237   26.2190 H   0  0  0  0  0  0
  1  6  1  0  0  0
  1  2  2  0  0  0
  1 32  1  0  0  0
  2  3  1  0  0  0
  2 33  1  0  0  0
  3  4  2  0  0  0
  3 34  1  0  0  0
  4  5  1  0  0  0
  4  7  1  0  0  0
  5  6  2  0  0  0
  5 35  1  0  0  0
  6 36  1  0  0  0
  7  8  1  0  0  0
  7 37  1  0  0  0
  7 38  1  0  0  0
  8  9  1  0  0  0
  9 14  1  0  0  0
  9 10  2  0  0  0
 10 11  1  0  0  0
 10 39  1  0  0  0
 11 12  2  0  0  0
 11 40  1  0  0  0
 12 13  1  0  0  0
 12 41  1  0  0  0
 13 14  2  0  0  0
 13 42  1  0  0  0
 14 15  1  0  0  0
 15 19  1  0  0  0
 15 16  2  0  0  0
 16 17  1  0  0  0
 16 43  1  0  0  0
 17 18  2  0  0  0
 17 20  1  0  0  0
 18 19  1  0  0  0
 18 44  1  0  0  0
 20 25  1  0  0  0
 20 21  2  0  0  0
 21 22  1  0  0  0
 21 45  1  0  0  0
 22 23  2  0  0  0
 22 46  1  0  0  0
 23 24  1  0  0  0
 23 47  1  0  0  0
 24 25  2  0  0  0
 24 48  1  0  0  0
 25 26  1  0  0  0
 26 28  1  0  0  0
 26 27  1  0  0  0
 26 49  1  0  0  0
 27 28  1  0  0  0
 27 50  1  0  0  0
 27 51  1  0  0  0
 28 29  1  0  0  0
 28 52  1  0  0  0
 29 30  2  0  0  0
 29 31  1  0  0  0
 31 53  1  0  0  0
M  END
> <s_m_entry_id>
8280

> <s_m_entry_name>
ligand_docking-pose.35

> <s_m_Source_Path>
/home/csk/Desktop/cluster/DUD-E-result/drd3

> <s_m_Source_File>
ligand_docking-pose.sdf

> <i_m_Source_File_Index>
35

> <i_lp_mmshare_version>
53161

> <i_f3d_flags>
0

> <r_lp_tautomer_probability>
1

> <s_lp_Force_Field>
OPLS_2005

> <r_lp_Energy>
31.089265

> <b_lp_Chiralities_Consistent>
1

> <s_lp_Variant>
206815-1

> <s_i_glide_gridfile>
glide-grid_3pbl

> <i_i_glide_lignum>
2173

> <i_i_glide_rotatable_bonds>
8

> <r_i_docking_score>
-6.95827658668985

> <r_i_glide_ligand_efficiency>
-0.224460535054511

> <r_i_glide_ligand_efficiency_sa>
-0.705115981238542

> <r_i_glide_ligand_efficiency_ln>
-1.56930461586612

> <r_i_glide_gscore>
-6.95827658668985

> <r_i_glide_lipo>
-3.99070475868923

> <r_i_glide_hbond>
0

> <r_i_glide_metal>
0

> <r_i_glide_rewards>
-1.56976627471164

> <r_i_glide_evdw>
-29.3866100311279

> <r_i_glide_ecoul>
-4.61418056488037

> <r_i_glide_erotb>
0.763652032999467

> <r_i_glide_esite>
0

> <r_i_glide_emodel>
-36.6269488877476

> <r_i_glide_energy>
-34.0007905960083

> <r_i_glide_einternal>
3.03532862663269

> <i_i_glide_confnum>
137

> <i_i_glide_posenum>
286

> <r_i_glide_eff_state_penalty>
0

> <s_user_duplicate_titles>
206815

> <s_m_subgroup_title>
dock_pv

> <s_m_subgroupid>
dock_pv1

> <b_m_subgroup_collapsed>
0

$$$$
407823
                    3D
 Schrodinger Suite 2021-1.
 45 48  0  0  1  0            999 V2000
    7.2215   26.1002   27.5493 C   0  0  0  0  0  0
    6.2646   26.5630   28.4498 C   0  0  0  0  0  0
    5.0251   27.0385   28.0195 C   0  0  0  0  0  0
    4.7871   27.0197   26.6400 C   0  0  0  0  0  0
    5.7582   26.5507   25.7016 C   0  0  0  0  0  0
    6.9923   26.1037   26.1844 C   0  0  0  0  0  0
    5.1927   26.6466   24.3864 C   0  0  0  0  0  0
    3.9322   27.1886   24.5712 C   0  0  0  0  0  0
    3.6906   27.4050   25.9037 N   0  0  0  0  0  0
    5.8615   26.2760   23.0727 C   0  0  0  0  0  0
    6.2440   24.8604   22.8571 N   0  0  1  0  0  0
    7.7024   24.7368   22.7153 C   0  0  0  0  0  0
    8.1725   23.2862   22.4775 C   0  0  0  0  0  0
    7.6726   22.2193   23.4840 C   0  0  0  0  0  0
    6.1270   22.4117   23.4910 C   0  0  0  0  0  0
    5.6491   23.8587   23.7628 C   0  0  0  0  0  0
    8.1731   20.7994   23.0840 C   0  0  0  0  0  0
    7.3006   19.7637   22.6840 C   0  0  0  0  0  0
    7.7901   18.5210   22.2840 C   0  0  0  0  0  0
    9.1614   18.2817   22.2791 C   0  0  0  0  0  0
   10.0436   19.2802   22.6840 C   0  0  0  0  0  0
    9.5528   20.5267   23.0840 C   0  0  0  0  0  0
   11.7414   18.9631   22.6840 Cl  0  0  0  0  0  0
    8.1920   22.5630   24.7590 O   0  0  0  0  0  0
    2.8244   27.7932   26.2486 H   0  0  0  0  0  0
    8.1758   25.7266   27.8840 H   0  0  0  0  0  0
    6.4924   26.5591   29.5066 H   0  0  0  0  0  0
    4.2903   27.4005   28.7240 H   0  0  0  0  0  0
    7.7585   25.7431   25.5185 H   0  0  0  0  0  0
    3.1727   27.4458   23.8464 H   0  0  0  0  0  0
    5.1725   26.5430   22.2840 H   0  0  0  0  0  0
    6.7033   26.9485   22.8947 H   0  0  0  0  0  0
    8.0300   25.3628   21.8840 H   0  0  0  0  0  0
    8.1920   25.1534   23.5901 H   0  0  0  0  0  0
    7.8674   23.0101   21.4840 H   0  0  0  0  0  0
    9.2591   23.2633   22.3976 H   0  0  0  0  0  0
    5.6845   21.7744   24.2541 H   0  0  0  0  0  0
    5.6717   22.0360   22.5752 H   0  0  0  0  0  0
    5.8892   24.0999   24.7965 H   0  0  0  0  0  0
    4.5624   23.9175   23.6867 H   0  0  0  0  0  0
    6.2313   19.9076   22.6758 H   0  0  0  0  0  0
    7.1054   17.7442   21.9767 H   0  0  0  0  0  0
    9.5422   17.3219   21.9616 H   0  0  0  0  0  0
   10.2515   21.2918   23.3920 H   0  0  0  0  0  0
    8.8950   23.2226   24.6378 H   0  0  0  0  0  0
  1  6  1  0  0  0
  1  2  2  0  0  0
  1 26  1  0  0  0
  2  3  1  0  0  0
  2 27  1  0  0  0
  3  4  2  0  0  0
  3 28  1  0  0  0
  4  9  1  0  0  0
  4  5  1  0  0  0
  5  6  2  0  0  0
  5  7  1  0  0  0
  6 29  1  0  0  0
  7  8  2  0  0  0
  7 10  1  0  0  0
  8  9  1  0  0  0
  8 30  1  0  0  0
  9 25  1  0  0  0
 10 11  1  0  0  0
 10 31  1  0  0  0
 10 32  1  0  0  0
 11 16  1  0  0  0
 11 12  1  0  0  0
 12 13  1  0  0  0
 12 33  1  0  0  0
 12 34  1  0  0  0
 13 14  1  0  0  0
 13 35  1  0  0  0
 13 36  1  0  0  0
 14 15  1  0  0  0
 14 17  1  0  0  0
 14 24  1  0  0  0
 15 16  1  0  0  0
 15 37  1  0  0  0
 15 38  1  0  0  0
 16 39  1  0  0  0
 16 40  1  0  0  0
 17 22  1  0  0  0
 17 18  2  0  0  0
 18 19  1  0  0  0
 18 41  1  0  0  0
 19 20  2  0  0  0
 19 42  1  0  0  0
 20 21  1  0  0  0
 20 43  1  0  0  0
 21 22  2  0  0  0
 21 23  1  0  0  0
 22 44  1  0  0  0
 24 45  1  0  0  0
M  END
> <s_m_entry_id>
8281

> <s_m_entry_name>
ligand_docking-pose.36

> <s_m_Source_Path>
/home/csk/Desktop/cluster/DUD-E-result/drd3

> <s_m_Source_File>
ligand_docking-pose.sdf

> <i_m_Source_File_Index>
36

> <i_lp_mmshare_version>
53161

> <i_f3d_flags>
0

> <r_lp_tautomer_probability>
1

> <s_lp_Force_Field>
OPLS_2005

> <r_lp_Energy>
24.993704

> <b_lp_Chiralities_Consistent>
1

> <s_lp_Variant>
407823-1

> <s_i_glide_gridfile>
glide-grid_3pbl

> <i_i_glide_lignum>
2730

> <i_i_glide_rotatable_bonds>
4

> <r_i_docking_score>
-6.94264179107703

> <r_i_glide_ligand_efficiency>
-0.289276741294876

> <r_i_glide_ligand_efficiency_sa>
-0.834418510780983

> <r_i_glide_ligand_efficiency_ln>
-1.66169275767777

> <r_i_glide_gscore>
-6.94264179107703

> <r_i_glide_lipo>
-3.04984616309324

> <r_i_glide_hbond>
-0.16

> <r_i_glide_metal>
0

> <r_i_glide_rewards>
-1.57729475499998

> <r_i_glide_evdw>
-32.8421592712402

> <r_i_glide_ecoul>
-6.68361663818359

> <r_i_glide_erotb>
0.489149586305739

> <r_i_glide_esite>
0

> <r_i_glide_emodel>
-47.5288284225372

> <r_i_glide_energy>
-39.5257759094238

> <r_i_glide_einternal>
12.3761510848999

> <i_i_glide_confnum>
23

> <i_i_glide_posenum>
38

> <r_i_glide_eff_state_penalty>
0

> <s_user_duplicate_titles>
407823

> <s_m_subgroup_title>
dock_pv

> <s_m_subgroupid>
dock_pv1

> <b_m_subgroup_collapsed>
0

$$$$
550340
                    3D
 Schrodinger Suite 2021-1.
 48 51  0  0  1  0            999 V2000
    4.0888   29.1338   27.5818 C   0  0  0  0  0  0
    5.3559   28.8128   27.1069 C   0  0  0  0  0  0
    5.5231   27.7383   26.2457 C   0  0  0  0  0  0
    4.4264   26.9506   25.8730 C   0  0  0  0  0  0
    3.1499   27.2968   26.3435 C   0  0  0  0  0  0
    2.9803   28.3906   27.1885 C   0  0  0  0  0  0
    4.6507   25.6548   25.0681 C   0  0  1  0  0  0
    5.3281   25.9566   23.7065 C   0  0  0  0  0  0
    5.7950   24.7040   22.9394 C   0  0  0  0  0  0
    6.7680   23.9199   23.6982 N   0  0  2  0  0  0
    7.1884   22.6930   23.0167 C   0  0  0  0  0  0
    8.4410   22.0166   23.6470 C   0  0  1  0  0  0
    8.5924   22.1630   25.1906 C   0  0  0  0  0  0
    7.5413   22.9948   25.9557 C   0  0  0  0  0  0
    6.4591   23.7002   25.1176 C   0  0  1  0  0  0
    5.5618   24.6917   25.8877 C   0  0  0  0  0  0
    8.7587   20.5851   23.1520 C   0  0  0  0  0  0
    7.7370   19.7393   22.6840 C   0  0  0  0  0  0
    8.0253   18.4769   22.1675 C   0  0  0  0  0  0
    9.3402   18.0243   22.1319 C   0  0  0  0  0  0
   10.3591   18.8177   22.6517 C   0  0  0  0  0  0
   10.0776   20.0814   23.1740 C   0  0  0  0  0  0
   11.3922   20.9645   23.8731 Cl  0  0  0  0  0  0
    3.4599   24.9630   24.7164 O   0  0  0  0  0  0
    9.2734   22.5631   23.2044 H   0  0  0  0  0  0
    5.7374   22.9081   24.9072 H   0  0  0  0  0  0
    3.9649   29.9646   28.2623 H   0  0  0  0  0  0
    6.2196   29.3630   27.4324 H   0  0  0  0  0  0
    6.5210   27.4863   25.9170 H   0  0  0  0  0  0
    2.2843   26.7073   26.0791 H   0  0  0  0  0  0
    1.9979   28.6458   27.5591 H   0  0  0  0  0  0
    6.1454   26.6724   23.7962 H   0  0  0  0  0  0
    4.6196   26.5059   23.0840 H   0  0  0  0  0  0
    6.2275   24.9845   21.9778 H   0  0  0  0  0  0
    4.9362   24.0699   22.7133 H   0  0  0  0  0  0
    7.4458   22.9647   21.9908 H   0  0  0  0  0  0
    6.3232   22.0354   22.9495 H   0  0  0  0  0  0
    8.6532   21.1828   25.6506 H   0  0  0  0  0  0
    9.5821   22.5628   25.4140 H   0  0  0  0  0  0
    7.0540   22.3428   26.6777 H   0  0  0  0  0  0
    8.0791   23.7490   26.5328 H   0  0  0  0  0  0
    4.9433   24.1630   26.6132 H   0  0  0  0  0  0
    6.2351   25.2796   26.5098 H   0  0  0  0  0  0
    6.7039   20.0465   22.6865 H   0  0  0  0  0  0
    7.2296   17.8533   21.7875 H   0  0  0  0  0  0
    9.5702   17.0548   21.7132 H   0  0  0  0  0  0
   11.3739   18.4478   22.6502 H   0  0  0  0  0  0
    3.4595   24.1013   25.1569 H   0  0  0  0  0  0
  1  6  1  0  0  0
  1  2  2  0  0  0
  1 27  1  0  0  0
  2  3  1  0  0  0
  2 28  1  0  0  0
  3  4  2  0  0  0
  3 29  1  0  0  0
  4  5  1  0  0  0
  4  7  1  0  0  0
  5  6  2  0  0  0
  5 30  1  0  0  0
  6 31  1  0  0  0
  7 16  1  0  0  0
  7  8  1  0  0  0
  7 24  1  0  0  0
  8  9  1  0  0  0
  8 32  1  0  0  0
  8 33  1  0  0  0
  9 10  1  0  0  0
  9 34  1  0  0  0
  9 35  1  0  0  0
 10 15  1  0  0  0
 10 11  1  0  0  0
 11 12  1  0  0  0
 11 36  1  0  0  0
 11 37  1  0  0  0
 12 25  1  0  0  0
 12 13  1  0  0  0
 12 17  1  0  0  0
 13 14  1  0  0  0
 13 38  1  0  0  0
 13 39  1  0  0  0
 14 15  1  0  0  0
 14 40  1  0  0  0
 14 41  1  0  0  0
 15 26  1  0  0  0
 15 16  1  0  0  0
 16 42  1  0  0  0
 16 43  1  0  0  0
 17 22  1  0  0  0
 17 18  2  0  0  0
 18 19  1  0  0  0
 18 44  1  0  0  0
 19 20  2  0  0  0
 19 45  1  0  0  0
 20 21  1  0  0  0
 20 46  1  0  0  0
 21 22  2  0  0  0
 21 47  1  0  0  0
 22 23  1  0  0  0
 24 48  1  0  0  0
M  END
> <s_m_entry_id>
8282

> <s_m_entry_name>
ligand_docking-pose.37

> <s_m_Source_Path>
/home/csk/Desktop/cluster/DUD-E-result/drd3

> <s_m_Source_File>
ligand_docking-pose.sdf

> <i_m_Source_File_Index>
37

> <i_lp_mmshare_version>
53161

> <i_f3d_flags>
0

> <r_lp_tautomer_probability>
1

> <s_lp_Force_Field>
OPLS_2005

> <r_lp_Energy>
35.848658

> <b_lp_Chiralities_Consistent>
1

> <s_lp_Variant>
550340-1

> <s_i_glide_gridfile>
glide-grid_3pbl

> <i_i_glide_lignum>
1782

> <i_i_glide_rotatable_bonds>
3

> <r_i_docking_score>
-6.94193003016426

> <r_i_glide_ligand_efficiency>
-0.289247084590178

> <r_i_glide_ligand_efficiency_sa>
-0.834332966041857

> <r_i_glide_ligand_efficiency_ln>
-1.66152240063076

> <r_i_glide_gscore>
-6.94193003016426

> <r_i_glide_lipo>
-3.16926034761573

> <r_i_glide_hbond>
-0.32

> <r_i_glide_metal>
0

> <r_i_glide_rewards>
-1.54725166507187

> <r_i_glide_evdw>
-36.7567596435547

> <r_i_glide_ecoul>
-2.61295413970947

> <r_i_glide_erotb>
0.32436308565749

> <r_i_glide_esite>
0

> <r_i_glide_emodel>
-49.0717116637857

> <r_i_glide_energy>
-39.3697137832642

> <r_i_glide_einternal>
3.03797459602356

> <i_i_glide_confnum>
6

> <i_i_glide_posenum>
59

> <r_i_glide_eff_state_penalty>
0

> <s_user_duplicate_titles>
550340

> <s_m_subgroup_title>
dock_pv

> <s_m_subgroupid>
dock_pv1

> <b_m_subgroup_collapsed>
0

$$$$
611136
                    3D
 Schrodinger Suite 2021-1.
 56 60  0  0  1  0            999 V2000
    3.4218   29.0946   28.2158 C   0  0  0  0  0  0
    2.6999   28.8338   26.9127 C   0  0  0  0  0  0
    3.0977   28.0920   25.8009 C   0  0  0  0  0  0
    2.1017   28.1849   24.8885 O   0  0  0  0  0  0
    1.1722   28.9590   25.4961 C   0  0  0  0  0  0
    1.5013   29.3547   26.7003 N   0  0  0  0  0  0
    4.2374   27.2665   25.4333 C   0  0  0  0  0  0
    4.8587   27.3484   24.2832 N   0  0  0  0  0  0
    5.7782   26.3070   24.2367 N   0  0  0  0  0  0
    5.6914   25.6445   25.3646 C   0  0  0  0  0  0
    4.7469   26.2301   26.1885 N   0  0  0  0  0  0
    4.2673   25.7619   27.4816 C   0  0  0  0  0  0
    6.4974   24.0926   25.6191 S   0  0  0  0  0  0
    7.5471   24.4705   27.0535 C   0  0  0  0  0  0
    8.3738   23.2729   27.5812 C   0  0  0  0  0  0
    9.7722   23.1282   26.9396 C   0  0  0  0  0  0
    9.9612   21.9223   26.1269 N   0  0  2  0  0  0
   11.3466   21.8178   25.6674 C   0  0  0  0  0  0
   11.3328   21.0782   24.3621 C   0  0  2  0  0  0
   10.9968   21.8854   23.1518 C   0  0  0  0  0  0
    9.9154   21.1276   23.8348 C   0  0  2  0  0  0
    9.1420   21.9131   24.9184 C   0  0  0  0  0  0
    9.2689   19.9827   23.0841 C   0  0  0  0  0  0
   10.0392   18.8804   22.6982 C   0  0  0  0  0  0
    9.4325   17.7689   22.1377 C   0  0  0  0  0  0
    8.0485   17.7384   21.9818 C   0  0  0  0  0  0
    7.2895   18.8696   22.2952 C   0  0  0  0  0  0
    7.8999   19.9951   22.8200 C   0  0  0  0  0  0
    7.1438   21.0874   23.0837 F   0  0  0  0  0  0
    7.3631   16.5124   21.4377 C   0  0  0  0  0  0
    8.1741   15.7637   20.6963 F   0  0  0  0  0  0
    6.8687   15.7749   22.4320 F   0  0  0  0  0  0
    6.3770   16.9630   20.6841 F   0  0  0  0  0  0
    4.4481   28.7291   28.1956 H   0  0  0  0  0  0
    3.4725   30.1592   28.4491 H   0  0  0  0  0  0
    2.9239   28.6080   29.0562 H   0  0  0  0  0  0
    0.2789   29.1707   24.9257 H   0  0  0  0  0  0
    4.2004   24.6774   27.4748 H   0  0  0  0  0  0
    4.9517   26.0951   28.2605 H   0  0  0  0  0  0
    3.2776   26.1654   27.6936 H   0  0  0  0  0  0
    8.1900   25.3240   26.8314 H   0  0  0  0  0  0
    6.8813   24.7992   27.8483 H   0  0  0  0  0  0
    8.4910   23.3464   28.6632 H   0  0  0  0  0  0
    7.7983   22.3603   27.4183 H   0  0  0  0  0  0
    9.9881   23.9993   26.3287 H   0  0  0  0  0  0
   10.5178   23.1294   27.7366 H   0  0  0  0  0  0
   11.8598   22.7705   25.5735 H   0  0  0  0  0  0
   11.9435   21.1682   26.2838 H   0  0  0  0  0  0
   11.9725   20.1995   24.2921 H   0  0  0  0  0  0
   11.0057   22.9628   23.0840 H   0  0  0  0  0  0
   11.3928   21.4474   22.2840 H   0  0  0  0  0  0
    8.1964   21.4383   25.1598 H   0  0  0  0  0  0
    8.8929   22.9209   24.5758 H   0  0  0  0  0  0
   11.1072   18.8565   22.8443 H   0  0  0  0  0  0
   10.0504   16.9374   21.8414 H   0  0  0  0  0  0
    6.2194   18.8881   22.1463 H   0  0  0  0  0  0
  1  2  1  0  0  0
  1 34  1  0  0  0
  1 35  1  0  0  0
  1 36  1  0  0  0
  2  6  1  0  0  0
  2  3  2  0  0  0
  3  4  1  0  0  0
  3  7  1  0  0  0
  4  5  1  0  0  0
  5  6  2  0  0  0
  5 37  1  0  0  0
  7 11  1  0  0  0
  7  8  2  0  0  0
  8  9  1  0  0  0
  9 10  2  0  0  0
 10 11  1  0  0  0
 10 13  1  0  0  0
 11 12  1  0  0  0
 12 38  1  0  0  0
 12 39  1  0  0  0
 12 40  1  0  0  0
 13 14  1  0  0  0
 14 15  1  0  0  0
 14 41  1  0  0  0
 14 42  1  0  0  0
 15 16  1  0  0  0
 15 43  1  0  0  0
 15 44  1  0  0  0
 16 17  1  0  0  0
 16 45  1  0  0  0
 16 46  1  0  0  0
 17 22  1  0  0  0
 17 18  1  0  0  0
 18 19  1  0  0  0
 18 47  1  0  0  0
 18 48  1  0  0  0
 19 21  1  0  0  0
 19 20  1  0  0  0
 19 49  1  0  0  0
 20 21  1  0  0  0
 20 50  1  0  0  0
 20 51  1  0  0  0
 21 22  1  0  0  0
 21 23  1  0  0  0
 22 52  1  0  0  0
 22 53  1  0  0  0
 23 28  1  0  0  0
 23 24  2  0  0  0
 24 25  1  0  0  0
 24 54  1  0  0  0
 25 26  2  0  0  0
 25 55  1  0  0  0
 26 27  1  0  0  0
 26 30  1  0  0  0
 27 28  2  0  0  0
 27 56  1  0  0  0
 28 29  1  0  0  0
 30 31  1  0  0  0
 30 32  1  0  0  0
 30 33  1  0  0  0
M  END
> <s_m_entry_id>
8283

> <s_m_entry_name>
ligand_docking-pose.38

> <s_m_Source_Path>
/home/csk/Desktop/cluster/DUD-E-result/drd3

> <s_m_Source_File>
ligand_docking-pose.sdf

> <i_m_Source_File_Index>
38

> <i_lp_mmshare_version>
53161

> <i_f3d_flags>
0

> <r_lp_tautomer_probability>
1

> <s_lp_Force_Field>
OPLS_2005

> <r_lp_Energy>
49.155272

> <b_lp_Chiralities_Consistent>
1

> <s_lp_Variant>
611136-2

> <s_i_glide_gridfile>
glide-grid_3pbl

> <i_i_glide_lignum>
392

> <i_i_glide_rotatable_bonds>
8

> <r_i_docking_score>
-6.93802956566304

> <r_i_glide_ligand_efficiency>
-0.210243320171607

> <r_i_glide_ligand_efficiency_sa>
-0.674362666316763

> <r_i_glide_ligand_efficiency_ln>
-1.54298185220894

> <r_i_glide_gscore>
-6.93802956566304

> <r_i_glide_lipo>
-3.13695196104679

> <r_i_glide_hbond>
0

> <r_i_glide_metal>
0

> <r_i_glide_rewards>
-2.58764693160322

> <r_i_glide_evdw>
-31.2979221343994

> <r_i_glide_ecoul>
-1.68687677383423

> <r_i_glide_erotb>
0.612492462783857

> <r_i_glide_esite>
-0.0079955130017802

> <r_i_glide_emodel>
-31.3569880591454

> <r_i_glide_energy>
-32.9847989082336

> <r_i_glide_einternal>
17.1094722747803

> <i_i_glide_confnum>
70

> <i_i_glide_posenum>
4

> <r_i_glide_eff_state_penalty>
0

> <s_user_duplicate_titles>
611136

> <s_m_subgroup_title>
dock_pv

> <s_m_subgroupid>
dock_pv1

> <b_m_subgroup_collapsed>
0

$$$$
567280
                    3D
 Schrodinger Suite 2021-1.
 47 51  0  0  1  0            999 V2000
    2.7531   28.1717   29.4651 C   0  0  0  0  0  0
    3.3772   29.3627   29.0841 C   0  0  0  0  0  0
    4.4626   29.3330   28.2062 C   0  0  0  0  0  0
    4.9032   28.1138   27.6944 C   0  0  0  0  0  0
    4.2901   26.9315   28.0809 C   0  0  0  0  0  0
    3.2127   26.9485   28.9692 C   0  0  0  0  0  0
    5.0489   25.7874   27.4617 C   0  0  0  0  0  0
    5.9089   26.3729   26.4359 N   0  0  0  0  0  0
    6.0529   27.7863   26.7733 C   0  0  0  0  0  0
    5.5715   26.1046   25.0319 C   0  0  0  0  0  0
    5.5191   24.6073   24.6244 C   0  0  0  0  0  0
    6.7530   23.8181   24.8097 N   0  0  0  0  0  0
    7.3789   23.6751   26.1055 C   0  0  0  0  0  0
    8.4112   22.6177   25.8599 C   0  0  0  0  0  0
    8.1920   22.2365   24.4731 N   0  0  0  0  0  0
    7.2199   22.9684   23.8567 C   0  0  0  0  0  0
    6.8316   22.8816   22.6883 O   0  0  0  0  0  0
    9.0217   21.2860   23.8840 C   0  0  0  0  0  0
   10.3953   21.2999   24.0636 C   0  0  0  0  0  0
   11.2362   19.9508   23.3596 S   0  0  0  0  0  0
    9.7277   19.3579   22.6865 C   0  0  0  0  0  0
    8.6107   20.1630   23.0839 C   0  0  0  0  0  0
    7.3271   19.7320   22.6840 C   0  0  0  0  0  0
    7.1819   18.5925   21.8941 C   0  0  0  0  0  0
    8.2871   17.8542   21.4945 C   0  0  0  0  0  0
    9.5718   18.2180   21.8840 C   0  0  0  0  0  0
    1.9273   28.1971   30.1620 H   0  0  0  0  0  0
    3.0315   30.3050   29.4855 H   0  0  0  0  0  0
    4.9679   30.2472   27.9462 H   0  0  0  0  0  0
    2.7394   26.0325   29.2913 H   0  0  0  0  0  0
    5.7054   25.3629   28.2184 H   0  0  0  0  0  0
    4.4075   24.9949   27.0779 H   0  0  0  0  0  0
    6.0771   28.4173   25.8844 H   0  0  0  0  0  0
    6.9920   27.9118   27.3055 H   0  0  0  0  0  0
    4.6064   26.5647   24.8126 H   0  0  0  0  0  0
    6.2984   26.6065   24.3909 H   0  0  0  0  0  0
    4.7189   24.1291   25.1819 H   0  0  0  0  0  0
    5.2090   24.5630   23.5795 H   0  0  0  0  0  0
    7.8461   24.6118   26.4131 H   0  0  0  0  0  0
    6.6496   23.3692   26.8545 H   0  0  0  0  0  0
    8.2839   21.7630   26.5228 H   0  0  0  0  0  0
    9.4219   23.0004   26.0024 H   0  0  0  0  0  0
   10.9619   22.0455   24.6074 H   0  0  0  0  0  0
    6.4497   20.2901   22.9725 H   0  0  0  0  0  0
    6.1952   18.2820   21.5814 H   0  0  0  0  0  0
    8.1474   16.9788   20.8765 H   0  0  0  0  0  0
   10.4250   17.6286   21.5772 H   0  0  0  0  0  0
  1  6  1  0  0  0
  1  2  2  0  0  0
  1 27  1  0  0  0
  2  3  1  0  0  0
  2 28  1  0  0  0
  3  4  2  0  0  0
  3 29  1  0  0  0
  4  9  1  0  0  0
  4  5  1  0  0  0
  5  6  2  0  0  0
  5  7  1  0  0  0
  6 30  1  0  0  0
  7  8  1  0  0  0
  7 31  1  0  0  0
  7 32  1  0  0  0
  8  9  1  0  0  0
  8 10  1  0  0  0
  9 33  1  0  0  0
  9 34  1  0  0  0
 10 11  1  0  0  0
 10 35  1  0  0  0
 10 36  1  0  0  0
 11 12  1  0  0  0
 11 37  1  0  0  0
 11 38  1  0  0  0
 12 16  1  0  0  0
 12 13  1  0  0  0
 13 14  1  0  0  0
 13 39  1  0  0  0
 13 40  1  0  0  0
 14 15  1  0  0  0
 14 41  1  0  0  0
 14 42  1  0  0  0
 15 16  1  0  0  0
 15 18  1  0  0  0
 16 17  2  0  0  0
 18 22  1  0  0  0
 18 19  2  0  0  0
 19 20  1  0  0  0
 19 43  1  0  0  0
 20 21  1  0  0  0
 21 26  1  0  0  0
 21 22  2  0  0  0
 22 23  1  0  0  0
 23 24  2  0  0  0
 23 44  1  0  0  0
 24 25  1  0  0  0
 24 45  1  0  0  0
 25 26  2  0  0  0
 25 46  1  0  0  0
 26 47  1  0  0  0
M  END
> <s_m_entry_id>
8284

> <s_m_entry_name>
ligand_docking-pose.39

> <s_m_Source_Path>
/home/csk/Desktop/cluster/DUD-E-result/drd3

> <s_m_Source_File>
ligand_docking-pose.sdf

> <i_m_Source_File_Index>
39

> <i_lp_mmshare_version>
53161

> <i_f3d_flags>
0

> <r_lp_tautomer_probability>
1

> <s_lp_Force_Field>
OPLS_2005

> <r_lp_Energy>
75.517916

> <b_lp_Chiralities_Consistent>
1

> <s_lp_Variant>
567280-1

> <s_i_glide_gridfile>
glide-grid_3pbl

> <i_i_glide_lignum>
2190

> <i_i_glide_rotatable_bonds>
4

> <r_i_docking_score>
-6.92326840587811

> <r_i_glide_ligand_efficiency>
-0.266279554072235

> <r_i_glide_ligand_efficiency_sa>
-0.788852131179546

> <r_i_glide_ligand_efficiency_ln>
-1.62590686802395

> <r_i_glide_gscore>
-6.92326840587811

> <r_i_glide_lipo>
-3.12865823562873

> <r_i_glide_hbond>
0

> <r_i_glide_metal>
0

> <r_i_glide_rewards>
-1.79206735460521

> <r_i_glide_evdw>
-40.8117904663086

> <r_i_glide_ecoul>
-2.46372032165527

> <r_i_glide_erotb>
0.581729491579879

> <r_i_glide_esite>
-0.174124735660333

> <r_i_glide_emodel>
-60.5167200535766

> <r_i_glide_energy>
-43.2755107879639

> <r_i_glide_einternal>
2.43724131584167

> <i_i_glide_confnum>
169

> <i_i_glide_posenum>
46

> <r_i_glide_eff_state_penalty>
0

> <s_user_duplicate_titles>
567280

> <s_m_subgroup_title>
dock_pv

> <s_m_subgroupid>
dock_pv1

> <b_m_subgroup_collapsed>
0

$$$$
202917
                    3D
 Schrodinger Suite 2021-1.
 40 42  0  0  1  0            999 V2000
    3.6611   27.1639   25.2426 C   0  0  0  0  0  0
    4.5162   26.8766   24.1791 C   0  0  0  0  0  0
    5.8425   26.4930   24.4102 C   0  0  0  0  0  0
    6.3203   26.4135   25.7257 C   0  0  0  0  0  0
    5.4668   26.7054   26.7925 C   0  0  0  0  0  0
    4.1355   27.0728   26.5509 C   0  0  0  0  0  0
    3.3083   27.3808   27.7178 C   0  0  0  0  0  0
    3.8141   27.3411   28.9638 C   0  0  0  0  0  0
    5.2172   26.9755   29.1996 C   0  0  0  0  0  0
    5.7923   26.9630   30.2840 O   0  0  0  0  0  0
    5.9776   26.6236   28.0840 O   0  0  0  0  0  0
    6.7507   26.2081   23.2171 C   0  0  0  0  0  0
    7.3920   24.8970   23.2143 N   0  0  2  0  0  0
    6.5462   23.7334   23.4741 C   0  0  0  0  0  0
    7.3111   22.4509   23.1011 C   0  0  0  0  0  0
    8.4542   22.1630   23.9635 N   0  0  0  0  0  0
    9.3507   21.1377   23.6249 C   0  0  0  0  0  0
    9.0495   20.1053   22.7251 C   0  0  0  0  0  0
   10.0386   19.1995   22.3461 C   0  0  0  0  0  0
   11.3241   19.3265   22.8691 C   0  0  0  0  0  0
   11.6046   20.2997   23.8248 C   0  0  0  0  0  0
   10.6197   21.2052   24.1978 C   0  0  0  0  0  0
   12.5921   18.3131   22.2840 Cl  0  0  0  0  0  0
    2.6413   27.4617   25.0442 H   0  0  0  0  0  0
    4.1430   26.9618   23.1687 H   0  0  0  0  0  0
    7.3457   26.1287   25.9160 H   0  0  0  0  0  0
    2.2716   27.6562   27.5821 H   0  0  0  0  0  0
    3.1784   27.5873   29.8023 H   0  0  0  0  0  0
    7.5356   26.9636   23.1851 H   0  0  0  0  0  0
    6.1958   26.3200   22.2846 H   0  0  0  0  0  0
    8.3167   24.8715   23.6550 H   0  0  0  0  0  0
    5.6507   23.7967   22.8546 H   0  0  0  0  0  0
    6.2292   23.7052   24.5181 H   0  0  0  0  0  0
    7.6740   22.5631   22.0810 H   0  0  0  0  0  0
    6.6407   21.5907   23.0869 H   0  0  0  0  0  0
    8.9371   23.0053   24.2839 H   0  0  0  0  0  0
    8.0675   20.0134   22.2896 H   0  0  0  0  0  0
    9.8234   18.4327   21.6155 H   0  0  0  0  0  0
   12.5920   20.3903   24.2457 H   0  0  0  0  0  0
   10.8635   21.9917   24.8993 H   0  0  0  0  0  0
  1  6  1  0  0  0
  1  2  2  0  0  0
  1 24  1  0  0  0
  2  3  1  0  0  0
  2 25  1  0  0  0
  3  4  2  0  0  0
  3 12  1  0  0  0
  4  5  1  0  0  0
  4 26  1  0  0  0
  5 11  1  0  0  0
  5  6  2  0  0  0
  6  7  1  0  0  0
  7  8  2  0  0  0
  7 27  1  0  0  0
  8  9  1  0  0  0
  8 28  1  0  0  0
  9 10  2  0  0  0
  9 11  1  0  0  0
 12 13  1  0  0  0
 12 29  1  0  0  0
 12 30  1  0  0  0
 13 14  1  0  0  0
 13 31  1  0  0  0
 14 15  1  0  0  0
 14 32  1  0  0  0
 14 33  1  0  0  0
 15 16  1  0  0  0
 15 34  1  0  0  0
 15 35  1  0  0  0
 16 17  1  0  0  0
 16 36  1  0  0  0
 17 22  1  0  0  0
 17 18  2  0  0  0
 18 19  1  0  0  0
 18 37  1  0  0  0
 19 20  2  0  0  0
 19 38  1  0  0  0
 20 21  1  0  0  0
 20 23  1  0  0  0
 21 22  2  0  0  0
 21 39  1  0  0  0
 22 40  1  0  0  0
M  END
> <s_m_entry_id>
8285

> <s_m_entry_name>
ligand_docking-pose.40

> <s_m_Source_Path>
/home/csk/Desktop/cluster/DUD-E-result/drd3

> <s_m_Source_File>
ligand_docking-pose.sdf

> <i_m_Source_File_Index>
40

> <i_lp_mmshare_version>
53161

> <i_f3d_flags>
0

> <r_lp_tautomer_probability>
1

> <s_lp_Force_Field>
OPLS_2005

> <r_lp_Energy>
23.617104

> <b_lp_Chiralities_Consistent>
1

> <s_lp_Variant>
202917-1

> <s_i_glide_gridfile>
glide-grid_3pbl

> <i_i_glide_lignum>
2909

> <i_i_glide_rotatable_bonds>
6

> <r_i_docking_score>
-6.90762285615434

> <r_i_glide_ligand_efficiency>
-0.30033142852845

> <r_i_glide_ligand_efficiency_sa>
-0.854102631711031

> <r_i_glide_ligand_efficiency_ln>
-1.67032584147923

> <r_i_glide_gscore>
-6.90762285615434

> <r_i_glide_lipo>
-2.66118452905658

> <r_i_glide_hbond>
-0.351215632310972

> <r_i_glide_metal>
0

> <r_i_glide_rewards>
-1.63603207063508

> <r_i_glide_evdw>
-38.0467224121094

> <r_i_glide_ecoul>
-6.43542814254761

> <r_i_glide_erotb>
0.695115606813961

> <r_i_glide_esite>
-0.086655888978062

> <r_i_glide_emodel>
-59.8544790988974

> <r_i_glide_energy>
-44.482150554657

> <r_i_glide_einternal>
4.43756246566772

> <i_i_glide_confnum>
11

> <i_i_glide_posenum>
321

> <r_i_glide_eff_state_penalty>
0

> <s_user_duplicate_titles>
202917

> <s_m_subgroup_title>
dock_pv

> <s_m_subgroupid>
dock_pv1

> <b_m_subgroup_collapsed>
0

$$$$
321333
                    3D
 Schrodinger Suite 2021-1.
 62 66  0  0  1  0            999 V2000
    7.7057   17.2993   21.0842 C   0  0  0  0  0  0
    6.8089   18.2846   21.4691 C   0  0  0  0  0  0
    7.2039   19.3434   22.2836 C   0  0  0  0  0  0
    8.5558   19.4588   22.6764 C   0  0  0  0  0  0
    8.9990   20.5243   23.4840 C   0  0  0  0  0  0
   10.2847   20.4990   24.0434 C   0  0  0  0  0  0
   11.2096   19.5556   23.5858 C   0  0  0  0  0  0
   10.8336   18.5634   22.6841 C   0  0  0  0  0  0
    9.4872   18.4576   22.2713 C   0  0  0  0  0  0
    9.0308   17.3745   21.4842 C   0  0  0  0  0  0
   10.6457   21.4264   25.1746 C   0  0  0  0  0  0
   11.8161   21.7073   25.4304 O   0  0  0  0  0  0
    9.6019   21.8729   25.9018 N   0  0  0  0  0  0
    9.6490   22.8992   26.9406 C   0  0  0  0  0  0
    8.2394   23.3292   27.3876 C   0  0  0  0  0  0
    7.2618   23.8317   26.2952 C   0  0  0  0  0  0
    7.6961   25.1335   25.5726 C   0  0  0  0  0  0
    6.8170   26.3021   25.6984 N   0  0  2  0  0  0
    6.7257   26.8389   27.0574 C   0  0  0  0  0  0
    6.0190   28.2118   26.9648 C   0  0  0  0  0  0
    4.6342   28.1099   26.4730 N   0  0  0  0  0  0
    3.6082   27.7111   27.3513 C   0  0  0  0  0  0
    3.6167   28.1320   28.6952 C   0  0  0  0  0  0
    2.5466   27.8709   29.5460 C   0  0  0  0  0  0
    1.4195   27.2214   29.0586 C   0  0  0  0  0  0
    1.3716   26.8303   27.7245 C   0  0  0  0  0  0
    2.4501   27.0537   26.8578 C   0  0  0  0  0  0
    2.3728   26.5560   25.4156 C   0  0  0  0  0  0
    3.2983   27.3830   24.5195 C   0  0  0  0  0  0
    4.7082   27.4767   25.1325 C   0  0  2  0  0  0
    5.4733   26.1161   25.1410 C   0  0  0  0  0  0
    5.2543   28.1666   24.4821 H   0  0  0  0  0  0
    7.3835   16.4739   20.4688 H   0  0  0  0  0  0
    5.7904   18.2252   21.1312 H   0  0  0  0  0  0
    6.4874   20.0930   22.5870 H   0  0  0  0  0  0
    8.2759   21.2735   23.7741 H   0  0  0  0  0  0
   12.2197   19.5609   23.9711 H   0  0  0  0  0  0
   11.5511   17.8255   22.3572 H   0  0  0  0  0  0
    9.7294   16.6054   21.1828 H   0  0  0  0  0  0
    8.6906   21.5002   25.6921 H   0  0  0  0  0  0
   10.1920   22.5252   27.8080 H   0  0  0  0  0  0
   10.1932   23.7631   26.5666 H   0  0  0  0  0  0
    7.8037   22.4538   27.8597 H   0  0  0  0  0  0
    8.3291   24.0842   28.1696 H   0  0  0  0  0  0
    7.0768   23.0531   25.5558 H   0  0  0  0  0  0
    6.2962   23.9768   26.7803 H   0  0  0  0  0  0
    8.6929   25.4366   25.8847 H   0  0  0  0  0  0
    7.7918   24.9270   24.5055 H   0  0  0  0  0  0
    6.1771   26.1602   27.7120 H   0  0  0  0  0  0
    7.7255   26.9605   27.4777 H   0  0  0  0  0  0
    6.0738   28.7786   27.8840 H   0  0  0  0  0  0
    6.5916   28.8330   26.2805 H   0  0  0  0  0  0
    4.4436   28.6888   29.1071 H   0  0  0  0  0  0
    2.5824   28.1948   30.5765 H   0  0  0  0  0  0
    0.5847   27.0294   29.7137 H   0  0  0  0  0  0
    0.4876   26.3258   27.3618 H   0  0  0  0  0  0
    2.6650   25.5056   25.3888 H   0  0  0  0  0  0
    1.3508   26.5998   25.0389 H   0  0  0  0  0  0
    2.8671   28.3831   24.4400 H   0  0  0  0  0  0
    3.3478   26.9645   23.5145 H   0  0  0  0  0  0
    5.5801   25.7557   24.1171 H   0  0  0  0  0  0
    4.9264   25.3679   25.7129 H   0  0  0  0  0  0
  1 10  1  0  0  0
  1  2  2  0  0  0
  1 33  1  0  0  0
  2  3  1  0  0  0
  2 34  1  0  0  0
  3  4  2  0  0  0
  3 35  1  0  0  0
  4  9  1  0  0  0
  4  5  1  0  0  0
  5  6  2  0  0  0
  5 36  1  0  0  0
  6  7  1  0  0  0
  6 11  1  0  0  0
  7  8  2  0  0  0
  7 37  1  0  0  0
  8  9  1  0  0  0
  8 38  1  0  0  0
  9 10  2  0  0  0
 10 39  1  0  0  0
 11 12  2  0  0  0
 11 13  1  0  0  0
 13 14  1  0  0  0
 13 40  1  0  0  0
 14 15  1  0  0  0
 14 41  1  0  0  0
 14 42  1  0  0  0
 15 16  1  0  0  0
 15 43  1  0  0  0
 15 44  1  0  0  0
 16 17  1  0  0  0
 16 45  1  0  0  0
 16 46  1  0  0  0
 17 18  1  0  0  0
 17 47  1  0  0  0
 17 48  1  0  0  0
 18 31  1  0  0  0
 18 19  1  0  0  0
 19 20  1  0  0  0
 19 49  1  0  0  0
 19 50  1  0  0  0
 20 21  1  0  0  0
 20 51  1  0  0  0
 20 52  1  0  0  0
 21 30  1  0  0  0
 21 22  1  0  0  0
 22 27  2  0  0  0
 22 23  1  0  0  0
 23 24  2  0  0  0
 23 53  1  0  0  0
 24 25  1  0  0  0
 24 54  1  0  0  0
 25 26  2  0  0  0
 25 55  1  0  0  0
 26 27  1  0  0  0
 26 56  1  0  0  0
 27 28  1  0  0  0
 28 29  1  0  0  0
 28 57  1  0  0  0
 28 58  1  0  0  0
 29 30  1  0  0  0
 29 59  1  0  0  0
 29 60  1  0  0  0
 30 32  1  0  0  0
 30 31  1  0  0  0
 31 61  1  0  0  0
 31 62  1  0  0  0
M  END
> <s_m_entry_id>
8286

> <s_m_entry_name>
ligand_docking-pose.41

> <s_m_Source_Path>
/home/csk/Desktop/cluster/DUD-E-result/drd3

> <s_m_Source_File>
ligand_docking-pose.sdf

> <i_m_Source_File_Index>
41

> <i_lp_mmshare_version>
53161

> <i_f3d_flags>
0

> <r_lp_tautomer_probability>
1

> <s_lp_Force_Field>
OPLS_2005

> <r_lp_Energy>
48.066097

> <b_lp_Chiralities_Consistent>
1

> <s_lp_Variant>
321333-1

> <s_i_glide_gridfile>
glide-grid_3pbl

> <i_i_glide_lignum>
1323

> <i_i_glide_rotatable_bonds>
7

> <r_i_docking_score>
-6.90432906291366

> <r_i_glide_ligand_efficiency>
-0.222720292352053

> <r_i_glide_ligand_efficiency_sa>
-0.699649216488833

> <r_i_glide_ligand_efficiency_ln>
-1.55713779596154

> <r_i_glide_gscore>
-6.90432906291366

> <r_i_glide_lipo>
-3.40645511528257

> <r_i_glide_hbond>
0

> <r_i_glide_metal>
0

> <r_i_glide_rewards>
-1.71715786958892

> <r_i_glide_evdw>
-43.025390625

> <r_i_glide_ecoul>
-0.543559432029724

> <r_i_glide_erotb>
0.576788672790032

> <r_i_glide_esite>
-0.124701304777746

> <r_i_glide_emodel>
-48.3510870053942

> <r_i_glide_energy>
-43.5689500570297

> <r_i_glide_einternal>
9.55492782592773

> <i_i_glide_confnum>
1

> <i_i_glide_posenum>
45

> <r_i_glide_eff_state_penalty>
0

> <s_user_duplicate_titles>
321333,302161

> <s_m_subgroup_title>
dock_pv

> <s_m_subgroupid>
dock_pv1

> <b_m_subgroup_collapsed>
0

$$$$
691159
                    3D
 Schrodinger Suite 2021-1.
 43 46  0  0  1  0            999 V2000
    8.9984   20.5630   22.9545 C   0  0  0  0  0  0
    8.8636   21.9410   23.1096 C   0  0  0  0  0  0
    7.6054   22.5552   23.0839 C   0  0  0  0  0  0
    6.4694   21.7630   22.9207 C   0  0  0  0  0  0
    6.6218   20.3996   22.6840 C   0  0  0  0  0  0
    7.8668   19.7848   22.7020 C   0  0  0  0  0  0
    7.9432   18.2800   22.5052 C   0  0  1  0  0  0
    6.9920   17.3257   23.2385 C   0  0  0  0  0  0
    6.9168   17.5013   21.7392 C   0  0  2  0  0  0
    7.6702   16.4848   20.9087 C   0  0  0  0  0  0
    8.9920   16.3749   21.4721 N   0  0  2  0  0  0
    9.2744   17.6650   22.0727 C   0  0  0  0  0  0
    7.5835   23.9574   23.0840 N   0  0  0  0  0  0
    6.1855   25.0452   23.2276 S   0  0  0  0  0  0
    4.9920   24.3875   22.6840 O   0  0  0  0  0  0
    6.6289   26.3310   22.6840 O   0  0  0  0  0  0
    5.9128   25.3598   24.9612 C   0  0  0  0  0  0
    7.0020   25.5255   25.8190 C   0  0  0  0  0  0
    6.7893   25.9558   27.1261 C   0  0  0  0  0  0
    5.4906   26.2316   27.5737 C   0  0  0  0  0  0
    4.4059   26.0315   26.7144 C   0  0  0  0  0  0
    4.6143   25.5958   25.4107 C   0  0  0  0  0  0
    5.2372   26.7616   28.9836 C   0  0  0  0  0  0
    6.2822   26.5630   29.7878 F   0  0  0  0  0  0
    4.1784   26.1630   29.5295 F   0  0  0  0  0  0
    4.9908   28.0689   28.9158 F   0  0  0  0  0  0
    6.1008   18.0185   21.2383 H   0  0  0  0  0  0
    9.9828   20.1209   22.9918 H   0  0  0  0  0  0
    9.7557   22.5399   23.2209 H   0  0  0  0  0  0
    5.4732   22.1645   22.8986 H   0  0  0  0  0  0
    5.7920   19.7708   22.5083 H   0  0  0  0  0  0
    7.3799   16.3951   23.6566 H   0  0  0  0  0  0
    6.1945   17.7401   23.8544 H   0  0  0  0  0  0
    7.1539   15.5256   20.8710 H   0  0  0  0  0  0
    7.7508   16.8447   19.8840 H   0  0  0  0  0  0
    9.6763   16.2337   20.7333 H   0  0  0  0  0  0
    9.7673   18.2981   21.3324 H   0  0  0  0  0  0
    9.9556   17.5542   22.9166 H   0  0  0  0  0  0
    8.4891   24.4033   23.1882 H   0  0  0  0  0  0
    8.0138   25.3630   25.4702 H   0  0  0  0  0  0
    7.6442   26.1059   27.7701 H   0  0  0  0  0  0
    3.3993   26.2408   27.0472 H   0  0  0  0  0  0
    3.7720   25.4853   24.7426 H   0  0  0  0  0  0
  1  6  1  0  0  0
  1  2  2  0  0  0
  1 28  1  0  0  0
  2  3  1  0  0  0
  2 29  1  0  0  0
  3  4  2  0  0  0
  3 13  1  0  0  0
  4  5  1  0  0  0
  4 30  1  0  0  0
  5  6  2  0  0  0
  5 31  1  0  0  0
  6  7  1  0  0  0
  7  9  1  0  0  0
  7 12  1  0  0  0
  7  8  1  0  0  0
  8  9  1  0  0  0
  8 32  1  0  0  0
  8 33  1  0  0  0
  9 27  1  0  0  0
  9 10  1  0  0  0
 10 11  1  0  0  0
 10 34  1  0  0  0
 10 35  1  0  0  0
 11 12  1  0  0  0
 11 36  1  0  0  0
 12 37  1  0  0  0
 12 38  1  0  0  0
 13 14  1  0  0  0
 13 39  1  0  0  0
 14 15  2  0  0  0
 14 16  2  0  0  0
 14 17  1  0  0  0
 17 22  1  0  0  0
 17 18  2  0  0  0
 18 19  1  0  0  0
 18 40  1  0  0  0
 19 20  2  0  0  0
 19 41  1  0  0  0
 20 21  1  0  0  0
 20 23  1  0  0  0
 21 22  2  0  0  0
 21 42  1  0  0  0
 22 43  1  0  0  0
 23 24  1  0  0  0
 23 25  1  0  0  0
 23 26  1  0  0  0
M  END
> <s_m_entry_id>
8288

> <s_m_entry_name>
ligand_docking-pose.43

> <s_m_Source_Path>
/home/csk/Desktop/cluster/DUD-E-result/drd3

> <s_m_Source_File>
ligand_docking-pose.sdf

> <i_m_Source_File_Index>
43

> <i_lp_mmshare_version>
53161

> <i_f3d_flags>
0

> <r_lp_tautomer_probability>
1

> <s_lp_Force_Field>
OPLS_2005

> <r_lp_Energy>
45.168531

> <b_lp_Chiralities_Consistent>
1

> <s_lp_Variant>
691159-1

> <s_i_glide_gridfile>
glide-grid_3pbl

> <i_i_glide_lignum>
2509

> <i_i_glide_rotatable_bonds>
5

> <r_i_docking_score>
-6.90109431698243

> <r_i_glide_ligand_efficiency>
-0.265426704499324

> <r_i_glide_ligand_efficiency_sa>
-0.786325567675598

> <r_i_glide_ligand_efficiency_ln>
-1.62069935600592

> <r_i_glide_gscore>
-6.90109431698243

> <r_i_glide_lipo>
-2.66840752822732

> <r_i_glide_hbond>
-0.448398052988156

> <r_i_glide_metal>
0

> <r_i_glide_rewards>
-1.36132182282474

> <r_i_glide_evdw>
-25.9475784301758

> <r_i_glide_ecoul>
-9.55227947235107

> <r_i_glide_erotb>
0.531249922091414

> <r_i_glide_esite>
-0.223995992672183

> <r_i_glide_emodel>
-45.2594560553639

> <r_i_glide_energy>
-35.4998579025269

> <r_i_glide_einternal>
7.56088447570801

> <i_i_glide_confnum>
72

> <i_i_glide_posenum>
312

> <r_i_glide_eff_state_penalty>
0

> <s_user_duplicate_titles>
691159

> <s_m_subgroup_title>
dock_pv

> <s_m_subgroupid>
dock_pv1

> <b_m_subgroup_collapsed>
0

$$$$
210177
                    3D
 Schrodinger Suite 2021-1.
 54 57  0  0  1  0            999 V2000
    5.6773   26.9767   22.6966 C   0  0  0  0  0  0
    5.5975   27.0183   24.1461 N   0  0  0  0  0  0
    6.6058   26.1742   24.7646 C   0  0  0  0  0  0
    5.9226   25.6124   26.0217 C   0  0  0  0  0  0
    6.8441   25.6361   27.2508 C   0  0  0  0  0  0
    8.0903   24.7628   27.0050 C   0  0  0  0  0  0
    7.7874   23.3657   26.6747 N   0  0  1  0  0  0
    6.7664   23.2009   25.6197 C   0  0  0  0  0  0
    5.5529   24.1300   25.8349 C   0  0  0  0  0  0
    9.0215   22.5502   26.5923 C   0  0  0  0  0  0
    9.2983   21.8692   25.2353 C   0  0  0  0  0  0
   10.6741   21.2002   25.0463 C   0  0  0  0  0  0
   10.9303   20.3618   23.7658 C   0  0  0  0  0  0
   12.1114   20.1614   23.4857 O   0  0  0  0  0  0
    9.8320   19.5985   23.0672 C   0  0  0  0  0  0
   10.1413   18.3412   22.5235 C   0  0  0  0  0  0
    9.1670   17.5769   21.8844 C   0  0  0  0  0  0
    7.8667   18.0544   21.7884 C   0  0  0  0  0  0
    7.5488   19.3123   22.2838 C   0  0  0  0  0  0
    8.5392   20.1023   22.8626 C   0  0  0  0  0  0
    6.9140   17.3051   21.1886 F   0  0  0  0  0  0
    4.6806   26.4638   26.1364 C   0  0  0  0  0  0
    4.4680   27.1742   24.9531 C   0  0  0  0  0  0
    3.3106   27.9349   24.7935 C   0  0  0  0  0  0
    2.3785   28.0165   25.8283 C   0  0  0  0  0  0
    2.6058   27.3379   27.0253 C   0  0  0  0  0  0
    3.7527   26.5581   27.1788 C   0  0  0  0  0  0
    4.9946   27.7064   22.2648 H   0  0  0  0  0  0
    6.6839   27.2234   22.3589 H   0  0  0  0  0  0
    5.4201   25.9833   22.3295 H   0  0  0  0  0  0
    7.4606   26.7986   25.0289 H   0  0  0  0  0  0
    6.9415   25.3793   24.0987 H   0  0  0  0  0  0
    6.3308   25.3022   28.1526 H   0  0  0  0  0  0
    7.1369   26.6621   27.4770 H   0  0  0  0  0  0
    8.6966   24.7517   27.9002 H   0  0  0  0  0  0
    8.6911   25.1789   26.1991 H   0  0  0  0  0  0
    7.1954   23.3925   24.6384 H   0  0  0  0  0  0
    6.4358   22.1649   25.6113 H   0  0  0  0  0  0
    4.8614   24.0399   24.9967 H   0  0  0  0  0  0
    4.9917   23.7614   26.6854 H   0  0  0  0  0  0
    8.9221   21.7693   27.3477 H   0  0  0  0  0  0
    9.9089   23.1064   26.9024 H   0  0  0  0  0  0
    9.0885   22.5610   24.4196 H   0  0  0  0  0  0
    8.5923   21.0544   25.2010 H   0  0  0  0  0  0
   10.8741   20.5371   25.8845 H   0  0  0  0  0  0
   11.4382   21.9784   25.0912 H   0  0  0  0  0  0
   11.1401   17.9347   22.5997 H   0  0  0  0  0  0
    9.4195   16.6109   21.4724 H   0  0  0  0  0  0
    6.5454   19.6950   22.1693 H   0  0  0  0  0  0
    8.2537   21.1067   23.1200 H   0  0  0  0  0  0
    3.1412   28.4957   23.8871 H   0  0  0  0  0  0
    1.4891   28.6174   25.7081 H   0  0  0  0  0  0
    1.8873   27.4055   27.8291 H   0  0  0  0  0  0
    3.8978   26.0121   28.0993 H   0  0  0  0  0  0
  1  2  1  0  0  0
  1 28  1  0  0  0
  1 29  1  0  0  0
  1 30  1  0  0  0
  2 23  1  0  0  0
  2  3  1  0  0  0
  3  4  1  0  0  0
  3 31  1  0  0  0
  3 32  1  0  0  0
  4  9  1  0  0  0
  4  5  1  0  0  0
  4 22  1  0  0  0
  5  6  1  0  0  0
  5 33  1  0  0  0
  5 34  1  0  0  0
  6  7  1  0  0  0
  6 35  1  0  0  0
  6 36  1  0  0  0
  7  8  1  0  0  0
  7 10  1  0  0  0
  8  9  1  0  0  0
  8 37  1  0  0  0
  8 38  1  0  0  0
  9 39  1  0  0  0
  9 40  1  0  0  0
 10 11  1  0  0  0
 10 41  1  0  0  0
 10 42  1  0  0  0
 11 12  1  0  0  0
 11 43  1  0  0  0
 11 44  1  0  0  0
 12 13  1  0  0  0
 12 45  1  0  0  0
 12 46  1  0  0  0
 13 14  2  0  0  0
 13 15  1  0  0  0
 15 20  1  0  0  0
 15 16  2  0  0  0
 16 17  1  0  0  0
 16 47  1  0  0  0
 17 18  2  0  0  0
 17 48  1  0  0  0
 18 19  1  0  0  0
 18 21  1  0  0  0
 19 20  2  0  0  0
 19 49  1  0  0  0
 20 50  1  0  0  0
 22 27  2  0  0  0
 22 23  1  0  0  0
 23 24  2  0  0  0
 24 25  1  0  0  0
 24 51  1  0  0  0
 25 26  2  0  0  0
 25 52  1  0  0  0
 26 27  1  0  0  0
 26 53  1  0  0  0
 27 54  1  0  0  0
M  END
> <s_m_entry_id>
8289

> <s_m_entry_name>
ligand_docking-pose.44

> <s_m_Source_Path>
/home/csk/Desktop/cluster/DUD-E-result/drd3

> <s_m_Source_File>
ligand_docking-pose.sdf

> <i_m_Source_File_Index>
44

> <i_lp_mmshare_version>
53161

> <i_f3d_flags>
0

> <r_lp_tautomer_probability>
0.99990000499975

> <s_lp_Force_Field>
OPLS_2005

> <r_lp_Energy>
47.420676

> <b_lp_Chiralities_Consistent>
1

> <s_lp_Variant>
210177-1

> <s_i_glide_gridfile>
glide-grid_3pbl

> <i_i_glide_lignum>
1847

> <i_i_glide_rotatable_bonds>
5

> <r_i_docking_score>
-6.89690238190912

> <r_i_glide_ligand_efficiency>
-0.255440828959597

> <r_i_glide_ligand_efficiency_sa>
-0.7663224860369

> <r_i_glide_ligand_efficiency_ln>
-1.6054851701862

> <r_i_glide_gscore>
-6.89690238190912

> <r_i_glide_lipo>
-2.77479993878278

> <r_i_glide_hbond>
0

> <r_i_glide_metal>
0

> <r_i_glide_rewards>
-2.66749612131751

> <r_i_glide_evdw>
-32.7429122924805

> <r_i_glide_ecoul>
-2.60488152503967

> <r_i_glide_erotb>
0.573271521571138

> <r_i_glide_esite>
0

> <r_i_glide_emodel>
-28.5921051988861

> <r_i_glide_energy>
-35.3477938175201

> <r_i_glide_einternal>
15.8721857070923

> <i_i_glide_confnum>
25

> <i_i_glide_posenum>
134

> <r_i_glide_eff_state_penalty>
0

> <s_user_duplicate_titles>
210177

> <s_m_subgroup_title>
dock_pv

> <s_m_subgroupid>
dock_pv1

> <b_m_subgroup_collapsed>
0

$$$$
498476
                    3D
 Schrodinger Suite 2021-1.
 53 56  0  0  1  0            999 V2000
    3.7865   26.9630   30.7792 C   0  0  0  0  0  0
    2.5772   27.0655   30.0994 C   0  0  0  0  0  0
    2.5677   27.1955   28.7130 C   0  0  0  0  0  0
    3.7741   27.2352   27.9973 C   0  0  0  0  0  0
    4.9899   27.0584   28.6748 C   0  0  0  0  0  0
    4.9858   26.9632   30.0700 C   0  0  0  0  0  0
    6.2667   26.9643   27.8708 C   0  0  0  0  0  0
    6.1848   27.8268   26.5984 C   0  0  0  0  0  0
    4.9007   27.6728   25.8759 N   0  0  0  0  0  0
    3.7059   27.4054   26.4914 C   0  0  0  0  0  0
    2.6617   27.2839   25.8466 O   0  0  0  0  0  0
    4.9465   27.9179   24.4251 C   0  0  0  0  0  0
    5.0298   26.6577   23.5240 C   0  0  0  0  0  0
    5.2519   25.3011   24.2337 C   0  0  0  0  0  0
    5.8586   24.2816   23.3695 N   0  0  0  0  0  0
    7.3230   24.4221   23.3916 C   0  0  0  0  0  0
    8.0204   23.2827   22.6088 C   0  0  0  0  0  0
    7.6596   21.9325   23.0840 N   0  0  0  0  0  0
    6.1918   21.8315   23.1079 C   0  0  0  0  0  0
    5.5380   22.9656   23.9234 C   0  0  0  0  0  0
    8.5909   20.8835   23.1294 C   0  0  0  0  0  0
    9.8603   21.1628   23.6636 C   0  0  0  0  0  0
   10.8823   20.2176   23.6529 C   0  0  0  0  0  0
   10.6587   18.9653   23.0962 C   0  0  0  0  0  0
    9.4086   18.6466   22.5739 C   0  0  0  0  0  0
    8.3692   19.5882   22.5947 C   0  0  0  0  0  0
    6.8530   19.1166   21.8847 Cl  0  0  0  0  0  0
    9.1784   17.0745   21.8833 Cl  0  0  0  0  0  0
    3.7921   26.8988   31.8585 H   0  0  0  0  0  0
    1.6495   27.0679   30.6567 H   0  0  0  0  0  0
    1.6167   27.2955   28.2086 H   0  0  0  0  0  0
    5.9169   26.8683   30.6086 H   0  0  0  0  0  0
    7.1338   27.2533   28.4617 H   0  0  0  0  0  0
    6.4451   25.9267   27.5871 H   0  0  0  0  0  0
    6.2431   28.8623   26.9372 H   0  0  0  0  0  0
    7.0478   27.7188   25.9422 H   0  0  0  0  0  0
    4.0969   28.5368   24.1194 H   0  0  0  0  0  0
    5.7918   28.5624   24.2139 H   0  0  0  0  0  0
    4.0359   26.5727   23.0838 H   0  0  0  0  0  0
    5.6803   26.8089   22.6620 H   0  0  0  0  0  0
    5.8351   25.4166   25.1502 H   0  0  0  0  0  0
    4.2700   24.9588   24.5711 H   0  0  0  0  0  0
    7.6061   25.3788   22.9512 H   0  0  0  0  0  0
    7.7029   24.4335   24.4157 H   0  0  0  0  0  0
    9.0964   23.4135   22.6281 H   0  0  0  0  0  0
    7.7610   23.3672   21.5550 H   0  0  0  0  0  0
    5.8572   20.8708   23.4839 H   0  0  0  0  0  0
    5.8270   21.8713   22.0835 H   0  0  0  0  0  0
    5.8341   22.8907   24.9730 H   0  0  0  0  0  0
    4.4573   22.8414   23.8840 H   0  0  0  0  0  0
   10.0702   22.1339   24.0930 H   0  0  0  0  0  0
   11.8490   20.4662   24.0656 H   0  0  0  0  0  0
   11.4580   18.2389   23.0665 H   0  0  0  0  0  0
  1  6  1  0  0  0
  1  2  2  0  0  0
  1 29  1  0  0  0
  2  3  1  0  0  0
  2 30  1  0  0  0
  3  4  2  0  0  0
  3 31  1  0  0  0
  4 10  1  0  0  0
  4  5  1  0  0  0
  5  6  2  0  0  0
  5  7  1  0  0  0
  6 32  1  0  0  0
  7  8  1  0  0  0
  7 33  1  0  0  0
  7 34  1  0  0  0
  8  9  1  0  0  0
  8 35  1  0  0  0
  8 36  1  0  0  0
  9 10  1  0  0  0
  9 12  1  0  0  0
 10 11  2  0  0  0
 12 13  1  0  0  0
 12 37  1  0  0  0
 12 38  1  0  0  0
 13 14  1  0  0  0
 13 39  1  0  0  0
 13 40  1  0  0  0
 14 15  1  0  0  0
 14 41  1  0  0  0
 14 42  1  0  0  0
 15 20  1  0  0  0
 15 16  1  0  0  0
 16 17  1  0  0  0
 16 43  1  0  0  0
 16 44  1  0  0  0
 17 18  1  0  0  0
 17 45  1  0  0  0
 17 46  1  0  0  0
 18 19  1  0  0  0
 18 21  1  0  0  0
 19 20  1  0  0  0
 19 47  1  0  0  0
 19 48  1  0  0  0
 20 49  1  0  0  0
 20 50  1  0  0  0
 21 26  1  0  0  0
 21 22  2  0  0  0
 22 23  1  0  0  0
 22 51  1  0  0  0
 23 24  2  0  0  0
 23 52  1  0  0  0
 24 25  1  0  0  0
 24 53  1  0  0  0
 25 26  2  0  0  0
 25 28  1  0  0  0
 26 27  1  0  0  0
M  END
> <s_m_entry_id>
8290

> <s_m_entry_name>
ligand_docking-pose.45

> <s_m_Source_Path>
/home/csk/Desktop/cluster/DUD-E-result/drd3

> <s_m_Source_File>
ligand_docking-pose.sdf

> <i_m_Source_File_Index>
45

> <i_lp_mmshare_version>
53161

> <i_f3d_flags>
0

> <r_lp_tautomer_probability>
1

> <s_lp_Force_Field>
OPLS_2005

> <r_lp_Energy>
57.738053

> <b_lp_Chiralities_Consistent>
1

> <s_lp_Variant>
498476-1

> <s_i_glide_gridfile>
glide-grid_3pbl

> <i_i_glide_lignum>
2424

> <i_i_glide_rotatable_bonds>
5

> <r_i_docking_score>
-6.89078361864602

> <r_i_glide_ligand_efficiency>
-0.246099414951644

> <r_i_glide_ligand_efficiency_sa>
-0.747302768597158

> <r_i_glide_ligand_efficiency_ln>
-1.59059518138199

> <r_i_glide_gscore>
-6.89078361864602

> <r_i_glide_lipo>
-3.08856495984553

> <r_i_glide_hbond>
0

> <r_i_glide_metal>
0

> <r_i_glide_rewards>
-1.65185923391777

> <r_i_glide_evdw>
-40.3864517211914

> <r_i_glide_ecoul>
-3.60914373397827

> <r_i_glide_erotb>
0.4519045263017

> <r_i_glide_esite>
-0.0415698050281093

> <r_i_glide_emodel>
-54.2877458379211

> <r_i_glide_energy>
-43.9955954551697

> <r_i_glide_einternal>
7.19736289978027

> <i_i_glide_confnum>
12

> <i_i_glide_posenum>
349

> <r_i_glide_eff_state_penalty>
0

> <s_user_duplicate_titles>
498476

> <s_m_subgroup_title>
dock_pv

> <s_m_subgroupid>
dock_pv1

> <b_m_subgroup_collapsed>
0

$$$$
97348
                    3D
 Schrodinger Suite 2021-1.
 62 65  0  0  1  0            999 V2000
   11.6073   18.6548   22.5444 C   0  0  0  0  0  0
   10.1018   18.7859   22.4226 C   0  0  0  0  0  0
    9.3154   17.7638   21.8842 C   0  0  0  0  0  0
    7.9384   17.9803   21.8496 C   0  0  0  0  0  0
    7.3762   19.1369   22.2801 N   0  0  0  0  0  0
    8.2195   20.1079   22.7375 C   0  0  0  0  0  0
    9.5701   19.9593   22.8573 N   0  0  0  0  0  0
    7.6563   21.3419   23.0840 N   0  0  0  0  0  0
    8.3940   22.4720   23.6740 C   0  0  0  0  0  0
    7.6159   23.1930   24.8046 C   0  0  0  0  0  0
    6.3344   23.6926   24.3084 N   0  0  0  0  0  0
    5.5608   22.5356   23.8764 C   0  0  0  0  0  0
    6.2931   21.7914   22.7317 C   0  0  0  0  0  0
    5.6362   24.4822   25.3313 C   0  0  0  0  0  0
    6.2490   25.9004   25.4574 C   0  0  0  0  0  0
    7.0440   26.1804   26.7560 C   0  0  0  0  0  0
    6.2305   26.4211   28.0640 C   0  0  0  0  0  0
    4.9814   27.2497   28.0099 N   0  0  0  0  0  0
    3.9219   26.7544   28.7422 C   0  0  0  0  0  0
    3.9676   25.7632   29.4747 O   0  0  0  0  0  0
    2.5965   27.5472   28.6366 C   0  0  0  0  0  0
    2.4839   28.3493   27.3216 C   0  0  0  0  0  0
    2.2889   27.4583   26.0652 C   0  0  0  0  0  0
    1.5011   28.2821   25.0351 C   0  0  0  0  0  0
    0.9912   29.5203   25.7836 C   0  0  0  0  0  0
    1.2253   29.2369   27.2725 C   0  0  0  0  0  0
    3.7442   29.2396   27.2363 C   0  0  0  0  0  0
    5.0627   28.4600   27.3574 C   0  0  0  0  0  0
    6.0857   28.9510   26.8765 O   0  0  0  0  0  0
   11.9453   17.6523   22.2811 H   0  0  0  0  0  0
   12.1061   19.3625   21.8844 H   0  0  0  0  0  0
   11.9277   18.8631   23.5662 H   0  0  0  0  0  0
    9.7464   16.8572   21.4873 H   0  0  0  0  0  0
    7.2666   17.2324   21.4541 H   0  0  0  0  0  0
    9.3643   22.1591   24.0610 H   0  0  0  0  0  0
    8.6131   23.1802   22.8744 H   0  0  0  0  0  0
    8.1920   24.0340   25.1758 H   0  0  0  0  0  0
    7.4753   22.5233   25.6550 H   0  0  0  0  0  0
    5.3920   21.8554   24.7111 H   0  0  0  0  0  0
    4.5913   22.8796   23.5200 H   0  0  0  0  0  0
    5.6951   20.9612   22.3704 H   0  0  0  0  0  0
    6.3732   22.4711   21.8843 H   0  0  0  0  0  0
    5.6320   23.9615   26.2915 H   0  0  0  0  0  0
    4.5896   24.5917   25.0419 H   0  0  0  0  0  0
    5.4894   26.6572   25.2708 H   0  0  0  0  0  0
    6.9663   26.0530   24.6472 H   0  0  0  0  0  0
    7.6783   27.0494   26.5789 H   0  0  0  0  0  0
    7.7654   25.3819   26.9369 H   0  0  0  0  0  0
    6.8894   26.8764   28.8056 H   0  0  0  0  0  0
    6.0163   25.4197   28.4435 H   0  0  0  0  0  0
    2.5503   28.2103   29.5009 H   0  0  0  0  0  0
    1.7654   26.8480   28.7403 H   0  0  0  0  0  0
    1.6947   26.5819   26.3312 H   0  0  0  0  0  0
    3.2188   27.0529   25.6673 H   0  0  0  0  0  0
    0.6775   27.6986   24.6239 H   0  0  0  0  0  0
    2.1364   28.5697   24.1962 H   0  0  0  0  0  0
   -0.0505   29.7458   25.5594 H   0  0  0  0  0  0
    1.5702   30.3929   25.4844 H   0  0  0  0  0  0
    1.3127   30.1402   27.8807 H   0  0  0  0  0  0
    0.3728   28.6974   27.6877 H   0  0  0  0  0  0
    3.7774   29.7632   26.2849 H   0  0  0  0  0  0
    3.7533   29.9931   28.0255 H   0  0  0  0  0  0
  1  2  1  0  0  0
  1 30  1  0  0  0
  1 31  1  0  0  0
  1 32  1  0  0  0
  2  7  1  0  0  0
  2  3  2  0  0  0
  3  4  1  0  0  0
  3 33  1  0  0  0
  4  5  2  0  0  0
  4 34  1  0  0  0
  5  6  1  0  0  0
  6  7  2  0  0  0
  6  8  1  0  0  0
  8 13  1  0  0  0
  8  9  1  0  0  0
  9 10  1  0  0  0
  9 35  1  0  0  0
  9 36  1  0  0  0
 10 11  1  0  0  0
 10 37  1  0  0  0
 10 38  1  0  0  0
 11 12  1  0  0  0
 11 14  1  0  0  0
 12 13  1  0  0  0
 12 39  1  0  0  0
 12 40  1  0  0  0
 13 41  1  0  0  0
 13 42  1  0  0  0
 14 15  1  0  0  0
 14 43  1  0  0  0
 14 44  1  0  0  0
 15 16  1  0  0  0
 15 45  1  0  0  0
 15 46  1  0  0  0
 16 17  1  0  0  0
 16 47  1  0  0  0
 16 48  1  0  0  0
 17 18  1  0  0  0
 17 49  1  0  0  0
 17 50  1  0  0  0
 18 28  1  0  0  0
 18 19  1  0  0  0
 19 20  2  0  0  0
 19 21  1  0  0  0
 21 22  1  0  0  0
 21 51  1  0  0  0
 21 52  1  0  0  0
 22 26  1  0  0  0
 22 23  1  0  0  0
 22 27  1  0  0  0
 23 24  1  0  0  0
 23 53  1  0  0  0
 23 54  1  0  0  0
 24 25  1  0  0  0
 24 55  1  0  0  0
 24 56  1  0  0  0
 25 26  1  0  0  0
 25 57  1  0  0  0
 25 58  1  0  0  0
 26 59  1  0  0  0
 26 60  1  0  0  0
 27 28  1  0  0  0
 27 61  1  0  0  0
 27 62  1  0  0  0
 28 29  2  0  0  0
M  END
> <s_m_entry_id>
8291

> <s_m_entry_name>
ligand_docking-pose.46

> <s_m_Source_Path>
/home/csk/Desktop/cluster/DUD-E-result/drd3

> <s_m_Source_File>
ligand_docking-pose.sdf

> <i_m_Source_File_Index>
46

> <i_lp_mmshare_version>
53161

> <i_f3d_flags>
0

> <r_lp_tautomer_probability>
0.99990000499975

> <s_lp_Force_Field>
OPLS_2005

> <r_lp_Energy>
50.841505

> <b_lp_Chiralities_Consistent>
1

> <s_lp_Variant>
97348-1

> <s_i_glide_gridfile>
glide-grid_3pbl

> <i_i_glide_lignum>
2634

> <i_i_glide_rotatable_bonds>
6

> <r_i_docking_score>
-6.88745413549352

> <r_i_glide_ligand_efficiency>
-0.237498418465294

> <r_i_glide_ligand_efficiency_sa>
-0.729670386305695

> <r_i_glide_ligand_efficiency_ln>
-1.57705234626042

> <r_i_glide_gscore>
-6.88745413549352

> <r_i_glide_lipo>
-2.60950519220074

> <r_i_glide_hbond>
-0.32

> <r_i_glide_metal>
0

> <r_i_glide_rewards>
-2.02432422395217

> <r_i_glide_evdw>
-36.8448486328125

> <r_i_glide_ecoul>
-4.54166603088379

> <r_i_glide_erotb>
0.613798277995593

> <r_i_glide_esite>
-0.023930661063012

> <r_i_glide_emodel>
-48.7357677558291

> <r_i_glide_energy>
-41.3865146636963

> <r_i_glide_einternal>
9.81099319458008

> <i_i_glide_confnum>
9

> <i_i_glide_posenum>
145

> <r_i_glide_eff_state_penalty>
0

> <s_user_duplicate_titles>
97348

> <s_m_subgroup_title>
dock_pv

> <s_m_subgroupid>
dock_pv1

> <b_m_subgroup_collapsed>
0

$$$$
338195
                    3D
 Schrodinger Suite 2021-1.
 67 69  0  0  1  0            999 V2000
    6.5169   17.4988   21.7328 C   0  0  0  0  0  0
    7.9989   17.8039   21.4668 C   0  0  0  0  0  0
    8.7468   16.4662   21.6549 C   0  0  0  0  0  0
    8.1483   18.2603   20.0105 C   0  0  0  0  0  0
    8.5252   18.9335   22.3796 C   0  0  0  0  0  0
    9.8227   18.8569   22.7632 N   0  0  0  0  0  0
   10.3027   19.8989   23.4837 C   0  0  0  0  0  0
    9.5331   21.0210   23.7903 C   0  0  0  0  0  0
    8.1921   21.0247   23.4009 C   0  0  0  0  0  0
    7.6881   19.9692   22.6840 N   0  0  0  0  0  0
    7.3914   22.1629   23.5609 N   0  0  0  0  0  0
    6.0276   22.3088   23.0255 C   0  0  0  0  0  0
    5.6488   23.7734   22.6918 C   0  0  0  0  0  0
    5.7772   24.6462   23.8616 N   0  0  0  0  0  0
    7.1771   24.5750   24.2965 C   0  0  0  0  0  0
    7.5758   23.1273   24.6649 C   0  0  0  0  0  0
    5.3912   26.0181   23.5002 C   0  0  0  0  0  0
    5.4071   27.0237   24.6756 C   0  0  0  0  0  0
    4.4103   26.7135   25.8097 C   0  0  0  0  0  0
    4.5199   27.7161   26.9768 C   0  0  0  0  0  0
    3.3711   27.6709   27.8940 N   0  0  0  0  0  0
    2.2277   28.5425   27.5621 C   0  0  0  0  0  0
    1.9841   29.7191   28.5347 C   0  0  0  0  0  0
    1.3493   29.3126   29.8665 C   0  0  0  0  0  0
    0.3164   29.8491   30.2585 O   0  0  0  0  0  0
    2.0163   28.2056   30.6836 C   0  0  0  0  0  0
    2.2082   26.8878   29.9039 C   0  0  0  0  0  0
    3.4366   26.8443   28.9785 C   0  0  0  0  0  0
    4.4159   26.1630   29.2879 O   0  0  0  0  0  0
   11.7130   19.7567   24.0018 C   0  0  0  0  0  0
   12.5196   19.2155   23.0841 F   0  0  0  0  0  0
   12.1920   20.9431   24.3731 F   0  0  0  0  0  0
   11.6426   18.9633   25.0668 F   0  0  0  0  0  0
    6.1918   16.6578   21.1231 H   0  0  0  0  0  0
    5.8793   18.3473   21.4829 H   0  0  0  0  0  0
    6.3398   17.2389   22.7780 H   0  0  0  0  0  0
    9.8188   16.5638   21.4840 H   0  0  0  0  0  0
    8.5919   16.0919   22.6669 H   0  0  0  0  0  0
    8.3884   15.6968   20.9691 H   0  0  0  0  0  0
    9.1791   18.5139   19.7588 H   0  0  0  0  0  0
    7.7920   17.5174   19.2975 H   0  0  0  0  0  0
    7.5479   19.1513   19.8840 H   0  0  0  0  0  0
    9.9744   21.8385   24.3339 H   0  0  0  0  0  0
    5.8828   21.6797   22.1510 H   0  0  0  0  0  0
    5.3455   21.9334   23.7876 H   0  0  0  0  0  0
    6.2817   24.1396   21.8827 H   0  0  0  0  0  0
    4.6203   23.7999   22.3298 H   0  0  0  0  0  0
    7.3349   25.1944   25.1789 H   0  0  0  0  0  0
    7.8363   24.9644   23.5186 H   0  0  0  0  0  0
    6.9422   22.8009   25.4913 H   0  0  0  0  0  0
    8.5805   23.1150   25.0831 H   0  0  0  0  0  0
    6.0180   26.3922   22.6878 H   0  0  0  0  0  0
    4.3705   25.9843   23.1160 H   0  0  0  0  0  0
    6.4166   27.1390   25.0685 H   0  0  0  0  0  0
    5.1623   28.0061   24.2681 H   0  0  0  0  0  0
    3.3981   26.7205   25.4019 H   0  0  0  0  0  0
    4.5838   25.7047   26.1889 H   0  0  0  0  0  0
    5.4677   27.5721   27.5002 H   0  0  0  0  0  0
    4.5852   28.7278   26.5731 H   0  0  0  0  0  0
    2.3280   28.8898   26.5326 H   0  0  0  0  0  0
    1.3219   27.9346   27.5367 H   0  0  0  0  0  0
    2.9153   30.2500   28.7320 H   0  0  0  0  0  0
    1.3186   30.4424   28.0634 H   0  0  0  0  0  0
    1.4310   28.0289   31.5864 H   0  0  0  0  0  0
    2.9817   28.5665   31.0364 H   0  0  0  0  0  0
    1.3112   26.6425   29.3334 H   0  0  0  0  0  0
    2.2760   26.0709   30.6235 H   0  0  0  0  0  0
  1  2  1  0  0  0
  1 34  1  0  0  0
  1 35  1  0  0  0
  1 36  1  0  0  0
  2  3  1  0  0  0
  2  4  1  0  0  0
  2  5  1  0  0  0
  3 37  1  0  0  0
  3 38  1  0  0  0
  3 39  1  0  0  0
  4 40  1  0  0  0
  4 41  1  0  0  0
  4 42  1  0  0  0
  5 10  1  0  0  0
  5  6  2  0  0  0
  6  7  1  0  0  0
  7  8  2  0  0  0
  7 30  1  0  0  0
  8  9  1  0  0  0
  8 43  1  0  0  0
  9 10  2  0  0  0
  9 11  1  0  0  0
 11 16  1  0  0  0
 11 12  1  0  0  0
 12 13  1  0  0  0
 12 44  1  0  0  0
 12 45  1  0  0  0
 13 14  1  0  0  0
 13 46  1  0  0  0
 13 47  1  0  0  0
 14 15  1  0  0  0
 14 17  1  0  0  0
 15 16  1  0  0  0
 15 48  1  0  0  0
 15 49  1  0  0  0
 16 50  1  0  0  0
 16 51  1  0  0  0
 17 18  1  0  0  0
 17 52  1  0  0  0
 17 53  1  0  0  0
 18 19  1  0  0  0
 18 54  1  0  0  0
 18 55  1  0  0  0
 19 20  1  0  0  0
 19 56  1  0  0  0
 19 57  1  0  0  0
 20 21  1  0  0  0
 20 58  1  0  0  0
 20 59  1  0  0  0
 21 28  1  0  0  0
 21 22  1  0  0  0
 22 23  1  0  0  0
 22 60  1  0  0  0
 22 61  1  0  0  0
 23 24  1  0  0  0
 23 62  1  0  0  0
 23 63  1  0  0  0
 24 25  2  0  0  0
 24 26  1  0  0  0
 26 27  1  0  0  0
 26 64  1  0  0  0
 26 65  1  0  0  0
 27 28  1  0  0  0
 27 66  1  0  0  0
 27 67  1  0  0  0
 28 29  2  0  0  0
 30 31  1  0  0  0
 30 32  1  0  0  0
 30 33  1  0  0  0
M  END
> <s_m_entry_id>
8292

> <s_m_entry_name>
ligand_docking-pose.47

> <s_m_Source_Path>
/home/csk/Desktop/cluster/DUD-E-result/drd3

> <s_m_Source_File>
ligand_docking-pose.sdf

> <i_m_Source_File_Index>
47

> <i_lp_mmshare_version>
53161

> <i_f3d_flags>
0

> <r_lp_tautomer_probability>
0.99999998

> <s_lp_Force_Field>
OPLS_2005

> <r_lp_Energy>
39.834952

> <b_lp_Chiralities_Consistent>
1

> <s_lp_Variant>
338195-1

> <s_i_glide_gridfile>
glide-grid_3pbl

> <i_i_glide_lignum>
737

> <i_i_glide_rotatable_bonds>
8

> <r_i_docking_score>
-6.88542546537672

> <r_i_glide_ligand_efficiency>
-0.208649256526567

> <r_i_glide_ligand_efficiency_sa>
-0.669249652457058

> <r_i_glide_ligand_efficiency_ln>
-1.53128297267471

> <r_i_glide_gscore>
-6.88542546537672

> <r_i_glide_lipo>
-2.45466038133389

> <r_i_glide_hbond>
-0.318479745154111

> <r_i_glide_metal>
0

> <r_i_glide_rewards>
-2.17302010216625

> <r_i_glide_evdw>
-40.7010688781738

> <r_i_glide_ecoul>
-2.11854195594788

> <r_i_glide_erotb>
0.458071465876232

> <r_i_glide_esite>
-0.0445019652978299

> <r_i_glide_emodel>
-55.3050499415031

> <r_i_glide_energy>
-42.8196108341217

> <r_i_glide_einternal>
3.67568564414978

> <i_i_glide_confnum>
15

> <i_i_glide_posenum>
72

> <r_i_glide_eff_state_penalty>
0

> <s_user_duplicate_titles>
338195

> <s_m_subgroup_title>
dock_pv

> <s_m_subgroupid>
dock_pv1

> <b_m_subgroup_collapsed>
0

$$$$
274299
                    3D
 Schrodinger Suite 2021-1.
 55 59  0  0  1  0            999 V2000
    6.9724   17.5681   20.7764 C   0  0  0  0  0  0
    8.0247   18.2962   21.5592 C   0  0  0  0  0  0
    7.9455   19.4031   22.3908 C   0  0  0  0  0  0
    9.2867   19.6375   22.8754 C   0  0  0  0  0  0
    9.8864   20.5623   23.7558 C   0  0  0  0  0  0
   11.2300   20.4343   24.0686 C   0  0  0  0  0  0
   11.9862   19.4339   23.4840 C   0  0  0  0  0  0
   11.4844   18.5630   22.5309 C   0  0  0  0  0  0
   10.1211   18.6497   22.2790 C   0  0  0  0  0  0
    9.3232   17.8768   21.4840 N   0  0  0  0  0  0
    6.6882   20.2120   22.6945 C   0  0  0  0  0  0
    6.9382   21.6985   23.0832 C   0  0  0  0  0  0
    5.6745   22.5633   23.1836 C   0  0  0  0  0  0
    6.0084   23.9820   23.3401 N   0  0  2  0  0  0
    6.6667   24.3128   24.6207 C   0  0  0  0  0  0
    7.0150   25.8154   24.7188 C   0  0  0  0  0  0
    5.7973   26.7394   24.4774 C   0  0  0  0  0  0
    5.2196   26.3177   23.1033 C   0  0  0  0  0  0
    4.8386   24.8217   23.0839 C   0  0  0  0  0  0
    4.7673   26.7552   25.6176 C   0  0  0  0  0  0
    4.9768   26.8337   27.0370 C   0  0  0  0  0  0
    6.0608   26.8888   27.9314 C   0  0  0  0  0  0
    5.7918   26.9405   29.3033 C   0  0  0  0  0  0
    4.4865   26.9548   29.7940 C   0  0  0  0  0  0
    3.3933   26.9183   28.9325 C   0  0  0  0  0  0
    3.6734   26.8569   27.5647 C   0  0  0  0  0  0
    2.7638   26.8079   26.5580 O   0  0  0  0  0  0
    3.4719   26.7532   25.3540 N   0  0  0  0  0  0
    4.2820   26.9629   31.1287 F   0  0  0  0  0  0
    9.6248   17.1195   20.8838 H   0  0  0  0  0  0
    6.1920   18.2524   20.4551 H   0  0  0  0  0  0
    7.3930   17.1128   19.8839 H   0  0  0  0  0  0
    6.5043   16.7783   21.3632 H   0  0  0  0  0  0
    9.3413   21.3484   24.2438 H   0  0  0  0  0  0
   11.6849   21.1082   24.7822 H   0  0  0  0  0  0
   12.9921   19.3163   23.7956 H   0  0  0  0  0  0
   12.1036   17.8028   22.0761 H   0  0  0  0  0  0
    6.0335   20.1823   21.8277 H   0  0  0  0  0  0
    6.1253   19.7067   23.4774 H   0  0  0  0  0  0
    7.3908   21.7555   24.0659 H   0  0  0  0  0  0
    7.6541   22.1683   22.4088 H   0  0  0  0  0  0
    5.0757   22.4039   22.2851 H   0  0  0  0  0  0
    5.0564   22.2312   24.0187 H   0  0  0  0  0  0
    6.0029   24.0212   25.4370 H   0  0  0  0  0  0
    7.5857   23.7416   24.7502 H   0  0  0  0  0  0
    7.5720   26.0713   25.6175 H   0  0  0  0  0  0
    7.7372   25.9687   23.9133 H   0  0  0  0  0  0
    6.1906   27.7476   24.3533 H   0  0  0  0  0  0
    5.9840   26.4380   22.3326 H   0  0  0  0  0  0
    4.3998   26.9630   22.8001 H   0  0  0  0  0  0
    4.4271   24.5625   22.1146 H   0  0  0  0  0  0
    4.0680   24.5887   23.8210 H   0  0  0  0  0  0
    7.0831   26.8863   27.5837 H   0  0  0  0  0  0
    6.6116   26.9632   30.0069 H   0  0  0  0  0  0
    2.3811   26.9278   29.3076 H   0  0  0  0  0  0
  1  2  1  0  0  0
  1 31  1  0  0  0
  1 32  1  0  0  0
  1 33  1  0  0  0
  2 10  1  0  0  0
  2  3  2  0  0  0
  3  4  1  0  0  0
  3 11  1  0  0  0
  4  9  2  0  0  0
  4  5  1  0  0  0
  5  6  2  0  0  0
  5 34  1  0  0  0
  6  7  1  0  0  0
  6 35  1  0  0  0
  7  8  2  0  0  0
  7 36  1  0  0  0
  8  9  1  0  0  0
  8 37  1  0  0  0
  9 10  1  0  0  0
 10 30  1  0  0  0
 11 12  1  0  0  0
 11 38  1  0  0  0
 11 39  1  0  0  0
 12 13  1  0  0  0
 12 40  1  0  0  0
 12 41  1  0  0  0
 13 14  1  0  0  0
 13 42  1  0  0  0
 13 43  1  0  0  0
 14 19  1  0  0  0
 14 15  1  0  0  0
 15 16  1  0  0  0
 15 44  1  0  0  0
 15 45  1  0  0  0
 16 17  1  0  0  0
 16 46  1  0  0  0
 16 47  1  0  0  0
 17 18  1  0  0  0
 17 20  1  0  0  0
 17 48  1  0  0  0
 18 19  1  0  0  0
 18 49  1  0  0  0
 18 50  1  0  0  0
 19 51  1  0  0  0
 19 52  1  0  0  0
 20 28  2  0  0  0
 20 21  1  0  0  0
 21 26  2  0  0  0
 21 22  1  0  0  0
 22 23  2  0  0  0
 22 53  1  0  0  0
 23 24  1  0  0  0
 23 54  1  0  0  0
 24 25  2  0  0  0
 24 29  1  0  0  0
 25 26  1  0  0  0
 25 55  1  0  0  0
 26 27  1  0  0  0
 27 28  1  0  0  0
M  END
> <s_m_entry_id>
8293

> <s_m_entry_name>
ligand_docking-pose.48

> <s_m_Source_Path>
/home/csk/Desktop/cluster/DUD-E-result/drd3

> <s_m_Source_File>
ligand_docking-pose.sdf

> <i_m_Source_File_Index>
48

> <i_lp_mmshare_version>
53161

> <i_f3d_flags>
0

> <r_lp_tautomer_probability>
1

> <s_lp_Force_Field>
OPLS_2005

> <r_lp_Energy>
27.787471

> <b_lp_Chiralities_Consistent>
1

> <s_lp_Variant>
274299-1

> <s_i_glide_gridfile>
glide-grid_3pbl

> <i_i_glide_lignum>
1141

> <i_i_glide_rotatable_bonds>
5

> <r_i_docking_score>
-6.87852034996131

> <r_i_glide_ligand_efficiency>
-0.237190356895218

> <r_i_glide_ligand_efficiency_sa>
-0.728723923561665

> <r_i_glide_ligand_efficiency_ln>
-1.5750067359148

> <r_i_glide_gscore>
-6.87852034996131

> <r_i_glide_lipo>
-3.60976163864954

> <r_i_glide_hbond>
-0.217566899302785

> <r_i_glide_metal>
0

> <r_i_glide_rewards>
-1.36068597784477

> <r_i_glide_evdw>
-38.7990112304688

> <r_i_glide_ecoul>
-1.92729556560516

> <r_i_glide_erotb>
0.636675856830657

> <r_i_glide_esite>
-0.0981367946306617

> <r_i_glide_emodel>
-53.9289913469226

> <r_i_glide_energy>
-40.7263067960739

> <r_i_glide_einternal>
4.45315456390381

> <i_i_glide_confnum>
229

> <i_i_glide_posenum>
127

> <r_i_glide_eff_state_penalty>
0

> <s_user_duplicate_titles>
274299

> <s_m_subgroup_title>
dock_pv

> <s_m_subgroupid>
dock_pv1

> <b_m_subgroup_collapsed>
0

$$$$
556637
                    3D
 Schrodinger Suite 2021-1.
 48 51  0  0  1  0            999 V2000
    3.4040   29.2987   29.0835 C   0  0  0  0  0  0
    2.7567   28.1076   29.4226 C   0  0  0  0  0  0
    3.2331   26.8869   28.9367 C   0  0  0  0  0  0
    4.3502   26.8753   28.0988 C   0  0  0  0  0  0
    4.9893   28.0584   27.7569 C   0  0  0  0  0  0
    4.5284   29.2733   28.2566 C   0  0  0  0  0  0
    6.1827   27.7254   26.8907 C   0  0  0  0  0  0
    6.0037   26.3374   26.4892 N   0  0  0  0  0  0
    5.1286   25.7405   27.4908 C   0  0  0  0  0  0
    5.6759   26.1240   25.0755 C   0  0  0  0  0  0
    5.6021   24.6394   24.6307 C   0  0  0  0  0  0
    6.8130   23.8171   24.8289 N   0  0  0  0  0  0
    7.3786   23.6168   26.1411 C   0  0  0  0  0  0
    8.4865   22.6516   25.8684 C   0  0  0  0  0  0
    8.1920   22.1639   24.5294 N   0  0  0  0  0  0
    7.1866   22.8723   23.9275 C   0  0  0  0  0  0
    6.6969   22.6903   22.8082 O   0  0  0  0  0  0
    9.0254   21.2214   23.8825 C   0  0  0  0  0  0
   10.4050   21.2149   24.1333 C   0  0  0  0  0  0
   11.2276   20.2503   23.5553 C   0  0  0  0  0  0
   10.6788   19.2678   22.7330 C   0  0  0  0  0  0
    9.3074   19.2331   22.4861 C   0  0  0  0  0  0
    8.4878   20.2200   23.0633 C   0  0  0  0  0  0
    8.8519   18.2127   21.6746 O   0  0  0  0  0  0
    7.5015   17.7640   21.7742 C   0  0  0  0  0  0
    7.4087   16.6267   21.0861 F   0  0  0  0  0  0
    7.1549   17.4925   23.0348 F   0  0  0  0  0  0
    6.6504   18.6333   21.2305 F   0  0  0  0  0  0
    3.0470   30.2373   29.4804 H   0  0  0  0  0  0
    1.9000   28.1308   30.0806 H   0  0  0  0  0  0
    2.7391   25.9716   29.2218 H   0  0  0  0  0  0
    5.0445   30.1873   28.0204 H   0  0  0  0  0  0
    6.2817   28.3874   26.0308 H   0  0  0  0  0  0
    7.1045   27.7633   27.4703 H   0  0  0  0  0  0
    5.7845   25.3088   28.2447 H   0  0  0  0  0  0
    4.5047   24.9435   27.0866 H   0  0  0  0  0  0
    4.7228   26.6085   24.8595 H   0  0  0  0  0  0
    6.4210   26.6292   24.4586 H   0  0  0  0  0  0
    4.7763   24.1608   25.1545 H   0  0  0  0  0  0
    5.3228   24.6300   23.5744 H   0  0  0  0  0  0
    7.7806   24.5458   26.5466 H   0  0  0  0  0  0
    6.6326   23.2114   26.8215 H   0  0  0  0  0  0
    8.4794   21.8292   26.5848 H   0  0  0  0  0  0
    9.4518   23.1551   25.9083 H   0  0  0  0  0  0
   10.8570   21.9707   24.7605 H   0  0  0  0  0  0
   12.2906   20.2659   23.7482 H   0  0  0  0  0  0
   11.3209   18.5205   22.2866 H   0  0  0  0  0  0
    7.4234   20.2048   22.8870 H   0  0  0  0  0  0
  1  6  1  0  0  0
  1  2  2  0  0  0
  1 29  1  0  0  0
  2  3  1  0  0  0
  2 30  1  0  0  0
  3  4  2  0  0  0
  3 31  1  0  0  0
  4  9  1  0  0  0
  4  5  1  0  0  0
  5  6  2  0  0  0
  5  7  1  0  0  0
  6 32  1  0  0  0
  7  8  1  0  0  0
  7 33  1  0  0  0
  7 34  1  0  0  0
  8  9  1  0  0  0
  8 10  1  0  0  0
  9 35  1  0  0  0
  9 36  1  0  0  0
 10 11  1  0  0  0
 10 37  1  0  0  0
 10 38  1  0  0  0
 11 12  1  0  0  0
 11 39  1  0  0  0
 11 40  1  0  0  0
 12 16  1  0  0  0
 12 13  1  0  0  0
 13 14  1  0  0  0
 13 41  1  0  0  0
 13 42  1  0  0  0
 14 15  1  0  0  0
 14 43  1  0  0  0
 14 44  1  0  0  0
 15 16  1  0  0  0
 15 18  1  0  0  0
 16 17  2  0  0  0
 18 23  1  0  0  0
 18 19  2  0  0  0
 19 20  1  0  0  0
 19 45  1  0  0  0
 20 21  2  0  0  0
 20 46  1  0  0  0
 21 22  1  0  0  0
 21 47  1  0  0  0
 22 23  2  0  0  0
 22 24  1  0  0  0
 23 48  1  0  0  0
 24 25  1  0  0  0
 25 26  1  0  0  0
 25 27  1  0  0  0
 25 28  1  0  0  0
M  END
> <s_m_entry_id>
8294

> <s_m_entry_name>
ligand_docking-pose.49

> <s_m_Source_Path>
/home/csk/Desktop/cluster/DUD-E-result/drd3

> <s_m_Source_File>
ligand_docking-pose.sdf

> <i_m_Source_File_Index>
49

> <i_lp_mmshare_version>
53161

> <i_f3d_flags>
0

> <r_lp_tautomer_probability>
1

> <s_lp_Force_Field>
OPLS_2005

> <r_lp_Energy>
73.349873

> <b_lp_Chiralities_Consistent>
1

> <s_lp_Variant>
556637-1

> <s_i_glide_gridfile>
glide-grid_3pbl

> <i_i_glide_lignum>
460

> <i_i_glide_rotatable_bonds>
6

> <r_i_docking_score>
-6.8762747098815

> <r_i_glide_ligand_efficiency>
-0.245581239638625

> <r_i_glide_ligand_efficiency_sa>
-0.745729283157896

> <r_i_glide_ligand_efficiency_ln>
-1.58724609923907

> <r_i_glide_gscore>
-6.8762747098815

> <r_i_glide_lipo>
-2.67415112283505

> <r_i_glide_hbond>
0

> <r_i_glide_metal>
0

> <r_i_glide_rewards>
-2.35680054009126

> <r_i_glide_evdw>
-40.7332649230957

> <r_i_glide_ecoul>
-1.84839046001434

> <r_i_glide_erotb>
0.636951274584082

> <r_i_glide_esite>
-0.168352506382341

> <r_i_glide_emodel>
-58.7866435697581

> <r_i_glide_energy>
-42.58165538311

> <r_i_glide_einternal>
3.63732957839966

> <i_i_glide_confnum>
216

> <i_i_glide_posenum>
8

> <r_i_glide_eff_state_penalty>
0

> <s_user_duplicate_titles>
556637

> <s_m_subgroup_title>
dock_pv

> <s_m_subgroupid>
dock_pv1

> <b_m_subgroup_collapsed>
0

$$$$
80985
                    3D
 Schrodinger Suite 2021-1.
 57 60  0  0  1  0            999 V2000
    6.1897   25.3632   21.7980 C   0  0  0  0  0  0
    5.2211   24.8108   22.6851 O   0  0  0  0  0  0
    5.5219   25.0397   24.0089 C   0  0  0  0  0  0
    4.8580   26.0875   24.7056 C   0  0  0  0  0  0
    3.7921   26.8082   24.1183 C   0  0  0  0  0  0
    3.1135   27.7884   24.8296 C   0  0  0  0  0  0
    3.5057   28.1225   26.1187 C   0  0  0  0  0  0
    4.5732   27.4642   26.7187 C   0  0  0  0  0  0
    5.2596   26.4221   26.0345 C   0  0  0  0  0  0
    6.3281   25.7000   26.6218 C   0  0  0  0  0  0
    6.8924   24.6176   25.9548 C   0  0  0  0  0  0
    6.4707   24.2483   24.6721 C   0  0  0  0  0  0
    6.9525   22.9630   24.0449 C   0  0  0  0  0  0
    6.2054   22.2970   23.3222 O   0  0  0  0  0  0
    8.1920   22.5630   24.3690 N   0  0  0  0  0  0
    8.6992   21.2176   24.1498 C   0  0  0  0  0  0
    9.7567   21.0978   23.0401 C   0  0  1  0  0  0
   11.1223   21.6269   23.4958 C   0  0  0  0  0  0
   11.9162   20.4242   23.9891 C   0  0  0  0  0  0
   11.0574   19.2213   23.6348 C   0  0  0  0  0  0
   10.0633   19.7080   22.6865 N   0  0  1  0  0  0
    8.9642   18.8268   22.2464 C   0  0  0  0  0  0
    8.9080   18.7256   20.7163 C   0  0  0  0  0  0
    7.6490   17.9659   20.2428 C   0  0  0  0  0  0
    7.5513   16.5630   20.8907 C   0  0  0  0  0  0
    7.7412   16.5902   22.4111 C   0  0  0  0  0  0
    8.9917   17.3913   22.8000 C   0  0  0  0  0  0
    6.9920   26.1629   28.3428 Br  0  0  0  0  0  0
    9.4290   21.6042   22.1309 H   0  0  0  0  0  0
    5.9231   25.1239   20.7704 H   0  0  0  0  0  0
    6.1922   26.4505   21.8849 H   0  0  0  0  0  0
    7.1993   24.9890   21.9768 H   0  0  0  0  0  0
    3.4939   26.5806   23.1075 H   0  0  0  0  0  0
    2.2924   28.3140   24.3640 H   0  0  0  0  0  0
    2.9826   28.9012   26.6549 H   0  0  0  0  0  0
    4.8619   27.7386   27.7224 H   0  0  0  0  0  0
    7.6538   24.0479   26.4693 H   0  0  0  0  0  0
    8.8610   23.2643   24.6840 H   0  0  0  0  0  0
    9.0963   20.8570   25.0980 H   0  0  0  0  0  0
    7.8593   20.5902   23.8840 H   0  0  0  0  0  0
   11.6043   22.1630   22.6841 H   0  0  0  0  0  0
   11.0352   22.3345   24.3170 H   0  0  0  0  0  0
   12.8719   20.3845   23.4840 H   0  0  0  0  0  0
   12.1000   20.4747   25.0633 H   0  0  0  0  0  0
   11.6345   18.4260   23.1632 H   0  0  0  0  0  0
   10.6084   18.7720   24.5212 H   0  0  0  0  0  0
    8.0036   19.2433   22.5243 H   0  0  0  0  0  0
    8.9920   19.7181   20.2840 H   0  0  0  0  0  0
    9.7920   18.2231   20.3573 H   0  0  0  0  0  0
    6.7607   18.5458   20.4981 H   0  0  0  0  0  0
    7.6573   17.8762   19.1559 H   0  0  0  0  0  0
    6.5920   16.1056   20.6840 H   0  0  0  0  0  0
    8.2905   15.8924   20.4583 H   0  0  0  0  0  0
    6.8636   17.0374   22.8817 H   0  0  0  0  0  0
    7.8066   15.5724   22.7974 H   0  0  0  0  0  0
    9.9095   16.9630   22.4121 H   0  0  0  0  0  0
    9.0751   17.3630   23.8840 H   0  0  0  0  0  0
  1  2  1  0  0  0
  1 30  1  0  0  0
  1 31  1  0  0  0
  1 32  1  0  0  0
  2  3  1  0  0  0
  3 12  1  0  0  0
  3  4  2  0  0  0
  4  9  1  0  0  0
  4  5  1  0  0  0
  5  6  2  0  0  0
  5 33  1  0  0  0
  6  7  1  0  0  0
  6 34  1  0  0  0
  7  8  2  0  0  0
  7 35  1  0  0  0
  8  9  1  0  0  0
  8 36  1  0  0  0
  9 10  2  0  0  0
 10 11  1  0  0  0
 10 28  1  0  0  0
 11 12  2  0  0  0
 11 37  1  0  0  0
 12 13  1  0  0  0
 13 14  2  0  0  0
 13 15  1  0  0  0
 15 16  1  0  0  0
 15 38  1  0  0  0
 16 17  1  0  0  0
 16 39  1  0  0  0
 16 40  1  0  0  0
 17 29  1  0  0  0
 17 21  1  0  0  0
 17 18  1  0  0  0
 18 19  1  0  0  0
 18 41  1  0  0  0
 18 42  1  0  0  0
 19 20  1  0  0  0
 19 43  1  0  0  0
 19 44  1  0  0  0
 20 21  1  0  0  0
 20 45  1  0  0  0
 20 46  1  0  0  0
 21 22  1  0  0  0
 22 27  1  0  0  0
 22 23  1  0  0  0
 22 47  1  0  0  0
 23 24  1  0  0  0
 23 48  1  0  0  0
 23 49  1  0  0  0
 24 25  1  0  0  0
 24 50  1  0  0  0
 24 51  1  0  0  0
 25 26  1  0  0  0
 25 52  1  0  0  0
 25 53  1  0  0  0
 26 27  1  0  0  0
 26 54  1  0  0  0
 26 55  1  0  0  0
 27 56  1  0  0  0
 27 57  1  0  0  0
M  END
> <s_m_entry_id>
8295

> <s_m_entry_name>
ligand_docking-pose.50

> <s_m_Source_Path>
/home/csk/Desktop/cluster/DUD-E-result/drd3

> <s_m_Source_File>
ligand_docking-pose.sdf

> <i_m_Source_File_Index>
50

> <i_lp_mmshare_version>
53161

> <i_f3d_flags>
0

> <r_lp_tautomer_probability>
1

> <s_lp_Force_Field>
OPLS_2005

> <r_lp_Energy>
56.03516

> <b_lp_Chiralities_Consistent>
1

> <s_lp_Variant>
80985-1

> <s_i_glide_gridfile>
glide-grid_3pbl

> <i_i_glide_lignum>
669

> <i_i_glide_rotatable_bonds>
6

> <r_i_docking_score>
-6.87196965678696

> <r_i_glide_ligand_efficiency>
-0.245427487742391

> <r_i_glide_ligand_efficiency_sa>
-0.745262401845906

> <r_i_glide_ligand_efficiency_ln>
-1.586252366583

> <r_i_glide_gscore>
-6.87196965678696

> <r_i_glide_lipo>
-3.45228587475224

> <r_i_glide_hbond>
-0.167357771472981

> <r_i_glide_metal>
0

> <r_i_glide_rewards>
-1.0002400385315

> <r_i_glide_evdw>
-35.7727165222168

> <r_i_glide_ecoul>
-5.55248785018921

> <r_i_glide_erotb>
0.504294139722368

> <r_i_glide_esite>
-0.134871108113385

> <r_i_glide_emodel>
-46.1366884223244

> <r_i_glide_energy>
-41.325204372406

> <r_i_glide_einternal>
11.9573259353638

> <i_i_glide_confnum>
235

> <i_i_glide_posenum>
163

> <r_i_glide_eff_state_penalty>
0

> <s_user_duplicate_titles>
80985

> <s_m_subgroup_title>
dock_pv

> <s_m_subgroupid>
dock_pv1

> <b_m_subgroup_collapsed>
0

$$$$
146093
                    3D
 Schrodinger Suite 2021-1.
 45 48  0  0  1  0            999 V2000
    4.3255   26.9093   29.0617 C   0  0  0  0  0  0
    3.5677   26.5631   27.9459 C   0  0  0  0  0  0
    4.2037   26.2665   26.7420 C   0  0  0  0  0  0
    5.5955   26.3522   26.6450 C   0  0  0  0  0  0
    6.3506   26.6888   27.7738 C   0  0  0  0  0  0
    5.7144   26.9630   28.9829 C   0  0  0  0  0  0
    6.2883   25.9775   25.3353 C   0  0  0  0  0  0
    6.5705   24.5388   25.2375 N   0  0  0  0  0  0
    7.6972   24.1744   26.1039 C   0  0  0  0  0  0
    7.9695   22.6645   26.0183 C   0  0  0  0  0  0
    8.2382   22.1630   24.6557 N   0  0  0  0  0  0
    7.2240   22.6582   23.7113 C   0  0  0  0  0  0
    6.9340   24.1785   23.8600 C   0  0  0  0  0  0
    9.3385   21.3630   24.3276 C   0  0  0  0  0  0
   10.5629   21.5427   24.9812 C   0  0  0  0  0  0
   11.6889   20.7869   24.6840 C   0  0  0  0  0  0
   11.6754   19.7776   23.7243 C   0  0  0  0  0  0
   10.4543   19.5431   23.0964 C   0  0  0  0  0  0
    9.2838   20.3063   23.3794 C   0  0  0  0  0  0
    8.2172   19.7836   22.6840 N   0  0  0  0  0  0
    8.7031   18.7903   21.9743 C   0  0  0  0  0  0
   10.0527   18.6197   22.1605 N   0  0  0  0  0  0
    7.9015   17.9062   21.0314 C   0  0  0  0  0  0
    8.1557   16.6150   21.2490 F   0  0  0  0  0  0
    8.1920   18.1661   19.7583 F   0  0  0  0  0  0
    6.5920   18.0833   21.1820 F   0  0  0  0  0  0
   10.5930   17.9081   21.6859 H   0  0  0  0  0  0
    3.8320   27.1364   29.9963 H   0  0  0  0  0  0
    2.4909   26.5165   28.0174 H   0  0  0  0  0  0
    3.6159   25.9739   25.8840 H   0  0  0  0  0  0
    7.4293   26.7322   27.7157 H   0  0  0  0  0  0
    6.2934   27.2204   29.8579 H   0  0  0  0  0  0
    7.2102   26.5524   25.2214 H   0  0  0  0  0  0
    5.6266   26.2665   24.5166 H   0  0  0  0  0  0
    7.4463   24.3945   27.1405 H   0  0  0  0  0  0
    8.5920   24.7549   25.8840 H   0  0  0  0  0  0
    7.0898   22.1630   26.4102 H   0  0  0  0  0  0
    8.7704   22.3995   26.7070 H   0  0  0  0  0  0
    7.5530   22.4625   22.6904 H   0  0  0  0  0  0
    6.3045   22.0878   23.8443 H   0  0  0  0  0  0
    7.7920   24.7609   23.5229 H   0  0  0  0  0  0
    6.1093   24.4397   23.1960 H   0  0  0  0  0  0
   10.6711   22.3383   25.7050 H   0  0  0  0  0  0
   12.5920   21.0062   25.2266 H   0  0  0  0  0  0
   12.5581   19.1939   23.5096 H   0  0  0  0  0  0
  1  6  1  0  0  0
  1  2  2  0  0  0
  1 28  1  0  0  0
  2  3  1  0  0  0
  2 29  1  0  0  0
  3  4  2  0  0  0
  3 30  1  0  0  0
  4  5  1  0  0  0
  4  7  1  0  0  0
  5  6  2  0  0  0
  5 31  1  0  0  0
  6 32  1  0  0  0
  7  8  1  0  0  0
  7 33  1  0  0  0
  7 34  1  0  0  0
  8 13  1  0  0  0
  8  9  1  0  0  0
  9 10  1  0  0  0
  9 35  1  0  0  0
  9 36  1  0  0  0
 10 11  1  0  0  0
 10 37  1  0  0  0
 10 38  1  0  0  0
 11 12  1  0  0  0
 11 14  1  0  0  0
 12 13  1  0  0  0
 12 39  1  0  0  0
 12 40  1  0  0  0
 13 41  1  0  0  0
 13 42  1  0  0  0
 14 19  1  0  0  0
 14 15  2  0  0  0
 15 16  1  0  0  0
 15 43  1  0  0  0
 16 17  2  0  0  0
 16 44  1  0  0  0
 17 18  1  0  0  0
 17 45  1  0  0  0
 18 22  1  0  0  0
 18 19  2  0  0  0
 19 20  1  0  0  0
 20 21  2  0  0  0
 21 22  1  0  0  0
 21 23  1  0  0  0
 22 27  1  0  0  0
 23 24  1  0  0  0
 23 25  1  0  0  0
 23 26  1  0  0  0
M  END
> <s_m_entry_id>
8296

> <s_m_entry_name>
ligand_docking-pose.51

> <s_m_Source_Path>
/home/csk/Desktop/cluster/DUD-E-result/drd3

> <s_m_Source_File>
ligand_docking-pose.sdf

> <i_m_Source_File_Index>
51

> <i_lp_mmshare_version>
53161

> <i_f3d_flags>
0

> <r_lp_tautomer_probability>
1

> <s_lp_Force_Field>
OPLS_2005

> <r_lp_Energy>
44.603342

> <b_lp_Chiralities_Consistent>
1

> <s_lp_Variant>
146093-1

> <s_i_glide_gridfile>
glide-grid_3pbl

> <i_i_glide_lignum>
1231

> <i_i_glide_rotatable_bonds>
4

> <r_i_docking_score>
-6.87071035713465

> <r_i_glide_ligand_efficiency>
-0.264258090659025

> <r_i_glide_ligand_efficiency_sa>
-0.782863553771985

> <r_i_glide_ligand_efficiency_ln>
-1.61356378273357

> <r_i_glide_gscore>
-6.87071035713465

> <r_i_glide_lipo>
-2.27381840047198

> <r_i_glide_hbond>
0

> <r_i_glide_metal>
0

> <r_i_glide_rewards>
-2.90584061876681

> <r_i_glide_evdw>
-36.289909362793

> <r_i_glide_ecoul>
-1.63143265247345

> <r_i_glide_erotb>
0.443015009247128

> <r_i_glide_esite>
-0.0748559811323298

> <r_i_glide_emodel>
-51.1842016842913

> <r_i_glide_energy>
-37.9213420152664

> <r_i_glide_einternal>
2.07624816894531

> <i_i_glide_confnum>
66

> <i_i_glide_posenum>
86

> <r_i_glide_eff_state_penalty>
0

> <s_user_duplicate_titles>
146093

> <s_m_subgroup_title>
dock_pv

> <s_m_subgroupid>
dock_pv1

> <b_m_subgroup_collapsed>
0

$$$$
497669
                    3D
 Schrodinger Suite 2021-1.
 63 66  0  0  1  0            999 V2000
    5.6127   26.9660   22.8098 C   0  0  0  0  0  0
    4.4119   26.5972   23.4849 O   0  0  0  0  0  0
    4.2560   26.9836   24.7996 C   0  0  0  0  0  0
    3.0993   27.7108   25.0850 C   0  0  0  0  0  0
    2.8370   28.1567   26.3780 C   0  0  0  0  0  0
    3.7295   27.8636   27.4048 C   0  0  0  0  0  0
    4.8721   27.1165   27.1358 C   0  0  0  0  0  0
    5.1611   26.6543   25.8395 C   0  0  0  0  0  0
    6.3030   25.8872   25.6028 N   0  0  0  0  0  0
    6.2307   24.6033   24.8769 C   0  0  0  0  0  0
    6.2673   23.3662   25.8038 C   0  0  0  0  0  0
    7.4315   23.3513   26.6836 N   0  0  0  0  0  0
    7.4462   24.6025   27.4507 C   0  0  0  0  0  0
    7.4654   25.8431   26.5124 C   0  0  0  0  0  0
    8.7013   23.1302   26.0151 C   0  0  0  0  0  0
    9.4364   21.8433   26.3951 C   0  0  0  0  0  0
   10.8901   21.9470   25.8914 C   0  0  0  0  0  0
   11.6284   20.6547   25.4711 C   0  0  0  0  0  0
   11.9295   20.5621   23.9509 C   0  0  0  0  0  0
   10.7623   20.2021   23.1388 N   0  0  0  0  0  0
    9.7303   21.2356   22.8874 C   0  0  0  0  0  0
    8.3287   20.6598   23.0156 C   0  0  0  0  0  0
    8.1919   19.3304   22.3053 C   0  0  0  0  0  0
    6.9548   18.8603   21.8828 C   0  0  0  0  0  0
    6.8076   17.5834   21.3493 C   0  0  0  0  0  0
    7.9187   16.7632   21.1984 C   0  0  0  0  0  0
    9.1676   17.2342   21.5899 C   0  0  0  0  0  0
    9.3151   18.5138   22.1432 C   0  0  0  0  0  0
   10.6935   18.9505   22.5885 C   0  0  0  0  0  0
   11.7038   18.2635   22.4079 O   0  0  0  0  0  0
    6.0162   26.1028   22.2825 H   0  0  0  0  0  0
    5.3832   27.7284   22.0658 H   0  0  0  0  0  0
    6.3956   27.3669   23.4550 H   0  0  0  0  0  0
    2.4073   27.9446   24.2898 H   0  0  0  0  0  0
    1.9423   28.7267   26.5794 H   0  0  0  0  0  0
    3.5298   28.2051   28.4110 H   0  0  0  0  0  0
    5.5271   26.8935   27.9630 H   0  0  0  0  0  0
    5.3091   24.5316   24.3042 H   0  0  0  0  0  0
    7.0403   24.5639   24.1468 H   0  0  0  0  0  0
    6.2356   22.4530   25.2109 H   0  0  0  0  0  0
    5.3903   23.3574   26.4408 H   0  0  0  0  0  0
    6.5949   24.6550   28.1237 H   0  0  0  0  0  0
    8.3243   24.5943   28.0952 H   0  0  0  0  0  0
    7.5221   26.7520   27.1112 H   0  0  0  0  0  0
    8.3698   25.8527   25.9019 H   0  0  0  0  0  0
    9.3885   23.9369   26.2835 H   0  0  0  0  0  0
    8.5595   23.1571   24.9365 H   0  0  0  0  0  0
    8.9924   20.9660   25.9385 H   0  0  0  0  0  0
    9.3677   21.7105   27.4784 H   0  0  0  0  0  0
   11.3921   22.5685   26.6272 H   0  0  0  0  0  0
   10.9619   22.5627   25.0165 H   0  0  0  0  0  0
   11.1218   19.7557   25.8198 H   0  0  0  0  0  0
   12.5922   20.6645   25.9726 H   0  0  0  0  0  0
   12.7335   19.8473   23.8039 H   0  0  0  0  0  0
   12.3178   21.5184   23.6001 H   0  0  0  0  0  0
    9.7932   21.6066   21.8773 H   0  0  0  0  0  0
    9.8544   22.1462   23.4606 H   0  0  0  0  0  0
    7.5781   21.3781   22.6842 H   0  0  0  0  0  0
    8.1909   20.5413   24.0769 H   0  0  0  0  0  0
    6.0872   19.4846   22.0186 H   0  0  0  0  0  0
    5.8272   17.2189   21.0848 H   0  0  0  0  0  0
    7.8163   15.7697   20.7860 H   0  0  0  0  0  0
   10.0207   16.5767   21.4842 H   0  0  0  0  0  0
  1  2  1  0  0  0
  1 31  1  0  0  0
  1 32  1  0  0  0
  1 33  1  0  0  0
  2  3  1  0  0  0
  3  8  1  0  0  0
  3  4  2  0  0  0
  4  5  1  0  0  0
  4 34  1  0  0  0
  5  6  2  0  0  0
  5 35  1  0  0  0
  6  7  1  0  0  0
  6 36  1  0  0  0
  7  8  2  0  0  0
  7 37  1  0  0  0
  8  9  1  0  0  0
  9 14  1  0  0  0
  9 10  1  0  0  0
 10 11  1  0  0  0
 10 38  1  0  0  0
 10 39  1  0  0  0
 11 12  1  0  0  0
 11 40  1  0  0  0
 11 41  1  0  0  0
 12 13  1  0  0  0
 12 15  1  0  0  0
 13 14  1  0  0  0
 13 42  1  0  0  0
 13 43  1  0  0  0
 14 44  1  0  0  0
 14 45  1  0  0  0
 15 16  1  0  0  0
 15 46  1  0  0  0
 15 47  1  0  0  0
 16 17  1  0  0  0
 16 48  1  0  0  0
 16 49  1  0  0  0
 17 18  1  0  0  0
 17 50  1  0  0  0
 17 51  1  0  0  0
 18 19  1  0  0  0
 18 52  1  0  0  0
 18 53  1  0  0  0
 19 20  1  0  0  0
 19 54  1  0  0  0
 19 55  1  0  0  0
 20 29  1  0  0  0
 20 21  1  0  0  0
 21 22  1  0  0  0
 21 56  1  0  0  0
 21 57  1  0  0  0
 22 23  1  0  0  0
 22 58  1  0  0  0
 22 59  1  0  0  0
 23 28  2  0  0  0
 23 24  1  0  0  0
 24 25  2  0  0  0
 24 60  1  0  0  0
 25 26  1  0  0  0
 25 61  1  0  0  0
 26 27  2  0  0  0
 26 62  1  0  0  0
 27 28  1  0  0  0
 27 63  1  0  0  0
 28 29  1  0  0  0
 29 30  2  0  0  0
M  END
> <s_m_entry_id>
8297

> <s_m_entry_name>
ligand_docking-pose.52

> <s_m_Source_Path>
/home/csk/Desktop/cluster/DUD-E-result/drd3

> <s_m_Source_File>
ligand_docking-pose.sdf

> <i_m_Source_File_Index>
52

> <i_lp_mmshare_version>
53161

> <i_f3d_flags>
0

> <r_lp_tautomer_probability>
1

> <s_lp_Force_Field>
OPLS_2005

> <r_lp_Energy>
60.744586

> <b_lp_Chiralities_Consistent>
1

> <s_lp_Variant>
497669-1

> <s_i_glide_gridfile>
glide-grid_3pbl

> <i_i_glide_lignum>
1594

> <i_i_glide_rotatable_bonds>
8

> <r_i_docking_score>
-6.86554553159738

> <r_i_glide_ligand_efficiency>
-0.228851517719912

> <r_i_glide_ligand_efficiency_sa>
-0.711094874089996

> <r_i_glide_ligand_efficiency_ln>
-1.55992675088899

> <r_i_glide_gscore>
-6.86554553159738

> <r_i_glide_lipo>
-3.3024696900749

> <r_i_glide_hbond>
0

> <r_i_glide_metal>
0

> <r_i_glide_rewards>
-2.20944226097036

> <r_i_glide_evdw>
-37.1234817504883

> <r_i_glide_ecoul>
-1.38744986057281

> <r_i_glide_erotb>
0.710657986058221

> <r_i_glide_esite>
0

> <r_i_glide_emodel>
-31.8087193564165

> <r_i_glide_energy>
-38.5109316110611

> <r_i_glide_einternal>
17.0679531097412

> <i_i_glide_confnum>
5

> <i_i_glide_posenum>
24

> <r_i_glide_eff_state_penalty>
0

> <s_user_duplicate_titles>
497669

> <s_m_subgroup_title>
dock_pv

> <s_m_subgroupid>
dock_pv1

> <b_m_subgroup_collapsed>
0

$$$$
210383
                    3D
 Schrodinger Suite 2021-1.
 62 65  0  0  1  0            999 V2000
    3.3524   29.1135   29.3383 C   0  0  0  0  0  0
    3.6366   28.2257   28.2616 O   0  0  0  0  0  0
    2.8977   28.3068   27.0934 C   0  0  0  0  0  0
    1.6975   29.0330   27.0027 C   0  0  0  0  0  0
    0.9865   29.0885   25.8061 C   0  0  0  0  0  0
    1.4516   28.4136   24.6844 C   0  0  0  0  0  0
    2.6352   27.6853   24.7596 C   0  0  0  0  0  0
    3.3691   27.6285   25.9482 C   0  0  0  0  0  0
    4.5113   26.8440   25.9470 N   0  0  0  0  0  0
    5.8075   27.4261   26.3257 C   0  0  0  0  0  0
    6.9909   26.5082   25.9530 C   0  0  0  0  0  0
    6.8626   25.2198   26.6348 N   0  0  0  0  0  0
    5.6252   24.5844   26.1719 C   0  0  0  0  0  0
    4.3875   25.4675   26.4514 C   0  0  0  0  0  0
    8.0193   24.3872   26.3042 C   0  0  0  0  0  0
    8.2169   23.2212   27.2907 C   0  0  0  0  0  0
    9.6312   22.6134   27.2577 C   0  0  0  0  0  0
   10.0488   22.3859   25.8839 N   0  0  0  0  0  0
   10.4039   21.3415   25.1236 C   0  0  0  0  0  0
   10.5923   20.1935   25.5026 O   0  0  0  0  0  0
   10.5264   21.6154   23.6233 C   0  0  0  0  0  0
   10.1195   20.3458   22.9039 C   0  0  0  0  0  0
   11.0746   19.3613   22.6646 C   0  0  0  0  0  0
   10.6895   18.1217   22.1782 C   0  0  0  0  0  0
    9.3236   17.8376   21.9377 C   0  0  0  0  0  0
    8.8950   16.5778   21.4637 C   0  0  0  0  0  0
    7.5591   16.3397   21.1846 C   0  0  0  0  0  0
    6.6229   17.3429   21.3697 C   0  0  0  0  0  0
    6.9922   18.5828   21.8803 C   0  0  0  0  0  0
    8.3486   18.8499   22.1736 C   0  0  0  0  0  0
    8.7678   20.0954   22.6843 C   0  0  0  0  0  0
    4.1271   29.0028   30.0949 H   0  0  0  0  0  0
    3.3558   30.1575   29.0197 H   0  0  0  0  0  0
    2.3943   28.8820   29.8058 H   0  0  0  0  0  0
    1.3002   29.5650   27.8536 H   0  0  0  0  0  0
    0.0701   29.6543   25.7484 H   0  0  0  0  0  0
    0.9009   28.4547   23.7551 H   0  0  0  0  0  0
    2.9914   27.1650   23.8834 H   0  0  0  0  0  0
    5.9293   28.3975   25.8467 H   0  0  0  0  0  0
    5.8404   27.5830   27.4056 H   0  0  0  0  0  0
    7.9209   26.9917   26.2553 H   0  0  0  0  0  0
    7.0435   26.3747   24.8705 H   0  0  0  0  0  0
    5.6804   24.3638   25.1031 H   0  0  0  0  0  0
    5.4951   23.6272   26.6799 H   0  0  0  0  0  0
    3.5339   24.9960   25.9640 H   0  0  0  0  0  0
    4.2154   25.4852   27.5289 H   0  0  0  0  0  0
    8.9397   24.9643   26.2841 H   0  0  0  0  0  0
    7.9172   23.9983   25.2883 H   0  0  0  0  0  0
    7.5288   22.4225   27.0163 H   0  0  0  0  0  0
    7.9431   23.5254   28.2956 H   0  0  0  0  0  0
    9.6773   21.7631   27.9177 H   0  0  0  0  0  0
   10.3363   23.3476   27.6517 H   0  0  0  0  0  0
   10.0941   23.2578   25.3476 H   0  0  0  0  0  0
   11.5535   21.8953   23.3886 H   0  0  0  0  0  0
    9.8757   22.4306   23.3066 H   0  0  0  0  0  0
   12.1157   19.5477   22.8860 H   0  0  0  0  0  0
   11.4306   17.3587   21.9880 H   0  0  0  0  0  0
    9.6231   15.8181   21.2260 H   0  0  0  0  0  0
    7.2558   15.3816   20.7887 H   0  0  0  0  0  0
    5.6058   17.1479   21.0860 H   0  0  0  0  0  0
    6.2500   19.3529   22.0349 H   0  0  0  0  0  0
    8.0291   20.8503   22.9138 H   0  0  0  0  0  0
  1  2  1  0  0  0
  1 32  1  0  0  0
  1 33  1  0  0  0
  1 34  1  0  0  0
  2  3  1  0  0  0
  3  8  1  0  0  0
  3  4  2  0  0  0
  4  5  1  0  0  0
  4 35  1  0  0  0
  5  6  2  0  0  0
  5 36  1  0  0  0
  6  7  1  0  0  0
  6 37  1  0  0  0
  7  8  2  0  0  0
  7 38  1  0  0  0
  8  9  1  0  0  0
  9 14  1  0  0  0
  9 10  1  0  0  0
 10 11  1  0  0  0
 10 39  1  0  0  0
 10 40  1  0  0  0
 11 12  1  0  0  0
 11 41  1  0  0  0
 11 42  1  0  0  0
 12 13  1  0  0  0
 12 15  1  0  0  0
 13 14  1  0  0  0
 13 43  1  0  0  0
 13 44  1  0  0  0
 14 45  1  0  0  0
 14 46  1  0  0  0
 15 16  1  0  0  0
 15 47  1  0  0  0
 15 48  1  0  0  0
 16 17  1  0  0  0
 16 49  1  0  0  0
 16 50  1  0  0  0
 17 18  1  0  0  0
 17 51  1  0  0  0
 17 52  1  0  0  0
 18 19  1  0  0  0
 18 53  1  0  0  0
 19 20  2  0  0  0
 19 21  1  0  0  0
 21 22  1  0  0  0
 21 54  1  0  0  0
 21 55  1  0  0  0
 22 31  1  0  0  0
 22 23  2  0  0  0
 23 24  1  0  0  0
 23 56  1  0  0  0
 24 25  2  0  0  0
 24 57  1  0  0  0
 25 30  1  0  0  0
 25 26  1  0  0  0
 26 27  2  0  0  0
 26 58  1  0  0  0
 27 28  1  0  0  0
 27 59  1  0  0  0
 28 29  2  0  0  0
 28 60  1  0  0  0
 29 30  1  0  0  0
 29 61  1  0  0  0
 30 31  2  0  0  0
 31 62  1  0  0  0
M  END
> <s_m_entry_id>
8298

> <s_m_entry_name>
ligand_docking-pose.53

> <s_m_Source_Path>
/home/csk/Desktop/cluster/DUD-E-result/drd3

> <s_m_Source_File>
ligand_docking-pose.sdf

> <i_m_Source_File_Index>
53

> <i_lp_mmshare_version>
53161

> <i_f3d_flags>
0

> <r_lp_tautomer_probability>
1

> <s_lp_Force_Field>
OPLS_2005

> <r_lp_Energy>
49.940275

> <b_lp_Chiralities_Consistent>
1

> <s_lp_Variant>
210383-1

> <s_i_glide_gridfile>
glide-grid_3pbl

> <i_i_glide_lignum>
2249

> <i_i_glide_rotatable_bonds>
9

> <r_i_docking_score>
-6.86213022444226

> <r_i_glide_ligand_efficiency>
-0.221359039498137

> <r_i_glide_ligand_efficiency_sa>
-0.695373003115424

> <r_i_glide_ligand_efficiency_ln>
-1.54762066464715

> <r_i_glide_gscore>
-6.86213022444226

> <r_i_glide_lipo>
-3.55018651199936

> <r_i_glide_hbond>
-0.16

> <r_i_glide_metal>
0

> <r_i_glide_rewards>
-1.41915758551925

> <r_i_glide_evdw>
-34.723819732666

> <r_i_glide_ecoul>
-4.19751071929932

> <r_i_glide_erotb>
0.793626255583077

> <r_i_glide_esite>
-0.160594787978529

> <r_i_glide_emodel>
-40.6407648281617

> <r_i_glide_energy>
-38.9213304519653

> <r_i_glide_einternal>
5.04081249237061

> <i_i_glide_confnum>
17

> <i_i_glide_posenum>
84

> <r_i_glide_eff_state_penalty>
0

> <s_user_duplicate_titles>
210383

> <s_m_subgroup_title>
dock_pv

> <s_m_subgroupid>
dock_pv1

> <b_m_subgroup_collapsed>
0

$$$$
579864
                    3D
 Schrodinger Suite 2021-1.
 66 70  0  0  1  0            999 V2000
    6.9839   25.0521   27.3361 C   0  0  0  0  0  0
    6.8772   26.5794   27.4623 C   0  0  0  0  0  0
    6.8531   27.3196   26.1150 C   0  0  0  0  0  0
    5.6175   27.0912   25.3541 N   0  0  2  0  0  0
    5.8765   26.5701   24.0047 C   0  0  0  0  0  0
    5.6251   25.0679   24.0760 C   0  0  0  0  0  0
    5.8685   24.3924   22.8022 N   0  0  0  0  0  0
    5.2553   23.0678   22.8208 C   0  0  0  0  0  0
    5.9538   22.1536   23.8431 C   0  0  0  0  0  0
    7.3596   21.8780   23.4828 N   0  0  0  0  0  0
    8.0314   23.1717   23.3684 C   0  0  0  0  0  0
    7.3010   24.2366   22.5112 C   0  0  0  0  0  0
    7.8868   20.6356   23.0840 C   0  0  0  0  0  0
    9.2809   20.2694   23.1180 C   0  0  0  0  0  0
   10.3104   21.0115   23.7668 C   0  0  0  0  0  0
   11.6220   20.5485   23.7835 C   0  0  0  0  0  0
   11.9622   19.3623   23.1427 C   0  0  0  0  0  0
   10.9912   18.5974   22.5111 C   0  0  0  0  0  0
    9.6404   19.0135   22.5226 C   0  0  0  0  0  0
    8.6306   18.1842   21.9836 C   0  0  0  0  0  0
    7.3089   18.5835   22.1041 C   0  0  0  0  0  0
    6.9406   19.7617   22.6513 N   0  0  0  0  0  0
    4.6311   28.1848   25.3281 C   0  0  1  0  0  0
    3.1960   27.6691   24.9890 C   0  0  0  0  0  0
    2.6576   26.6893   26.0623 C   0  0  0  0  0  0
    2.7844   27.3792   27.4168 C   0  0  0  0  0  0
    3.6779   28.4329   27.6380 C   0  0  0  0  0  0
    3.5489   28.9840   29.2662 S   0  0  0  0  0  0
    2.3076   27.8122   29.4855 C   0  0  0  0  0  0
    2.0432   27.0471   28.4566 N   0  0  0  0  0  0
    1.6866   27.7629   30.6853 N   0  0  0  0  0  0
    4.5275   29.0979   26.5849 C   0  0  0  0  0  0
    4.9386   28.8277   24.5002 H   0  0  0  0  0  0
    7.2544   24.5962   28.2833 H   0  0  0  0  0  0
    6.0377   24.6146   27.0193 H   0  0  0  0  0  0
    7.7556   24.7647   26.6199 H   0  0  0  0  0  0
    7.7518   26.9315   28.0088 H   0  0  0  0  0  0
    6.0142   26.8527   28.0710 H   0  0  0  0  0  0
    7.7320   26.9969   25.5539 H   0  0  0  0  0  0
    6.9920   28.3813   26.2844 H   0  0  0  0  0  0
    5.2095   27.0020   23.2581 H   0  0  0  0  0  0
    6.8871   26.8037   23.6707 H   0  0  0  0  0  0
    6.2558   24.6295   24.8442 H   0  0  0  0  0  0
    4.5849   24.9107   24.3672 H   0  0  0  0  0  0
    4.1923   23.1572   23.0458 H   0  0  0  0  0  0
    5.3207   22.6085   21.8424 H   0  0  0  0  0  0
    5.3927   21.2307   23.8825 H   0  0  0  0  0  0
    5.8976   22.5398   24.8613 H   0  0  0  0  0  0
    8.9967   23.0255   22.8918 H   0  0  0  0  0  0
    8.1920   23.5431   24.3796 H   0  0  0  0  0  0
    7.4051   23.9434   21.4819 H   0  0  0  0  0  0
    7.8215   25.1910   22.5945 H   0  0  0  0  0  0
   10.0840   21.9236   24.2984 H   0  0  0  0  0  0
   12.3853   21.1280   24.2857 H   0  0  0  0  0  0
   12.9867   19.0208   23.1488 H   0  0  0  0  0  0
   11.2580   17.6627   22.0375 H   0  0  0  0  0  0
    8.8879   17.2358   21.5325 H   0  0  0  0  0  0
    6.5094   17.9530   21.7434 H   0  0  0  0  0  0
    2.5060   28.5104   24.9355 H   0  0  0  0  0  0
    3.1545   27.2188   23.9977 H   0  0  0  0  0  0
    3.2427   25.7698   26.0568 H   0  0  0  0  0  0
    1.6261   26.4098   25.8438 H   0  0  0  0  0  0
    0.9927   27.0663   30.9157 H   0  0  0  0  0  0
    2.0295   28.3116   31.4665 H   0  0  0  0  0  0
    4.0343   30.0098   26.2843 H   0  0  0  0  0  0
    5.4714   29.4461   26.9932 H   0  0  0  0  0  0
  1  2  1  0  0  0
  1 34  1  0  0  0
  1 35  1  0  0  0
  1 36  1  0  0  0
  2  3  1  0  0  0
  2 37  1  0  0  0
  2 38  1  0  0  0
  3  4  1  0  0  0
  3 39  1  0  0  0
  3 40  1  0  0  0
  4  5  1  0  0  0
  4 23  1  0  0  0
  5  6  1  0  0  0
  5 41  1  0  0  0
  5 42  1  0  0  0
  6  7  1  0  0  0
  6 43  1  0  0  0
  6 44  1  0  0  0
  7 12  1  0  0  0
  7  8  1  0  0  0
  8  9  1  0  0  0
  8 45  1  0  0  0
  8 46  1  0  0  0
  9 10  1  0  0  0
  9 47  1  0  0  0
  9 48  1  0  0  0
 10 11  1  0  0  0
 10 13  1  0  0  0
 11 12  1  0  0  0
 11 49  1  0  0  0
 11 50  1  0  0  0
 12 51  1  0  0  0
 12 52  1  0  0  0
 13 22  1  0  0  0
 13 14  2  0  0  0
 14 19  1  0  0  0
 14 15  1  0  0  0
 15 16  2  0  0  0
 15 53  1  0  0  0
 16 17  1  0  0  0
 16 54  1  0  0  0
 17 18  2  0  0  0
 17 55  1  0  0  0
 18 19  1  0  0  0
 18 56  1  0  0  0
 19 20  2  0  0  0
 20 21  1  0  0  0
 20 57  1  0  0  0
 21 22  2  0  0  0
 21 58  1  0  0  0
 23 33  1  0  0  0
 23 32  1  0  0  0
 23 24  1  0  0  0
 24 25  1  0  0  0
 24 59  1  0  0  0
 24 60  1  0  0  0
 25 26  1  0  0  0
 25 61  1  0  0  0
 25 62  1  0  0  0
 26 30  1  0  0  0
 26 27  2  0  0  0
 27 28  1  0  0  0
 27 32  1  0  0  0
 28 29  1  0  0  0
 29 30  2  0  0  0
 29 31  1  0  0  0
 31 63  1  0  0  0
 31 64  1  0  0  0
 32 65  1  0  0  0
 32 66  1  0  0  0
M  END
> <s_m_entry_id>
8299

> <s_m_entry_name>
ligand_docking-pose.54

> <s_m_Source_Path>
/home/csk/Desktop/cluster/DUD-E-result/drd3

> <s_m_Source_File>
ligand_docking-pose.sdf

> <i_m_Source_File_Index>
54

> <i_lp_mmshare_version>
53161

> <i_f3d_flags>
0

> <r_lp_tautomer_probability>
1

> <s_lp_Force_Field>
OPLS_2005

> <r_lp_Energy>
74.163621

> <b_lp_Chiralities_Consistent>
1

> <s_lp_Variant>
579864-1

> <s_i_glide_gridfile>
glide-grid_3pbl

> <i_i_glide_lignum>
192

> <i_i_glide_rotatable_bonds>
7

> <r_i_docking_score>
-6.86128355640109

> <r_i_glide_ligand_efficiency>
-0.214415111137534

> <r_i_glide_ligand_efficiency_sa>
-0.680725545168795

> <r_i_glide_ligand_efficiency_ln>
-1.53642841980412

> <r_i_glide_gscore>
-6.86128355640109

> <r_i_glide_lipo>
-3.45864993597939

> <r_i_glide_hbond>
-0.134629457616716

> <r_i_glide_metal>
0

> <r_i_glide_rewards>
-0.96583465963423

> <r_i_glide_evdw>
-40.4164924621582

> <r_i_glide_ecoul>
-5.23656940460205

> <r_i_glide_erotb>
0.592397785100238

> <r_i_glide_esite>
-0.0882572544727769

> <r_i_glide_emodel>
-49.5199276956438

> <r_i_glide_energy>
-45.6530618667603

> <r_i_glide_einternal>
15.1162223815918

> <i_i_glide_confnum>
80

> <i_i_glide_posenum>
334

> <r_i_glide_eff_state_penalty>
0

> <s_user_duplicate_titles>
579864

> <s_m_subgroup_title>
dock_pv

> <s_m_subgroupid>
dock_pv1

> <b_m_subgroup_collapsed>
0

$$$$
255806
                    3D
 Schrodinger Suite 2021-1.
 56 59  0  0  1  0            999 V2000
   12.1231   21.6745   25.3584 C   0  0  0  0  0  0
   12.0693   20.5179   24.5294 O   0  0  0  0  0  0
   10.9202   20.2768   23.8082 C   0  0  0  0  0  0
   10.8471   19.0889   23.0833 C   0  0  0  0  0  0
    9.6886   18.7532   22.3860 C   0  0  0  0  0  0
    8.5920   19.6127   22.4084 C   0  0  0  0  0  0
    8.6515   20.8421   23.0841 C   0  0  0  0  0  0
    9.8293   21.1524   23.7783 C   0  0  0  0  0  0
    7.4672   21.7923   23.0897 C   0  0  0  0  0  0
    6.3507   21.4459   22.6919 O   0  0  0  0  0  0
    7.6921   22.9977   23.6383 N   0  0  0  0  0  0
    6.6728   23.9274   24.1020 C   0  0  0  0  0  0
    5.8810   24.6346   22.9782 C   0  0  0  0  0  0
    4.9732   25.6932   23.4392 N   0  0  0  0  0  0
    5.6771   26.8962   23.9029 C   0  0  0  0  0  0
    4.7018   28.0127   24.3595 C   0  0  0  0  0  0
    3.6458   27.5398   25.2671 N   0  0  0  0  0  0
    2.9859   26.3386   24.7559 C   0  0  0  0  0  0
    3.9979   25.2246   24.4297 C   0  0  0  0  0  0
    3.4003   28.0390   26.5351 C   0  0  0  0  0  0
    2.3003   28.8813   26.7138 C   0  0  0  0  0  0
    1.9548   29.3627   27.9703 C   0  0  0  0  0  0
    2.7046   29.0211   29.0886 C   0  0  0  0  0  0
    3.8272   28.1674   28.9639 C   0  0  0  0  0  0
    4.1879   27.6649   27.6728 C   0  0  0  0  0  0
    5.3193   26.8074   27.5817 C   0  0  0  0  0  0
    6.0634   26.4798   28.7050 C   0  0  0  0  0  0
    5.6993   26.9630   29.9537 C   0  0  0  0  0  0
    4.5932   27.7935   30.0966 C   0  0  0  0  0  0
   12.9918   21.6549   26.0065 H   0  0  0  0  0  0
   12.1903   22.5628   24.7405 H   0  0  0  0  0  0
   11.2548   21.7569   26.0137 H   0  0  0  0  0  0
   11.6913   18.4143   23.0746 H   0  0  0  0  0  0
    9.6376   17.8230   21.8373 H   0  0  0  0  0  0
    7.6969   19.3299   21.8717 H   0  0  0  0  0  0
    9.8946   22.0838   24.3171 H   0  0  0  0  0  0
    8.6519   23.2901   23.8052 H   0  0  0  0  0  0
    5.9999   23.4090   24.7884 H   0  0  0  0  0  0
    7.1877   24.6640   24.7184 H   0  0  0  0  0  0
    6.5760   25.0747   22.2604 H   0  0  0  0  0  0
    5.2992   23.8990   22.4219 H   0  0  0  0  0  0
    6.3830   26.6690   24.6981 H   0  0  0  0  0  0
    6.2771   27.2812   23.0775 H   0  0  0  0  0  0
    4.2429   28.4853   23.4867 H   0  0  0  0  0  0
    5.2733   28.7957   24.8586 H   0  0  0  0  0  0
    2.4015   26.6209   23.8840 H   0  0  0  0  0  0
    2.2717   25.9684   25.4918 H   0  0  0  0  0  0
    3.4661   24.3565   24.0398 H   0  0  0  0  0  0
    4.4861   24.9037   25.3495 H   0  0  0  0  0  0
    1.6952   29.1575   25.8617 H   0  0  0  0  0  0
    1.1018   30.0165   28.0798 H   0  0  0  0  0  0
    2.4357   29.4041   30.0640 H   0  0  0  0  0  0
    5.6103   26.4004   26.6299 H   0  0  0  0  0  0
    6.9234   25.8343   28.6073 H   0  0  0  0  0  0
    6.2850   26.6957   30.8207 H   0  0  0  0  0  0
    4.3174   28.1640   31.0739 H   0  0  0  0  0  0
  1  2  1  0  0  0
  1 30  1  0  0  0
  1 31  1  0  0  0
  1 32  1  0  0  0
  2  3  1  0  0  0
  3  8  1  0  0  0
  3  4  2  0  0  0
  4  5  1  0  0  0
  4 33  1  0  0  0
  5  6  2  0  0  0
  5 34  1  0  0  0
  6  7  1  0  0  0
  6 35  1  0  0  0
  7  8  2  0  0  0
  7  9  1  0  0  0
  8 36  1  0  0  0
  9 10  2  0  0  0
  9 11  1  0  0  0
 11 12  1  0  0  0
 11 37  1  0  0  0
 12 13  1  0  0  0
 12 38  1  0  0  0
 12 39  1  0  0  0
 13 14  1  0  0  0
 13 40  1  0  0  0
 13 41  1  0  0  0
 14 19  1  0  0  0
 14 15  1  0  0  0
 15 16  1  0  0  0
 15 42  1  0  0  0
 15 43  1  0  0  0
 16 17  1  0  0  0
 16 44  1  0  0  0
 16 45  1  0  0  0
 17 18  1  0  0  0
 17 20  1  0  0  0
 18 19  1  0  0  0
 18 46  1  0  0  0
 18 47  1  0  0  0
 19 48  1  0  0  0
 19 49  1  0  0  0
 20 25  1  0  0  0
 20 21  2  0  0  0
 21 22  1  0  0  0
 21 50  1  0  0  0
 22 23  2  0  0  0
 22 51  1  0  0  0
 23 24  1  0  0  0
 23 52  1  0  0  0
 24 29  2  0  0  0
 24 25  1  0  0  0
 25 26  2  0  0  0
 26 27  1  0  0  0
 26 53  1  0  0  0
 27 28  2  0  0  0
 27 54  1  0  0  0
 28 29  1  0  0  0
 28 55  1  0  0  0
 29 56  1  0  0  0
M  END
> <s_m_entry_id>
8300

> <s_m_entry_name>
ligand_docking-pose.55

> <s_m_Source_Path>
/home/csk/Desktop/cluster/DUD-E-result/drd3

> <s_m_Source_File>
ligand_docking-pose.sdf

> <i_m_Source_File_Index>
55

> <i_lp_mmshare_version>
53161

> <i_f3d_flags>
0

> <r_lp_tautomer_probability>
1

> <s_lp_Force_Field>
OPLS_2005

> <r_lp_Energy>
55.899571

> <b_lp_Chiralities_Consistent>
1

> <s_lp_Variant>
255806-1

> <s_i_glide_gridfile>
glide-grid_3pbl

> <i_i_glide_lignum>
1941

> <i_i_glide_rotatable_bonds>
7

> <r_i_docking_score>
-6.85753125022489

> <r_i_glide_ligand_efficiency>
-0.236466594835341

> <r_i_glide_ligand_efficiency_sa>
-0.726500297209809

> <r_i_glide_ligand_efficiency_ln>
-1.57020076431281

> <r_i_glide_gscore>
-6.85753125022489

> <r_i_glide_lipo>
-2.92372172347894

> <r_i_glide_hbond>
0

> <r_i_glide_metal>
0

> <r_i_glide_rewards>
-1.54008193451677

> <r_i_glide_evdw>
-38.6528434753418

> <r_i_glide_ecoul>
-7.36106300354004

> <r_i_glide_erotb>
0.771040230715126

> <r_i_glide_esite>
-0.12796619864622

> <r_i_glide_emodel>
-61.6276290685163

> <r_i_glide_energy>
-46.0139064788818

> <r_i_glide_einternal>
10.1320915222168

> <i_i_glide_confnum>
57

> <i_i_glide_posenum>
14

> <r_i_glide_eff_state_penalty>
0

> <s_user_duplicate_titles>
255806

> <s_m_subgroup_title>
dock_pv

> <s_m_subgroupid>
dock_pv1

> <b_m_subgroup_collapsed>
0

$$$$
112386
                    3D
 Schrodinger Suite 2021-1.
 62 65  0  0  1  0            999 V2000
    5.8694   26.7854   23.1216 C   0  0  0  0  0  0
    7.3351   26.3144   23.0987 C   0  0  0  0  0  0
    7.5162   24.7805   22.9558 C   0  0  0  0  0  0
    6.9928   23.9819   24.0859 N   0  0  2  0  0  0
    7.4983   24.3720   25.4217 C   0  0  0  0  0  0
    6.4908   24.0446   26.5452 C   0  0  0  0  0  0
    5.0834   24.6580   26.3492 C   0  0  0  0  0  0
    4.9339   26.1782   26.4510 C   0  0  0  0  0  0
    5.9580   26.9799   26.9751 C   0  0  0  0  0  0
    5.7918   28.3547   27.0838 C   0  0  0  0  0  0
    4.5974   28.9432   26.6926 C   0  0  0  0  0  0
    3.5729   28.1631   26.1662 C   0  0  0  0  0  0
    3.7299   26.7742   26.0285 C   0  0  0  0  0  0
    2.7570   25.9530   25.4835 O   0  0  0  0  0  0
    1.5162   26.5107   25.0667 C   0  0  0  0  0  0
    7.1169   22.5246   23.8838 C   0  0  1  0  0  0
    6.2418   21.9590   22.7759 C   0  0  0  0  0  0
    6.2909   20.4205   22.6774 C   0  0  0  0  0  0
    7.6613   19.7970   22.6840 C   0  0  0  0  0  0
    7.8219   18.5863   22.0093 C   0  0  0  0  0  0
    9.0565   18.0064   21.7995 C   0  0  0  0  0  0
   10.1419   18.6572   22.3650 C   0  0  0  0  0  0
   10.0218   19.8537   23.1550 C   0  0  0  0  0  0
    8.7477   20.4860   23.2516 C   0  0  0  0  0  0
    8.5499   21.8801   23.8961 C   0  0  0  0  0  0
   11.3553   20.0978   23.6737 C   0  0  0  0  0  0
   12.1919   19.1631   23.0829 C   0  0  0  0  0  0
   11.4693   18.3302   22.2839 N   0  0  0  0  0  0
   11.7917   21.0693   24.6641 C   0  0  0  0  0  0
   11.0651   21.6429   25.4666 O   0  0  0  0  0  0
   11.8770   17.5654   21.7621 H   0  0  0  0  0  0
    5.7807   27.7634   23.5921 H   0  0  0  0  0  0
    5.4561   26.8705   22.1181 H   0  0  0  0  0  0
    5.2329   26.1000   23.6794 H   0  0  0  0  0  0
    7.8691   26.7018   23.9634 H   0  0  0  0  0  0
    7.8532   26.8101   22.2838 H   0  0  0  0  0  0
    8.5446   24.5353   22.6847 H   0  0  0  0  0  0
    6.9275   24.5015   22.0830 H   0  0  0  0  0  0
    7.7115   25.4325   25.4886 H   0  0  0  0  0  0
    8.4476   23.8821   25.6406 H   0  0  0  0  0  0
    6.9093   24.3797   27.4930 H   0  0  0  0  0  0
    6.4163   22.9670   26.6831 H   0  0  0  0  0  0
    4.4050   24.2338   27.0842 H   0  0  0  0  0  0
    4.7033   24.3312   25.3801 H   0  0  0  0  0  0
    6.8928   26.5581   27.3086 H   0  0  0  0  0  0
    6.5862   28.9636   27.4829 H   0  0  0  0  0  0
    4.4675   30.0063   26.7931 H   0  0  0  0  0  0
    2.6631   28.6584   25.8656 H   0  0  0  0  0  0
    0.8850   25.7203   24.6616 H   0  0  0  0  0  0
    0.9814   26.9633   25.9026 H   0  0  0  0  0  0
    1.6558   27.2579   24.2840 H   0  0  0  0  0  0
    6.6315   22.1630   24.7777 H   0  0  0  0  0  0
    5.2120   22.2845   22.9147 H   0  0  0  0  0  0
    6.5909   22.3932   21.8567 H   0  0  0  0  0  0
    5.7919   19.9293   23.4838 H   0  0  0  0  0  0
    5.7920   20.1184   21.7621 H   0  0  0  0  0  0
    6.9569   18.1044   21.5768 H   0  0  0  0  0  0
    9.1658   17.1018   21.2183 H   0  0  0  0  0  0
    9.2883   22.5623   23.4814 H   0  0  0  0  0  0
    8.7730   21.7328   24.9496 H   0  0  0  0  0  0
   13.2478   18.9627   23.1853 H   0  0  0  0  0  0
   12.8644   21.2434   24.6683 H   0  0  0  0  0  0
  1  2  1  0  0  0
  1 32  1  0  0  0
  1 33  1  0  0  0
  1 34  1  0  0  0
  2  3  1  0  0  0
  2 35  1  0  0  0
  2 36  1  0  0  0
  3  4  1  0  0  0
  3 37  1  0  0  0
  3 38  1  0  0  0
  4  5  1  0  0  0
  4 16  1  0  0  0
  5  6  1  0  0  0
  5 39  1  0  0  0
  5 40  1  0  0  0
  6  7  1  0  0  0
  6 41  1  0  0  0
  6 42  1  0  0  0
  7  8  1  0  0  0
  7 43  1  0  0  0
  7 44  1  0  0  0
  8 13  1  0  0  0
  8  9  2  0  0  0
  9 10  1  0  0  0
  9 45  1  0  0  0
 10 11  2  0  0  0
 10 46  1  0  0  0
 11 12  1  0  0  0
 11 47  1  0  0  0
 12 13  2  0  0  0
 12 48  1  0  0  0
 13 14  1  0  0  0
 14 15  1  0  0  0
 15 49  1  0  0  0
 15 50  1  0  0  0
 15 51  1  0  0  0
 16 25  1  0  0  0
 16 17  1  0  0  0
 16 52  1  0  0  0
 17 18  1  0  0  0
 17 53  1  0  0  0
 17 54  1  0  0  0
 18 19  1  0  0  0
 18 55  1  0  0  0
 18 56  1  0  0  0
 19 24  2  0  0  0
 19 20  1  0  0  0
 20 21  2  0  0  0
 20 57  1  0  0  0
 21 22  1  0  0  0
 21 58  1  0  0  0
 22 28  1  0  0  0
 22 23  2  0  0  0
 23 24  1  0  0  0
 23 26  1  0  0  0
 24 25  1  0  0  0
 25 59  1  0  0  0
 25 60  1  0  0  0
 26 27  2  0  0  0
 26 29  1  0  0  0
 27 28  1  0  0  0
 27 61  1  0  0  0
 28 31  1  0  0  0
 29 30  2  0  0  0
 29 62  1  0  0  0
M  END
> <s_m_entry_id>
8301

> <s_m_entry_name>
ligand_docking-pose.56

> <s_m_Source_Path>
/home/csk/Desktop/cluster/DUD-E-result/drd3

> <s_m_Source_File>
ligand_docking-pose.sdf

> <i_m_Source_File_Index>
56

> <i_lp_mmshare_version>
53161

> <i_f3d_flags>
0

> <r_lp_tautomer_probability>
1

> <s_lp_Force_Field>
OPLS_2005

> <r_lp_Energy>
32.033642

> <b_lp_Chiralities_Consistent>
1

> <s_lp_Variant>
112386-2

> <s_i_glide_gridfile>
glide-grid_3pbl

> <i_i_glide_lignum>
2022

> <i_i_glide_rotatable_bonds>
9

> <r_i_docking_score>
-6.85518804814008

> <r_i_glide_ligand_efficiency>
-0.228506268271336

> <r_i_glide_ligand_efficiency_sa>
-0.710022103781933

> <r_i_glide_ligand_efficiency_ln>
-1.55757341779367

> <r_i_glide_gscore>
-6.85518804814008

> <r_i_glide_lipo>
-4.03729294198205

> <r_i_glide_hbond>
0

> <r_i_glide_metal>
0

> <r_i_glide_rewards>
-1.58451116425434

> <r_i_glide_evdw>
-37.4638252258301

> <r_i_glide_ecoul>
-0.535934388637543

> <r_i_glide_erotb>
0.720197477683442

> <r_i_glide_esite>
0

> <r_i_glide_emodel>
-37.3600299943137

> <r_i_glide_energy>
-37.9997596144676

> <r_i_glide_einternal>
9.29621887207031

> <i_i_glide_confnum>
100

> <i_i_glide_posenum>
237

> <r_i_glide_eff_state_penalty>
0

> <s_user_duplicate_titles>
112386

> <s_m_subgroup_title>
dock_pv

> <s_m_subgroupid>
dock_pv1

> <b_m_subgroup_collapsed>
0

$$$$
245433
                    3D
 Schrodinger Suite 2021-1.
 46 48  0  0  1  0            999 V2000
    9.7604   19.0511   22.2849 C   0  0  0  0  0  0
    9.7142   17.7231   21.8840 C   0  0  0  0  0  0
    8.5036   17.0383   21.8754 C   0  0  0  0  0  0
    7.3377   17.6720   22.2791 C   0  0  0  0  0  0
    7.3769   19.0014   22.6838 C   0  0  0  0  0  0
    8.5917   19.7132   22.6842 C   0  0  0  0  0  0
    8.6995   21.1579   23.0840 C   0  0  0  0  0  0
    9.7686   21.7629   23.0527 O   0  0  0  0  0  0
    7.4208   21.9211   23.4838 C   0  0  0  0  0  0
    7.2559   23.3247   22.8716 C   0  0  0  0  0  0
    5.7881   23.8039   22.9853 C   0  0  0  0  0  0
    5.6619   25.0065   23.8016 N   0  0  1  0  0  0
    6.0737   26.2253   23.1261 C   0  0  0  0  0  0
    5.4463   27.3554   23.9414 C   0  0  0  0  0  0
    4.2645   26.7409   24.7178 C   0  0  1  0  0  0
    4.3052   25.2649   24.2736 C   0  0  0  0  0  0
    4.3980   26.8926   26.2495 C   0  0  0  0  0  0
    5.5669   26.4251   26.8685 C   0  0  0  0  0  0
    5.7487   26.5637   28.2397 C   0  0  0  0  0  0
    4.7578   27.1693   29.0036 C   0  0  0  0  0  0
    3.5836   27.6259   28.4144 C   0  0  0  0  0  0
    3.4015   27.4866   27.0423 C   0  0  0  0  0  0
    4.9920   27.3637   30.6935 Cl  0  0  0  0  0  0
    3.0611   27.3617   24.2847 O   0  0  0  0  0  0
    8.4592   15.7467   21.4837 F   0  0  0  0  0  0
   10.7179   19.5542   22.2836 H   0  0  0  0  0  0
   10.6166   17.2200   21.5686 H   0  0  0  0  0  0
    6.4064   17.1259   22.2823 H   0  0  0  0  0  0
    6.4405   19.4302   23.0021 H   0  0  0  0  0  0
    6.5443   21.3581   23.1858 H   0  0  0  0  0  0
    7.3952   22.0204   24.5681 H   0  0  0  0  0  0
    7.9306   24.0045   23.3928 H   0  0  0  0  0  0
    7.5738   23.3588   21.8315 H   0  0  0  0  0  0
    5.3829   23.9990   21.9925 H   0  0  0  0  0  0
    5.1652   23.0178   23.4173 H   0  0  0  0  0  0
    7.1637   26.2810   23.1304 H   0  0  0  0  0  0
    5.7874   26.2580   22.0739 H   0  0  0  0  0  0
    6.1915   27.7630   24.6181 H   0  0  0  0  0  0
    5.1301   28.1630   23.2842 H   0  0  0  0  0  0
    3.5866   25.0670   23.4838 H   0  0  0  0  0  0
    4.0336   24.5632   25.0646 H   0  0  0  0  0  0
    6.3467   25.9574   26.2837 H   0  0  0  0  0  0
    6.6584   26.2108   28.7024 H   0  0  0  0  0  0
    2.8184   28.0949   29.0182 H   0  0  0  0  0  0
    2.4846   27.8549   26.6062 H   0  0  0  0  0  0
    3.1494   27.6119   23.3562 H   0  0  0  0  0  0
  1  6  1  0  0  0
  1  2  2  0  0  0
  1 26  1  0  0  0
  2  3  1  0  0  0
  2 27  1  0  0  0
  3  4  2  0  0  0
  3 25  1  0  0  0
  4  5  1  0  0  0
  4 28  1  0  0  0
  5  6  2  0  0  0
  5 29  1  0  0  0
  6  7  1  0  0  0
  7  8  2  0  0  0
  7  9  1  0  0  0
  9 10  1  0  0  0
  9 30  1  0  0  0
  9 31  1  0  0  0
 10 11  1  0  0  0
 10 32  1  0  0  0
 10 33  1  0  0  0
 11 12  1  0  0  0
 11 34  1  0  0  0
 11 35  1  0  0  0
 12 16  1  0  0  0
 12 13  1  0  0  0
 13 14  1  0  0  0
 13 36  1  0  0  0
 13 37  1  0  0  0
 14 15  1  0  0  0
 14 38  1  0  0  0
 14 39  1  0  0  0
 15 16  1  0  0  0
 15 17  1  0  0  0
 15 24  1  0  0  0
 16 40  1  0  0  0
 16 41  1  0  0  0
 17 22  1  0  0  0
 17 18  2  0  0  0
 18 19  1  0  0  0
 18 42  1  0  0  0
 19 20  2  0  0  0
 19 43  1  0  0  0
 20 21  1  0  0  0
 20 23  1  0  0  0
 21 22  2  0  0  0
 21 44  1  0  0  0
 22 45  1  0  0  0
 24 46  1  0  0  0
M  END
> <s_m_entry_id>
8302

> <s_m_entry_name>
ligand_docking-pose.57

> <s_m_Source_Path>
/home/csk/Desktop/cluster/DUD-E-result/drd3

> <s_m_Source_File>
ligand_docking-pose.sdf

> <i_m_Source_File_Index>
57

> <i_lp_mmshare_version>
53161

> <i_f3d_flags>
0

> <r_lp_tautomer_probability>
0.99990000499975

> <s_lp_Force_Field>
OPLS_2005

> <r_lp_Energy>
57.9855

> <b_lp_Chiralities_Consistent>
1

> <s_lp_Variant>
245433-1

> <s_i_glide_gridfile>
glide-grid_3pbl

> <i_i_glide_lignum>
2409

> <i_i_glide_rotatable_bonds>
7

> <r_i_docking_score>
-6.83482341967229

> <r_i_glide_ligand_efficiency>
-0.273392936786891

> <r_i_glide_ligand_efficiency_sa>
-0.79940579580925

> <r_i_glide_ligand_efficiency_ln>
-1.62005797359201

> <r_i_glide_gscore>
-6.83482341967229

> <r_i_glide_lipo>
-3.07249069815609

> <r_i_glide_hbond>
-0.32

> <r_i_glide_metal>
0

> <r_i_glide_rewards>
-2.0025440685245

> <r_i_glide_evdw>
-37.2847785949707

> <r_i_glide_ecoul>
-1.99665570259094

> <r_i_glide_erotb>
0.733050099537365

> <r_i_glide_esite>
-0.00910146739188721

> <r_i_glide_emodel>
-50.6739524462478

> <r_i_glide_energy>
-39.2814342975616

> <r_i_glide_einternal>
6.45293474197388

> <i_i_glide_confnum>
99

> <i_i_glide_posenum>
318

> <r_i_glide_eff_state_penalty>
0

> <s_user_duplicate_titles>
245433

> <s_m_subgroup_title>
dock_pv

> <s_m_subgroupid>
dock_pv1

> <b_m_subgroup_collapsed>
0

$$$$
554920
                    3D
 Schrodinger Suite 2021-1.
 45 48  0  0  1  0            999 V2000
    1.3624   28.9565   25.8716 C   0  0  0  0  0  0
    1.6228   29.1716   27.2281 C   0  0  0  0  0  0
    2.6450   28.4649   27.8688 C   0  0  0  0  0  0
    3.4050   27.5489   27.1388 C   0  0  0  0  0  0
    3.1396   27.3299   25.7924 C   0  0  0  0  0  0
    2.1147   28.0268   25.1492 C   0  0  0  0  0  0
    4.0743   26.2499   25.3035 C   0  0  0  0  0  0
    5.1524   26.2299   26.2922 N   0  0  0  0  0  0
    4.5241   26.6239   27.5508 C   0  0  0  0  0  0
    5.8216   24.9320   26.4068 C   0  0  0  0  0  0
    6.5930   24.5848   25.1120 C   0  0  0  0  0  0
    7.3919   23.3584   25.2061 N   0  0  0  0  0  0
    8.3076   23.1646   26.3069 C   0  0  0  0  0  0
    9.2530   22.1393   25.7645 C   0  0  0  0  0  0
    8.7189   21.8082   24.4464 N   0  0  0  0  0  0
    7.6177   22.5628   24.1296 C   0  0  0  0  0  0
    6.9480   22.5298   23.0923 O   0  0  0  0  0  0
    9.3359   20.8287   23.6248 C   0  0  0  0  0  0
   10.7086   20.5657   23.7626 C   0  0  0  0  0  0
   11.3056   19.5019   23.0849 C   0  0  0  0  0  0
   10.5354   18.6718   22.2729 C   0  0  0  0  0  0
    9.1695   18.9207   22.1191 C   0  0  0  0  0  0
    8.5823   20.0030   22.7774 C   0  0  0  0  0  0
    8.3377   18.0380   21.3159 C   0  0  0  0  0  0
    7.6687   17.3372   20.6842 N   0  0  0  0  0  0
    0.5694   29.5051   25.3805 H   0  0  0  0  0  0
    1.0330   29.8866   27.7852 H   0  0  0  0  0  0
    2.8322   28.6338   28.9201 H   0  0  0  0  0  0
    1.8989   27.8567   24.1042 H   0  0  0  0  0  0
    4.4975   26.4693   24.3227 H   0  0  0  0  0  0
    3.5667   25.2845   25.2362 H   0  0  0  0  0  0
    4.1372   25.7627   28.0996 H   0  0  0  0  0  0
    5.2716   27.1105   28.1804 H   0  0  0  0  0  0
    5.0996   24.1531   26.6631 H   0  0  0  0  0  0
    6.5293   24.9997   27.2357 H   0  0  0  0  0  0
    7.2769   25.4000   24.8760 H   0  0  0  0  0  0
    5.8979   24.5179   24.2755 H   0  0  0  0  0  0
    7.7908   22.8022   27.1931 H   0  0  0  0  0  0
    8.8266   24.0916   26.5477 H   0  0  0  0  0  0
    9.2730   21.2567   26.4037 H   0  0  0  0  0  0
   10.2560   22.5636   25.6889 H   0  0  0  0  0  0
   11.3266   21.1750   24.4060 H   0  0  0  0  0  0
   12.3624   19.3131   23.2038 H   0  0  0  0  0  0
   11.0049   17.8387   21.7672 H   0  0  0  0  0  0
    7.5158   20.1572   22.6856 H   0  0  0  0  0  0
  1  6  1  0  0  0
  1  2  2  0  0  0
  1 26  1  0  0  0
  2  3  1  0  0  0
  2 27  1  0  0  0
  3  4  2  0  0  0
  3 28  1  0  0  0
  4  9  1  0  0  0
  4  5  1  0  0  0
  5  6  2  0  0  0
  5  7  1  0  0  0
  6 29  1  0  0  0
  7  8  1  0  0  0
  7 30  1  0  0  0
  7 31  1  0  0  0
  8  9  1  0  0  0
  8 10  1  0  0  0
  9 32  1  0  0  0
  9 33  1  0  0  0
 10 11  1  0  0  0
 10 34  1  0  0  0
 10 35  1  0  0  0
 11 12  1  0  0  0
 11 36  1  0  0  0
 11 37  1  0  0  0
 12 16  1  0  0  0
 12 13  1  0  0  0
 13 14  1  0  0  0
 13 38  1  0  0  0
 13 39  1  0  0  0
 14 15  1  0  0  0
 14 40  1  0  0  0
 14 41  1  0  0  0
 15 16  1  0  0  0
 15 18  1  0  0  0
 16 17  2  0  0  0
 18 23  1  0  0  0
 18 19  2  0  0  0
 19 20  1  0  0  0
 19 42  1  0  0  0
 20 21  2  0  0  0
 20 43  1  0  0  0
 21 22  1  0  0  0
 21 44  1  0  0  0
 22 23  2  0  0  0
 22 24  1  0  0  0
 23 45  1  0  0  0
 24 25  3  0  0  0
M  END
> <s_m_entry_id>
8303

> <s_m_entry_name>
ligand_docking-pose.58

> <s_m_Source_Path>
/home/csk/Desktop/cluster/DUD-E-result/drd3

> <s_m_Source_File>
ligand_docking-pose.sdf

> <i_m_Source_File_Index>
58

> <i_lp_mmshare_version>
53161

> <i_f3d_flags>
0

> <r_lp_tautomer_probability>
1

> <s_lp_Force_Field>
OPLS_2005

> <r_lp_Energy>
77.433783

> <b_lp_Chiralities_Consistent>
1

> <s_lp_Variant>
554920-1

> <s_i_glide_gridfile>
glide-grid_3pbl

> <i_i_glide_lignum>
596

> <i_i_glide_rotatable_bonds>
4

> <r_i_docking_score>
-6.81191441670014

> <r_i_glide_ligand_efficiency>
-0.272476576668006

> <r_i_glide_ligand_efficiency_sa>
-0.796726342569912

> <r_i_glide_ligand_efficiency_ln>
-1.61462785336019

> <r_i_glide_gscore>
-6.81191441670014

> <r_i_glide_lipo>
-2.61425242917428

> <r_i_glide_hbond>
0

> <r_i_glide_metal>
0

> <r_i_glide_rewards>
-2.22176235434352

> <r_i_glide_evdw>
-38.8360023498535

> <r_i_glide_ecoul>
-3.38408398628235

> <r_i_glide_erotb>
0.68183876094695

> <r_i_glide_esite>
-0.208325678694266

> <r_i_glide_emodel>
-57.2873189611523

> <r_i_glide_energy>
-42.2200863361359

> <r_i_glide_einternal>
6.26682090759277

> <i_i_glide_confnum>
68

> <i_i_glide_posenum>
179

> <r_i_glide_eff_state_penalty>
0

> <s_user_duplicate_titles>
554920

> <s_m_subgroup_title>
dock_pv

> <s_m_subgroupid>
dock_pv1

> <b_m_subgroup_collapsed>
0

$$$$
616512
                    3D
 Schrodinger Suite 2021-1.
 49 51  0  0  1  0            999 V2000
   11.2396   19.8136   23.4032 C   0  0  0  0  0  0
   10.5518   18.9629   22.5388 C   0  0  0  0  0  0
    9.1842   19.1447   22.3082 C   0  0  0  0  0  0
    8.5230   20.1966   22.9576 C   0  0  0  0  0  0
    9.1985   21.0689   23.8300 C   0  0  0  0  0  0
   10.5694   20.8558   24.0438 C   0  0  0  0  0  0
    8.5196   22.0849   24.5629 N   0  0  0  0  0  0
    8.9572   22.4971   25.8968 C   0  0  0  0  0  0
    8.0081   23.5913   26.2803 C   0  0  0  0  0  0
    7.0390   23.5240   25.2154 N   0  0  0  0  0  0
    7.3923   22.7529   24.1595 C   0  0  0  0  0  0
    6.7951   22.6637   23.0837 O   0  0  0  0  0  0
    5.8020   24.3084   25.2645 C   0  0  0  0  0  0
    6.0688   25.8290   25.2574 C   0  0  0  0  0  0
    4.8502   26.6515   25.3054 N   0  0  0  0  0  0
    5.1793   28.0698   25.1525 C   0  0  0  0  0  0
    5.7642   28.8227   26.3706 C   0  0  0  0  0  0
    4.7309   29.1250   27.4736 C   0  0  0  0  0  0
    4.3638   27.9592   28.4155 C   0  0  0  0  0  0
    4.4154   26.5254   27.8446 C   0  0  0  0  0  0
    3.9156   26.3359   26.3939 C   0  0  0  0  0  0
    8.4216   18.1894   21.3853 C   0  0  0  0  0  0
    8.8653   16.9392   21.5207 F   0  0  0  0  0  0
    7.1124   18.1877   21.6447 F   0  0  0  0  0  0
    8.5906   18.5630   20.1181 F   0  0  0  0  0  0
   12.2947   19.6668   23.5787 H   0  0  0  0  0  0
   11.0835   18.1596   22.0473 H   0  0  0  0  0  0
    7.4624   20.3140   22.7914 H   0  0  0  0  0  0
   11.1334   21.5006   24.7024 H   0  0  0  0  0  0
    8.8906   21.6627   26.5957 H   0  0  0  0  0  0
    9.9754   22.8874   25.8845 H   0  0  0  0  0  0
    8.5066   24.5623   26.2905 H   0  0  0  0  0  0
    7.5436   23.4127   27.2495 H   0  0  0  0  0  0
    5.2765   24.0260   26.1761 H   0  0  0  0  0  0
    5.1416   24.0513   24.4346 H   0  0  0  0  0  0
    6.6101   26.0707   24.3401 H   0  0  0  0  0  0
    6.7253   26.0915   26.0874 H   0  0  0  0  0  0
    5.7918   28.2220   24.2649 H   0  0  0  0  0  0
    4.2285   28.5556   24.9273 H   0  0  0  0  0  0
    6.1921   29.7623   26.0211 H   0  0  0  0  0  0
    6.5917   28.2620   26.8041 H   0  0  0  0  0  0
    3.8207   29.5018   27.0055 H   0  0  0  0  0  0
    5.0923   29.9536   28.0855 H   0  0  0  0  0  0
    5.0129   27.9971   29.2917 H   0  0  0  0  0  0
    3.3621   28.1455   28.8068 H   0  0  0  0  0  0
    5.4520   26.1962   27.9093 H   0  0  0  0  0  0
    3.8522   25.8654   28.5056 H   0  0  0  0  0  0
    3.5420   25.3222   26.2713 H   0  0  0  0  0  0
    3.0549   26.9928   26.2617 H   0  0  0  0  0  0
  1  6  1  0  0  0
  1  2  2  0  0  0
  1 26  1  0  0  0
  2  3  1  0  0  0
  2 27  1  0  0  0
  3  4  2  0  0  0
  3 22  1  0  0  0
  4  5  1  0  0  0
  4 28  1  0  0  0
  5  6  2  0  0  0
  5  7  1  0  0  0
  6 29  1  0  0  0
  7 11  1  0  0  0
  7  8  1  0  0  0
  8  9  1  0  0  0
  8 30  1  0  0  0
  8 31  1  0  0  0
  9 10  1  0  0  0
  9 32  1  0  0  0
  9 33  1  0  0  0
 10 11  1  0  0  0
 10 13  1  0  0  0
 11 12  2  0  0  0
 13 14  1  0  0  0
 13 34  1  0  0  0
 13 35  1  0  0  0
 14 15  1  0  0  0
 14 36  1  0  0  0
 14 37  1  0  0  0
 15 21  1  0  0  0
 15 16  1  0  0  0
 16 17  1  0  0  0
 16 38  1  0  0  0
 16 39  1  0  0  0
 17 18  1  0  0  0
 17 40  1  0  0  0
 17 41  1  0  0  0
 18 19  1  0  0  0
 18 42  1  0  0  0
 18 43  1  0  0  0
 19 20  1  0  0  0
 19 44  1  0  0  0
 19 45  1  0  0  0
 20 21  1  0  0  0
 20 46  1  0  0  0
 20 47  1  0  0  0
 21 48  1  0  0  0
 21 49  1  0  0  0
 22 23  1  0  0  0
 22 24  1  0  0  0
 22 25  1  0  0  0
M  END
> <s_m_entry_id>
8304

> <s_m_entry_name>
ligand_docking-pose.59

> <s_m_Source_Path>
/home/csk/Desktop/cluster/DUD-E-result/drd3

> <s_m_Source_File>
ligand_docking-pose.sdf

> <i_m_Source_File_Index>
59

> <i_lp_mmshare_version>
53161

> <i_f3d_flags>
0

> <r_lp_tautomer_probability>
1

> <s_lp_Force_Field>
OPLS_2005

> <r_lp_Energy>
63.525464

> <b_lp_Chiralities_Consistent>
1

> <s_lp_Variant>
616512-1

> <s_i_glide_gridfile>
glide-grid_3pbl

> <i_i_glide_lignum>
337

> <i_i_glide_rotatable_bonds>
5

> <r_i_docking_score>
-6.80763606532089

> <r_i_glide_ligand_efficiency>
-0.272305442612836

> <r_i_glide_ligand_efficiency_sa>
-0.796225943557519

> <r_i_glide_ligand_efficiency_ln>
-1.61361375587146

> <r_i_glide_gscore>
-6.80763606532089

> <r_i_glide_lipo>
-2.65314605650465

> <r_i_glide_hbond>
0

> <r_i_glide_metal>
0

> <r_i_glide_rewards>
-2.49910215451222

> <r_i_glide_evdw>
-34.5245780944824

> <r_i_glide_ecoul>
-2.37015390396118

> <r_i_glide_erotb>
0.605508525369189

> <r_i_glide_esite>
-0.179144389354909

> <r_i_glide_emodel>
-49.480479161846

> <r_i_glide_energy>
-36.8947319984436

> <r_i_glide_einternal>
4.06682682037354

> <i_i_glide_confnum>
3

> <i_i_glide_posenum>
168

> <r_i_glide_eff_state_penalty>
0

> <s_user_duplicate_titles>
616512

> <s_m_subgroup_title>
dock_pv

> <s_m_subgroupid>
dock_pv1

> <b_m_subgroup_collapsed>
0

$$$$
274381
                    3D
 Schrodinger Suite 2021-1.
 55 59  0  0  1  0            999 V2000
    7.1629   17.6253   21.2609 C   0  0  0  0  0  0
    8.0813   18.5573   22.0197 C   0  0  0  0  0  0
    7.8298   19.7592   22.6821 C   0  0  0  0  0  0
    9.0979   20.1755   23.2299 C   0  0  0  0  0  0
    9.5139   21.2496   24.0345 C   0  0  0  0  0  0
   10.8570   21.3631   24.3701 C   0  0  0  0  0  0
   11.7922   20.4588   23.8988 C   0  0  0  0  0  0
   11.4362   19.3634   23.1162 C   0  0  0  0  0  0
   10.0815   19.2326   22.8055 C   0  0  0  0  0  0
    9.4205   18.2718   22.0849 N   0  0  0  0  0  0
    6.4818   20.4784   22.6916 C   0  0  0  0  0  0
    6.5398   22.0340   22.6863 C   0  0  0  0  0  0
    5.8059   22.7197   23.8551 C   0  0  0  0  0  0
    5.7413   24.1755   23.6840 N   0  0  2  0  0  0
    7.0342   24.8106   24.0073 C   0  0  0  0  0  0
    6.9932   26.3577   24.0293 C   0  0  0  0  0  0
    5.8062   26.9402   24.8388 C   0  0  0  0  0  0
    4.5304   26.2732   24.2843 C   0  0  0  0  0  0
    4.5955   24.7368   24.4177 C   0  0  0  0  0  0
    5.9008   26.8136   26.3614 C   0  0  0  0  0  0
    5.0454   27.4329   27.3278 C   0  0  0  0  0  0
    3.9451   28.3086   27.3256 C   0  0  0  0  0  0
    3.3903   28.6906   28.5496 C   0  0  0  0  0  0
    3.9036   28.2143   29.7589 C   0  0  0  0  0  0
    4.9922   27.3368   29.7921 C   0  0  0  0  0  0
    5.5355   26.9639   28.5573 C   0  0  0  0  0  0
    6.6031   26.1508   28.3459 O   0  0  0  0  0  0
    6.8185   26.0821   26.9647 N   0  0  0  0  0  0
    2.3310   29.5318   28.5596 F   0  0  0  0  0  0
    9.8241   17.4690   21.6230 H   0  0  0  0  0  0
    6.4047   18.1792   20.7128 H   0  0  0  0  0  0
    7.6982   17.0183   20.5313 H   0  0  0  0  0  0
    6.6417   16.9459   21.9349 H   0  0  0  0  0  0
    8.8128   21.9849   24.4046 H   0  0  0  0  0  0
   11.1811   22.1932   24.9834 H   0  0  0  0  0  0
   12.8174   20.6281   24.1687 H   0  0  0  0  0  0
   12.1762   18.6594   22.7703 H   0  0  0  0  0  0
    5.9465   20.1684   21.7993 H   0  0  0  0  0  0
    5.8303   20.1077   23.4839 H   0  0  0  0  0  0
    7.5691   22.3842   22.6360 H   0  0  0  0  0  0
    6.0871   22.4116   21.7779 H   0  0  0  0  0  0
    4.8006   22.3118   23.8840 H   0  0  0  0  0  0
    6.2527   22.4560   24.8143 H   0  0  0  0  0  0
    7.3635   24.4538   24.9860 H   0  0  0  0  0  0
    7.7925   24.4753   23.3022 H   0  0  0  0  0  0
    7.9475   26.8004   24.3211 H   0  0  0  0  0  0
    6.8717   26.6293   22.9790 H   0  0  0  0  0  0
    5.7533   27.9998   24.5794 H   0  0  0  0  0  0
    4.4577   26.4754   23.2132 H   0  0  0  0  0  0
    3.6263   26.7032   24.7164 H   0  0  0  0  0  0
    3.6631   24.2879   24.0726 H   0  0  0  0  0  0
    4.6994   24.4594   25.4693 H   0  0  0  0  0  0
    3.5347   28.6881   26.4014 H   0  0  0  0  0  0
    3.4485   28.5405   30.6830 H   0  0  0  0  0  0
    5.4015   26.9781   30.7260 H   0  0  0  0  0  0
  1  2  1  0  0  0
  1 31  1  0  0  0
  1 32  1  0  0  0
  1 33  1  0  0  0
  2 10  1  0  0  0
  2  3  2  0  0  0
  3  4  1  0  0  0
  3 11  1  0  0  0
  4  9  2  0  0  0
  4  5  1  0  0  0
  5  6  2  0  0  0
  5 34  1  0  0  0
  6  7  1  0  0  0
  6 35  1  0  0  0
  7  8  2  0  0  0
  7 36  1  0  0  0
  8  9  1  0  0  0
  8 37  1  0  0  0
  9 10  1  0  0  0
 10 30  1  0  0  0
 11 12  1  0  0  0
 11 38  1  0  0  0
 11 39  1  0  0  0
 12 13  1  0  0  0
 12 40  1  0  0  0
 12 41  1  0  0  0
 13 14  1  0  0  0
 13 42  1  0  0  0
 13 43  1  0  0  0
 14 19  1  0  0  0
 14 15  1  0  0  0
 15 16  1  0  0  0
 15 44  1  0  0  0
 15 45  1  0  0  0
 16 17  1  0  0  0
 16 46  1  0  0  0
 16 47  1  0  0  0
 17 18  1  0  0  0
 17 20  1  0  0  0
 17 48  1  0  0  0
 18 19  1  0  0  0
 18 49  1  0  0  0
 18 50  1  0  0  0
 19 51  1  0  0  0
 19 52  1  0  0  0
 20 28  2  0  0  0
 20 21  1  0  0  0
 21 26  2  0  0  0
 21 22  1  0  0  0
 22 23  2  0  0  0
 22 53  1  0  0  0
 23 24  1  0  0  0
 23 29  1  0  0  0
 24 25  2  0  0  0
 24 54  1  0  0  0
 25 26  1  0  0  0
 25 55  1  0  0  0
 26 27  1  0  0  0
 27 28  1  0  0  0
M  END
> <s_m_entry_id>
8305

> <s_m_entry_name>
ligand_docking-pose.60

> <s_m_Source_Path>
/home/csk/Desktop/cluster/DUD-E-result/drd3

> <s_m_Source_File>
ligand_docking-pose.sdf

> <i_m_Source_File_Index>
60

> <i_lp_mmshare_version>
53161

> <i_f3d_flags>
0

> <r_lp_tautomer_probability>
1

> <s_lp_Force_Field>
OPLS_2005

> <r_lp_Energy>
28.140925

> <b_lp_Chiralities_Consistent>
1

> <s_lp_Variant>
274381-1

> <s_i_glide_gridfile>
glide-grid_3pbl

> <i_i_glide_lignum>
2382

> <i_i_glide_rotatable_bonds>
5

> <r_i_docking_score>
-6.80255098260766

> <r_i_glide_ligand_efficiency>
-0.234570723538195

> <r_i_glide_ligand_efficiency_sa>
-0.720675579930791

> <r_i_glide_ligand_efficiency_ln>
-1.55761167720775

> <r_i_glide_gscore>
-6.80255098260766

> <r_i_glide_lipo>
-3.52392404343592

> <r_i_glide_hbond>
0

> <r_i_glide_metal>
0

> <r_i_glide_rewards>
-1.48693903171636

> <r_i_glide_evdw>
-41.1246910095215

> <r_i_glide_ecoul>
-2.48086142539978

> <r_i_glide_erotb>
0.636675856830657

> <r_i_glide_esite>
0

> <r_i_glide_emodel>
-56.1820368871515

> <r_i_glide_energy>
-43.6055524349213

> <r_i_glide_einternal>
7.62969160079956

> <i_i_glide_confnum>
63

> <i_i_glide_posenum>
114

> <r_i_glide_eff_state_penalty>
0

> <s_user_duplicate_titles>
274381

> <s_m_subgroup_title>
dock_pv

> <s_m_subgroupid>
dock_pv1

> <b_m_subgroup_collapsed>
0

$$$$
