CHEMBL2039_lig2023
                    3D
 Schrodinger Suite 2021-1.
 37 40  0  0  1  0            999 V2000
   53.5155  153.5213   23.9778 C   0  0  0  0  0  0
   53.1903  152.2787   24.5137 C   0  0  0  0  0  0
   52.4560  152.2037   25.6954 C   0  0  0  0  0  0
   53.1634  154.6890   24.6500 C   0  0  0  0  0  0
   52.4543  154.6279   25.8566 C   0  0  0  0  0  0
   52.0668  153.3722   26.3436 C   0  0  0  0  0  0
   51.4185  153.2214   27.5426 O   0  0  0  0  0  0
   51.2560  154.3232   28.3084 C   0  0  0  0  0  0
   51.6120  155.5948   28.0109 C   0  0  0  0  0  0
   52.2676  155.8419   26.7142 C   0  0  0  0  0  0
   52.7170  156.9163   26.3526 O   0  0  0  0  0  0
   51.2560  156.6697   28.9040 C   0  0  0  0  0  0
   51.5681  157.9171   28.9040 N   0  0  0  0  0  0
   50.8811  158.8134   29.7736 C   0  0  0  0  0  0
   49.5184  158.6440   30.1040 C   0  0  0  0  0  0
   50.8680  160.7762   31.2458 C   0  0  0  0  0  0
   51.5101  159.9495   30.3306 C   0  0  0  0  0  0
   52.8243  160.2440   30.1040 O   0  0  0  0  0  0
   49.5370  160.5298   31.6283 C   0  0  0  0  0  0
   48.8322  159.4660   31.0110 C   0  0  0  0  0  0
   47.4753  159.2411   31.3422 C   0  0  0  0  0  0
   46.8559  160.0393   32.2960 C   0  0  0  0  0  0
   47.5627  161.0440   32.9479 C   0  0  0  0  0  0
   48.8902  161.2936   32.6195 C   0  0  0  0  0  0
   54.0792  153.5739   23.0579 H   0  0  0  0  0  0
   53.4866  151.3766   23.9994 H   0  0  0  0  0  0
   52.1833  151.2424   26.1040 H   0  0  0  0  0  0
   53.5040  155.6388   24.2623 H   0  0  0  0  0  0
   50.7626  154.0455   29.2300 H   0  0  0  0  0  0
   50.5792  156.2888   29.6671 H   0  0  0  0  0  0
   48.9595  157.8171   29.7040 H   0  0  0  0  0  0
   51.4051  161.5952   31.7040 H   0  0  0  0  0  0
   53.3151  159.4170   29.9816 H   0  0  0  0  0  0
   46.9279  158.4423   30.8627 H   0  0  0  0  0  0
   45.8199  159.8591   32.5431 H   0  0  0  0  0  0
   47.0733  161.6382   33.7045 H   0  0  0  0  0  0
   49.4559  162.0586   33.1213 H   0  0  0  0  0  0
  1  2  2  0  0  0
  1  4  1  0  0  0
  1 25  1  0  0  0
  2  3  1  0  0  0
  2 26  1  0  0  0
  3  6  2  0  0  0
  3 27  1  0  0  0
  4  5  2  0  0  0
  4 28  1  0  0  0
  5  6  1  0  0  0
  5 10  1  0  0  0
  6  7  1  0  0  0
  7  8  1  0  0  0
  8  9  2  0  0  0
  8 29  1  0  0  0
  9 10  1  0  0  0
  9 12  1  0  0  0
 10 11  2  0  0  0
 12 13  2  0  0  0
 12 30  1  0  0  0
 13 14  1  0  0  0
 14 15  2  0  0  0
 14 17  1  0  0  0
 15 20  1  0  0  0
 15 31  1  0  0  0
 16 19  1  0  0  0
 16 17  2  0  0  0
 16 32  1  0  0  0
 17 18  1  0  0  0
 18 33  1  0  0  0
 19 20  1  0  0  0
 19 24  2  0  0  0
 20 21  2  0  0  0
 21 22  1  0  0  0
 21 34  1  0  0  0
 22 23  2  0  0  0
 22 35  1  0  0  0
 23 24  1  0  0  0
 23 36  1  0  0  0
 24 37  1  0  0  0
M  END
> <s_m_entry_id>
9966

> <s_m_entry_name>
dock_pv.2

> <s_m_Source_Path>
/home/csk/Desktop/cluster/DUD-E-result/aofb

> <s_m_Source_File>
dock_pv.maegz

> <i_m_Source_File_Index>
2

> <chembl_id>
CHEMBL4100623

> <chembl_pref_name>
None

> <i_lp_mmshare_version>
53161

> <i_f3d_flags>
0

> <r_lp_tautomer_probability>
1

> <s_lp_Force_Field>
OPLS_2005

> <r_lp_Energy>
24.370967

> <b_lp_Chiralities_Consistent>
1

> <s_lp_Variant>
CHEMBL2039_lig2023-1

> <s_i_glide_gridfile>
glide-grid_1s3b

> <i_i_glide_lignum>
2358

> <i_i_glide_rotatable_bonds>
3

> <r_i_docking_score>
-9.40354248644484

> <r_i_glide_ligand_efficiency>
-0.391814270268535

> <r_i_glide_ligand_efficiency_sa>
-1.13018792467294

> <r_i_glide_ligand_efficiency_ln>
-2.25069921745401

> <r_i_glide_gscore>
-9.40354248644484

> <r_i_glide_lipo>
-4.90965090492768

> <r_i_glide_hbond>
-0.383835303606322

> <r_i_glide_metal>
0

> <r_i_glide_rewards>
-2.45715362170559

> <r_i_glide_evdw>
-25.3338985443115

> <r_i_glide_ecoul>
-5.06911373138428

> <r_i_glide_erotb>
0.374159330717977

> <r_i_glide_esite>
0

> <r_i_glide_emodel>
-33.5413487580075

> <r_i_glide_energy>
-30.4030122756958

> <r_i_glide_einternal>
4.93519401550293

> <i_i_glide_confnum>
3

> <i_i_glide_posenum>
52

> <r_i_glide_eff_state_penalty>
0

> <s_user_duplicate_titles>
CHEMBL2039_lig2023

> <s_m_subgroup_title>
dock_pv

> <s_m_subgroupid>
dock_pv

> <b_m_subgroup_collapsed>
1

$$$$
CHEMBL2039_lig2765
                    3D
 Schrodinger Suite 2021-1.
 39 41  0  0  1  0            999 V2000
   54.8571  152.2441   25.7045 N   0  0  0  0  0  0
   53.6474  151.6631   25.2455 C   0  0  2  0  0  0
   53.0636  152.3417   24.0574 C   0  0  0  0  0  0
   52.3641  152.4312   25.4078 C   0  0  2  0  0  0
   52.1298  153.7763   26.0970 C   0  0  0  0  0  0
   52.4584  154.9646   25.4444 C   0  0  0  0  0  0
   52.4518  156.1625   26.1382 C   0  0  0  0  0  0
   52.0875  156.2019   27.4818 C   0  0  0  0  0  0
   52.2269  157.4432   28.1222 N   0  0  0  0  0  0
   51.4315  157.9844   29.1298 C   0  0  0  0  0  0
   50.5108  157.4130   29.7049 O   0  0  0  0  0  0
   51.7550  159.2920   29.3073 O   0  0  0  0  0  0
   51.3492  160.1423   30.3978 C   0  0  0  0  0  0
   49.8485  160.2231   30.6936 C   0  0  0  0  0  0
   48.8935  159.8452   29.7482 C   0  0  0  0  0  0
   47.5562  159.7935   30.1024 C   0  0  0  0  0  0
   47.1476  160.2100   31.3658 C   0  0  0  0  0  0
   48.0823  160.6699   32.2887 C   0  0  0  0  0  0
   49.4329  160.6741   31.9518 C   0  0  0  0  0  0
   51.6586  155.0299   28.1175 C   0  0  0  0  0  0
   51.6560  153.8201   27.4156 C   0  0  0  0  0  0
   54.7085  153.0891   26.2671 H   0  0  0  0  0  0
   55.4694  152.4588   24.9239 H   0  0  0  0  0  0
   53.6201  150.5715   25.2683 H   0  0  0  0  0  0
   52.7471  151.6721   23.2634 H   0  0  0  0  0  0
   53.6023  153.1884   23.6327 H   0  0  0  0  0  0
   51.6557  151.6792   25.7140 H   0  0  0  0  0  0
   52.7874  154.9764   24.4194 H   0  0  0  0  0  0
   52.7777  157.0435   25.6176 H   0  0  0  0  0  0
   52.8928  158.0827   27.7127 H   0  0  0  0  0  0
   51.6933  161.1503   30.1701 H   0  0  0  0  0  0
   51.8876  159.8438   31.2948 H   0  0  0  0  0  0
   49.1820  159.5300   28.7562 H   0  0  0  0  0  0
   46.8545  159.4082   29.3881 H   0  0  0  0  0  0
   46.0999  160.1781   31.6299 H   0  0  0  0  0  0
   47.7641  161.0080   33.2640 H   0  0  0  0  0  0
   50.1489  161.0384   32.6776 H   0  0  0  0  0  0
   51.3702  155.0387   29.1580 H   0  0  0  0  0  0
   51.3782  152.9102   27.9275 H   0  0  0  0  0  0
  1  2  1  0  0  0
  1 22  1  0  0  0
  1 23  1  0  0  0
  2  3  1  0  0  0
  2  4  1  0  0  0
  2 24  1  0  0  0
  3  4  1  0  0  0
  3 25  1  0  0  0
  3 26  1  0  0  0
  4  5  1  0  0  0
  4 27  1  0  0  0
  5  6  2  0  0  0
  5 21  1  0  0  0
  6  7  1  0  0  0
  6 28  1  0  0  0
  7  8  2  0  0  0
  7 29  1  0  0  0
  8  9  1  0  0  0
  8 20  1  0  0  0
  9 10  1  0  0  0
  9 30  1  0  0  0
 10 11  2  0  0  0
 10 12  1  0  0  0
 12 13  1  0  0  0
 13 14  1  0  0  0
 13 31  1  0  0  0
 13 32  1  0  0  0
 14 15  2  0  0  0
 14 19  1  0  0  0
 15 16  1  0  0  0
 15 33  1  0  0  0
 16 17  2  0  0  0
 16 34  1  0  0  0
 17 18  1  0  0  0
 17 35  1  0  0  0
 18 19  2  0  0  0
 18 36  1  0  0  0
 19 37  1  0  0  0
 20 21  2  0  0  0
 20 38  1  0  0  0
 21 39  1  0  0  0
M  END
> <s_m_entry_id>
9967

> <s_m_entry_name>
dock_pv.3

> <s_m_Source_Path>
/home/csk/Desktop/cluster/DUD-E-result/aofb

> <s_m_Source_File>
dock_pv.maegz

> <i_m_Source_File_Index>
3

> <chembl_id>
CHEMBL1795981

> <chembl_pref_name>
None

> <i_lp_mmshare_version>
53161

> <i_f3d_flags>
0

> <r_lp_tautomer_probability>
1

> <s_lp_Force_Field>
OPLS_2005

> <r_lp_Energy>
28.024716

> <b_lp_Chiralities_Consistent>
1

> <s_lp_Variant>
CHEMBL2039_lig2765-3

> <s_i_glide_gridfile>
glide-grid_1s3b

> <i_i_glide_lignum>
3225

> <i_i_glide_rotatable_bonds>
6

> <r_i_docking_score>
-9.25964783620791

> <r_i_glide_ligand_efficiency>
-0.440935611247996

> <r_i_glide_ligand_efficiency_sa>
-1.21650791686492

> <r_i_glide_ligand_efficiency_ln>
-2.28942921662217

> <r_i_glide_gscore>
-9.25964783620791

> <r_i_glide_lipo>
-4.24712952046942

> <r_i_glide_hbond>
-0.632311281949055

> <r_i_glide_metal>
0

> <r_i_glide_rewards>
-3.21413421239234

> <r_i_glide_evdw>
-16.2871971130371

> <r_i_glide_ecoul>
-9.91013145446777

> <r_i_glide_erotb>
1.13480675242494

> <r_i_glide_esite>
0

> <r_i_glide_emodel>
-32.562671186428

> <r_i_glide_energy>
-26.1973285675049

> <r_i_glide_einternal>
6.31584024429321

> <i_i_glide_confnum>
85

> <i_i_glide_posenum>
225

> <r_i_glide_eff_state_penalty>
0

> <s_user_duplicate_titles>
CHEMBL2039_lig2765

> <s_m_subgroup_title>
dock_pv

> <s_m_subgroupid>
dock_pv

> <b_m_subgroup_collapsed>
1

$$$$
CHEMBL2039_lig2106
                    3D
 Schrodinger Suite 2021-1.
 43 45  0  0  1  0            999 V2000
   52.4933  155.0367   25.2930 C   0  0  0  0  0  0
   53.0198  156.2903   25.5060 C   0  0  0  0  0  0
   52.8564  156.9013   26.7464 C   0  0  0  0  0  0
   52.0588  156.3484   27.7526 C   0  0  0  0  0  0
   51.9083  154.3661   26.3632 C   0  0  0  0  0  0
   51.6718  155.0172   27.5847 C   0  0  0  0  0  0
   50.9263  154.0994   28.5069 C   0  0  0  0  0  0
   51.2555  152.7165   27.9377 C   0  0  0  0  0  0
   51.6233  152.8953   26.4502 C   0  0  2  0  0  0
   52.8774  152.2257   26.1041 N   0  0  1  0  0  0
   53.1517  151.9147   24.7132 C   0  0  0  0  0  0
   53.2555  150.4528   24.5784 C   0  0  0  0  0  0
   53.3427  149.2361   24.5042 C   0  0  0  0  0  0
   51.7057  157.0445   28.9040 O   0  0  0  0  0  0
   51.8935  158.4717   28.8654 C   0  0  0  0  0  0
   51.4945  159.3822   30.0315 C   0  0  0  0  0  0
   50.0208  159.4437   30.3656 C   0  0  0  0  0  0
   49.2032  158.3474   30.1106 C   0  0  0  0  0  0
   47.8587  158.3992   30.4165 C   0  0  0  0  0  0
   47.3299  159.5511   30.9771 C   0  0  0  0  0  0
   48.1382  160.6447   31.2711 C   0  0  0  0  0  0
   49.4951  160.5890   30.9680 C   0  0  0  0  0  0
   45.6561  159.6144   31.3038 Cl  0  0  0  0  0  0
   52.6667  154.5529   24.3441 H   0  0  0  0  0  0
   53.5890  156.7781   24.7278 H   0  0  0  0  0  0
   53.3439  157.8441   26.9038 H   0  0  0  0  0  0
   49.8658  154.3293   28.4474 H   0  0  0  0  0  0
   51.2132  154.1944   29.5556 H   0  0  0  0  0  0
   50.4698  151.9845   28.1041 H   0  0  0  0  0  0
   52.0909  152.3106   28.5031 H   0  0  0  0  0  0
   50.7868  152.6452   25.8055 H   0  0  0  0  0  0
   53.6279  152.8253   26.4474 H   0  0  0  0  0  0
   54.1058  152.3594   24.4587 H   0  0  0  0  0  0
   52.4369  152.3194   24.0069 H   0  0  0  0  0  0
   53.4153  148.1723   24.4693 H   0  0  0  0  0  0
   52.9586  158.6443   28.7388 H   0  0  0  0  0  0
   51.3164  158.8535   28.0277 H   0  0  0  0  0  0
   52.0560  159.1172   30.9039 H   0  0  0  0  0  0
   51.8199  160.3917   29.7784 H   0  0  0  0  0  0
   49.5923  157.4283   29.7063 H   0  0  0  0  0  0
   47.2557  157.5359   30.2032 H   0  0  0  0  0  0
   47.7147  161.5282   31.7241 H   0  0  0  0  0  0
   50.1311  161.4318   31.1974 H   0  0  0  0  0  0
  1  2  2  0  0  0
  1  5  1  0  0  0
  1 24  1  0  0  0
  2  3  1  0  0  0
  2 25  1  0  0  0
  3  4  2  0  0  0
  3 26  1  0  0  0
  4  6  1  0  0  0
  4 14  1  0  0  0
  5  6  2  0  0  0
  5  9  1  0  0  0
  6  7  1  0  0  0
  7  8  1  0  0  0
  7 27  1  0  0  0
  7 28  1  0  0  0
  8  9  1  0  0  0
  8 29  1  0  0  0
  8 30  1  0  0  0
  9 10  1  0  0  0
  9 31  1  0  0  0
 10 11  1  0  0  0
 10 32  1  0  0  0
 11 12  1  0  0  0
 11 33  1  0  0  0
 11 34  1  0  0  0
 12 13  3  0  0  0
 13 35  1  0  0  0
 14 15  1  0  0  0
 15 16  1  0  0  0
 15 36  1  0  0  0
 15 37  1  0  0  0
 16 17  1  0  0  0
 16 38  1  0  0  0
 16 39  1  0  0  0
 17 18  2  0  0  0
 17 22  1  0  0  0
 18 19  1  0  0  0
 18 40  1  0  0  0
 19 20  2  0  0  0
 19 41  1  0  0  0
 20 21  1  0  0  0
 20 23  1  0  0  0
 21 22  2  0  0  0
 21 42  1  0  0  0
 22 43  1  0  0  0
M  END
> <s_m_entry_id>
9968

> <s_m_entry_name>
dock_pv.4

> <s_m_Source_Path>
/home/csk/Desktop/cluster/DUD-E-result/aofb

> <s_m_Source_File>
dock_pv.maegz

> <i_m_Source_File_Index>
4

> <chembl_id>
CHEMBL4173822

> <chembl_pref_name>
None

> <i_lp_mmshare_version>
53161

> <i_f3d_flags>
0

> <r_lp_tautomer_probability>
1

> <s_lp_Force_Field>
OPLS_2005

> <r_lp_Energy>
27.353503

> <b_lp_Chiralities_Consistent>
1

> <s_lp_Variant>
CHEMBL2039_lig2106-2

> <s_i_glide_gridfile>
glide-grid_1s3b

> <i_i_glide_lignum>
2456

> <i_i_glide_rotatable_bonds>
7

> <r_i_docking_score>
-9.21875878530954

> <r_i_glide_ligand_efficiency>
-0.400815599361284

> <r_i_glide_ligand_efficiency_sa>
-1.13986624684162

> <r_i_glide_ligand_efficiency_ln>
-2.22917946537094

> <r_i_glide_gscore>
-9.21875878530954

> <r_i_glide_lipo>
-5.10032729885595

> <r_i_glide_hbond>
-0.37483945450175

> <r_i_glide_metal>
0

> <r_i_glide_rewards>
-2.83751181818182

> <r_i_glide_evdw>
-25.7164783477783

> <r_i_glide_ecoul>
-4.53146934509277

> <r_i_glide_erotb>
1.05946410538282

> <r_i_glide_esite>
0

> <r_i_glide_emodel>
-54.4944299730721

> <r_i_glide_energy>
-30.2479476928711

> <r_i_glide_einternal>
5.80334997177124

> <i_i_glide_confnum>
1

> <i_i_glide_posenum>
86

> <r_i_glide_eff_state_penalty>
0

> <s_user_duplicate_titles>
CHEMBL2039_lig2106

> <s_m_subgroup_title>
dock_pv

> <s_m_subgroupid>
dock_pv

> <b_m_subgroup_collapsed>
1

$$$$
CHEMBL2039_lig187
                    3D
 Schrodinger Suite 2021-1.
 33 36  0  0  1  0            999 V2000
   52.2406  156.0408   26.9720 C   0  0  0  0  0  0
   51.6464  154.8670   27.3880 C   0  0  0  0  0  0
   52.8560  155.8358   25.6331 C   0  0  0  0  0  0
   50.8776  154.7766   28.5040 N   0  0  0  0  0  0
   52.7000  154.3856   25.3927 C   0  0  0  0  0  0
   51.9920  153.8066   26.4449 C   0  0  0  0  0  0
   47.6870  159.7037   31.4393 C   0  0  0  0  0  0
   50.6312  155.8945   29.2133 N   0  0  0  0  0  0
   52.1447  157.1463   27.8165 C   0  0  0  0  0  0
   51.2560  157.0792   28.9040 C   0  0  0  0  0  0
   49.1013  159.5748   30.8794 C   0  0  0  0  0  0
   50.8131  158.3182   29.6447 C   0  0  0  0  0  0
   49.5212  158.4278   30.1909 C   0  0  0  0  0  0
   53.4241  156.6440   24.9040 O   0  0  0  0  0  0
   46.9276  158.6440   31.1630 F   0  0  0  0  0  0
   47.1031  160.7755   30.9043 F   0  0  0  0  0  0
   47.7352  159.8532   32.7634 F   0  0  0  0  0  0
   53.2561  153.5917   24.3901 C   0  0  0  0  0  0
   51.8187  152.4290   26.5040 C   0  0  0  0  0  0
   50.0007  160.6279   31.0542 C   0  0  0  0  0  0
   51.6560  159.4314   29.7783 C   0  0  0  0  0  0
   51.2748  160.5591   30.5039 C   0  0  0  0  0  0
   53.1713  152.2046   24.5040 C   0  0  0  0  0  0
   52.4560  151.6268   25.5575 C   0  0  0  0  0  0
   52.6155  158.0786   27.5533 H   0  0  0  0  0  0
   48.8352  157.5982   30.1040 H   0  0  0  0  0  0
   53.8286  154.0234   23.5818 H   0  0  0  0  0  0
   51.2715  151.9712   27.3162 H   0  0  0  0  0  0
   49.7099  161.5026   31.6166 H   0  0  0  0  0  0
   52.6545  159.4009   29.3708 H   0  0  0  0  0  0
   51.9660  161.3784   30.6385 H   0  0  0  0  0  0
   53.6441  151.5779   23.7628 H   0  0  0  0  0  0
   52.3786  150.5518   25.6293 H   0  0  0  0  0  0
  1  2  2  0  0  0
  1  3  1  0  0  0
  1  9  1  0  0  0
  2  4  1  0  0  0
  2  6  1  0  0  0
  3  5  1  0  0  0
  3 14  2  0  0  0
  4  8  2  0  0  0
  5 18  1  0  0  0
  5  6  2  0  0  0
  6 19  1  0  0  0
  7 11  1  0  0  0
  7 15  1  0  0  0
  7 16  1  0  0  0
  7 17  1  0  0  0
  8 10  1  0  0  0
  9 10  2  0  0  0
  9 25  1  0  0  0
 10 12  1  0  0  0
 11 13  2  0  0  0
 11 20  1  0  0  0
 12 13  1  0  0  0
 12 21  2  0  0  0
 13 26  1  0  0  0
 18 23  2  0  0  0
 18 27  1  0  0  0
 19 24  2  0  0  0
 19 28  1  0  0  0
 20 22  2  0  0  0
 20 29  1  0  0  0
 21 22  1  0  0  0
 21 30  1  0  0  0
 22 31  1  0  0  0
 23 24  1  0  0  0
 23 32  1  0  0  0
 24 33  1  0  0  0
M  END
> <s_m_entry_id>
9969

> <s_m_entry_name>
dock_pv.5

> <s_m_Source_Path>
/home/csk/Desktop/cluster/DUD-E-result/aofb

> <s_m_Source_File>
dock_pv.maegz

> <i_m_Source_File_Index>
5

> <chembl_id>
CHEMBL127774

> <chembl_pref_name>
None

> <i_lp_mmshare_version>
53161

> <i_f3d_flags>
0

> <r_lp_tautomer_probability>
1

> <s_lp_Force_Field>
OPLS_2005

> <r_lp_Energy>
44.076837

> <b_lp_Chiralities_Consistent>
1

> <s_lp_Variant>
CHEMBL2039_lig187-1

> <s_i_glide_gridfile>
glide-grid_1s3b

> <i_i_glide_lignum>
228

> <i_i_glide_rotatable_bonds>
2

> <r_i_docking_score>
-8.98346063139921

> <r_i_glide_ligand_efficiency>
-0.374310859641634

> <r_i_glide_ligand_efficiency_sa>
-1.07969935181531

> <r_i_glide_ligand_efficiency_ln>
-2.15015435324132

> <r_i_glide_gscore>
-8.98346063139921

> <r_i_glide_lipo>
-3.91299976091446

> <r_i_glide_hbond>
0

> <r_i_glide_metal>
0

> <r_i_glide_rewards>
-3.64530556399488

> <r_i_glide_evdw>
-24.1589260101318

> <r_i_glide_ecoul>
-2.62243843078613

> <r_i_glide_erotb>
0.176156758634647

> <r_i_glide_esite>
0

> <r_i_glide_emodel>
-26.5630249644497

> <r_i_glide_energy>
-26.781364440918

> <r_i_glide_einternal>
0.478907972574234

> <i_i_glide_confnum>
2

> <i_i_glide_posenum>
268

> <r_i_glide_eff_state_penalty>
0

> <s_user_duplicate_titles>
CHEMBL2039_lig187,209807

> <s_m_subgroup_title>
dock_pv

> <s_m_subgroupid>
dock_pv

> <b_m_subgroup_collapsed>
1

$$$$
CHEMBL2039_lig919
                    3D
 Schrodinger Suite 2021-1.
 29 30  0  0  1  0            999 V2000
   52.4520  154.2388   25.3040 C   0  0  0  0  0  0
   52.0278  153.0686   25.9250 C   0  0  0  0  0  0
   51.5880  153.1034   27.2463 C   0  0  0  0  0  0
   51.6133  154.2978   27.9671 C   0  0  0  0  0  0
   52.0560  155.4858   27.3541 C   0  0  0  0  0  0
   52.4560  155.4422   26.0071 C   0  0  0  0  0  0
   52.2572  156.7613   28.1040 C   0  0  0  0  0  0
   51.1774  157.2663   28.9524 C   0  0  0  0  0  0
   53.2560  157.4440   27.8885 O   0  0  0  0  0  0
   51.1181  158.5437   29.3912 C   0  0  0  0  0  0
   50.0560  159.1408   30.2342 C   0  0  0  0  0  0
   48.8404  158.4938   30.5040 C   0  0  0  0  0  0
   47.9057  159.0658   31.3629 C   0  0  0  0  0  0
   48.1936  160.2765   31.9849 C   0  0  0  0  0  0
   49.4054  160.9182   31.7472 C   0  0  0  0  0  0
   50.3259  160.3597   30.8647 C   0  0  0  0  0  0
   51.2560  154.2440   29.2872 O   0  0  0  0  0  0
   52.8944  154.1992   24.0307 F   0  0  0  0  0  0
   52.0560  152.1357   25.3824 H   0  0  0  0  0  0
   51.2560  152.1932   27.7254 H   0  0  0  0  0  0
   52.8241  156.3281   25.5084 H   0  0  0  0  0  0
   50.4007  156.5651   29.2074 H   0  0  0  0  0  0
   51.9132  159.2218   29.1092 H   0  0  0  0  0  0
   48.6132  157.5292   30.0805 H   0  0  0  0  0  0
   46.9722  158.5610   31.5638 H   0  0  0  0  0  0
   47.4787  160.7133   32.6666 H   0  0  0  0  0  0
   49.6381  161.8440   32.2512 H   0  0  0  0  0  0
   51.2672  160.8658   30.7036 H   0  0  0  0  0  0
   52.0277  154.2440   29.8709 H   0  0  0  0  0  0
  1  6  1  0  0  0
  1  2  2  0  0  0
  1 18  1  0  0  0
  2  3  1  0  0  0
  2 19  1  0  0  0
  3  4  2  0  0  0
  3 20  1  0  0  0
  4  5  1  0  0  0
  4 17  1  0  0  0
  5  6  2  0  0  0
  5  7  1  0  0  0
  6 21  1  0  0  0
  7  9  2  0  0  0
  7  8  1  0  0  0
  8 10  2  0  0  0
  8 22  1  0  0  0
 10 11  1  0  0  0
 10 23  1  0  0  0
 11 12  2  0  0  0
 11 16  1  0  0  0
 12 13  1  0  0  0
 12 24  1  0  0  0
 13 14  2  0  0  0
 13 25  1  0  0  0
 14 15  1  0  0  0
 14 26  1  0  0  0
 15 16  2  0  0  0
 15 27  1  0  0  0
 16 28  1  0  0  0
 17 29  1  0  0  0
M  END
> <s_m_entry_id>
9970

> <s_m_entry_name>
dock_pv.6

> <s_m_Source_Path>
/home/csk/Desktop/cluster/DUD-E-result/aofb

> <s_m_Source_File>
dock_pv.maegz

> <i_m_Source_File_Index>
6

> <chembl_id>
CHEMBL1963386

> <chembl_pref_name>
None

> <i_lp_mmshare_version>
53161

> <i_f3d_flags>
0

> <r_lp_tautomer_probability>
1

> <s_lp_Force_Field>
OPLS_2005

> <r_lp_Energy>
18.884912

> <b_lp_Chiralities_Consistent>
1

> <s_lp_Variant>
CHEMBL2039_lig919-1

> <s_i_glide_gridfile>
glide-grid_1s3b

> <i_i_glide_lignum>
1066

> <i_i_glide_rotatable_bonds>
4

> <r_i_docking_score>
-8.89528457445073

> <r_i_glide_ligand_efficiency>
-0.494182476358374

> <r_i_glide_ligand_efficiency_sa>
-1.29512447083725

> <r_i_glide_ligand_efficiency_ln>
-2.28648703209308

> <r_i_glide_gscore>
-8.89528457445073

> <r_i_glide_lipo>
-3.73564734948774

> <r_i_glide_hbond>
-0.32

> <r_i_glide_metal>
0

> <r_i_glide_rewards>
-3.44795510913319

> <r_i_glide_evdw>
-30.897855758667

> <r_i_glide_ecoul>
-2.91874551773071

> <r_i_glide_erotb>
0.591022499763151

> <r_i_glide_esite>
0

> <r_i_glide_emodel>
-45.318910335816

> <r_i_glide_energy>
-33.8166012763977

> <r_i_glide_einternal>
9.81354999542236

> <i_i_glide_confnum>
5

> <i_i_glide_posenum>
59

> <r_i_glide_eff_state_penalty>
0

> <s_user_duplicate_titles>
CHEMBL2039_lig919

> <s_m_subgroup_title>
dock_pv

> <s_m_subgroupid>
dock_pv

> <b_m_subgroup_collapsed>
1

$$$$
CHEMBL2039_lig297
                    3D
 Schrodinger Suite 2021-1.
 30 31  0  0  1  0            999 V2000
   51.9627  153.8227   25.6829 C   0  0  0  0  0  0
   51.6560  152.7805   26.5484 C   0  0  0  0  0  0
   51.3703  153.0440   27.8820 C   0  0  0  0  0  0
   51.4345  154.3431   28.3733 C   0  0  0  0  0  0
   51.8066  155.3983   27.5313 C   0  0  0  0  0  0
   52.0598  155.1242   26.1701 C   0  0  0  0  0  0
   52.0560  156.7465   28.1164 C   0  0  0  0  0  0
   51.0719  157.2945   29.0522 C   0  0  0  0  0  0
   51.0103  158.6105   29.3557 C   0  0  0  0  0  0
   50.0237  159.2469   30.2503 C   0  0  0  0  0  0
   48.7728  158.6713   30.5122 C   0  0  0  0  0  0
   47.9100  159.2534   31.4373 C   0  0  0  0  0  0
   48.3021  160.4024   32.1190 C   0  0  0  0  0  0
   49.5407  160.9856   31.8636 C   0  0  0  0  0  0
   50.3933  160.4161   30.9215 C   0  0  0  0  0  0
   52.9828  157.4440   27.7040 O   0  0  0  0  0  0
   47.2560  161.0939   33.3040 Cl  0  0  0  0  0  0
   51.6560  151.4895   26.1040 O   0  0  0  0  0  0
   52.4560  156.1005   25.2925 O   0  0  0  0  0  0
   52.1831  153.6138   24.6462 H   0  0  0  0  0  0
   51.1187  152.2331   28.5477 H   0  0  0  0  0  0
   51.2560  154.4976   29.4286 H   0  0  0  0  0  0
   50.3688  156.5983   29.4812 H   0  0  0  0  0  0
   51.7238  159.2877   28.9048 H   0  0  0  0  0  0
   48.4676  157.7565   30.0300 H   0  0  0  0  0  0
   46.9514  158.8001   31.6430 H   0  0  0  0  0  0
   49.8524  161.8656   32.4067 H   0  0  0  0  0  0
   51.3622  160.8645   30.7527 H   0  0  0  0  0  0
   51.6282  150.8503   26.8223 H   0  0  0  0  0  0
   52.5864  156.9373   25.7485 H   0  0  0  0  0  0
  1  6  1  0  0  0
  1  2  2  0  0  0
  1 20  1  0  0  0
  2  3  1  0  0  0
  2 18  1  0  0  0
  3  4  2  0  0  0
  3 21  1  0  0  0
  4  5  1  0  0  0
  4 22  1  0  0  0
  5  6  2  0  0  0
  5  7  1  0  0  0
  6 19  1  0  0  0
  7 16  2  0  0  0
  7  8  1  0  0  0
  8  9  2  0  0  0
  8 23  1  0  0  0
  9 10  1  0  0  0
  9 24  1  0  0  0
 10 11  2  0  0  0
 10 15  1  0  0  0
 11 12  1  0  0  0
 11 25  1  0  0  0
 12 13  2  0  0  0
 12 26  1  0  0  0
 13 14  1  0  0  0
 13 17  1  0  0  0
 14 15  2  0  0  0
 14 27  1  0  0  0
 15 28  1  0  0  0
 18 29  1  0  0  0
 19 30  1  0  0  0
M  END
> <s_m_entry_id>
9971

> <s_m_entry_name>
dock_pv.7

> <s_m_Source_Path>
/home/csk/Desktop/cluster/DUD-E-result/aofb

> <s_m_Source_File>
dock_pv.maegz

> <i_m_Source_File_Index>
7

> <chembl_id>
CHEMBL139679

> <chembl_pref_name>
None

> <i_lp_mmshare_version>
53161

> <i_f3d_flags>
0

> <r_lp_tautomer_probability>
1

> <s_lp_Force_Field>
OPLS_2005

> <r_lp_Energy>
19.787638

> <b_lp_Chiralities_Consistent>
1

> <s_lp_Variant>
CHEMBL2039_lig297-1

> <s_i_glide_gridfile>
glide-grid_1s3b

> <i_i_glide_lignum>
346

> <i_i_glide_rotatable_bonds>
5

> <r_i_docking_score>
-8.84182082846421

> <r_i_glide_ligand_efficiency>
-0.465358990971801

> <r_i_glide_ligand_efficiency_sa>
-1.24176469753797

> <r_i_glide_ligand_efficiency_ln>
-2.24159148491447

> <r_i_glide_gscore>
-8.84182082846421

> <r_i_glide_lipo>
-4.34664917809107

> <r_i_glide_hbond>
-0.192246755803788

> <r_i_glide_metal>
0

> <r_i_glide_rewards>
-2.72358877973464

> <r_i_glide_evdw>
-34.0052909851074

> <r_i_glide_ecoul>
-2.36751079559326

> <r_i_glide_erotb>
0.47605505375965

> <r_i_glide_esite>
0

> <r_i_glide_emodel>
-50.1878725614569

> <r_i_glide_energy>
-36.3728017807007

> <r_i_glide_einternal>
5.38530254364014

> <i_i_glide_confnum>
2

> <i_i_glide_posenum>
228

> <r_i_glide_eff_state_penalty>
0

> <s_user_duplicate_titles>
CHEMBL2039_lig297,229820

> <s_m_subgroup_title>
dock_pv

> <s_m_subgroupid>
dock_pv

> <b_m_subgroup_collapsed>
1

$$$$
CHEMBL2039_lig72
                    3D
 Schrodinger Suite 2021-1.
 34 35  0  0  1  0            999 V2000
   53.1910  155.0867   24.9039 C   0  0  0  0  0  0
   53.5721  153.8460   24.0919 C   0  0  0  0  0  0
   52.3287  154.8970   26.1040 C   0  0  0  0  0  0
   52.0561  155.9917   26.9383 C   0  0  0  0  0  0
   51.3828  155.8221   28.1566 C   0  0  0  0  0  0
   50.9923  154.5408   28.5276 C   0  0  0  0  0  0
   51.2549  153.4443   27.7109 C   0  0  0  0  0  0
   51.8887  153.6216   26.4887 C   0  0  0  0  0  0
   51.0342  156.8407   29.0196 O   0  0  0  0  0  0
   51.6560  158.1183   28.9039 C   0  0  0  0  0  0
   50.9698  159.1385   29.8004 C   0  0  0  0  0  0
   49.6095  159.0425   30.1216 C   0  0  0  0  0  0
   49.0170  159.9419   31.0183 C   0  0  0  0  0  0
   49.8100  160.9311   31.6101 C   0  0  0  0  0  0
   51.1574  161.0439   31.2741 C   0  0  0  0  0  0
   51.7281  160.1671   30.3620 C   0  0  0  0  0  0
   53.6559  156.1754   24.5609 O   0  0  0  0  0  0
   47.5296  159.8475   31.3504 C   0  0  0  0  0  0
   47.2819  160.2434   32.6003 F   0  0  0  0  0  0
   46.8599  160.6390   30.5138 F   0  0  0  0  0  0
   47.0736  158.6028   31.2101 F   0  0  0  0  0  0
   52.6833  153.3866   23.6602 H   0  0  0  0  0  0
   54.0560  153.1110   24.7351 H   0  0  0  0  0  0
   54.2627  154.1039   23.2898 H   0  0  0  0  0  0
   52.3997  156.9709   26.6423 H   0  0  0  0  0  0
   50.4864  154.3958   29.4705 H   0  0  0  0  0  0
   50.9512  152.4562   28.0254 H   0  0  0  0  0  0
   52.0824  152.7442   25.8895 H   0  0  0  0  0  0
   52.7039  158.0096   29.1687 H   0  0  0  0  0  0
   51.6560  158.5127   27.8932 H   0  0  0  0  0  0
   49.0167  158.2439   29.7040 H   0  0  0  0  0  0
   49.3839  161.6304   32.3149 H   0  0  0  0  0  0
   51.7626  161.8270   31.7039 H   0  0  0  0  0  0
   52.7807  160.2523   30.1321 H   0  0  0  0  0  0
  1  2  1  0  0  0
  1  3  1  0  0  0
  1 17  2  0  0  0
  2 22  1  0  0  0
  2 23  1  0  0  0
  2 24  1  0  0  0
  3  4  1  0  0  0
  3  8  2  0  0  0
  4  5  2  0  0  0
  4 25  1  0  0  0
  5  6  1  0  0  0
  5  9  1  0  0  0
  6  7  2  0  0  0
  6 26  1  0  0  0
  7  8  1  0  0  0
  7 27  1  0  0  0
  8 28  1  0  0  0
  9 10  1  0  0  0
 10 11  1  0  0  0
 10 29  1  0  0  0
 10 30  1  0  0  0
 11 12  1  0  0  0
 11 16  2  0  0  0
 12 13  2  0  0  0
 12 31  1  0  0  0
 13 14  1  0  0  0
 13 18  1  0  0  0
 14 15  2  0  0  0
 14 32  1  0  0  0
 15 16  1  0  0  0
 15 33  1  0  0  0
 16 34  1  0  0  0
 18 19  1  0  0  0
 18 20  1  0  0  0
 18 21  1  0  0  0
M  END
> <s_m_entry_id>
9972

> <s_m_entry_name>
dock_pv.8

> <s_m_Source_Path>
/home/csk/Desktop/cluster/DUD-E-result/aofb

> <s_m_Source_File>
dock_pv.maegz

> <i_m_Source_File_Index>
8

> <chembl_id>
CHEMBL3770421

> <chembl_pref_name>
None

> <i_lp_mmshare_version>
53161

> <i_f3d_flags>
0

> <r_lp_tautomer_probability>
0.99995

> <s_lp_Force_Field>
OPLS_2005

> <r_lp_Energy>
22.695304

> <b_lp_Chiralities_Consistent>
1

> <s_lp_Variant>
CHEMBL2039_lig72-1

> <s_i_glide_gridfile>
glide-grid_1s3b

> <i_i_glide_lignum>
95

> <i_i_glide_rotatable_bonds>
5

> <r_i_docking_score>
-8.83858680477167

> <r_i_glide_ligand_efficiency>
-0.420885085941508

> <r_i_glide_ligand_efficiency_sa>
-1.16119003790385

> <r_i_glide_ligand_efficiency_ln>
-2.18532272743348

> <r_i_glide_gscore>
-8.83858680477167

> <r_i_glide_lipo>
-3.65224185176844

> <r_i_glide_hbond>
0

> <r_i_glide_metal>
0

> <r_i_glide_rewards>
-3.83230864834868

> <r_i_glide_evdw>
-30.2854099273682

> <r_i_glide_ecoul>
-3.15515446662903

> <r_i_glide_erotb>
0.63350736170822

> <r_i_glide_esite>
0

> <r_i_glide_emodel>
-47.8758113080693

> <r_i_glide_energy>
-33.4405643939972

> <r_i_glide_einternal>
1.79599034786224

> <i_i_glide_confnum>
26

> <i_i_glide_posenum>
196

> <r_i_glide_eff_state_penalty>
0

> <s_user_duplicate_titles>
CHEMBL2039_lig72

> <s_m_subgroup_title>
dock_pv

> <s_m_subgroupid>
dock_pv

> <b_m_subgroup_collapsed>
1

$$$$
CHEMBL2039_lig1471
                    3D
 Schrodinger Suite 2021-1.
 33 34  0  0  1  0            999 V2000
   50.8113  158.9333   29.7040 C   0  0  0  0  0  0
   51.6876  159.9423   30.1040 C   0  0  0  0  0  0
   51.2840  160.9299   30.9975 C   0  0  0  0  0  0
   49.9828  160.9281   31.4932 C   0  0  0  0  0  0
   49.0686  159.9547   31.0767 C   0  0  0  0  0  0
   49.4910  158.9671   30.1766 C   0  0  0  0  0  0
   51.3451  157.8140   28.9040 C   0  0  0  0  0  0
   50.8560  156.5526   28.9262 C   0  0  0  0  0  0
   51.3590  155.4440   28.1525 C   0  0  0  0  0  0
   51.8706  155.7702   26.9443 N   0  0  0  0  0  0
   51.2560  154.2991   28.5850 O   0  0  0  0  0  0
   52.3651  154.9104   25.9530 C   0  0  0  0  0  0
   53.2697  155.4614   25.0438 C   0  0  0  0  0  0
   53.9196  154.6440   24.1210 C   0  0  0  0  0  0
   53.5937  153.2979   24.0328 C   0  0  0  0  0  0
   52.6834  152.7400   24.9211 C   0  0  0  0  0  0
   52.0556  153.5419   25.8702 C   0  0  0  0  0  0
   54.8560  155.1687   23.3040 F   0  0  0  0  0  0
   47.6428  159.9445   31.6246 C   0  0  0  0  0  0
   47.1723  158.6991   31.7038 F   0  0  0  0  0  0
   47.5795  160.4903   32.8411 F   0  0  0  0  0  0
   46.8574  160.6439   30.8072 F   0  0  0  0  0  0
   52.7171  159.9225   29.7762 H   0  0  0  0  0  0
   51.9864  161.6810   31.3306 H   0  0  0  0  0  0
   49.6926  161.6915   32.2012 H   0  0  0  0  0  0
   48.7924  158.1995   29.8805 H   0  0  0  0  0  0
   52.1823  158.0619   28.2642 H   0  0  0  0  0  0
   50.0394  156.2876   29.5809 H   0  0  0  0  0  0
   51.9742  156.7523   26.7488 H   0  0  0  0  0  0
   53.5376  156.5061   25.0946 H   0  0  0  0  0  0
   54.0560  152.6814   23.2787 H   0  0  0  0  0  0
   52.4560  151.6858   24.8673 H   0  0  0  0  0  0
   51.3481  153.0777   26.5395 H   0  0  0  0  0  0
  1  2  2  0  0  0
  1  6  1  0  0  0
  1  7  1  0  0  0
  2  3  1  0  0  0
  2 23  1  0  0  0
  3  4  2  0  0  0
  3 24  1  0  0  0
  4  5  1  0  0  0
  4 25  1  0  0  0
  5  6  2  0  0  0
  5 19  1  0  0  0
  6 26  1  0  0  0
  7  8  2  0  0  0
  7 27  1  0  0  0
  8  9  1  0  0  0
  8 28  1  0  0  0
  9 10  1  0  0  0
  9 11  2  0  0  0
 10 12  1  0  0  0
 10 29  1  0  0  0
 12 13  2  0  0  0
 12 17  1  0  0  0
 13 14  1  0  0  0
 13 30  1  0  0  0
 14 15  2  0  0  0
 14 18  1  0  0  0
 15 16  1  0  0  0
 15 31  1  0  0  0
 16 17  2  0  0  0
 16 32  1  0  0  0
 17 33  1  0  0  0
 19 20  1  0  0  0
 19 21  1  0  0  0
 19 22  1  0  0  0
M  END
> <s_m_entry_id>
9973

> <s_m_entry_name>
dock_pv.9

> <s_m_Source_Path>
/home/csk/Desktop/cluster/DUD-E-result/aofb

> <s_m_Source_File>
dock_pv.maegz

> <i_m_Source_File_Index>
9

> <chembl_id>
CHEMBL3613270

> <chembl_pref_name>
None

> <i_lp_mmshare_version>
53161

> <i_f3d_flags>
0

> <r_lp_tautomer_probability>
1

> <s_lp_Force_Field>
OPLS_2005

> <r_lp_Energy>
19.062312

> <b_lp_Chiralities_Consistent>
1

> <s_lp_Variant>
CHEMBL2039_lig1471-1

> <s_i_glide_gridfile>
glide-grid_1s3b

> <i_i_glide_lignum>
1695

> <i_i_glide_rotatable_bonds>
5

> <r_i_docking_score>
-8.77788811610056

> <r_i_glide_ligand_efficiency>
-0.398994914368207

> <r_i_glide_ligand_efficiency_sa>
-1.11799944163927

> <r_i_glide_ligand_efficiency_ln>
-2.14563603682353

> <r_i_glide_gscore>
-8.77788811610056

> <r_i_glide_lipo>
-3.64164982243937

> <r_i_glide_hbond>
0

> <r_i_glide_metal>
0

> <r_i_glide_rewards>
-3.99483224439781

> <r_i_glide_evdw>
-32.5663185119629

> <r_i_glide_ecoul>
-0.625416994094849

> <r_i_glide_erotb>
0.580722425449003

> <r_i_glide_esite>
0

> <r_i_glide_emodel>
-45.7298671578259

> <r_i_glide_energy>
-33.1917355060577

> <r_i_glide_einternal>
5.40090656280518

> <i_i_glide_confnum>
14

> <i_i_glide_posenum>
369

> <r_i_glide_eff_state_penalty>
0

> <s_user_duplicate_titles>
CHEMBL2039_lig1471

> <s_m_subgroup_title>
dock_pv

> <s_m_subgroupid>
dock_pv

> <b_m_subgroup_collapsed>
1

$$$$
CHEMBL2039_lig2110
                    3D
 Schrodinger Suite 2021-1.
 44 46  0  0  1  0            999 V2000
   52.3281  155.1202   25.1197 C   0  0  0  0  0  0
   52.8818  156.3728   25.3223 C   0  0  0  0  0  0
   52.8939  156.9219   26.6069 C   0  0  0  0  0  0
   52.3114  156.2824   27.6809 C   0  0  0  0  0  0
   51.9201  154.3993   26.2369 C   0  0  0  0  0  0
   51.9161  154.9729   27.5132 C   0  0  0  0  0  0
   51.6888  153.9267   28.5579 C   0  0  0  0  0  0
   51.0917  152.8167   27.7613 C   0  0  0  0  0  0
   51.6138  152.9438   26.3366 C   0  0  2  0  0  0
   52.8590  152.2272   26.1040 N   0  0  1  0  0  0
   53.1699  151.9231   24.7189 C   0  0  0  0  0  0
   53.2560  150.4600   24.5778 C   0  0  0  0  0  0
   53.3365  149.2430   24.5040 C   0  0  0  0  0  0
   52.1463  156.8801   28.9040 O   0  0  0  0  0  0
   51.8045  158.2687   28.9054 C   0  0  0  0  0  0
   50.4785  158.4600   29.6477 C   0  0  0  0  0  0
   50.4561  159.5909   30.5036 O   0  0  0  0  0  0
   49.2698  159.8622   31.1569 C   0  0  0  0  0  0
   48.0464  159.2114   30.9047 C   0  0  0  0  0  0
   46.9167  159.5315   31.6484 C   0  0  0  0  0  0
   47.0157  160.4760   32.6621 C   0  0  0  0  0  0
   48.2157  161.1261   32.9158 C   0  0  0  0  0  0
   49.3319  160.8403   32.1426 C   0  0  0  0  0  0
   52.3468  154.6747   24.1362 H   0  0  0  0  0  0
   53.3247  156.9122   24.4986 H   0  0  0  0  0  0
   53.3968  157.8440   26.8390 H   0  0  0  0  0  0
   51.0959  154.2422   29.4175 H   0  0  0  0  0  0
   52.6549  153.5838   28.9040 H   0  0  0  0  0  0
   50.0560  153.1007   27.7577 H   0  0  0  0  0  0
   51.1838  151.8317   28.2144 H   0  0  0  0  0  0
   50.7993  152.6440   25.7040 H   0  0  0  0  0  0
   53.6051  152.8171   26.4703 H   0  0  0  0  0  0
   54.1325  152.3687   24.4928 H   0  0  0  0  0  0
   52.4560  152.3249   24.0040 H   0  0  0  0  0  0
   53.4022  148.1792   24.4682 H   0  0  0  0  0  0
   52.6129  158.8740   29.3041 H   0  0  0  0  0  0
   51.6560  158.6440   27.9019 H   0  0  0  0  0  0
   49.7134  158.6440   28.9040 H   0  0  0  0  0  0
   50.2043  157.5524   30.1867 H   0  0  0  0  0  0
   47.9466  158.4538   30.1436 H   0  0  0  0  0  0
   45.9730  159.0440   31.4519 H   0  0  0  0  0  0
   46.1488  160.7143   33.2575 H   0  0  0  0  0  0
   48.2845  161.8440   33.7136 H   0  0  0  0  0  0
   50.2671  161.3439   32.3431 H   0  0  0  0  0  0
  1  2  2  0  0  0
  1  5  1  0  0  0
  1 24  1  0  0  0
  2  3  1  0  0  0
  2 25  1  0  0  0
  3  4  2  0  0  0
  3 26  1  0  0  0
  4  6  1  0  0  0
  4 14  1  0  0  0
  5  6  2  0  0  0
  5  9  1  0  0  0
  6  7  1  0  0  0
  7  8  1  0  0  0
  7 27  1  0  0  0
  7 28  1  0  0  0
  8  9  1  0  0  0
  8 29  1  0  0  0
  8 30  1  0  0  0
  9 10  1  0  0  0
  9 31  1  0  0  0
 10 11  1  0  0  0
 10 32  1  0  0  0
 11 12  1  0  0  0
 11 33  1  0  0  0
 11 34  1  0  0  0
 12 13  3  0  0  0
 13 35  1  0  0  0
 14 15  1  0  0  0
 15 16  1  0  0  0
 15 36  1  0  0  0
 15 37  1  0  0  0
 16 17  1  0  0  0
 16 38  1  0  0  0
 16 39  1  0  0  0
 17 18  1  0  0  0
 18 19  2  0  0  0
 18 23  1  0  0  0
 19 20  1  0  0  0
 19 40  1  0  0  0
 20 21  2  0  0  0
 20 41  1  0  0  0
 21 22  1  0  0  0
 21 42  1  0  0  0
 22 23  2  0  0  0
 22 43  1  0  0  0
 23 44  1  0  0  0
M  END
> <s_m_entry_id>
9974

> <s_m_entry_name>
dock_pv.10

> <s_m_Source_Path>
/home/csk/Desktop/cluster/DUD-E-result/aofb

> <s_m_Source_File>
dock_pv.maegz

> <i_m_Source_File_Index>
10

> <chembl_id>
CHEMBL4175696

> <chembl_pref_name>
None

> <i_lp_mmshare_version>
53161

> <i_f3d_flags>
0

> <r_lp_tautomer_probability>
1

> <s_lp_Force_Field>
OPLS_2005

> <r_lp_Energy>
31.863565

> <b_lp_Chiralities_Consistent>
1

> <s_lp_Variant>
CHEMBL2039_lig2110-2

> <s_i_glide_gridfile>
glide-grid_1s3b

> <i_i_glide_lignum>
2464

> <i_i_glide_rotatable_bonds>
8

> <r_i_docking_score>
-8.76940509837972

> <r_i_glide_ligand_efficiency>
-0.381278482538249

> <r_i_glide_ligand_efficiency_sa>
-1.08430528548516

> <r_i_glide_ligand_efficiency_ln>
-2.12052166935734

> <r_i_glide_gscore>
-8.76940509837972

> <r_i_glide_lipo>
-4.92505935093117

> <r_i_glide_hbond>
-0.372796211270355

> <r_i_glide_metal>
0

> <r_i_glide_rewards>
-2.96186528524956

> <r_i_glide_evdw>
-24.1902503967285

> <r_i_glide_ecoul>
-4.4647159576416

> <r_i_glide_erotb>
1.36953566255403

> <r_i_glide_esite>
0

> <r_i_glide_emodel>
-21.1932772097988

> <r_i_glide_energy>
-28.6549663543701

> <r_i_glide_einternal>
15.3118762969971

> <i_i_glide_confnum>
29

> <i_i_glide_posenum>
151

> <r_i_glide_eff_state_penalty>
0

> <s_user_duplicate_titles>
CHEMBL2039_lig2110

> <s_m_subgroup_title>
dock_pv

> <s_m_subgroupid>
dock_pv

> <b_m_subgroup_collapsed>
1

$$$$
CHEMBL2039_lig300
                    3D
 Schrodinger Suite 2021-1.
 29 30  0  0  1  0            999 V2000
   52.0098  153.8143   25.6779 C   0  0  0  0  0  0
   51.6561  152.7788   26.5342 C   0  0  0  0  0  0
   51.3279  153.0494   27.8555 C   0  0  0  0  0  0
   51.4002  154.3491   28.3482 C   0  0  0  0  0  0
   51.8104  155.3989   27.5161 C   0  0  0  0  0  0
   52.1006  155.1183   26.1624 C   0  0  0  0  0  0
   52.0573  156.7483   28.1055 C   0  0  0  0  0  0
   51.0732  157.3028   29.0375 C   0  0  0  0  0  0
   51.0316  158.6161   29.3579 C   0  0  0  0  0  0
   50.0485  159.2621   30.2489 C   0  0  0  0  0  0
   48.7900  158.6997   30.5045 C   0  0  0  0  0  0
   47.9305  159.2871   31.4293 C   0  0  0  0  0  0
   48.3332  160.4299   32.1169 C   0  0  0  0  0  0
   49.5780  161.0006   31.8665 C   0  0  0  0  0  0
   50.4275  160.4248   30.9251 C   0  0  0  0  0  0
   52.9919  157.4434   27.7040 O   0  0  0  0  0  0
   47.2911  161.1265   33.3042 Cl  0  0  0  0  0  0
   52.5281  156.0871   25.2917 O   0  0  0  0  0  0
   51.6562  151.5008   26.1040 F   0  0  0  0  0  0
   52.2624  153.5962   24.6512 H   0  0  0  0  0  0
   51.0484  152.2352   28.5047 H   0  0  0  0  0  0
   51.1945  154.5064   29.3977 H   0  0  0  0  0  0
   50.3528  156.6134   29.4495 H   0  0  0  0  0  0
   51.7633  159.2853   28.9235 H   0  0  0  0  0  0
   48.4757  157.7913   30.0166 H   0  0  0  0  0  0
   46.9664  158.8443   31.6301 H   0  0  0  0  0  0
   49.8991  161.8751   32.4128 H   0  0  0  0  0  0
   51.4021  160.8618   30.7617 H   0  0  0  0  0  0
   52.6483  156.9273   25.7447 H   0  0  0  0  0  0
  1  6  1  0  0  0
  1  2  2  0  0  0
  1 20  1  0  0  0
  2  3  1  0  0  0
  2 19  1  0  0  0
  3  4  2  0  0  0
  3 21  1  0  0  0
  4  5  1  0  0  0
  4 22  1  0  0  0
  5  6  2  0  0  0
  5  7  1  0  0  0
  6 18  1  0  0  0
  7 16  2  0  0  0
  7  8  1  0  0  0
  8  9  2  0  0  0
  8 23  1  0  0  0
  9 10  1  0  0  0
  9 24  1  0  0  0
 10 11  2  0  0  0
 10 15  1  0  0  0
 11 12  1  0  0  0
 11 25  1  0  0  0
 12 13  2  0  0  0
 12 26  1  0  0  0
 13 14  1  0  0  0
 13 17  1  0  0  0
 14 15  2  0  0  0
 14 27  1  0  0  0
 15 28  1  0  0  0
 18 29  1  0  0  0
M  END
> <s_m_entry_id>
9975

> <s_m_entry_name>
dock_pv.11

> <s_m_Source_Path>
/home/csk/Desktop/cluster/DUD-E-result/aofb

> <s_m_Source_File>
dock_pv.maegz

> <i_m_Source_File_Index>
11

> <chembl_id>
CHEMBL490752

> <chembl_pref_name>
None

> <i_lp_mmshare_version>
53161

> <i_f3d_flags>
0

> <r_lp_tautomer_probability>
1

> <s_lp_Force_Field>
OPLS_2005

> <r_lp_Energy>
19.691813

> <b_lp_Chiralities_Consistent>
1

> <s_lp_Variant>
CHEMBL2039_lig300-1

> <s_i_glide_gridfile>
glide-grid_1s3b

> <i_i_glide_lignum>
349

> <i_i_glide_rotatable_bonds>
4

> <r_i_docking_score>
-8.71683571733846

> <r_i_glide_ligand_efficiency>
-0.45878082722834

> <r_i_glide_ligand_efficiency_sa>
-1.22421151457658

> <r_i_glide_ligand_efficiency_ln>
-2.20990507481004

> <r_i_glide_gscore>
-8.71683571733846

> <r_i_glide_lipo>
-4.32955221508834

> <r_i_glide_hbond>
0

> <r_i_glide_metal>
0

> <r_i_glide_rewards>
-3.0713215667701

> <r_i_glide_evdw>
-35.0095634460449

> <r_i_glide_ecoul>
-0.23743300139904

> <r_i_glide_erotb>
0.470131187032085

> <r_i_glide_esite>
0

> <r_i_glide_emodel>
-49.0363741324768

> <r_i_glide_energy>
-35.246996447444

> <r_i_glide_einternal>
5.11688423156738

> <i_i_glide_confnum>
2

> <i_i_glide_posenum>
206

> <r_i_glide_eff_state_penalty>
0

> <s_user_duplicate_titles>
CHEMBL2039_lig300,460891

> <s_m_subgroup_title>
dock_pv

> <s_m_subgroupid>
dock_pv

> <b_m_subgroup_collapsed>
1

$$$$
CHEMBL2039_lig39
                    3D
 Schrodinger Suite 2021-1.
 42 44  0  0  1  0            999 V2000
   53.8000  153.8764   23.4978 O   0  0  0  0  0  0
   53.2471  154.2160   24.5492 C   0  0  0  0  0  0
   53.2177  155.5218   24.9864 N   0  0  0  0  0  0
   53.9683  156.5593   24.2596 C   0  0  0  0  0  0
   52.6220  155.8692   26.1915 C   0  0  0  0  0  0
   51.9348  154.9215   26.9134 C   0  0  0  0  0  0
   51.5066  155.5770   28.0577 N   0  0  0  0  0  0
   50.6501  155.0424   29.0979 C   0  0  0  0  0  0
   52.0567  156.8447   27.9602 C   0  0  0  0  0  0
   52.7284  157.0051   26.8538 N   0  0  0  0  0  0
   52.6038  153.3082   25.3774 N   0  0  0  0  0  0
   52.7801  151.8929   24.9720 C   0  0  0  0  0  0
   51.8372  153.5312   26.5094 C   0  0  0  0  0  0
   51.2562  152.6439   27.1293 O   0  0  0  0  0  0
   52.0450  157.8405   28.9037 N   0  0  0  0  0  0
   51.0034  158.3617   29.7641 C   0  0  0  0  0  0
   50.1225  159.5328   29.3027 C   0  0  0  0  0  0
   48.9556  159.7183   30.2629 C   0  0  0  0  0  0
   49.1754  160.2823   31.5252 C   0  0  0  0  0  0
   48.1300  160.3791   32.4438 C   0  0  0  0  0  0
   46.8573  159.9269   32.0992 C   0  0  0  0  0  0
   46.6271  159.3750   30.8409 C   0  0  0  0  0  0
   47.6756  159.2657   29.9259 C   0  0  0  0  0  0
   48.4117  161.0430   34.0098 Cl  0  0  0  0  0  0
   53.2879  157.2039   23.7045 H   0  0  0  0  0  0
   54.4713  157.2141   24.9544 H   0  0  0  0  0  0
   54.7270  156.1589   23.5836 H   0  0  0  0  0  0
   51.2570  154.6430   29.9106 H   0  0  0  0  0  0
   49.9537  155.7945   29.4509 H   0  0  0  0  0  0
   50.0562  154.2441   28.6709 H   0  0  0  0  0  0
   52.2164  151.1712   25.5645 H   0  0  0  0  0  0
   52.4834  151.7515   23.9327 H   0  0  0  0  0  0
   53.8330  151.6144   25.0454 H   0  0  0  0  0  0
   52.9239  158.3114   29.0806 H   0  0  0  0  0  0
   51.6368  158.8274   30.5038 H   0  0  0  0  0  0
   50.4521  157.5904   30.2943 H   0  0  0  0  0  0
   49.7750  159.4437   28.2754 H   0  0  0  0  0  0
   50.7178  160.4459   29.3044 H   0  0  0  0  0  0
   50.1611  160.6254   31.8048 H   0  0  0  0  0  0
   46.0475  160.0083   32.8080 H   0  0  0  0  0  0
   45.6358  159.0375   30.5738 H   0  0  0  0  0  0
   47.4889  158.8188   28.9602 H   0  0  0  0  0  0
  1  2  2  0  0  0
  2 11  1  0  0  0
  2  3  1  0  0  0
  3  4  1  0  0  0
  3  5  1  0  0  0
  4 25  1  0  0  0
  4 26  1  0  0  0
  4 27  1  0  0  0
  5 10  1  0  0  0
  5  6  2  0  0  0
  6 13  1  0  0  0
  6  7  1  0  0  0
  7  8  1  0  0  0
  7  9  1  0  0  0
  8 28  1  0  0  0
  8 29  1  0  0  0
  8 30  1  0  0  0
  9 15  1  0  0  0
  9 10  2  0  0  0
 11 12  1  0  0  0
 11 13  1  0  0  0
 12 31  1  0  0  0
 12 32  1  0  0  0
 12 33  1  0  0  0
 13 14  2  0  0  0
 15 16  1  0  0  0
 15 34  1  0  0  0
 16 17  1  0  0  0
 16 35  1  0  0  0
 16 36  1  0  0  0
 17 18  1  0  0  0
 17 37  1  0  0  0
 17 38  1  0  0  0
 18 19  2  0  0  0
 18 23  1  0  0  0
 19 20  1  0  0  0
 19 39  1  0  0  0
 20 21  2  0  0  0
 20 24  1  0  0  0
 21 22  1  0  0  0
 21 40  1  0  0  0
 22 23  2  0  0  0
 22 41  1  0  0  0
 23 42  1  0  0  0
M  END
> <s_m_entry_id>
9976

> <s_m_entry_name>
dock_pv.12

> <s_m_Source_Path>
/home/csk/Desktop/cluster/DUD-E-result/aofb

> <s_m_Source_File>
dock_pv.maegz

> <i_m_Source_File_Index>
12

> <chembl_id>
CHEMBL1927681

> <chembl_pref_name>
None

> <i_lp_mmshare_version>
53161

> <i_f3d_flags>
0

> <r_lp_tautomer_probability>
1

> <s_lp_Force_Field>
OPLS_2005

> <r_lp_Energy>
29.176631

> <b_lp_Chiralities_Consistent>
1

> <s_lp_Variant>
CHEMBL2039_lig39-1

> <s_i_glide_gridfile>
glide-grid_1s3b

> <i_i_glide_lignum>
61

> <i_i_glide_rotatable_bonds>
4

> <r_i_docking_score>
-8.68858692266398

> <r_i_glide_ligand_efficiency>
-0.362024455110999

> <r_i_glide_ligand_efficiency_sa>
-1.04425922854299

> <r_i_glide_ligand_efficiency_ln>
-2.07957754386817

> <r_i_glide_gscore>
-8.68858692266398

> <r_i_glide_lipo>
-3.60668806613868

> <r_i_glide_hbond>
-0.109762845998576

> <r_i_glide_metal>
0

> <r_i_glide_rewards>
-3.29981520314012

> <r_i_glide_evdw>
-41.2147369384766

> <r_i_glide_ecoul>
-0.358317613601685

> <r_i_glide_erotb>
0.471927868747044

> <r_i_glide_esite>
-0.0297641871695676

> <r_i_glide_emodel>
-44.1555679889933

> <r_i_glide_energy>
-41.5730545520782

> <r_i_glide_einternal>
5.13056802749634

> <i_i_glide_confnum>
6

> <i_i_glide_posenum>
10

> <r_i_glide_eff_state_penalty>
0

> <s_user_duplicate_titles>
CHEMBL2039_lig39

> <s_m_subgroup_title>
dock_pv

> <s_m_subgroupid>
dock_pv

> <b_m_subgroup_collapsed>
1

$$$$
CHEMBL2039_lig1340
                    3D
 Schrodinger Suite 2021-1.
 35 37  0  0  1  0            999 V2000
   53.1665  155.8308   25.2084 O   0  0  0  0  0  0
   53.9492  154.9536   24.5040 C   0  0  0  0  0  0
   54.8560  155.4455   23.8368 O   0  0  0  0  0  0
   53.5638  153.5436   24.5621 C   0  0  0  0  0  0
   52.6516  153.0869   25.4455 C   0  0  0  0  0  0
   52.0560  154.0305   26.4342 C   0  0  0  0  0  0
   51.3713  153.6690   27.6012 C   0  0  0  0  0  0
   51.0368  154.6439   28.5502 C   0  0  0  0  0  0
   51.3723  155.9926   28.3882 C   0  0  0  0  0  0
   52.0593  156.3327   27.2126 C   0  0  0  0  0  0
   52.3972  155.3821   26.2646 C   0  0  0  0  0  0
   52.4322  151.5901   25.5650 C   0  0  0  0  0  0
   50.8560  156.9334   29.3040 N   0  0  0  0  0  0
   51.1664  158.1742   29.3040 C   0  0  0  0  0  0
   50.4142  159.1366   30.1040 C   0  0  0  0  0  0
   51.0382  160.2447   30.7079 C   0  0  0  0  0  0
   50.3329  161.0332   31.6170 C   0  0  0  0  0  0
   49.0139  160.7288   31.9412 C   0  0  0  0  0  0
   48.3638  159.6795   31.3099 C   0  0  0  0  0  0
   49.0589  158.8936   30.3982 C   0  0  0  0  0  0
   48.3664  161.4440   32.9039 O   0  0  0  0  0  0
   52.3653  160.5420   30.5078 O   0  0  0  0  0  0
   54.0560  152.8460   23.9037 H   0  0  0  0  0  0
   51.1232  152.6396   27.8098 H   0  0  0  0  0  0
   50.4982  154.3424   29.4363 H   0  0  0  0  0  0
   52.3420  157.3539   27.0109 H   0  0  0  0  0  0
   52.4561  151.1169   24.5837 H   0  0  0  0  0  0
   53.2671  151.1573   26.1040 H   0  0  0  0  0  0
   51.5094  151.3217   26.0798 H   0  0  0  0  0  0
   51.9622  158.5955   28.6966 H   0  0  0  0  0  0
   50.8384  161.8526   32.1038 H   0  0  0  0  0  0
   47.3380  159.4495   31.5574 H   0  0  0  0  0  0
   48.5436  158.0465   29.9697 H   0  0  0  0  0  0
   48.9675  162.0715   33.3090 H   0  0  0  0  0  0
   52.9186  159.7496   30.5011 H   0  0  0  0  0  0
  1  2  1  0  0  0
  1 11  1  0  0  0
  2  3  2  0  0  0
  2  4  1  0  0  0
  4  5  2  0  0  0
  4 23  1  0  0  0
  5  6  1  0  0  0
  5 12  1  0  0  0
  6  7  1  0  0  0
  6 11  2  0  0  0
  7  8  2  0  0  0
  7 24  1  0  0  0
  8  9  1  0  0  0
  8 25  1  0  0  0
  9 10  2  0  0  0
  9 13  1  0  0  0
 10 11  1  0  0  0
 10 26  1  0  0  0
 12 27  1  0  0  0
 12 28  1  0  0  0
 12 29  1  0  0  0
 13 14  2  0  0  0
 14 15  1  0  0  0
 14 30  1  0  0  0
 15 16  1  0  0  0
 15 20  2  0  0  0
 16 17  2  0  0  0
 16 22  1  0  0  0
 17 18  1  0  0  0
 17 31  1  0  0  0
 18 19  2  0  0  0
 18 21  1  0  0  0
 19 20  1  0  0  0
 19 32  1  0  0  0
 20 33  1  0  0  0
 21 34  1  0  0  0
 22 35  1  0  0  0
M  END
> <s_m_entry_id>
9977

> <s_m_entry_name>
dock_pv.13

> <s_m_Source_Path>
/home/csk/Desktop/cluster/DUD-E-result/aofb

> <s_m_Source_File>
dock_pv.maegz

> <i_m_Source_File_Index>
13

> <chembl_id>
CHEMBL3394526

> <chembl_pref_name>
None

> <i_lp_mmshare_version>
53161

> <i_f3d_flags>
0

> <r_lp_tautomer_probability>
1

> <s_lp_Force_Field>
OPLS_2005

> <r_lp_Energy>
23.543759

> <b_lp_Chiralities_Consistent>
1

> <s_lp_Variant>
CHEMBL2039_lig1340-1

> <s_i_glide_gridfile>
glide-grid_1s3b

> <i_i_glide_lignum>
1561

> <i_i_glide_rotatable_bonds>
4

> <r_i_docking_score>
-8.62722445816271

> <r_i_glide_ligand_efficiency>
-0.392146566280123

> <r_i_glide_ligand_efficiency_sa>
-1.09881010096621

> <r_i_glide_ligand_efficiency_ln>
-2.10880834323307

> <r_i_glide_gscore>
-8.62722445816271

> <r_i_glide_lipo>
-3.72980506544823

> <r_i_glide_hbond>
-0.32

> <r_i_glide_metal>
0

> <r_i_glide_rewards>
-2.59220503561432

> <r_i_glide_evdw>
-31.2280559539795

> <r_i_glide_ecoul>
-5.62401628494263

> <r_i_glide_erotb>
0.419790883340213

> <r_i_glide_esite>
0

> <r_i_glide_emodel>
-38.6942716783896

> <r_i_glide_energy>
-36.8520722389221

> <r_i_glide_einternal>
8.04722309112549

> <i_i_glide_confnum>
4

> <i_i_glide_posenum>
97

> <r_i_glide_eff_state_penalty>
0

> <s_user_duplicate_titles>
CHEMBL2039_lig1340

> <s_m_subgroup_title>
dock_pv

> <s_m_subgroupid>
dock_pv

> <b_m_subgroup_collapsed>
1

$$$$
CHEMBL2039_lig1341
                    3D
 Schrodinger Suite 2021-1.
 34 36  0  0  1  0            999 V2000
   51.0598  154.5537   28.5040 C   0  0  0  0  0  0
   51.3856  155.9027   28.3311 C   0  0  0  0  0  0
   52.0560  156.2440   27.1446 C   0  0  0  0  0  0
   51.3868  153.5771   27.5571 C   0  0  0  0  0  0
   52.0560  153.9363   26.3818 C   0  0  0  0  0  0
   52.3931  155.2873   26.1978 C   0  0  0  0  0  0
   53.1643  155.7231   25.1347 O   0  0  0  0  0  0
   53.9516  154.8357   24.4375 C   0  0  0  0  0  0
   53.5670  153.4291   24.5175 C   0  0  0  0  0  0
   52.6545  152.9845   25.4059 C   0  0  0  0  0  0
   54.8560  155.3205   23.7620 O   0  0  0  0  0  0
   52.4321  151.4890   25.5448 C   0  0  0  0  0  0
   50.8560  156.8406   29.2434 N   0  0  0  0  0  0
   51.2100  158.0698   29.3040 C   0  0  0  0  0  0
   50.4602  159.0522   30.1040 C   0  0  0  0  0  0
   49.1191  158.7996   30.4559 C   0  0  0  0  0  0
   48.4150  159.6512   31.3025 C   0  0  0  0  0  0
   49.0455  160.7700   31.8307 C   0  0  0  0  0  0
   50.3667  161.0440   31.4881 C   0  0  0  0  0  0
   51.0729  160.2142   30.6193 C   0  0  0  0  0  0
   52.3924  160.5181   30.3805 O   0  0  0  0  0  0
   50.5330  154.2532   29.3975 H   0  0  0  0  0  0
   52.3240  157.2690   26.9405 H   0  0  0  0  0  0
   51.1486  152.5476   27.7765 H   0  0  0  0  0  0
   54.0558  152.7208   23.8686 H   0  0  0  0  0  0
   52.4560  151.0011   24.5709 H   0  0  0  0  0  0
   53.2566  151.0615   26.1040 H   0  0  0  0  0  0
   51.5023  151.2309   26.0514 H   0  0  0  0  0  0
   52.0540  158.4672   28.7470 H   0  0  0  0  0  0
   48.6147  157.9110   30.1040 H   0  0  0  0  0  0
   47.3917  159.4290   31.5679 H   0  0  0  0  0  0
   48.5165  161.4237   32.5085 H   0  0  0  0  0  0
   50.8560  161.9003   31.9242 H   0  0  0  0  0  0
   52.9534  159.7313   30.3921 H   0  0  0  0  0  0
  1  2  2  0  0  0
  1  4  1  0  0  0
  1 22  1  0  0  0
  2  3  1  0  0  0
  2 13  1  0  0  0
  3  6  2  0  0  0
  3 23  1  0  0  0
  4  5  2  0  0  0
  4 24  1  0  0  0
  5  6  1  0  0  0
  5 10  1  0  0  0
  6  7  1  0  0  0
  7  8  1  0  0  0
  8 11  2  0  0  0
  8  9  1  0  0  0
  9 10  2  0  0  0
  9 25  1  0  0  0
 10 12  1  0  0  0
 12 26  1  0  0  0
 12 27  1  0  0  0
 12 28  1  0  0  0
 13 14  2  0  0  0
 14 15  1  0  0  0
 14 29  1  0  0  0
 15 16  2  0  0  0
 15 20  1  0  0  0
 16 17  1  0  0  0
 16 30  1  0  0  0
 17 18  2  0  0  0
 17 31  1  0  0  0
 18 19  1  0  0  0
 18 32  1  0  0  0
 19 20  2  0  0  0
 19 33  1  0  0  0
 20 21  1  0  0  0
 21 34  1  0  0  0
M  END
> <s_m_entry_id>
9978

> <s_m_entry_name>
dock_pv.14

> <s_m_Source_Path>
/home/csk/Desktop/cluster/DUD-E-result/aofb

> <s_m_Source_File>
dock_pv.maegz

> <i_m_Source_File_Index>
14

> <chembl_id>
CHEMBL574382

> <chembl_pref_name>
None

> <i_lp_mmshare_version>
53161

> <i_f3d_flags>
0

> <r_lp_tautomer_probability>
1

> <s_lp_Force_Field>
OPLS_2005

> <r_lp_Energy>
23.458234

> <b_lp_Chiralities_Consistent>
1

> <s_lp_Variant>
CHEMBL2039_lig1341-1

> <s_i_glide_gridfile>
glide-grid_1s3b

> <i_i_glide_lignum>
1562

> <i_i_glide_rotatable_bonds>
3

> <r_i_docking_score>
-8.61626719669794

> <r_i_glide_ligand_efficiency>
-0.410298437937997

> <r_i_glide_ligand_efficiency_sa>
-1.13198227880977

> <r_i_glide_ligand_efficiency_ln>
-2.13035465357632

> <r_i_glide_gscore>
-8.61626719669794

> <r_i_glide_lipo>
-3.82215072958366

> <r_i_glide_hbond>
-0.340690304511781

> <r_i_glide_metal>
0

> <r_i_glide_rewards>
-2.67131876133299

> <r_i_glide_evdw>
-27.3992118835449

> <r_i_glide_ecoul>
-5.83138704299927

> <r_i_glide_erotb>
0.462561249357624

> <r_i_glide_esite>
0

> <r_i_glide_emodel>
-31.3922573201161

> <r_i_glide_energy>
-33.2305989265442

> <r_i_glide_einternal>
12.750880241394

> <i_i_glide_confnum>
5

> <i_i_glide_posenum>
121

> <r_i_glide_eff_state_penalty>
0

> <s_user_duplicate_titles>
CHEMBL2039_lig1341

> <s_m_subgroup_title>
dock_pv

> <s_m_subgroupid>
dock_pv

> <b_m_subgroup_collapsed>
1

$$$$
CHEMBL2039_lig2479
                    3D
 Schrodinger Suite 2021-1.
 30 31  0  0  1  0            999 V2000
   50.7821  158.5279   29.6297 C   0  0  0  0  0  0
   49.6570  159.0860   30.4144 C   0  0  0  0  0  0
   48.3577  158.5576   30.3666 C   0  0  0  0  0  0
   47.3491  159.0600   31.1871 C   0  0  0  0  0  0
   47.6415  160.0596   32.1101 C   0  0  0  0  0  0
   48.9349  160.5684   32.1863 C   0  0  0  0  0  0
   49.9221  160.1287   31.3064 C   0  0  0  0  0  0
   50.9144  157.2332   29.2636 C   0  0  0  0  0  0
   52.0129  156.7303   28.4154 C   0  0  0  0  0  0
   52.9637  157.4452   28.1037 O   0  0  0  0  0  0
   51.7921  155.4174   27.7373 C   0  0  0  0  0  0
   52.0566  155.2303   26.3635 C   0  0  0  0  0  0
   51.8952  153.9775   25.7736 C   0  0  0  0  0  0
   51.5116  152.8888   26.5479 C   0  0  0  0  0  0
   51.2561  153.0594   27.9039 C   0  0  0  0  0  0
   51.3835  154.3129   28.4963 C   0  0  0  0  0  0
   52.5060  156.2441   25.5606 O   0  0  0  0  0  0
   49.2564  161.4440   33.1803 O   0  0  0  0  0  0
   51.5322  159.2435   29.3175 H   0  0  0  0  0  0
   48.1136  157.7433   29.7039 H   0  0  0  0  0  0
   46.3548  158.6438   31.1346 H   0  0  0  0  0  0
   46.8777  160.4123   32.7879 H   0  0  0  0  0  0
   50.9238  160.5265   31.3885 H   0  0  0  0  0  0
   50.1715  156.5107   29.5652 H   0  0  0  0  0  0
   52.1064  153.8419   24.7228 H   0  0  0  0  0  0
   51.4266  151.9084   26.1045 H   0  0  0  0  0  0
   50.9640  152.2078   28.5011 H   0  0  0  0  0  0
   51.2069  154.3985   29.5597 H   0  0  0  0  0  0
   52.6610  157.0461   26.0686 H   0  0  0  0  0  0
   50.1945  161.6687   33.2204 H   0  0  0  0  0  0
  1  2  1  0  0  0
  1  8  2  0  0  0
  1 19  1  0  0  0
  2  3  2  0  0  0
  2  7  1  0  0  0
  3  4  1  0  0  0
  3 20  1  0  0  0
  4  5  2  0  0  0
  4 21  1  0  0  0
  5  6  1  0  0  0
  5 22  1  0  0  0
  6  7  2  0  0  0
  6 18  1  0  0  0
  7 23  1  0  0  0
  8  9  1  0  0  0
  8 24  1  0  0  0
  9 10  2  0  0  0
  9 11  1  0  0  0
 11 12  2  0  0  0
 11 16  1  0  0  0
 12 13  1  0  0  0
 12 17  1  0  0  0
 13 14  2  0  0  0
 13 25  1  0  0  0
 14 15  1  0  0  0
 14 26  1  0  0  0
 15 16  2  0  0  0
 15 27  1  0  0  0
 16 28  1  0  0  0
 17 29  1  0  0  0
 18 30  1  0  0  0
M  END
> <s_m_entry_id>
9979

> <s_m_entry_name>
dock_pv.15

> <s_m_Source_Path>
/home/csk/Desktop/cluster/DUD-E-result/aofb

> <s_m_Source_File>
dock_pv.maegz

> <i_m_Source_File_Index>
15

> <chembl_id>
CHEMBL3823220

> <chembl_pref_name>
None

> <i_lp_mmshare_version>
53161

> <i_f3d_flags>
0

> <r_lp_tautomer_probability>
1

> <s_lp_Force_Field>
OPLS_2005

> <r_lp_Energy>
18.936271

> <b_lp_Chiralities_Consistent>
1

> <s_lp_Variant>
CHEMBL2039_lig2479-1

> <s_i_glide_gridfile>
glide-grid_1s3b

> <i_i_glide_lignum>
2882

> <i_i_glide_rotatable_bonds>
5

> <r_i_docking_score>
-8.60685468265943

> <r_i_glide_ligand_efficiency>
-0.478158593481079

> <r_i_glide_ligand_efficiency_sa>
-1.25313001772523

> <r_i_glide_ligand_efficiency_ln>
-2.21234761567204

> <r_i_glide_gscore>
-8.60685468265943

> <r_i_glide_lipo>
-3.96387478079217

> <r_i_glide_hbond>
-0.32

> <r_i_glide_metal>
0

> <r_i_glide_rewards>
-3.10711697279793

> <r_i_glide_evdw>
-34.2141075134277

> <r_i_glide_ecoul>
-2.69512677192688

> <r_i_glide_erotb>
0.899111462391091

> <r_i_glide_esite>
0

> <r_i_glide_emodel>
-51.2564914771595

> <r_i_glide_energy>
-36.9092342853546

> <r_i_glide_einternal>
6.40527153015137

> <i_i_glide_confnum>
7

> <i_i_glide_posenum>
226

> <r_i_glide_eff_state_penalty>
0

> <s_user_duplicate_titles>
CHEMBL2039_lig2479

> <s_m_subgroup_title>
dock_pv

> <s_m_subgroupid>
dock_pv

> <b_m_subgroup_collapsed>
1

$$$$
CHEMBL2039_lig1337
                    3D
 Schrodinger Suite 2021-1.
 34 36  0  0  1  0            999 V2000
   53.1912  155.8923   25.2224 O   0  0  0  0  0  0
   53.9583  155.0153   24.5037 C   0  0  0  0  0  0
   54.8560  155.5070   23.8242 O   0  0  0  0  0  0
   53.5624  153.6078   24.5501 C   0  0  0  0  0  0
   52.6465  153.1509   25.4299 C   0  0  0  0  0  0
   52.0560  154.0910   26.4241 C   0  0  0  0  0  0
   51.3769  153.7184   27.5893 C   0  0  0  0  0  0
   51.0534  154.6836   28.5485 C   0  0  0  0  0  0
   51.3882  156.0345   28.3916 C   0  0  0  0  0  0
   52.0889  156.3867   27.2304 C   0  0  0  0  0  0
   52.4165  155.4415   26.2728 C   0  0  0  0  0  0
   52.4238  151.6541   25.5499 C   0  0  0  0  0  0
   50.8559  156.9626   29.3040 N   0  0  0  0  0  0
   51.0855  158.2206   29.3040 C   0  0  0  0  0  0
   50.2610  159.1174   30.1205 C   0  0  0  0  0  0
   50.7923  160.2563   30.7586 C   0  0  0  0  0  0
   50.0148  160.9776   31.6705 C   0  0  0  0  0  0
   48.7106  160.5757   31.9605 C   0  0  0  0  0  0
   48.1561  159.4899   31.2997 C   0  0  0  0  0  0
   48.9234  158.7716   30.3925 C   0  0  0  0  0  0
   52.1000  160.6440   30.5879 O   0  0  0  0  0  0
   47.6869  161.4440   33.3032 Br  0  0  0  0  0  0
   54.0536  152.9124   23.8885 H   0  0  0  0  0  0
   51.1236  152.6885   27.7884 H   0  0  0  0  0  0
   50.5118  154.3769   29.4311 H   0  0  0  0  0  0
   52.3814  157.4090   27.0477 H   0  0  0  0  0  0
   52.4561  151.1776   24.5705 H   0  0  0  0  0  0
   53.2520  151.2245   26.1040 H   0  0  0  0  0  0
   51.4958  151.3867   26.0554 H   0  0  0  0  0  0
   51.8478  158.6946   28.6932 H   0  0  0  0  0  0
   50.4451  161.8229   32.1874 H   0  0  0  0  0  0
   47.1463  159.1776   31.5224 H   0  0  0  0  0  0
   48.4765  157.8965   29.9446 H   0  0  0  0  0  0
   52.7034  159.8979   30.5010 H   0  0  0  0  0  0
  1  2  1  0  0  0
  1 11  1  0  0  0
  2  3  2  0  0  0
  2  4  1  0  0  0
  4  5  2  0  0  0
  4 23  1  0  0  0
  5  6  1  0  0  0
  5 12  1  0  0  0
  6  7  1  0  0  0
  6 11  2  0  0  0
  7  8  2  0  0  0
  7 24  1  0  0  0
  8  9  1  0  0  0
  8 25  1  0  0  0
  9 10  2  0  0  0
  9 13  1  0  0  0
 10 11  1  0  0  0
 10 26  1  0  0  0
 12 27  1  0  0  0
 12 28  1  0  0  0
 12 29  1  0  0  0
 13 14  2  0  0  0
 14 15  1  0  0  0
 14 30  1  0  0  0
 15 16  1  0  0  0
 15 20  2  0  0  0
 16 17  2  0  0  0
 16 21  1  0  0  0
 17 18  1  0  0  0
 17 31  1  0  0  0
 18 19  2  0  0  0
 18 22  1  0  0  0
 19 20  1  0  0  0
 19 32  1  0  0  0
 20 33  1  0  0  0
 21 34  1  0  0  0
M  END
> <s_m_entry_id>
9980

> <s_m_entry_name>
dock_pv.16

> <s_m_Source_Path>
/home/csk/Desktop/cluster/DUD-E-result/aofb

> <s_m_Source_File>
dock_pv.maegz

> <i_m_Source_File_Index>
16

> <chembl_id>
CHEMBL3394529

> <chembl_pref_name>
None

> <i_lp_mmshare_version>
53161

> <i_f3d_flags>
0

> <r_lp_tautomer_probability>
1

> <s_lp_Force_Field>
OPLS_2005

> <r_lp_Energy>
23.200713

> <b_lp_Chiralities_Consistent>
1

> <s_lp_Variant>
CHEMBL2039_lig1337-1

> <s_i_glide_gridfile>
glide-grid_1s3b

> <i_i_glide_lignum>
1558

> <i_i_glide_rotatable_bonds>
3

> <r_i_docking_score>
-8.60290856676666

> <r_i_glide_ligand_efficiency>
-0.391041298489394

> <r_i_glide_ligand_efficiency_sa>
-1.09571309714887

> <r_i_glide_ligand_efficiency_ln>
-2.10286465243219

> <r_i_glide_gscore>
-8.60290856676666

> <r_i_glide_lipo>
-4.06637821466503

> <r_i_glide_hbond>
-0.221140724860034

> <r_i_glide_metal>
0

> <r_i_glide_rewards>
-2.20998612659534

> <r_i_glide_evdw>
-33.4420394897461

> <r_i_glide_ecoul>
-4.87914037704468

> <r_i_glide_erotb>
0.298569530397749

> <r_i_glide_esite>
0

> <r_i_glide_emodel>
-39.2254691162219

> <r_i_glide_energy>
-38.3211798667908

> <r_i_glide_einternal>
13.7829885482788

> <i_i_glide_confnum>
2

> <i_i_glide_posenum>
67

> <r_i_glide_eff_state_penalty>
0

> <s_user_duplicate_titles>
CHEMBL2039_lig1337

> <s_m_subgroup_title>
dock_pv

> <s_m_subgroupid>
dock_pv

> <b_m_subgroup_collapsed>
1

$$$$
CHEMBL2039_lig302
                    3D
 Schrodinger Suite 2021-1.
 29 30  0  0  1  0            999 V2000
   51.9186  153.8284   25.6612 C   0  0  0  0  0  0
   51.5482  152.7877   26.5039 C   0  0  0  0  0  0
   51.2647  153.0455   27.8422 C   0  0  0  0  0  0
   51.3778  154.3363   28.3510 C   0  0  0  0  0  0
   51.7919  155.3907   27.5228 C   0  0  0  0  0  0
   52.0573  155.1204   26.1641 C   0  0  0  0  0  0
   52.4857  156.0941   25.2978 O   0  0  0  0  0  0
   52.0565  156.7363   28.1141 C   0  0  0  0  0  0
   51.0799  157.2945   29.0521 C   0  0  0  0  0  0
   52.9888  157.4327   27.7049 O   0  0  0  0  0  0
   51.0385  158.6104   29.3598 C   0  0  0  0  0  0
   50.0558  159.2645   30.2489 C   0  0  0  0  0  0
   48.8065  158.6930   30.5218 C   0  0  0  0  0  0
   47.9475  159.2859   31.4440 C   0  0  0  0  0  0
   48.3418  160.4404   32.1130 C   0  0  0  0  0  0
   49.5814  161.0219   31.8452 C   0  0  0  0  0  0
   50.4300  160.4429   30.9041 C   0  0  0  0  0  0
   47.3036  161.1394   33.3043 Cl  0  0  0  0  0  0
   52.1359  153.6268   24.6227 H   0  0  0  0  0  0
   51.4751  151.7782   26.1221 H   0  0  0  0  0  0
   50.9750  152.2327   28.4943 H   0  0  0  0  0  0
   51.1924  154.4867   29.4057 H   0  0  0  0  0  0
   52.6280  156.9254   25.7644 H   0  0  0  0  0  0
   50.3663  156.6067   29.4783 H   0  0  0  0  0  0
   51.7689  159.2752   28.9137 H   0  0  0  0  0  0
   48.4966  157.7717   30.0553 H   0  0  0  0  0  0
   46.9905  158.8341   31.6623 H   0  0  0  0  0  0
   49.8957  161.9069   32.3797 H   0  0  0  0  0  0
   51.3962  160.8909   30.7260 H   0  0  0  0  0  0
  1  6  1  0  0  0
  1  2  2  0  0  0
  1 19  1  0  0  0
  2  3  1  0  0  0
  2 20  1  0  0  0
  3  4  2  0  0  0
  3 21  1  0  0  0
  4  5  1  0  0  0
  4 22  1  0  0  0
  5  6  2  0  0  0
  5  8  1  0  0  0
  6  7  1  0  0  0
  7 23  1  0  0  0
  8  9  1  0  0  0
  8 10  2  0  0  0
  9 11  2  0  0  0
  9 24  1  0  0  0
 11 12  1  0  0  0
 11 25  1  0  0  0
 12 13  2  0  0  0
 12 17  1  0  0  0
 13 14  1  0  0  0
 13 26  1  0  0  0
 14 15  2  0  0  0
 14 27  1  0  0  0
 15 16  1  0  0  0
 15 18  1  0  0  0
 16 17  2  0  0  0
 16 28  1  0  0  0
 17 29  1  0  0  0
M  END
> <s_m_entry_id>
9981

> <s_m_entry_name>
dock_pv.17

> <s_m_Source_Path>
/home/csk/Desktop/cluster/DUD-E-result/aofb

> <s_m_Source_File>
dock_pv.maegz

> <i_m_Source_File_Index>
17

> <chembl_id>
CHEMBL241861

> <chembl_pref_name>
None

> <i_lp_mmshare_version>
53161

> <i_f3d_flags>
0

> <r_lp_tautomer_probability>
1

> <s_lp_Force_Field>
OPLS_2005

> <r_lp_Energy>
19.427936

> <b_lp_Chiralities_Consistent>
1

> <s_lp_Variant>
CHEMBL2039_lig302-1

> <s_i_glide_gridfile>
glide-grid_1s3b

> <i_i_glide_lignum>
351

> <i_i_glide_rotatable_bonds>
4

> <r_i_docking_score>
-8.60246868247216

> <r_i_glide_ligand_efficiency>
-0.477914926804009

> <r_i_glide_ligand_efficiency_sa>
-1.25249143037886

> <r_i_glide_ligand_efficiency_ln>
-2.21122021693994

> <r_i_glide_gscore>
-8.60246868247216

> <r_i_glide_lipo>
-4.37336167589417

> <r_i_glide_hbond>
0

> <r_i_glide_metal>
0

> <r_i_glide_rewards>
-2.99523177272727

> <r_i_glide_evdw>
-35.1966323852539

> <r_i_glide_ecoul>
-0.0139179937541485

> <r_i_glide_erotb>
0.528044084475105

> <r_i_glide_esite>
0

> <r_i_glide_emodel>
-49.6155342450936

> <r_i_glide_energy>
-35.2105503790081

> <r_i_glide_einternal>
5.22615194320679

> <i_i_glide_confnum>
2

> <i_i_glide_posenum>
116

> <r_i_glide_eff_state_penalty>
0

> <s_user_duplicate_titles>
CHEMBL2039_lig302,391157

> <s_m_subgroup_title>
dock_pv

> <s_m_subgroupid>
dock_pv

> <b_m_subgroup_collapsed>
1

$$$$
CHEMBL2039_lig1327
                    3D
 Schrodinger Suite 2021-1.
 40 43  0  0  1  0            999 V2000
   50.9787  153.4435   27.4881 O   0  0  0  0  0  0
   51.5616  152.6319   26.5091 C   0  0  0  0  0  0
   51.2560  151.4440   26.5040 O   0  0  0  0  0  0
   52.2096  155.3860   26.7302 C   0  0  0  0  0  0
   52.7254  156.6440   27.0011 C   0  0  0  0  0  0
   52.2743  157.3515   28.1072 C   0  0  0  0  0  0
   51.2560  156.8225   28.9040 C   0  0  0  0  0  0
   50.8618  155.4885   28.7349 C   0  0  0  0  0  0
   51.3656  154.7642   27.6548 C   0  0  0  0  0  0
   50.4560  157.6375   29.7040 N   0  0  0  0  0  0
   50.4832  159.0961   29.6493 C   0  0  0  0  0  0
   49.4444  159.6753   30.6071 C   0  0  0  0  0  0
   49.8122  160.5952   31.6013 C   0  0  0  0  0  0
   48.8606  161.0562   32.5119 C   0  0  0  0  0  0
   47.5348  160.6380   32.4186 C   0  0  0  0  0  0
   47.1515  159.7603   31.4063 C   0  0  0  0  0  0
   48.1013  159.2825   30.5039 C   0  0  0  0  0  0
   51.1040  161.0440   31.7040 O   0  0  0  0  0  0
   52.4413  153.2758   25.5467 C   0  0  0  0  0  0
   52.6684  154.6010   25.5880 C   0  0  0  0  0  0
   53.6621  154.9752   24.5187 C   0  0  0  0  0  0
   53.5710  153.7717   23.5862 C   0  0  0  0  0  0
   53.2560  152.5908   24.4771 C   0  0  0  0  0  0
   53.4642  157.0809   26.3496 H   0  0  0  0  0  0
   52.6363  158.3515   28.2685 H   0  0  0  0  0  0
   50.1141  155.0440   29.3743 H   0  0  0  0  0  0
   49.6379  157.2216   30.1211 H   0  0  0  0  0  0
   50.2597  159.4363   28.6368 H   0  0  0  0  0  0
   51.4887  159.4477   29.8842 H   0  0  0  0  0  0
   49.1471  161.7460   33.2916 H   0  0  0  0  0  0
   46.8031  161.0024   33.1246 H   0  0  0  0  0  0
   46.1207  159.4459   31.3251 H   0  0  0  0  0  0
   47.7928  158.5960   29.7285 H   0  0  0  0  0  0
   51.2726  161.6058   32.4727 H   0  0  0  0  0  0
   53.4636  155.9568   24.1040 H   0  0  0  0  0  0
   54.6692  155.0270   24.9303 H   0  0  0  0  0  0
   54.4560  153.6303   22.9722 H   0  0  0  0  0  0
   52.7285  153.8760   22.9040 H   0  0  0  0  0  0
   54.1638  152.1664   24.9069 H   0  0  0  0  0  0
   52.7611  151.7886   23.9328 H   0  0  0  0  0  0
  1  2  1  0  0  0
  1  9  1  0  0  0
  2  3  2  0  0  0
  2 19  1  0  0  0
  4 20  1  0  0  0
  4  5  1  0  0  0
  4  9  2  0  0  0
  5  6  2  0  0  0
  5 24  1  0  0  0
  6  7  1  0  0  0
  6 25  1  0  0  0
  7  8  2  0  0  0
  7 10  1  0  0  0
  8  9  1  0  0  0
  8 26  1  0  0  0
 10 11  1  0  0  0
 10 27  1  0  0  0
 11 12  1  0  0  0
 11 28  1  0  0  0
 11 29  1  0  0  0
 12 13  1  0  0  0
 12 17  2  0  0  0
 13 14  2  0  0  0
 13 18  1  0  0  0
 14 15  1  0  0  0
 14 30  1  0  0  0
 15 16  2  0  0  0
 15 31  1  0  0  0
 16 17  1  0  0  0
 16 32  1  0  0  0
 17 33  1  0  0  0
 18 34  1  0  0  0
 19 20  2  0  0  0
 19 23  1  0  0  0
 20 21  1  0  0  0
 21 22  1  0  0  0
 21 35  1  0  0  0
 21 36  1  0  0  0
 22 23  1  0  0  0
 22 37  1  0  0  0
 22 38  1  0  0  0
 23 39  1  0  0  0
 23 40  1  0  0  0
M  END
> <s_m_entry_id>
9982

> <s_m_entry_name>
dock_pv.18

> <s_m_Source_Path>
/home/csk/Desktop/cluster/DUD-E-result/aofb

> <s_m_Source_File>
dock_pv.maegz

> <i_m_Source_File_Index>
18

> <chembl_id>
CHEMBL3394544

> <chembl_pref_name>
None

> <i_lp_mmshare_version>
53161

> <i_f3d_flags>
0

> <r_lp_tautomer_probability>
0.999999999997365

> <s_lp_Force_Field>
OPLS_2005

> <r_lp_Energy>
31.886496

> <b_lp_Chiralities_Consistent>
1

> <s_lp_Variant>
CHEMBL2039_lig1327-1

> <s_i_glide_gridfile>
glide-grid_1s3b

> <i_i_glide_lignum>
1548

> <i_i_glide_rotatable_bonds>
4

> <r_i_docking_score>
-8.58647692256114

> <r_i_glide_ligand_efficiency>
-0.373325083589615

> <r_i_glide_ligand_efficiency_sa>
-1.06168687686119

> <r_i_glide_ligand_efficiency_ln>
-2.07628797774342

> <r_i_glide_gscore>
-8.58647692256114

> <r_i_glide_lipo>
-4.77833798717099

> <r_i_glide_hbond>
-0.32

> <r_i_glide_metal>
0

> <r_i_glide_rewards>
-2.21204682221656

> <r_i_glide_evdw>
-28.9600467681885

> <r_i_glide_ecoul>
-2.76785278320312

> <r_i_glide_erotb>
0.587088142716299

> <r_i_glide_esite>
0

> <r_i_glide_emodel>
-33.4169184463868

> <r_i_glide_energy>
-31.7278995513916

> <r_i_glide_einternal>
5.11175632476807

> <i_i_glide_confnum>
10

> <i_i_glide_posenum>
89

> <r_i_glide_eff_state_penalty>
0

> <s_user_duplicate_titles>
CHEMBL2039_lig1327

> <s_m_subgroup_title>
dock_pv

> <s_m_subgroupid>
dock_pv

> <b_m_subgroup_collapsed>
1

$$$$
CHEMBL2039_lig2387 
                    3D
 Schrodinger Suite 2021-1.
 39 40  0  0  1  0            999 V2000
   52.2883  153.8773   25.4157 N   0  0  1  0  0  0
   51.9492  153.2609   26.7183 C   0  0  0  0  0  0
   51.1976  154.1745   27.7042 C   0  0  0  0  0  0
   51.9044  155.5271   27.9528 C   0  0  0  0  0  0
   52.1506  156.1809   26.5673 C   0  0  0  0  0  0
   52.7886  155.2675   25.4980 C   0  0  0  0  0  0
   53.2756  153.1361   24.5889 C   0  0  0  0  0  0
   53.2212  151.6572   24.6348 C   0  0  0  0  0  0
   53.2562  150.4370   24.6945 C   0  0  0  0  0  0
   51.0622  156.3998   28.9041 C   0  0  0  0  0  0
   51.0185  157.7548   28.9839 C   0  0  0  0  0  0
   50.1428  158.5639   29.8845 C   0  0  0  0  0  0
   50.5381  159.8445   30.2900 C   0  0  0  0  0  0
   49.7812  160.5545   31.2264 C   0  0  0  0  0  0
   48.5987  160.0080   31.7406 C   0  0  0  0  0  0
   48.1725  158.7580   31.2963 C   0  0  0  0  0  0
   48.9441  158.0450   30.3929 C   0  0  0  0  0  0
   47.7853  160.7486   32.7997 C   0  0  0  0  0  0
   46.5571  160.2440   32.9039 F   0  0  0  0  0  0
   48.3876  160.6436   33.9831 F   0  0  0  0  0  0
   47.6568  162.0357   32.5039 F   0  0  0  0  0  0
   51.3809  152.3461   26.5414 H   0  0  0  0  0  0
   52.8560  152.9391   27.2162 H   0  0  0  0  0  0
   50.1713  154.2439   27.3630 H   0  0  0  0  0  0
   51.1335  153.6361   28.6513 H   0  0  0  0  0  0
   52.8560  155.2832   28.4136 H   0  0  0  0  0  0
   52.8044  157.0440   26.6920 H   0  0  0  0  0  0
   51.2561  156.5641   26.1051 H   0  0  0  0  0  0
   53.8576  155.2684   25.7038 H   0  0  0  0  0  0
   52.6996  155.7169   24.5072 H   0  0  0  0  0  0
   54.2949  153.3685   24.9041 H   0  0  0  0  0  0
   53.1950  153.4511   23.5475 H   0  0  0  0  0  0
   53.2656  149.3715   24.7619 H   0  0  0  0  0  0
   50.4534  155.8342   29.5947 H   0  0  0  0  0  0
   51.6560  158.3255   28.3241 H   0  0  0  0  0  0
   51.4637  160.2660   29.9261 H   0  0  0  0  0  0
   50.1320  161.5143   31.5755 H   0  0  0  0  0  0
   47.2668  158.3077   31.6763 H   0  0  0  0  0  0
   48.6094  157.0609   30.1040 H   0  0  0  0  0  0
  1  2  1  0  0  0
  1  6  1  0  0  0
  1  7  1  0  0  0
  2  3  1  0  0  0
  2 22  1  0  0  0
  2 23  1  0  0  0
  3  4  1  0  0  0
  3 24  1  0  0  0
  3 25  1  0  0  0
  4  5  1  0  0  0
  4 10  1  0  0  0
  4 26  1  0  0  0
  5  6  1  0  0  0
  5 27  1  0  0  0
  5 28  1  0  0  0
  6 29  1  0  0  0
  6 30  1  0  0  0
  7  8  1  0  0  0
  7 31  1  0  0  0
  7 32  1  0  0  0
  8  9  3  0  0  0
  9 33  1  0  0  0
 10 11  2  0  0  0
 10 34  1  0  0  0
 11 12  1  0  0  0
 11 35  1  0  0  0
 12 13  2  0  0  0
 12 17  1  0  0  0
 13 14  1  0  0  0
 13 36  1  0  0  0
 14 15  2  0  0  0
 14 37  1  0  0  0
 15 16  1  0  0  0
 15 18  1  0  0  0
 16 17  2  0  0  0
 16 38  1  0  0  0
 17 39  1  0  0  0
 18 19  1  0  0  0
 18 20  1  0  0  0
 18 21  1  0  0  0
M  END
> <s_m_entry_id>
9983

> <s_m_entry_name>
dock_pv.19

> <s_m_Source_Path>
/home/csk/Desktop/cluster/DUD-E-result/aofb

> <s_m_Source_File>
dock_pv.maegz

> <i_m_Source_File_Index>
19

> <chembl_id>
CHEMBL4458212

> <chembl_pref_name>
None

> <i_lp_mmshare_version>
53161

> <i_f3d_flags>
0

> <r_lp_tautomer_probability>
1

> <s_lp_Force_Field>
OPLS_2005

> <r_lp_Energy>
19.672948

> <b_lp_Chiralities_Consistent>
1

> <s_lp_Variant>
CHEMBL2039_lig2387 -1

> <s_i_glide_gridfile>
glide-grid_1s3b

> <i_i_glide_lignum>
2779

> <i_i_glide_rotatable_bonds>
5

> <r_i_docking_score>
-8.55798159400483

> <r_i_glide_ligand_efficiency>
-0.407522933047849

> <r_i_glide_ligand_efficiency_sa>
-1.12432487127445

> <r_i_glide_ligand_efficiency_ln>
-2.1159436560876

> <r_i_glide_gscore>
-8.55798159400483

> <r_i_glide_lipo>
-4.8368742173582

> <r_i_glide_hbond>
0

> <r_i_glide_metal>
0

> <r_i_glide_rewards>
-2.88767336304051

> <r_i_glide_evdw>
-31.1278915405273

> <r_i_glide_ecoul>
-0.843043267726898

> <r_i_glide_erotb>
0.849417053579282

> <r_i_glide_esite>
0

> <r_i_glide_emodel>
-32.7253642924976

> <r_i_glide_energy>
-31.9709348082542

> <r_i_glide_einternal>
18.1764430999756

> <i_i_glide_confnum>
19

> <i_i_glide_posenum>
151

> <r_i_glide_eff_state_penalty>
0

> <s_user_duplicate_titles>
CHEMBL2039_lig2387 ,CHEMBL2039_lig2386 

> <s_m_subgroup_title>
dock_pv

> <s_m_subgroupid>
dock_pv

> <b_m_subgroup_collapsed>
1

$$$$
CHEMBL2039_lig725
                    3D
 Schrodinger Suite 2021-1.
 32 33  0  0  1  0            999 V2000
   50.8556  157.0538   29.1869 O   0  0  0  0  0  0
   51.9864  156.7805   28.3694 C   0  0  0  0  0  0
   51.7701  155.4344   27.7042 C   0  0  0  0  0  0
   51.3160  154.3415   28.4511 C   0  0  0  0  0  0
   51.2561  153.0739   27.8722 C   0  0  0  0  0  0
   51.6559  152.8884   26.5514 C   0  0  0  0  0  0
   52.0898  153.9787   25.8059 C   0  0  0  0  0  0
   52.1045  155.2570   26.3611 C   0  0  0  0  0  0
   50.6575  158.3138   29.7040 C   0  0  0  0  0  0
   49.4261  158.5632   30.3084 C   0  0  0  0  0  0
   49.2303  159.7184   31.0557 C   0  0  0  0  0  0
   50.2698  160.6294   31.2166 C   0  0  0  0  0  0
   51.4824  160.4395   30.5274 C   0  0  0  0  0  0
   51.6465  159.3000   29.7343 C   0  0  0  0  0  0
   52.6374  161.3644   30.6106 C   0  0  0  0  0  0
   53.6561  161.0786   31.7040 C   0  0  0  0  0  0
   52.8583  162.2440   29.7827 O   0  0  0  0  0  0
   50.0562  161.6439   32.1048 O   0  0  0  0  0  0
   52.8630  153.6902   24.1033 Br  0  0  0  0  0  0
   52.0954  157.5540   27.6064 H   0  0  0  0  0  0
   52.9086  156.7509   28.9492 H   0  0  0  0  0  0
   51.0525  154.4619   29.4920 H   0  0  0  0  0  0
   50.9296  152.2291   28.4610 H   0  0  0  0  0  0
   51.6612  151.8985   26.1184 H   0  0  0  0  0  0
   52.4906  156.0814   25.7792 H   0  0  0  0  0  0
   48.6464  157.8174   30.2625 H   0  0  0  0  0  0
   48.2936  159.8667   31.5734 H   0  0  0  0  0  0
   52.6032  159.1069   29.2733 H   0  0  0  0  0  0
   53.1595  160.7332   32.6101 H   0  0  0  0  0  0
   54.2091  161.9854   31.9499 H   0  0  0  0  0  0
   54.3572  160.3117   31.3767 H   0  0  0  0  0  0
   50.8415  161.9174   32.5995 H   0  0  0  0  0  0
  1  2  1  0  0  0
  1  9  1  0  0  0
  2  3  1  0  0  0
  2 20  1  0  0  0
  2 21  1  0  0  0
  3  4  2  0  0  0
  3  8  1  0  0  0
  4  5  1  0  0  0
  4 22  1  0  0  0
  5  6  2  0  0  0
  5 23  1  0  0  0
  6  7  1  0  0  0
  6 24  1  0  0  0
  7  8  2  0  0  0
  7 19  1  0  0  0
  8 25  1  0  0  0
  9 10  2  0  0  0
  9 14  1  0  0  0
 10 11  1  0  0  0
 10 26  1  0  0  0
 11 12  2  0  0  0
 11 27  1  0  0  0
 12 13  1  0  0  0
 12 18  1  0  0  0
 13 14  2  0  0  0
 13 15  1  0  0  0
 14 28  1  0  0  0
 15 16  1  0  0  0
 15 17  2  0  0  0
 16 29  1  0  0  0
 16 30  1  0  0  0
 16 31  1  0  0  0
 18 32  1  0  0  0
M  END
> <s_m_entry_id>
9984

> <s_m_entry_name>
dock_pv.20

> <s_m_Source_Path>
/home/csk/Desktop/cluster/DUD-E-result/aofb

> <s_m_Source_File>
dock_pv.maegz

> <i_m_Source_File_Index>
20

> <chembl_id>
CHEMBL2062876

> <chembl_pref_name>
None

> <i_lp_mmshare_version>
53161

> <i_f3d_flags>
0

> <r_lp_tautomer_probability>
0.99995

> <s_lp_Force_Field>
OPLS_2005

> <r_lp_Energy>
26.942988

> <b_lp_Chiralities_Consistent>
1

> <s_lp_Variant>
CHEMBL2039_lig725-1

> <s_i_glide_gridfile>
glide-grid_1s3b

> <i_i_glide_lignum>
854

> <i_i_glide_rotatable_bonds>
5

> <r_i_docking_score>
-8.53782097999662

> <r_i_glide_ligand_efficiency>
-0.449358998947191

> <r_i_glide_ligand_efficiency_sa>
-1.19907029248186

> <r_i_glide_ligand_efficiency_ln>
-2.16452099400987

> <r_i_glide_gscore>
-8.53782097999662

> <r_i_glide_lipo>
-3.90934965884214

> <r_i_glide_hbond>
-0.58964409177907

> <r_i_glide_metal>
0

> <r_i_glide_rewards>
-1.6442376683639

> <r_i_glide_evdw>
-31.9532279968262

> <r_i_glide_ecoul>
-8.93539619445801

> <r_i_glide_erotb>
0.543381267998496

> <r_i_glide_esite>
0

> <r_i_glide_emodel>
-50.0634283827603

> <r_i_glide_energy>
-40.8886241912842

> <r_i_glide_einternal>
12.0251169204712

> <i_i_glide_confnum>
37

> <i_i_glide_posenum>
168

> <r_i_glide_eff_state_penalty>
0

> <s_user_duplicate_titles>
CHEMBL2039_lig725

> <s_m_subgroup_title>
dock_pv

> <s_m_subgroupid>
dock_pv

> <b_m_subgroup_collapsed>
1

$$$$
CHEMBL2039_lig2291
                    3D
 Schrodinger Suite 2021-1.
 34 36  0  0  1  0            999 V2000
   53.2560  152.3321   23.9562 C   0  0  0  0  0  0
   52.8543  151.5778   25.0536 C   0  0  0  0  0  0
   52.1935  152.2180   26.1040 C   0  0  0  0  0  0
   53.2559  153.7214   23.9978 C   0  0  0  0  0  0
   52.7216  154.3557   25.1170 C   0  0  0  0  0  0
   52.1446  153.6027   26.1412 C   0  0  0  0  0  0
   51.5553  154.1985   27.2537 N   0  0  0  0  0  0
   51.6564  155.4587   27.4329 C   0  0  0  0  0  0
   52.2878  156.2440   26.5020 N   0  0  0  0  0  0
   52.8347  155.8440   25.3246 C   0  0  0  0  0  0
   50.8560  156.0636   28.9040 S   0  0  0  0  0  0
   53.3833  156.6435   24.5706 O   0  0  0  0  0  0
   51.2679  157.8644   29.0447 C   0  0  0  0  0  0
   50.3138  158.6933   29.9292 C   0  0  0  0  0  0
   49.0311  158.2440   30.2620 C   0  0  0  0  0  0
   48.2272  158.9454   31.1442 C   0  0  0  0  0  0
   48.6935  160.1206   31.7308 C   0  0  0  0  0  0
   49.9511  160.6179   31.3666 C   0  0  0  0  0  0
   50.7512  159.9115   30.4643 C   0  0  0  0  0  0
   47.8491  160.8167   32.7962 C   0  0  0  0  0  0
   48.4560  160.7316   33.9790 F   0  0  0  0  0  0
   46.6456  160.2558   32.9040 F   0  0  0  0  0  0
   47.6647  162.0972   32.5040 F   0  0  0  0  0  0
   53.6560  151.8439   23.0840 H   0  0  0  0  0  0
   52.9126  150.4995   25.0263 H   0  0  0  0  0  0
   51.7335  151.6536   26.9017 H   0  0  0  0  0  0
   53.6999  154.2607   23.1773 H   0  0  0  0  0  0
   52.3772  157.2305   26.6734 H   0  0  0  0  0  0
   51.3473  158.3813   28.1040 H   0  0  0  0  0  0
   52.2730  157.9214   29.4481 H   0  0  0  0  0  0
   48.6501  157.3044   29.8944 H   0  0  0  0  0  0
   47.2617  158.5345   31.4020 H   0  0  0  0  0  0
   50.3291  161.5250   31.8175 H   0  0  0  0  0  0
   51.7376  160.2843   30.2285 H   0  0  0  0  0  0
  1  2  2  0  0  0
  1  4  1  0  0  0
  1 24  1  0  0  0
  2  3  1  0  0  0
  2 25  1  0  0  0
  3  6  2  0  0  0
  3 26  1  0  0  0
  4  5  2  0  0  0
  4 27  1  0  0  0
  5  6  1  0  0  0
  5 10  1  0  0  0
  6  7  1  0  0  0
  7  8  2  0  0  0
  8  9  1  0  0  0
  8 11  1  0  0  0
  9 10  1  0  0  0
  9 28  1  0  0  0
 10 12  2  0  0  0
 11 13  1  0  0  0
 13 14  1  0  0  0
 13 29  1  0  0  0
 13 30  1  0  0  0
 14 15  2  0  0  0
 14 19  1  0  0  0
 15 16  1  0  0  0
 15 31  1  0  0  0
 16 17  2  0  0  0
 16 32  1  0  0  0
 17 18  1  0  0  0
 17 20  1  0  0  0
 18 19  2  0  0  0
 18 33  1  0  0  0
 19 34  1  0  0  0
 20 21  1  0  0  0
 20 22  1  0  0  0
 20 23  1  0  0  0
M  END
> <s_m_entry_id>
9985

> <s_m_entry_name>
dock_pv.21

> <s_m_Source_Path>
/home/csk/Desktop/cluster/DUD-E-result/aofb

> <s_m_Source_File>
dock_pv.maegz

> <i_m_Source_File_Index>
21

> <chembl_id>
CHEMBL4284822

> <chembl_pref_name>
None

> <i_lp_mmshare_version>
53161

> <i_f3d_flags>
0

> <r_lp_tautomer_probability>
0.883938

> <s_lp_Force_Field>
OPLS_2005

> <r_lp_Energy>
17.370783

> <b_lp_Chiralities_Consistent>
1

> <s_lp_Variant>
CHEMBL2039_lig2291-1

> <s_i_glide_gridfile>
glide-grid_1s3b

> <i_i_glide_lignum>
2655

> <i_i_glide_rotatable_bonds>
4

> <r_i_docking_score>
-8.53360846338283

> <r_i_glide_ligand_efficiency>
-0.371026454929688

> <r_i_glide_ligand_efficiency_sa>
-1.05514988272312

> <r_i_glide_ligand_efficiency_ln>
-2.06350390492942

> <r_i_glide_gscore>
-8.53360846338283

> <r_i_glide_lipo>
-4.55718307179792

> <r_i_glide_hbond>
0

> <r_i_glide_metal>
0

> <r_i_glide_rewards>
-2.69579625260682

> <r_i_glide_evdw>
-25.8415126800537

> <r_i_glide_ecoul>
-3.26263737678528

> <r_i_glide_erotb>
0.500842101542392

> <r_i_glide_esite>
0

> <r_i_glide_emodel>
-30.1088426492722

> <r_i_glide_energy>
-29.104150056839

> <r_i_glide_einternal>
6.64517021179199

> <i_i_glide_confnum>
8

> <i_i_glide_posenum>
360

> <r_i_glide_eff_state_penalty>
0

> <s_user_duplicate_titles>
CHEMBL2039_lig2291,CHEMBL2039_lig2291

> <s_m_subgroup_title>
dock_pv

> <s_m_subgroupid>
dock_pv

> <b_m_subgroup_collapsed>
1

$$$$
CHEMBL2039_lig2704
                    3D
 Schrodinger Suite 2021-1.
 30 32  0  0  1  0            999 V2000
   51.3398  160.5026   30.6601 C   0  0  0  0  0  0
   51.6499  159.4463   29.7871 C   0  0  0  0  0  0
   50.7392  158.3952   29.6084 C   0  0  0  0  0  0
   49.4537  158.5047   30.1443 C   0  0  0  0  0  0
   50.0944  160.5134   31.2977 C   0  0  0  0  0  0
   49.1532  159.5521   30.9941 C   0  0  0  0  0  0
   47.9431  159.8371   31.7369 C   0  0  0  0  0  0
   48.3574  160.9936   32.6864 C   0  0  0  0  0  0
   49.6062  161.3382   32.3048 N   0  0  0  0  0  0
   46.8302  159.3099   31.7098 O   0  0  0  0  0  0
   47.6709  161.4439   33.5988 O   0  0  0  0  0  0
   51.0305  157.1368   28.9043 C   0  0  0  0  0  0
   52.0160  156.8125   28.0455 C   0  0  0  0  0  0
   52.0559  155.4793   27.4053 C   0  0  0  0  0  0
   52.4554  155.3385   26.0685 C   0  0  0  0  0  0
   52.4586  154.0730   25.4661 C   0  0  0  0  0  0
   52.0199  152.9547   26.1703 C   0  0  0  0  0  0
   51.6012  153.0876   27.4895 C   0  0  0  0  0  0
   51.6301  154.3366   28.1028 C   0  0  0  0  0  0
   53.1273  153.8434   23.8977 Cl  0  0  0  0  0  0
   52.0830  161.2571   30.8739 H   0  0  0  0  0  0
   52.6244  159.3945   29.3226 H   0  0  0  0  0  0
   48.7196  157.7248   29.9982 H   0  0  0  0  0  0
   50.1749  162.0137   32.7995 H   0  0  0  0  0  0
   50.3100  156.3579   29.1101 H   0  0  0  0  0  0
   52.7919  157.5213   27.7936 H   0  0  0  0  0  0
   52.7991  156.1976   25.5123 H   0  0  0  0  0  0
   52.0410  151.9788   25.7063 H   0  0  0  0  0  0
   51.2677  152.2225   28.0451 H   0  0  0  0  0  0
   51.3266  154.4013   29.1384 H   0  0  0  0  0  0
  1  2  2  0  0  0
  1  5  1  0  0  0
  1 21  1  0  0  0
  2  3  1  0  0  0
  2 22  1  0  0  0
  3 12  1  0  0  0
  3  4  2  0  0  0
  4  6  1  0  0  0
  4 23  1  0  0  0
  5  6  2  0  0  0
  5  9  1  0  0  0
  6  7  1  0  0  0
  7 10  2  0  0  0
  7  8  1  0  0  0
  8 11  2  0  0  0
  8  9  1  0  0  0
  9 24  1  0  0  0
 12 13  2  0  0  0
 12 25  1  0  0  0
 13 14  1  0  0  0
 13 26  1  0  0  0
 14 15  2  0  0  0
 14 19  1  0  0  0
 15 16  1  0  0  0
 15 27  1  0  0  0
 16 17  2  0  0  0
 16 20  1  0  0  0
 17 18  1  0  0  0
 17 28  1  0  0  0
 18 19  2  0  0  0
 18 29  1  0  0  0
 19 30  1  0  0  0
M  END
> <s_m_entry_id>
9986

> <s_m_entry_name>
dock_pv.22

> <s_m_Source_Path>
/home/csk/Desktop/cluster/DUD-E-result/aofb

> <s_m_Source_File>
dock_pv.maegz

> <i_m_Source_File_Index>
22

> <chembl_id>
CHEMBL447307

> <chembl_pref_name>
None

> <i_lp_mmshare_version>
53161

> <i_f3d_flags>
0

> <r_lp_tautomer_probability>
1

> <s_lp_Force_Field>
OPLS_2005

> <r_lp_Energy>
35.25985

> <b_lp_Chiralities_Consistent>
1

> <s_lp_Variant>
CHEMBL2039_lig2704-1

> <s_i_glide_gridfile>
glide-grid_1s3b

> <i_i_glide_lignum>
3135

> <i_i_glide_rotatable_bonds>
2

> <r_i_docking_score>
-8.533173190924

> <r_i_glide_ligand_efficiency>
-0.4266586595462

> <r_i_glide_ligand_efficiency_sa>
-1.15812978058849

> <r_i_glide_ligand_efficiency_ln>
-2.13557180680031

> <r_i_glide_gscore>
-8.533173190924

> <r_i_glide_lipo>
-3.58881369699797

> <r_i_glide_hbond>
-0.271166531206572

> <r_i_glide_metal>
0

> <r_i_glide_rewards>
-2.89289453217833

> <r_i_glide_evdw>
-35.0371704101562

> <r_i_glide_ecoul>
-3.19035243988037

> <r_i_glide_erotb>
0.450112955948737

> <r_i_glide_esite>
0

> <r_i_glide_emodel>
-51.570687566509

> <r_i_glide_energy>
-38.2275228500366

> <r_i_glide_einternal>
1.35797238349915

> <i_i_glide_confnum>
2

> <i_i_glide_posenum>
56

> <r_i_glide_eff_state_penalty>
0

> <s_user_duplicate_titles>
CHEMBL2039_lig2704

> <s_m_subgroup_title>
dock_pv

> <s_m_subgroupid>
dock_pv

> <b_m_subgroup_collapsed>
1

$$$$
CHEMBL2039_lig301
                    3D
 Schrodinger Suite 2021-1.
 32 33  0  0  1  0            999 V2000
   52.0560  153.9567   25.7040 C   0  0  0  0  0  0
   51.6860  152.8781   26.5129 C   0  0  0  0  0  0
   51.2560  153.1067   27.8163 C   0  0  0  0  0  0
   51.2965  154.3852   28.3605 C   0  0  0  0  0  0
   51.7633  155.4510   27.5855 C   0  0  0  0  0  0
   52.0914  155.2383   26.2401 C   0  0  0  0  0  0
   52.0560  156.7784   28.1940 C   0  0  0  0  0  0
   51.0751  157.3481   29.1236 C   0  0  0  0  0  0
   53.0152  157.4440   27.8041 O   0  0  0  0  0  0
   51.0462  158.6621   29.4396 C   0  0  0  0  0  0
   50.0560  159.3192   30.3164 C   0  0  0  0  0  0
   48.7765  158.7860   30.5252 C   0  0  0  0  0  0
   47.9055  159.3826   31.4332 C   0  0  0  0  0  0
   48.3169  160.5044   32.1478 C   0  0  0  0  0  0
   49.5842  161.0440   31.9443 C   0  0  0  0  0  0
   50.4464  160.4615   31.0203 C   0  0  0  0  0  0
   51.7595  151.5675   26.1040 O   0  0  0  0  0  0
   52.8560  151.2079   25.2631 C   0  0  0  0  0  0
   47.2560  161.2203   33.3040 Cl  0  0  0  0  0  0
   52.3650  153.8070   24.6811 H   0  0  0  0  0  0
   50.9579  152.2725   28.4347 H   0  0  0  0  0  0
   51.0474  154.5098   29.4050 H   0  0  0  0  0  0
   52.4484  156.0505   25.6217 H   0  0  0  0  0  0
   50.3437  156.6698   29.5332 H   0  0  0  0  0  0
   51.7902  159.3211   29.0115 H   0  0  0  0  0  0
   48.4524  157.8961   30.0093 H   0  0  0  0  0  0
   46.9233  158.9639   31.5968 H   0  0  0  0  0  0
   49.9090  161.9077   32.5051 H   0  0  0  0  0  0
   51.4354  160.8776   30.8898 H   0  0  0  0  0  0
   52.8726  150.1248   25.1422 H   0  0  0  0  0  0
   52.7903  151.6463   24.2673 H   0  0  0  0  0  0
   53.8092  151.5040   25.7040 H   0  0  0  0  0  0
  1  6  1  0  0  0
  1  2  2  0  0  0
  1 20  1  0  0  0
  2  3  1  0  0  0
  2 17  1  0  0  0
  3  4  2  0  0  0
  3 21  1  0  0  0
  4  5  1  0  0  0
  4 22  1  0  0  0
  5  6  2  0  0  0
  5  7  1  0  0  0
  6 23  1  0  0  0
  7  8  1  0  0  0
  7  9  2  0  0  0
  8 10  2  0  0  0
  8 24  1  0  0  0
 10 11  1  0  0  0
 10 25  1  0  0  0
 11 12  2  0  0  0
 11 16  1  0  0  0
 12 13  1  0  0  0
 12 26  1  0  0  0
 13 14  2  0  0  0
 13 27  1  0  0  0
 14 15  1  0  0  0
 14 19  1  0  0  0
 15 16  2  0  0  0
 15 28  1  0  0  0
 16 29  1  0  0  0
 17 18  1  0  0  0
 18 30  1  0  0  0
 18 31  1  0  0  0
 18 32  1  0  0  0
M  END
> <s_m_entry_id>
9987

> <s_m_entry_name>
dock_pv.23

> <s_m_Source_Path>
/home/csk/Desktop/cluster/DUD-E-result/aofb

> <s_m_Source_File>
dock_pv.maegz

> <i_m_Source_File_Index>
23

> <chembl_id>
CHEMBL489719

> <chembl_pref_name>
None

> <i_lp_mmshare_version>
53161

> <i_f3d_flags>
0

> <r_lp_tautomer_probability>
1

> <s_lp_Force_Field>
OPLS_2005

> <r_lp_Energy>
18.42189

> <b_lp_Chiralities_Consistent>
1

> <s_lp_Variant>
CHEMBL2039_lig301-1

> <s_i_glide_gridfile>
glide-grid_1s3b

> <i_i_glide_lignum>
350

> <i_i_glide_rotatable_bonds>
4

> <r_i_docking_score>
-8.52632485696524

> <r_i_glide_ligand_efficiency>
-0.448753939840276

> <r_i_glide_ligand_efficiency_sa>
-1.19745575176498

> <r_i_glide_ligand_efficiency_ln>
-2.16160647990733

> <r_i_glide_gscore>
-8.52632485696524

> <r_i_glide_lipo>
-4.66991420630367

> <r_i_glide_hbond>
0

> <r_i_glide_metal>
0

> <r_i_glide_rewards>
-2.58476709703445

> <r_i_glide_evdw>
-36.4896774291992

> <r_i_glide_ecoul>
0.472024381160736

> <r_i_glide_erotb>
0.482036660658731

> <r_i_glide_esite>
0

> <r_i_glide_emodel>
-45.3537605524676

> <r_i_glide_energy>
-36.0176530480385

> <r_i_glide_einternal>
8.61380863189697

> <i_i_glide_confnum>
2

> <i_i_glide_posenum>
136

> <r_i_glide_eff_state_penalty>
0

> <s_user_duplicate_titles>
CHEMBL2039_lig301,460824

> <s_m_subgroup_title>
dock_pv

> <s_m_subgroupid>
dock_pv

> <b_m_subgroup_collapsed>
1

$$$$
CHEMBL2039_lig298
                    3D
 Schrodinger Suite 2021-1.
 33 34  0  0  1  0            999 V2000
   51.2582  153.0440   27.7997 C   0  0  0  0  0  0
   51.3343  154.3380   28.3027 C   0  0  0  0  0  0
   51.8016  155.3856   27.4981 C   0  0  0  0  0  0
   52.1377  155.1100   26.1558 C   0  0  0  0  0  0
   52.0564  156.7256   28.1039 C   0  0  0  0  0  0
   51.0766  157.2731   29.0365 C   0  0  0  0  0  0
   52.9912  157.4247   27.7081 O   0  0  0  0  0  0
   51.0340  158.5870   29.3450 C   0  0  0  0  0  0
   50.0537  159.2256   30.2367 C   0  0  0  0  0  0
   48.8071  158.6450   30.5041 C   0  0  0  0  0  0
   47.9505  159.2214   31.4338 C   0  0  0  0  0  0
   50.4278  160.3956   30.9035 C   0  0  0  0  0  0
   51.6559  152.7626   26.4985 C   0  0  0  0  0  0
   52.0545  153.8104   25.6636 C   0  0  0  0  0  0
   49.5793  160.9626   31.8477 C   0  0  0  0  0  0
   48.3475  160.3699   32.1098 C   0  0  0  0  0  0
   52.6043  156.0781   25.3029 O   0  0  0  0  0  0
   51.6562  151.4460   26.1040 O   0  0  0  0  0  0
   52.7573  151.0230   25.3004 C   0  0  0  0  0  0
   47.3134  161.0441   33.3042 Cl  0  0  0  0  0  0
   50.9407  152.2376   28.4454 H   0  0  0  0  0  0
   51.0904  154.4893   29.3447 H   0  0  0  0  0  0
   50.3628  156.5837   29.4575 H   0  0  0  0  0  0
   51.7593  159.2593   28.9056 H   0  0  0  0  0  0
   48.5008  157.7279   30.0274 H   0  0  0  0  0  0
   46.9961  158.7640   31.6502 H   0  0  0  0  0  0
   51.3955  160.8446   30.7300 H   0  0  0  0  0  0
   52.3408  153.6174   24.6412 H   0  0  0  0  0  0
   49.8894  161.8439   32.3899 H   0  0  0  0  0  0
   52.7214  156.9125   25.7679 H   0  0  0  0  0  0
   52.7698  149.9347   25.2523 H   0  0  0  0  0  0
   52.6960  151.3967   24.2789 H   0  0  0  0  0  0
   53.7140  151.3465   25.7113 H   0  0  0  0  0  0
  1  2  2  0  0  0
  1 13  1  0  0  0
  1 21  1  0  0  0
  2  3  1  0  0  0
  2 22  1  0  0  0
  3  5  1  0  0  0
  3  4  2  0  0  0
  4 14  1  0  0  0
  4 17  1  0  0  0
  5  6  1  0  0  0
  5  7  2  0  0  0
  6  8  2  0  0  0
  6 23  1  0  0  0
  8  9  1  0  0  0
  8 24  1  0  0  0
  9 10  2  0  0  0
  9 12  1  0  0  0
 10 11  1  0  0  0
 10 25  1  0  0  0
 11 16  2  0  0  0
 11 26  1  0  0  0
 12 15  2  0  0  0
 12 27  1  0  0  0
 13 14  2  0  0  0
 13 18  1  0  0  0
 14 28  1  0  0  0
 15 16  1  0  0  0
 15 29  1  0  0  0
 16 20  1  0  0  0
 17 30  1  0  0  0
 18 19  1  0  0  0
 19 31  1  0  0  0
 19 32  1  0  0  0
 19 33  1  0  0  0
M  END
> <s_m_entry_id>
9988

> <s_m_entry_name>
dock_pv.24

> <s_m_Source_Path>
/home/csk/Desktop/cluster/DUD-E-result/aofb

> <s_m_Source_File>
dock_pv.maegz

> <i_m_Source_File_Index>
24

> <chembl_id>
CHEMBL406861

> <chembl_pref_name>
None

> <i_lp_mmshare_version>
53161

> <i_f3d_flags>
0

> <r_lp_tautomer_probability>
1

> <s_lp_Force_Field>
OPLS_2005

> <r_lp_Energy>
23.250764

> <b_lp_Chiralities_Consistent>
1

> <s_lp_Variant>
CHEMBL2039_lig298-1

> <s_i_glide_gridfile>
glide-grid_1s3b

> <i_i_glide_lignum>
347

> <i_i_glide_rotatable_bonds>
5

> <r_i_docking_score>
-8.51236849426074

> <r_i_glide_ligand_efficiency>
-0.425618424713037

> <r_i_glide_ligand_efficiency_sa>
-1.15530614883478

> <r_i_glide_ligand_efficiency_ln>
-2.13036507741032

> <r_i_glide_gscore>
-8.51236849426074

> <r_i_glide_lipo>
-4.72354282224726

> <r_i_glide_hbond>
0

> <r_i_glide_metal>
0

> <r_i_glide_rewards>
-2.32606349085867

> <r_i_glide_evdw>
-38.0035629272461

> <r_i_glide_ecoul>
0.00554265920072794

> <r_i_glide_erotb>
0.436584566327382

> <r_i_glide_esite>
0

> <r_i_glide_emodel>
-48.8423824307123

> <r_i_glide_energy>
-37.9980202680454

> <r_i_glide_einternal>
7.10045957565308

> <i_i_glide_confnum>
4

> <i_i_glide_posenum>
307

> <r_i_glide_eff_state_penalty>
0

> <s_user_duplicate_titles>
CHEMBL2039_lig298,429946

> <s_m_subgroup_title>
dock_pv

> <s_m_subgroupid>
dock_pv

> <b_m_subgroup_collapsed>
1

$$$$
CHEMBL2039_lig1040
                    3D
 Schrodinger Suite 2021-1.
 31 32  0  0  1  0            999 V2000
   50.8204  158.6294   29.7038 C   0  0  0  0  0  0
   49.4949  158.6439   30.1658 C   0  0  0  0  0  0
   49.0234  159.6771   30.9859 C   0  0  0  0  0  0
   49.8977  160.7032   31.3498 C   0  0  0  0  0  0
   51.2060  160.7209   30.8765 C   0  0  0  0  0  0
   51.6555  159.6995   30.0464 C   0  0  0  0  0  0
   51.3907  157.4872   28.9496 C   0  0  0  0  0  0
   50.8727  156.2372   28.8937 C   0  0  0  0  0  0
   51.4015  155.1081   28.1109 C   0  0  0  0  0  0
   51.2559  153.9657   28.5398 O   0  0  0  0  0  0
   52.0327  155.3096   26.8001 C   0  0  0  0  0  0
   52.2406  154.1972   26.0399 O   0  0  0  0  0  0
   52.8806  154.5760   24.9036 C   0  0  0  0  0  0
   53.0327  155.9527   24.9038 C   0  0  0  0  0  0
   52.4642  156.4182   26.0879 C   0  0  0  0  0  0
   53.2968  153.4713   23.9667 C   0  0  0  0  0  0
   47.5907  159.6861   31.5136 C   0  0  0  0  0  0
   47.5833  159.9297   32.8253 F   0  0  0  0  0  0
   46.9003  160.6433   30.8978 F   0  0  0  0  0  0
   46.9681  158.5278   31.3000 F   0  0  0  0  0  0
   48.8291  157.8289   29.9284 H   0  0  0  0  0  0
   49.5645  161.4954   32.0051 H   0  0  0  0  0  0
   51.8737  161.5192   31.1688 H   0  0  0  0  0  0
   52.6816  159.7126   29.7075 H   0  0  0  0  0  0
   52.3048  157.7150   28.4245 H   0  0  0  0  0  0
   49.9870  155.9931   29.4596 H   0  0  0  0  0  0
   53.5098  156.5535   24.1443 H   0  0  0  0  0  0
   52.4087  157.4440   26.3961 H   0  0  0  0  0  0
   54.0100  153.8240   23.2215 H   0  0  0  0  0  0
   52.4557  153.0488   23.4235 H   0  0  0  0  0  0
   53.7786  152.6540   24.5046 H   0  0  0  0  0  0
  1  2  2  0  0  0
  1  6  1  0  0  0
  1  7  1  0  0  0
  2  3  1  0  0  0
  2 21  1  0  0  0
  3  4  2  0  0  0
  3 17  1  0  0  0
  4  5  1  0  0  0
  4 22  1  0  0  0
  5  6  2  0  0  0
  5 23  1  0  0  0
  6 24  1  0  0  0
  7  8  2  0  0  0
  7 25  1  0  0  0
  8  9  1  0  0  0
  8 26  1  0  0  0
  9 10  2  0  0  0
  9 11  1  0  0  0
 11 12  1  0  0  0
 11 15  2  0  0  0
 12 13  1  0  0  0
 13 14  2  0  0  0
 13 16  1  0  0  0
 14 15  1  0  0  0
 14 27  1  0  0  0
 15 28  1  0  0  0
 16 29  1  0  0  0
 16 30  1  0  0  0
 16 31  1  0  0  0
 17 18  1  0  0  0
 17 19  1  0  0  0
 17 20  1  0  0  0
M  END
> <s_m_entry_id>
9989

> <s_m_entry_name>
dock_pv.25

> <s_m_Source_Path>
/home/csk/Desktop/cluster/DUD-E-result/aofb

> <s_m_Source_File>
dock_pv.maegz

> <i_m_Source_File_Index>
25

> <chembl_id>
CHEMBL2420786

> <chembl_pref_name>
None

> <i_lp_mmshare_version>
53161

> <i_f3d_flags>
0

> <r_lp_tautomer_probability>
1

> <s_lp_Force_Field>
OPLS_2005

> <r_lp_Energy>
8.163703

> <b_lp_Chiralities_Consistent>
1

> <s_lp_Variant>
CHEMBL2039_lig1040-1

> <s_i_glide_gridfile>
glide-grid_1s3b

> <i_i_glide_lignum>
1213

> <i_i_glide_rotatable_bonds>
4

> <r_i_docking_score>
-8.4946671737322

> <r_i_glide_ligand_efficiency>
-0.42473335868661

> <r_i_glide_ligand_efficiency_sa>
-1.15290371002319

> <r_i_glide_ligand_efficiency_ln>
-2.12593502071064

> <r_i_glide_gscore>
-8.4946671737322

> <r_i_glide_lipo>
-3.25093095679724

> <r_i_glide_hbond>
0

> <r_i_glide_metal>
0

> <r_i_glide_rewards>
-4.14197388942502

> <r_i_glide_evdw>
-33.8822631835938

> <r_i_glide_ecoul>
-0.649356663227081

> <r_i_glide_erotb>
0.689754331153819

> <r_i_glide_esite>
0

> <r_i_glide_emodel>
-49.1803398085877

> <r_i_glide_energy>
-34.5316198468208

> <r_i_glide_einternal>
2.41243934631348

> <i_i_glide_confnum>
3

> <i_i_glide_posenum>
133

> <r_i_glide_eff_state_penalty>
0

> <s_user_duplicate_titles>
CHEMBL2039_lig1040

> <s_m_subgroup_title>
dock_pv

> <s_m_subgroupid>
dock_pv

> <b_m_subgroup_collapsed>
1

$$$$
CHEMBL2039_lig932
                    3D
 Schrodinger Suite 2021-1.
 35 36  0  0  1  0            999 V2000
   47.3430  160.4702   32.0403 C   0  0  0  0  0  0
   47.2077  159.6316   30.9393 C   0  0  0  0  0  0
   48.3209  159.2857   30.1764 C   0  0  0  0  0  0
   49.5895  159.7904   30.4957 C   0  0  0  0  0  0
   49.6798  160.7490   31.5122 C   0  0  0  0  0  0
   48.5796  161.0441   32.3152 C   0  0  0  0  0  0
   50.8377  161.4439   31.7040 O   0  0  0  0  0  0
   50.8167  159.3524   29.7591 C   0  0  0  0  0  0
   51.8191  160.0689   29.7040 O   0  0  0  0  0  0
   50.8814  157.9781   29.3040 C   0  0  0  0  0  0
   51.8076  157.5632   28.4240 C   0  0  0  0  0  0
   51.8103  156.2126   27.9331 C   0  0  0  0  0  0
   52.0560  155.8985   26.6459 C   0  0  0  0  0  0
   52.0560  154.5236   26.1265 C   0  0  0  0  0  0
   51.3993  153.5106   26.8232 C   0  0  0  0  0  0
   51.6436  152.1907   26.5041 C   0  0  0  0  0  0
   52.5316  151.8441   25.4902 C   0  0  0  0  0  0
   53.1125  152.8616   24.7219 C   0  0  0  0  0  0
   52.8565  154.1983   25.0274 C   0  0  0  0  0  0
   45.6560  159.0440   30.5040 Cl  0  0  0  0  0  0
   52.7993  150.4122   25.2264 N   0  3  0  0  0  0
   53.7220  150.1031   24.5040 O   0  0  0  0  0  0
   52.0560  149.5655   25.7040 O   0  5  0  0  0  0
   46.4826  160.7122   32.6463 H   0  0  0  0  0  0
   48.1771  158.6440   29.3234 H   0  0  0  0  0  0
   48.6783  161.7538   33.1229 H   0  0  0  0  0  0
   51.5314  161.1565   31.0992 H   0  0  0  0  0  0
   50.1347  157.2981   29.6890 H   0  0  0  0  0  0
   52.5619  158.2439   28.0508 H   0  0  0  0  0  0
   51.6099  155.4310   28.6515 H   0  0  0  0  0  0
   52.2557  156.6869   25.9338 H   0  0  0  0  0  0
   50.7476  153.7245   27.6571 H   0  0  0  0  0  0
   51.1616  151.4226   27.0922 H   0  0  0  0  0  0
   53.7785  152.6243   23.9052 H   0  0  0  0  0  0
   53.3702  154.9722   24.4764 H   0  0  0  0  0  0
  1  2  2  0  0  0
  1  6  1  0  0  0
  1 24  1  0  0  0
  2  3  1  0  0  0
  2 20  1  0  0  0
  3  4  2  0  0  0
  3 25  1  0  0  0
  4  5  1  0  0  0
  4  8  1  0  0  0
  5  6  2  0  0  0
  5  7  1  0  0  0
  6 26  1  0  0  0
  7 27  1  0  0  0
  8  9  2  0  0  0
  8 10  1  0  0  0
 10 11  2  0  0  0
 10 28  1  0  0  0
 11 12  1  0  0  0
 11 29  1  0  0  0
 12 13  2  0  0  0
 12 30  1  0  0  0
 13 14  1  0  0  0
 13 31  1  0  0  0
 14 15  2  0  0  0
 14 19  1  0  0  0
 15 16  1  0  0  0
 15 32  1  0  0  0
 16 17  2  0  0  0
 16 33  1  0  0  0
 17 18  1  0  0  0
 17 21  1  0  0  0
 18 19  2  0  0  0
 18 34  1  0  0  0
 19 35  1  0  0  0
 21 22  2  0  0  0
 21 23  1  0  0  0
M  CHG  2  21   1  23  -1
M  END
> <s_m_entry_id>
9990

> <s_m_entry_name>
dock_pv.26

> <s_m_Source_Path>
/home/csk/Desktop/cluster/DUD-E-result/aofb

> <s_m_Source_File>
dock_pv.maegz

> <i_m_Source_File_Index>
26

> <chembl_id>
CHEMBL2332188

> <chembl_pref_name>
None

> <i_lp_mmshare_version>
53161

> <i_f3d_flags>
0

> <r_lp_tautomer_probability>
1

> <s_lp_Force_Field>
OPLS_2005

> <r_lp_Energy>
21.72375

> <b_lp_Chiralities_Consistent>
1

> <s_lp_Variant>
CHEMBL2039_lig932-1

> <s_i_glide_gridfile>
glide-grid_1s3b

> <i_i_glide_lignum>
1079

> <i_i_glide_rotatable_bonds>
6

> <r_i_docking_score>
-8.47985824489882

> <r_i_glide_ligand_efficiency>
-0.368689488908645

> <r_i_glide_ligand_efficiency_sa>
-1.04850386222978

> <r_i_glide_ligand_efficiency_ln>
-2.05050661471995

> <r_i_glide_gscore>
-8.47985824489882

> <r_i_glide_lipo>
-4.65170591236249

> <r_i_glide_hbond>
-0.0147148351523166

> <r_i_glide_metal>
0

> <r_i_glide_rewards>
-2.63947441308757

> <r_i_glide_evdw>
-31.5271263122559

> <r_i_glide_ecoul>
-1.79887592792511

> <r_i_glide_erotb>
0.691611505991118

> <r_i_glide_esite>
-0.019386885485996

> <r_i_glide_emodel>
-35.3447977818273

> <r_i_glide_energy>
-33.326002240181

> <r_i_glide_einternal>
4.69447326660156

> <i_i_glide_confnum>
6

> <i_i_glide_posenum>
302

> <r_i_glide_eff_state_penalty>
0

> <s_user_duplicate_titles>
CHEMBL2039_lig932

> <s_m_subgroup_title>
dock_pv

> <s_m_subgroupid>
dock_pv

> <b_m_subgroup_collapsed>
1

$$$$
CHEMBL2039_lig2104
                    3D
 Schrodinger Suite 2021-1.
 46 49  0  0  1  0            999 V2000
   51.6745  153.0991   26.7817 C   0  0  0  0  0  0
   51.2561  153.0564   28.1039 C   0  0  0  0  0  0
   51.1195  154.2389   28.8288 C   0  0  0  0  0  0
   51.4256  155.4638   28.2632 C   0  0  0  0  0  0
   52.0560  154.3179   26.2204 C   0  0  0  0  0  0
   51.9955  155.4891   26.9841 C   0  0  0  0  0  0
   52.5064  156.6439   26.1857 C   0  0  0  0  0  0
   53.0827  156.0492   24.9239 C   0  0  0  0  0  0
   52.5762  154.6129   24.8287 C   0  0  1  0  0  0
   53.6489  153.6906   24.4708 N   0  0  1  0  0  0
   53.2567  152.6956   23.4908 C   0  0  0  0  0  0
   53.2560  151.3548   24.1043 C   0  0  0  0  0  0
   53.2561  150.2153   24.5453 C   0  0  0  0  0  0
   51.0043  156.5671   28.9711 O   0  0  0  0  0  0
   51.6560  157.8296   28.8898 C   0  0  0  0  0  0
   50.9174  158.8500   29.7346 C   0  0  0  0  0  0
   51.6083  159.9516   30.2347 C   0  0  0  0  0  0
   51.0056  160.8148   31.1437 C   0  0  0  0  0  0
   49.5850  158.6446   30.1040 C   0  0  0  0  0  0
   48.9336  159.5108   31.0025 C   0  0  0  0  0  0
   49.6654  160.6031   31.5507 C   0  0  0  0  0  0
   49.0377  161.4313   32.5040 C   0  0  0  0  0  0
   47.7191  161.1986   32.8870 C   0  0  0  0  0  0
   46.9967  160.1529   32.3236 C   0  0  0  0  0  0
   47.5885  159.3047   31.3940 C   0  0  0  0  0  0
   51.7260  152.1829   26.2161 H   0  0  0  0  0  0
   50.9812  152.1108   28.5480 H   0  0  0  0  0  0
   50.7205  154.2104   29.8319 H   0  0  0  0  0  0
   53.2721  157.2149   26.7105 H   0  0  0  0  0  0
   51.6796  157.2977   25.9183 H   0  0  0  0  0  0
   54.1720  156.1095   24.9106 H   0  0  0  0  0  0
   52.7447  156.6651   24.1040 H   0  0  0  0  0  0
   51.7310  154.5867   24.1383 H   0  0  0  0  0  0
   54.4825  154.1771   24.1741 H   0  0  0  0  0  0
   54.0240  152.6743   22.7164 H   0  0  0  0  0  0
   52.3434  152.9414   22.9768 H   0  0  0  0  0  0
   53.2557  149.2116   24.9077 H   0  0  0  0  0  0
   52.6939  157.7206   29.1918 H   0  0  0  0  0  0
   51.6560  158.2458   27.8923 H   0  0  0  0  0  0
   52.6465  160.0993   29.9760 H   0  0  0  0  0  0
   51.5677  161.6356   31.5670 H   0  0  0  0  0  0
   49.0435  157.7862   29.7412 H   0  0  0  0  0  0
   49.6079  162.2436   32.9215 H   0  0  0  0  0  0
   47.2496  161.8424   33.6156 H   0  0  0  0  0  0
   45.9709  159.9878   32.6167 H   0  0  0  0  0  0
   47.0286  158.4811   30.9749 H   0  0  0  0  0  0
  1  2  2  0  0  0
  1  5  1  0  0  0
  1 26  1  0  0  0
  2  3  1  0  0  0
  2 27  1  0  0  0
  3  4  2  0  0  0
  3 28  1  0  0  0
  4  6  1  0  0  0
  4 14  1  0  0  0
  5  6  2  0  0  0
  5  9  1  0  0  0
  6  7  1  0  0  0
  7  8  1  0  0  0
  7 29  1  0  0  0
  7 30  1  0  0  0
  8  9  1  0  0  0
  8 31  1  0  0  0
  8 32  1  0  0  0
  9 10  1  0  0  0
  9 33  1  0  0  0
 10 11  1  0  0  0
 10 34  1  0  0  0
 11 12  1  0  0  0
 11 35  1  0  0  0
 11 36  1  0  0  0
 12 13  3  0  0  0
 13 37  1  0  0  0
 14 15  1  0  0  0
 15 16  1  0  0  0
 15 38  1  0  0  0
 15 39  1  0  0  0
 16 17  2  0  0  0
 16 19  1  0  0  0
 17 18  1  0  0  0
 17 40  1  0  0  0
 18 21  2  0  0  0
 18 41  1  0  0  0
 19 20  2  0  0  0
 19 42  1  0  0  0
 20 21  1  0  0  0
 20 25  1  0  0  0
 21 22  1  0  0  0
 22 23  2  0  0  0
 22 43  1  0  0  0
 23 24  1  0  0  0
 23 44  1  0  0  0
 24 25  2  0  0  0
 24 45  1  0  0  0
 25 46  1  0  0  0
M  END
> <s_m_entry_id>
9991

> <s_m_entry_name>
dock_pv.27

> <s_m_Source_Path>
/home/csk/Desktop/cluster/DUD-E-result/aofb

> <s_m_Source_File>
dock_pv.maegz

> <i_m_Source_File_Index>
27

> <chembl_id>
CHEMBL4165497

> <chembl_pref_name>
None

> <i_lp_mmshare_version>
53161

> <i_f3d_flags>
0

> <r_lp_tautomer_probability>
1

> <s_lp_Force_Field>
OPLS_2005

> <r_lp_Energy>
34.670443

> <b_lp_Chiralities_Consistent>
1

> <s_lp_Variant>
CHEMBL2039_lig2104-1

> <s_i_glide_gridfile>
glide-grid_1s3b

> <i_i_glide_lignum>
2451

> <i_i_glide_rotatable_bonds>
6

> <r_i_docking_score>
-8.45565065387903

> <r_i_glide_ligand_efficiency>
-0.338226026155161

> <r_i_glide_ligand_efficiency_sa>
-0.988978898941806

> <r_i_glide_ligand_efficiency_ln>
-2.00424260037167

> <r_i_glide_gscore>
-8.45565065387903

> <r_i_glide_lipo>
-5.50296025250327

> <r_i_glide_hbond>
0

> <r_i_glide_metal>
0

> <r_i_glide_rewards>
-2.07668904545454

> <r_i_glide_evdw>
-35.2595024108887

> <r_i_glide_ecoul>
-1.08958983421326

> <r_i_glide_erotb>
1.05041223975521

> <r_i_glide_esite>
0

> <r_i_glide_emodel>
-36.5935942103618

> <r_i_glide_energy>
-36.3490922451019

> <r_i_glide_einternal>
14.5310525894165

> <i_i_glide_confnum>
21

> <i_i_glide_posenum>
93

> <r_i_glide_eff_state_penalty>
0

> <s_user_duplicate_titles>
CHEMBL2039_lig2104

> <s_m_subgroup_title>
dock_pv

> <s_m_subgroupid>
dock_pv

> <b_m_subgroup_collapsed>
1

$$$$
CHEMBL2039_lig1937
                    3D
 Schrodinger Suite 2021-1.
 36 38  0  0  1  0            999 V2000
   52.7194  151.5732   25.2194 C   0  0  0  0  0  0
   53.2560  152.3277   24.1675 C   0  0  0  0  0  0
   53.2428  153.7238   24.2091 C   0  0  0  0  0  0
   52.0560  152.2440   26.2335 C   0  0  0  0  0  0
   52.0666  153.6326   26.3234 C   0  0  0  0  0  0
   52.6760  154.3732   25.3040 C   0  0  0  0  0  0
   52.8297  155.7402   25.4023 O   0  0  0  0  0  0
   52.4232  156.3430   26.5527 C   0  0  0  0  0  0
   51.8393  155.7427   27.6206 C   0  0  0  0  0  0
   51.6560  154.2784   27.5891 C   0  0  0  0  0  0
   51.2560  156.5048   28.7140 C   0  0  0  0  0  0
   51.6721  157.7811   28.9040 N   0  0  0  0  0  0
   50.3170  156.0316   29.3483 O   0  0  0  0  0  0
   51.0756  158.7854   29.7023 C   0  0  0  0  0  0
   49.7278  158.7985   30.1040 C   0  0  0  0  0  0
   49.2519  159.8073   30.9434 C   0  0  0  0  0  0
   50.1092  160.8198   31.3723 C   0  0  0  0  0  0
   51.4285  160.8479   30.9242 C   0  0  0  0  0  0
   51.8971  159.8440   30.0907 C   0  0  0  0  0  0
   52.6943  150.1961   25.3040 O   0  0  0  0  0  0
   53.4514  149.4070   24.4000 C   0  0  0  0  0  0
   52.2826  161.8440   31.3040 O   0  0  0  0  0  0
   51.2560  153.5802   28.5181 O   0  0  0  0  0  0
   53.6715  151.8426   23.3039 H   0  0  0  0  0  0
   53.7098  154.2865   23.4181 H   0  0  0  0  0  0
   51.5976  151.6459   27.0081 H   0  0  0  0  0  0
   52.5572  157.4119   26.4775 H   0  0  0  0  0  0
   52.5686  158.0289   28.5153 H   0  0  0  0  0  0
   49.0409  158.0252   29.8038 H   0  0  0  0  0  0
   48.2227  159.7958   31.2705 H   0  0  0  0  0  0
   49.7433  161.5906   32.0346 H   0  0  0  0  0  0
   52.9316  159.8598   29.7825 H   0  0  0  0  0  0
   53.2018  148.3563   24.5498 H   0  0  0  0  0  0
   53.2560  149.6430   23.3543 H   0  0  0  0  0  0
   54.5139  149.5151   24.5992 H   0  0  0  0  0  0
   52.0580  162.2004   32.1805 H   0  0  0  0  0  0
  1  2  2  0  0  0
  1  4  1  0  0  0
  1 20  1  0  0  0
  2  3  1  0  0  0
  2 24  1  0  0  0
  3  6  2  0  0  0
  3 25  1  0  0  0
  4  5  2  0  0  0
  4 26  1  0  0  0
  5  6  1  0  0  0
  5 10  1  0  0  0
  6  7  1  0  0  0
  7  8  1  0  0  0
  8  9  2  0  0  0
  8 27  1  0  0  0
  9 10  1  0  0  0
  9 11  1  0  0  0
 10 23  2  0  0  0
 11 12  1  0  0  0
 11 13  2  0  0  0
 12 14  1  0  0  0
 12 28  1  0  0  0
 14 15  2  0  0  0
 14 19  1  0  0  0
 15 16  1  0  0  0
 15 29  1  0  0  0
 16 17  2  0  0  0
 16 30  1  0  0  0
 17 18  1  0  0  0
 17 31  1  0  0  0
 18 19  2  0  0  0
 18 22  1  0  0  0
 19 32  1  0  0  0
 20 21  1  0  0  0
 21 33  1  0  0  0
 21 34  1  0  0  0
 21 35  1  0  0  0
 22 36  1  0  0  0
M  END
> <s_m_entry_id>
9992

> <s_m_entry_name>
dock_pv.28

> <s_m_Source_Path>
/home/csk/Desktop/cluster/DUD-E-result/aofb

> <s_m_Source_File>
dock_pv.maegz

> <i_m_Source_File_Index>
28

> <chembl_id>
CHEMBL4085981

> <chembl_pref_name>
None

> <i_lp_mmshare_version>
53161

> <i_f3d_flags>
0

> <r_lp_tautomer_probability>
0.999999999997365

> <s_lp_Force_Field>
OPLS_2005

> <r_lp_Energy>
28.165483

> <b_lp_Chiralities_Consistent>
1

> <s_lp_Variant>
CHEMBL2039_lig1937-1

> <s_i_glide_gridfile>
glide-grid_1s3b

> <i_i_glide_lignum>
2272

> <i_i_glide_rotatable_bonds>
5

> <r_i_docking_score>
-8.43808748935731

> <r_i_glide_ligand_efficiency>
-0.366873369102492

> <r_i_glide_ligand_efficiency_sa>
-1.04333905908701

> <r_i_glide_ligand_efficiency_ln>
-2.04040606727374

> <r_i_glide_gscore>
-8.43808748935731

> <r_i_glide_lipo>
-3.87940345175662

> <r_i_glide_hbond>
-0.32

> <r_i_glide_metal>
0

> <r_i_glide_rewards>
-2.46706458886514

> <r_i_glide_evdw>
-26.3691291809082

> <r_i_glide_ecoul>
-6.84832620620728

> <r_i_glide_erotb>
0.574085941240945

> <r_i_glide_esite>
0

> <r_i_glide_emodel>
-36.9735003772892

> <r_i_glide_energy>
-33.2174553871155

> <r_i_glide_einternal>
7.55499076843262

> <i_i_glide_confnum>
3

> <i_i_glide_posenum>
57

> <r_i_glide_eff_state_penalty>
0

> <s_user_duplicate_titles>
CHEMBL2039_lig1937

> <s_m_subgroup_title>
dock_pv

> <s_m_subgroupid>
dock_pv

> <b_m_subgroup_collapsed>
1

$$$$
CHEMBL2039_lig1566
                    3D
 Schrodinger Suite 2021-1.
 25 26  0  0  1  0            999 V2000
   49.6100  159.5678   30.6206 C   0  0  0  0  0  0
   50.7649  159.0986   29.8511 C   0  0  0  0  0  0
   50.7684  157.7157   29.3611 C   0  0  0  0  0  0
   51.7305  159.8444   29.7047 O   0  0  0  0  0  0
   51.6905  157.2353   28.5039 C   0  0  0  0  0  0
   51.6825  155.8742   27.9270 C   0  0  0  0  0  0
   51.2561  154.7529   28.6480 C   0  0  0  0  0  0
   51.2561  153.4920   28.0507 C   0  0  0  0  0  0
   51.6560  153.3399   26.7260 C   0  0  0  0  0  0
   52.0560  154.4528   25.9873 C   0  0  0  0  0  0
   52.0582  155.7150   26.5861 C   0  0  0  0  0  0
   48.0348  158.8181   30.5045 S   0  0  0  0  0  0
   47.3770  159.9331   31.6512 C   0  0  0  0  0  0
   48.3217  160.8396   32.1001 C   0  0  0  0  0  0
   49.5736  160.6438   31.5083 C   0  0  0  0  0  0
   45.7290  159.8295   32.0972 Cl  0  0  0  0  0  0
   52.6105  154.2439   24.1786 Br  0  0  0  0  0  0
   51.6562  152.1095   26.1676 F   0  0  0  0  0  0
   49.9766  157.0701   29.7040 H   0  0  0  0  0  0
   52.5051  157.8760   28.1832 H   0  0  0  0  0  0
   50.9491  154.8453   29.6798 H   0  0  0  0  0  0
   50.9425  152.6249   28.6129 H   0  0  0  0  0  0
   52.3706  156.5717   26.0077 H   0  0  0  0  0  0
   48.1138  161.6189   32.8184 H   0  0  0  0  0  0
   50.4334  161.2601   31.7338 H   0  0  0  0  0  0
  1  2  1  0  0  0
  1 12  1  0  0  0
  1 15  2  0  0  0
  2  3  1  0  0  0
  2  4  2  0  0  0
  3  5  2  0  0  0
  3 19  1  0  0  0
  5  6  1  0  0  0
  5 20  1  0  0  0
  6  7  2  0  0  0
  6 11  1  0  0  0
  7  8  1  0  0  0
  7 21  1  0  0  0
  8  9  2  0  0  0
  8 22  1  0  0  0
  9 10  1  0  0  0
  9 18  1  0  0  0
 10 11  2  0  0  0
 10 17  1  0  0  0
 11 23  1  0  0  0
 12 13  1  0  0  0
 13 14  2  0  0  0
 13 16  1  0  0  0
 14 15  1  0  0  0
 14 24  1  0  0  0
 15 25  1  0  0  0
M  END
> <s_m_entry_id>
9993

> <s_m_entry_name>
dock_pv.29

> <s_m_Source_Path>
/home/csk/Desktop/cluster/DUD-E-result/aofb

> <s_m_Source_File>
dock_pv.maegz

> <i_m_Source_File_Index>
29

> <chembl_id>
CHEMBL3735123

> <chembl_pref_name>
None

> <i_lp_mmshare_version>
53161

> <i_f3d_flags>
0

> <r_lp_tautomer_probability>
1

> <s_lp_Force_Field>
OPLS_2005

> <r_lp_Energy>
7.088521

> <b_lp_Chiralities_Consistent>
1

> <s_lp_Variant>
CHEMBL2039_lig1566-1

> <s_i_glide_gridfile>
glide-grid_1s3b

> <i_i_glide_lignum>
1827

> <i_i_glide_rotatable_bonds>
3

> <r_i_docking_score>
-8.43755374058535

> <r_i_glide_ligand_efficiency>
-0.468752985588075

> <r_i_glide_ligand_efficiency_sa>
-1.22848035180609

> <r_i_glide_ligand_efficiency_ln>
-2.16882968149764

> <r_i_glide_gscore>
-8.43755374058535

> <r_i_glide_lipo>
-4.32659731358057

> <r_i_glide_hbond>
0

> <r_i_glide_metal>
0

> <r_i_glide_rewards>
-2.39855268372018

> <r_i_glide_evdw>
-36.2406005859375

> <r_i_glide_ecoul>
-0.396352499723434

> <r_i_glide_erotb>
0.159079160970786

> <r_i_glide_esite>
0

> <r_i_glide_emodel>
-51.914738735909

> <r_i_glide_energy>
-36.6369530856609

> <r_i_glide_einternal>
4.84583234786987

> <i_i_glide_confnum>
2

> <i_i_glide_posenum>
110

> <r_i_glide_eff_state_penalty>
0

> <s_user_duplicate_titles>
CHEMBL2039_lig1566

> <s_m_subgroup_title>
dock_pv

> <s_m_subgroupid>
dock_pv

> <b_m_subgroup_collapsed>
1

$$$$
CHEMBL2039_lig920
                    3D
 Schrodinger Suite 2021-1.
 35 36  0  0  1  0            999 V2000
   46.4394  159.8452   31.7439 C   0  0  0  0  0  0
   46.7661  159.3155   30.5027 C   0  0  0  0  0  0
   48.0611  159.4440   30.0156 C   0  0  0  0  0  0
   49.0691  160.0467   30.7856 C   0  0  0  0  0  0
   48.6965  160.6738   31.9951 C   0  0  0  0  0  0
   47.3933  160.5445   32.4767 C   0  0  0  0  0  0
   49.5622  161.4350   32.7372 O   0  0  0  0  0  0
   50.4863  160.0318   30.2779 C   0  0  0  0  0  0
   51.2683  160.9466   30.5333 O   0  0  0  0  0  0
   50.9973  158.8491   29.5654 C   0  0  0  0  0  0
   50.4810  157.6028   29.7040 C   0  0  0  0  0  0
   50.8561  156.4158   28.9506 C   0  0  0  0  0  0
   51.6560  156.4012   27.8666 C   0  0  0  0  0  0
   51.9374  155.2465   27.0013 C   0  0  0  0  0  0
   51.6549  153.9236   27.3727 C   0  0  0  0  0  0
   51.9929  152.8701   26.5252 C   0  0  0  0  0  0
   52.6250  153.1334   25.3039 C   0  0  0  0  0  0
   52.8291  154.4580   24.9040 C   0  0  0  0  0  0
   52.4759  155.5073   25.7419 C   0  0  0  0  0  0
   53.0914  152.0377   24.4398 N   0  3  0  0  0  0
   53.2559  152.2908   23.2548 O   0  0  0  0  0  0
   53.2570  150.9196   24.9214 O   0  5  0  0  0  0
   45.4290  159.7441   32.1108 H   0  0  0  0  0  0
   46.0104  158.8131   29.9175 H   0  0  0  0  0  0
   48.2757  159.0439   29.0358 H   0  0  0  0  0  0
   47.1185  160.9992   33.4181 H   0  0  0  0  0  0
   50.4521  161.4851   32.3673 H   0  0  0  0  0  0
   51.8342  159.0428   28.9095 H   0  0  0  0  0  0
   49.6767  157.4439   30.4084 H   0  0  0  0  0  0
   50.4128  155.4830   29.2703 H   0  0  0  0  0  0
   52.1238  157.3295   27.5670 H   0  0  0  0  0  0
   51.2160  153.6942   28.3310 H   0  0  0  0  0  0
   51.7951  151.8496   26.8332 H   0  0  0  0  0  0
   53.3090  154.6709   23.9623 H   0  0  0  0  0  0
   52.6733  156.5227   25.4244 H   0  0  0  0  0  0
  1  2  2  0  0  0
  1  6  1  0  0  0
  1 23  1  0  0  0
  2  3  1  0  0  0
  2 24  1  0  0  0
  3  4  2  0  0  0
  3 25  1  0  0  0
  4  5  1  0  0  0
  4  8  1  0  0  0
  5  6  2  0  0  0
  5  7  1  0  0  0
  6 26  1  0  0  0
  7 27  1  0  0  0
  8  9  2  0  0  0
  8 10  1  0  0  0
 10 11  2  0  0  0
 10 28  1  0  0  0
 11 12  1  0  0  0
 11 29  1  0  0  0
 12 13  2  0  0  0
 12 30  1  0  0  0
 13 14  1  0  0  0
 13 31  1  0  0  0
 14 15  2  0  0  0
 14 19  1  0  0  0
 15 16  1  0  0  0
 15 32  1  0  0  0
 16 17  2  0  0  0
 16 33  1  0  0  0
 17 18  1  0  0  0
 17 20  1  0  0  0
 18 19  2  0  0  0
 18 34  1  0  0  0
 19 35  1  0  0  0
 20 21  2  0  0  0
 20 22  1  0  0  0
M  CHG  2  20   1  22  -1
M  END
> <s_m_entry_id>
9994

> <s_m_entry_name>
dock_pv.30

> <s_m_Source_Path>
/home/csk/Desktop/cluster/DUD-E-result/aofb

> <s_m_Source_File>
dock_pv.maegz

> <i_m_Source_File_Index>
30

> <chembl_id>
CHEMBL2332185

> <chembl_pref_name>
None

> <i_lp_mmshare_version>
53161

> <i_f3d_flags>
0

> <r_lp_tautomer_probability>
1

> <s_lp_Force_Field>
OPLS_2005

> <r_lp_Energy>
23.056293

> <b_lp_Chiralities_Consistent>
1

> <s_lp_Variant>
CHEMBL2039_lig920-1

> <s_i_glide_gridfile>
glide-grid_1s3b

> <i_i_glide_lignum>
1067

> <i_i_glide_rotatable_bonds>
6

> <r_i_docking_score>
-8.43541824762827

> <r_i_glide_ligand_efficiency>
-0.383428102164921

> <r_i_glide_ligand_efficiency_sa>
-1.07438062163768

> <r_i_glide_ligand_efficiency_ln>
-2.06192390907693

> <r_i_glide_gscore>
-8.43541824762827

> <r_i_glide_lipo>
-3.91370319275174

> <r_i_glide_hbond>
0

> <r_i_glide_metal>
0

> <r_i_glide_rewards>
-3.19252642484751

> <r_i_glide_evdw>
-41.5221710205078

> <r_i_glide_ecoul>
-0.617745637893677

> <r_i_glide_erotb>
0.839581766680425

> <r_i_glide_esite>
0

> <r_i_glide_emodel>
-58.8370151369386

> <r_i_glide_energy>
-42.1399166584015

> <r_i_glide_einternal>
4.71045207977295

> <i_i_glide_confnum>
23

> <i_i_glide_posenum>
247

> <r_i_glide_eff_state_penalty>
0

> <s_user_duplicate_titles>
CHEMBL2039_lig920

> <s_m_subgroup_title>
dock_pv

> <s_m_subgroupid>
dock_pv

> <b_m_subgroup_collapsed>
1

$$$$
CHEMBL2039_lig1331
                    3D
 Schrodinger Suite 2021-1.
 39 42  0  0  1  0            999 V2000
   51.0205  153.4442   27.4956 O   0  0  0  0  0  0
   51.5769  152.6324   26.5066 C   0  0  0  0  0  0
   51.2560  151.4481   26.5040 O   0  0  0  0  0  0
   52.2477  155.3897   26.7156 C   0  0  0  0  0  0
   52.7737  156.6440   26.9923 C   0  0  0  0  0  0
   52.3264  157.3435   28.1040 C   0  0  0  0  0  0
   51.2560  156.8548   28.8741 C   0  0  0  0  0  0
   50.8893  155.5096   28.7083 C   0  0  0  0  0  0
   51.4010  154.7724   27.6413 C   0  0  0  0  0  0
   50.4614  157.6466   29.7040 N   0  0  0  0  0  0
   50.4547  158.9228   29.7040 C   0  0  0  0  0  0
   49.5926  159.6435   30.6375 C   0  0  0  0  0  0
   50.1100  160.6266   31.4990 C   0  0  0  0  0  0
   49.3079  161.1560   32.5040 C   0  0  0  0  0  0
   47.9878  160.7627   32.6393 C   0  0  0  0  0  0
   47.4360  159.8443   31.7517 C   0  0  0  0  0  0
   48.2403  159.2809   30.7615 C   0  0  0  0  0  0
   51.4169  161.0439   31.4451 O   0  0  0  0  0  0
   52.4540  153.2705   25.5378 C   0  0  0  0  0  0
   52.6983  154.5937   25.5760 C   0  0  0  0  0  0
   53.6972  154.9516   24.5064 C   0  0  0  0  0  0
   53.5803  153.7502   23.5734 C   0  0  0  0  0  0
   53.2560  152.5744   24.4686 C   0  0  0  0  0  0
   47.2560  161.2802   33.6647 O   0  0  0  0  0  0
   53.5288  157.0721   26.3535 H   0  0  0  0  0  0
   52.7285  158.3254   28.2800 H   0  0  0  0  0  0
   50.1384  155.0686   29.3469 H   0  0  0  0  0  0
   51.0694  159.5354   29.0515 H   0  0  0  0  0  0
   49.7233  161.8440   33.2196 H   0  0  0  0  0  0
   46.4050  159.5361   31.8460 H   0  0  0  0  0  0
   47.8155  158.5275   30.1121 H   0  0  0  0  0  0
   51.6560  161.5720   32.2189 H   0  0  0  0  0  0
   53.5153  155.9411   24.1040 H   0  0  0  0  0  0
   54.7071  154.9821   24.9136 H   0  0  0  0  0  0
   54.4560  153.5943   22.9496 H   0  0  0  0  0  0
   52.7311  153.8678   22.9023 H   0  0  0  0  0  0
   54.1581  152.1425   24.9040 H   0  0  0  0  0  0
   52.7514  151.7754   23.9286 H   0  0  0  0  0  0
   46.3385  161.0060   33.6289 H   0  0  0  0  0  0
  1  2  1  0  0  0
  1  9  1  0  0  0
  2  3  2  0  0  0
  2 19  1  0  0  0
  4 20  1  0  0  0
  4  5  1  0  0  0
  4  9  2  0  0  0
  5  6  2  0  0  0
  5 25  1  0  0  0
  6  7  1  0  0  0
  6 26  1  0  0  0
  7  8  2  0  0  0
  7 10  1  0  0  0
  8  9  1  0  0  0
  8 27  1  0  0  0
 10 11  2  0  0  0
 11 12  1  0  0  0
 11 28  1  0  0  0
 12 13  1  0  0  0
 12 17  2  0  0  0
 13 14  2  0  0  0
 13 18  1  0  0  0
 14 15  1  0  0  0
 14 29  1  0  0  0
 15 16  2  0  0  0
 15 24  1  0  0  0
 16 17  1  0  0  0
 16 30  1  0  0  0
 17 31  1  0  0  0
 18 32  1  0  0  0
 19 20  2  0  0  0
 19 23  1  0  0  0
 20 21  1  0  0  0
 21 22  1  0  0  0
 21 33  1  0  0  0
 21 34  1  0  0  0
 22 23  1  0  0  0
 22 35  1  0  0  0
 22 36  1  0  0  0
 23 37  1  0  0  0
 23 38  1  0  0  0
 24 39  1  0  0  0
M  END
> <s_m_entry_id>
9995

> <s_m_entry_name>
dock_pv.31

> <s_m_Source_Path>
/home/csk/Desktop/cluster/DUD-E-result/aofb

> <s_m_Source_File>
dock_pv.maegz

> <i_m_Source_File_Index>
31

> <chembl_id>
CHEMBL3394537

> <chembl_pref_name>
None

> <i_lp_mmshare_version>
53161

> <i_f3d_flags>
0

> <r_lp_tautomer_probability>
1

> <s_lp_Force_Field>
OPLS_2005

> <r_lp_Energy>
37.544621

> <b_lp_Chiralities_Consistent>
1

> <s_lp_Variant>
CHEMBL2039_lig1331-1

> <s_i_glide_gridfile>
glide-grid_1s3b

> <i_i_glide_lignum>
1552

> <i_i_glide_rotatable_bonds>
4

> <r_i_docking_score>
-8.39524865650533

> <r_i_glide_ligand_efficiency>
-0.349802027354389

> <r_i_glide_ligand_efficiency_sa>
-1.00900364622017

> <r_i_glide_ligand_efficiency_ln>
-2.00936823636046

> <r_i_glide_gscore>
-8.39524865650533

> <r_i_glide_lipo>
-4.41168032305107

> <r_i_glide_hbond>
-0.32

> <r_i_glide_metal>
0

> <r_i_glide_rewards>
-2.10994950329412

> <r_i_glide_evdw>
-28.960428237915

> <r_i_glide_ecoul>
-3.11688113212585

> <r_i_glide_erotb>
0.361934751554487

> <r_i_glide_esite>
0

> <r_i_glide_emodel>
-35.9887725001899

> <r_i_glide_energy>
-32.0773093700409

> <r_i_glide_einternal>
4.57589530944824

> <i_i_glide_confnum>
5

> <i_i_glide_posenum>
43

> <r_i_glide_eff_state_penalty>
0

> <s_user_duplicate_titles>
CHEMBL2039_lig1331

> <s_m_subgroup_title>
dock_pv

> <s_m_subgroupid>
dock_pv

> <b_m_subgroup_collapsed>
1

$$$$
CHEMBL2039_lig2742
                    3D
 Schrodinger Suite 2021-1.
 31 32  0  0  1  0            999 V2000
   52.0560  156.8412   28.4160 C   0  0  0  0  0  0
   51.0253  157.4556   29.2655 C   0  0  0  0  0  0
   51.0621  158.7505   29.6494 C   0  0  0  0  0  0
   53.0802  157.4440   28.1040 O   0  0  0  0  0  0
   50.0158  159.4440   30.4294 C   0  0  0  0  0  0
   48.6627  159.0750   30.3664 C   0  0  0  0  0  0
   47.7049  159.7258   31.1513 C   0  0  0  0  0  0
   48.1070  160.7200   32.0418 C   0  0  0  0  0  0
   49.4500  161.0784   32.1206 C   0  0  0  0  0  0
   50.3956  160.4646   31.3040 C   0  0  0  0  0  0
   46.2350  159.3683   31.0450 C   0  0  0  0  0  0
   51.7491  155.5296   27.7836 C   0  0  0  0  0  0
   52.0560  155.3220   26.4305 C   0  0  0  0  0  0
   51.9895  154.0419   25.8846 C   0  0  0  0  0  0
   51.6262  152.9742   26.7006 C   0  0  0  0  0  0
   51.2560  153.1856   28.0219 C   0  0  0  0  0  0
   51.2942  154.4639   28.5619 C   0  0  0  0  0  0
   51.6560  151.3595   26.1040 Cl  0  0  0  0  0  0
   50.1997  156.8236   29.5547 H   0  0  0  0  0  0
   51.9026  159.3652   29.3523 H   0  0  0  0  0  0
   48.3467  158.2850   29.7040 H   0  0  0  0  0  0
   47.3820  161.2191   32.6683 H   0  0  0  0  0  0
   49.7643  161.8440   32.8142 H   0  0  0  0  0  0
   51.4325  160.7589   31.3895 H   0  0  0  0  0  0
   46.0518  158.5882   30.3073 H   0  0  0  0  0  0
   45.8528  159.0440   32.0120 H   0  0  0  0  0  0
   45.6560  160.2440   30.7576 H   0  0  0  0  0  0
   52.4115  156.1363   25.8142 H   0  0  0  0  0  0
   52.2719  153.8723   24.8558 H   0  0  0  0  0  0
   50.9629  152.3478   28.6364 H   0  0  0  0  0  0
   51.0631  154.5901   29.6108 H   0  0  0  0  0  0
  1  2  1  0  0  0
  1  4  2  0  0  0
  1 12  1  0  0  0
  2  3  2  0  0  0
  2 19  1  0  0  0
  3  5  1  0  0  0
  3 20  1  0  0  0
  5  6  1  0  0  0
  5 10  2  0  0  0
  6  7  2  0  0  0
  6 21  1  0  0  0
  7  8  1  0  0  0
  7 11  1  0  0  0
  8  9  2  0  0  0
  8 22  1  0  0  0
  9 10  1  0  0  0
  9 23  1  0  0  0
 10 24  1  0  0  0
 11 25  1  0  0  0
 11 26  1  0  0  0
 11 27  1  0  0  0
 12 13  1  0  0  0
 12 17  2  0  0  0
 13 14  2  0  0  0
 13 28  1  0  0  0
 14 15  1  0  0  0
 14 29  1  0  0  0
 15 16  2  0  0  0
 15 18  1  0  0  0
 16 17  1  0  0  0
 16 30  1  0  0  0
 17 31  1  0  0  0
M  END
> <s_m_entry_id>
9996

> <s_m_entry_name>
dock_pv.32

> <s_m_Source_Path>
/home/csk/Desktop/cluster/DUD-E-result/aofb

> <s_m_Source_File>
dock_pv.maegz

> <i_m_Source_File_Index>
32

> <chembl_id>
CHEMBL3309738

> <chembl_pref_name>
None

> <i_lp_mmshare_version>
53161

> <i_f3d_flags>
0

> <r_lp_tautomer_probability>
1

> <s_lp_Force_Field>
OPLS_2005

> <r_lp_Energy>
15.322709

> <b_lp_Chiralities_Consistent>
1

> <s_lp_Variant>
CHEMBL2039_lig2742-1

> <s_i_glide_gridfile>
glide-grid_1s3b

> <i_i_glide_lignum>
3200

> <i_i_glide_rotatable_bonds>
3

> <r_i_docking_score>
-8.34379250030285

> <r_i_glide_ligand_efficiency>
-0.463544027794603

> <r_i_glide_ligand_efficiency_sa>
-1.2148290205092

> <r_i_glide_ligand_efficiency_ln>
-2.14472883815479

> <r_i_glide_gscore>
-8.34379250030285

> <r_i_glide_lipo>
-4.30463023641857

> <r_i_glide_hbond>
0

> <r_i_glide_metal>
0

> <r_i_glide_rewards>
-3.00216881246592

> <r_i_glide_evdw>
-34.9286117553711

> <r_i_glide_ecoul>
1.16261720657349

> <r_i_glide_erotb>
0.53504455536417

> <r_i_glide_esite>
0

> <r_i_glide_emodel>
-44.1478950114684

> <r_i_glide_energy>
-33.7659945487976

> <r_i_glide_einternal>
7.12368822097778

> <i_i_glide_confnum>
2

> <i_i_glide_posenum>
229

> <r_i_glide_eff_state_penalty>
0

> <s_user_duplicate_titles>
CHEMBL2039_lig2742

> <s_m_subgroup_title>
dock_pv

> <s_m_subgroupid>
dock_pv

> <b_m_subgroup_collapsed>
1

$$$$
CHEMBL2039_lig266
                    3D
 Schrodinger Suite 2021-1.
 34 36  0  0  1  0            999 V2000
   46.9970  159.0523   31.7040 F   0  0  0  0  0  0
   47.6468  160.2181   31.6893 C   0  0  0  0  0  0
   46.9914  161.0440   30.8782 F   0  0  0  0  0  0
   47.6378  160.7247   32.9239 F   0  0  0  0  0  0
   49.0693  160.0710   31.1592 C   0  0  0  0  0  0
   50.0447  161.0278   31.4593 C   0  0  0  0  0  0
   51.3242  160.9272   30.9145 C   0  0  0  0  0  0
   51.6559  159.8440   30.1040 C   0  0  0  0  0  0
   50.7160  158.8273   29.8714 C   0  0  0  0  0  0
   50.9945  157.5951   29.2559 N   0  0  0  0  0  0
   52.0575  157.2155   28.5040 C   0  0  0  0  0  0
   53.1002  157.8440   28.4050 O   0  0  0  0  0  0
   51.9141  155.9852   27.7562 C   0  0  0  0  0  0
   52.3734  155.9585   26.4812 C   0  0  0  0  0  0
   52.4560  154.7305   25.7040 C   0  0  0  0  0  0
   53.2052  154.6503   24.5324 C   0  0  0  0  0  0
   53.4677  153.4069   23.9671 C   0  0  0  0  0  0
   53.0268  152.2440   24.5999 C   0  0  0  0  0  0
   52.2760  152.3221   25.7742 C   0  0  0  0  0  0
   51.9869  153.5688   26.3243 C   0  0  0  0  0  0
   51.2948  153.6186   27.5276 O   0  0  0  0  0  0
   51.3281  154.7557   28.3341 C   0  0  0  0  0  0
   50.8560  154.6440   29.4607 O   0  0  0  0  0  0
   49.4189  158.9719   30.3699 C   0  0  0  0  0  0
   49.8112  161.8628   32.1040 H   0  0  0  0  0  0
   52.0662  161.6781   31.1455 H   0  0  0  0  0  0
   52.6684  159.7731   29.7398 H   0  0  0  0  0  0
   50.2499  156.9168   29.3059 H   0  0  0  0  0  0
   52.7962  156.8552   26.0458 H   0  0  0  0  0  0
   53.6386  155.5406   24.1040 H   0  0  0  0  0  0
   54.0560  153.3368   23.0639 H   0  0  0  0  0  0
   53.2559  151.2804   24.1693 H   0  0  0  0  0  0
   51.9283  151.4205   26.2566 H   0  0  0  0  0  0
   48.6837  158.2043   30.1733 H   0  0  0  0  0  0
  1  2  1  0  0  0
  2  3  1  0  0  0
  2  4  1  0  0  0
  2  5  1  0  0  0
  5  6  2  0  0  0
  5 24  1  0  0  0
  6  7  1  0  0  0
  6 25  1  0  0  0
  7  8  2  0  0  0
  7 26  1  0  0  0
  8  9  1  0  0  0
  8 27  1  0  0  0
  9 10  1  0  0  0
  9 24  2  0  0  0
 10 11  1  0  0  0
 10 28  1  0  0  0
 11 12  2  0  0  0
 11 13  1  0  0  0
 13 14  2  0  0  0
 13 22  1  0  0  0
 14 15  1  0  0  0
 14 29  1  0  0  0
 15 16  2  0  0  0
 15 20  1  0  0  0
 16 17  1  0  0  0
 16 30  1  0  0  0
 17 18  2  0  0  0
 17 31  1  0  0  0
 18 19  1  0  0  0
 18 32  1  0  0  0
 19 20  2  0  0  0
 19 33  1  0  0  0
 20 21  1  0  0  0
 21 22  1  0  0  0
 22 23  2  0  0  0
 24 34  1  0  0  0
M  END
> <s_m_entry_id>
9997

> <s_m_entry_name>
dock_pv.33

> <s_m_Source_Path>
/home/csk/Desktop/cluster/DUD-E-result/aofb

> <s_m_Source_File>
dock_pv.maegz

> <i_m_Source_File_Index>
33

> <chembl_id>
CHEMBL509345

> <chembl_pref_name>
None

> <i_lp_mmshare_version>
53161

> <i_f3d_flags>
0

> <r_lp_tautomer_probability>
1

> <s_lp_Force_Field>
OPLS_2005

> <r_lp_Energy>
31.604304

> <b_lp_Chiralities_Consistent>
1

> <s_lp_Variant>
CHEMBL2039_lig266-1

> <s_i_glide_gridfile>
glide-grid_1s3b

> <i_i_glide_lignum>
315

> <i_i_glide_rotatable_bonds>
4

> <r_i_docking_score>
-8.34344397916094

> <r_i_glide_ligand_efficiency>
-0.347643499131706

> <r_i_glide_ligand_efficiency_sa>
-1.00277737342344

> <r_i_glide_ligand_efficiency_ln>
-1.99696899991021

> <r_i_glide_gscore>
-8.34344397916094

> <r_i_glide_lipo>
-3.98557364294295

> <r_i_glide_hbond>
0

> <r_i_glide_metal>
0

> <r_i_glide_rewards>
-3.60576214375116

> <r_i_glide_evdw>
-33.3923873901367

> <r_i_glide_ecoul>
2.72313809394836

> <r_i_glide_erotb>
0.509040462947744

> <r_i_glide_esite>
0

> <r_i_glide_emodel>
-31.5146782965769

> <r_i_glide_energy>
-30.6692492961884

> <r_i_glide_einternal>
6.1991229057312

> <i_i_glide_confnum>
2

> <i_i_glide_posenum>
356

> <r_i_glide_eff_state_penalty>
0

> <s_user_duplicate_titles>
CHEMBL2039_lig266,521581

> <s_m_subgroup_title>
dock_pv

> <s_m_subgroupid>
dock_pv

> <b_m_subgroup_collapsed>
1

$$$$
CHEMBL2039_lig567
                    3D
 Schrodinger Suite 2021-1.
 33 35  0  0  1  0            999 V2000
   52.6507  151.5591   25.3040 C   0  0  0  0  0  0
   53.2560  152.2032   24.2290 C   0  0  0  0  0  0
   53.3017  153.5930   24.1733 C   0  0  0  0  0  0
   52.0088  152.3087   26.2877 C   0  0  0  0  0  0
   52.0560  153.6950   26.2427 C   0  0  0  0  0  0
   52.7413  154.3512   25.2073 C   0  0  0  0  0  0
   52.9813  155.8111   25.3040 C   0  0  0  0  0  0
   52.4613  156.3956   26.5114 C   0  0  0  0  0  0
   51.8246  155.6954   27.4772 C   0  0  0  0  0  0
   51.5476  154.3678   27.3332 O   0  0  0  0  0  0
   53.6559  156.4500   24.5040 O   0  0  0  0  0  0
   51.2560  156.3298   28.6555 C   0  0  0  0  0  0
   51.6219  157.6218   28.9040 N   0  0  0  0  0  0
   50.3891  155.7456   29.3040 O   0  0  0  0  0  0
   50.9807  158.6026   29.7040 C   0  0  0  0  0  0
   49.6552  158.5312   30.1598 C   0  0  0  0  0  0
   49.1497  159.5068   31.0258 C   0  0  0  0  0  0
   49.9582  160.5643   31.4492 C   0  0  0  0  0  0
   51.2568  160.6808   30.9372 C   0  0  0  0  0  0
   51.7338  159.7260   30.0495 C   0  0  0  0  0  0
   49.4779  161.4439   32.3895 O   0  0  0  0  0  0
   52.1071  161.6937   31.3040 O   0  0  0  0  0  0
   52.6214  150.4797   25.3433 H   0  0  0  0  0  0
   53.6560  151.6186   23.4179 H   0  0  0  0  0  0
   53.8226  154.0654   23.3513 H   0  0  0  0  0  0
   51.5038  151.8260   27.1101 H   0  0  0  0  0  0
   52.6272  157.4440   26.6219 H   0  0  0  0  0  0
   52.4856  157.9271   28.4807 H   0  0  0  0  0  0
   49.0189  157.6982   29.9108 H   0  0  0  0  0  0
   48.1443  159.4128   31.4095 H   0  0  0  0  0  0
   52.7531  159.8150   29.7040 H   0  0  0  0  0  0
   50.1527  162.0421   32.7236 H   0  0  0  0  0  0
   52.0560  161.9326   32.2418 H   0  0  0  0  0  0
  1  2  2  0  0  0
  1  4  1  0  0  0
  1 23  1  0  0  0
  2  3  1  0  0  0
  2 24  1  0  0  0
  3  6  2  0  0  0
  3 25  1  0  0  0
  4  5  2  0  0  0
  4 26  1  0  0  0
  5  6  1  0  0  0
  5 10  1  0  0  0
  6  7  1  0  0  0
  7 11  2  0  0  0
  7  8  1  0  0  0
  8  9  2  0  0  0
  8 27  1  0  0  0
  9 12  1  0  0  0
  9 10  1  0  0  0
 12 13  1  0  0  0
 12 14  2  0  0  0
 13 15  1  0  0  0
 13 28  1  0  0  0
 15 16  2  0  0  0
 15 20  1  0  0  0
 16 17  1  0  0  0
 16 29  1  0  0  0
 17 18  2  0  0  0
 17 30  1  0  0  0
 18 19  1  0  0  0
 18 21  1  0  0  0
 19 20  2  0  0  0
 19 22  1  0  0  0
 20 31  1  0  0  0
 21 32  1  0  0  0
 22 33  1  0  0  0
M  END
> <s_m_entry_id>
9998

> <s_m_entry_name>
dock_pv.34

> <s_m_Source_Path>
/home/csk/Desktop/cluster/DUD-E-result/aofb

> <s_m_Source_File>
dock_pv.maegz

> <i_m_Source_File_Index>
34

> <chembl_id>
CHEMBL1814057

> <chembl_pref_name>
None

> <i_lp_mmshare_version>
53161

> <i_f3d_flags>
0

> <r_lp_tautomer_probability>
0.999999999999776

> <s_lp_Force_Field>
OPLS_2005

> <r_lp_Energy>
17.150668

> <b_lp_Chiralities_Consistent>
1

> <s_lp_Variant>
CHEMBL2039_lig567-1

> <s_i_glide_gridfile>
glide-grid_1s3b

> <i_i_glide_lignum>
670

> <i_i_glide_rotatable_bonds>
5

> <r_i_docking_score>
-8.33065018678892

> <r_i_glide_ligand_efficiency>
-0.378665917581315

> <r_i_glide_ligand_efficiency_sa>
-1.06103679314832

> <r_i_glide_ligand_efficiency_ln>
-2.03631477349993

> <r_i_glide_gscore>
-8.33065018678892

> <r_i_glide_lipo>
-3.76582364862304

> <r_i_glide_hbond>
0

> <r_i_glide_metal>
0

> <r_i_glide_rewards>
-2.33084811153253

> <r_i_glide_evdw>
-25.2552585601807

> <r_i_glide_ecoul>
-10.6241102218628

> <r_i_glide_erotb>
0.622401034655105

> <r_i_glide_esite>
0

> <r_i_glide_emodel>
-40.9231480180083

> <r_i_glide_energy>
-35.8793687820435

> <r_i_glide_einternal>
9.26114273071289

> <i_i_glide_confnum>
8

> <i_i_glide_posenum>
138

> <r_i_glide_eff_state_penalty>
0

> <s_user_duplicate_titles>
CHEMBL2039_lig567

> <s_m_subgroup_title>
dock_pv

> <s_m_subgroupid>
dock_pv

> <b_m_subgroup_collapsed>
1

$$$$
CHEMBL2039_lig1933
                    3D
 Schrodinger Suite 2021-1.
 35 37  0  0  1  0            999 V2000
   52.8560  151.6783   25.0080 C   0  0  0  0  0  0
   53.2560  152.5043   23.9628 C   0  0  0  0  0  0
   53.2208  153.8837   24.1040 C   0  0  0  0  0  0
   52.1968  152.2440   26.1039 C   0  0  0  0  0  0
   52.1216  153.6345   26.2506 C   0  0  0  0  0  0
   52.6830  154.4427   25.2549 C   0  0  0  0  0  0
   52.8018  155.8054   25.3894 O   0  0  0  0  0  0
   52.3942  156.3591   26.5540 C   0  0  0  0  0  0
   51.8262  155.7175   27.6036 C   0  0  0  0  0  0
   51.6560  154.2429   27.5273 C   0  0  0  0  0  0
   51.2560  156.4660   28.7122 C   0  0  0  0  0  0
   51.6560  157.7560   28.9040 N   0  0  0  0  0  0
   50.3352  155.9678   29.3533 O   0  0  0  0  0  0
   51.0358  158.7561   29.7012 C   0  0  0  0  0  0
   51.8245  159.8411   30.1040 C   0  0  0  0  0  0
   51.3414  160.7628   31.0226 C   0  0  0  0  0  0
   50.0413  160.6344   31.4966 C   0  0  0  0  0  0
   49.1958  159.6472   31.0045 C   0  0  0  0  0  0
   49.6896  158.7091   30.1040 C   0  0  0  0  0  0
   53.0352  150.1746   24.9040 C   0  0  0  0  0  0
   49.6129  161.4447   32.5041 O   0  0  0  0  0  0
   51.2560  153.5136   28.4331 O   0  0  0  0  0  0
   53.6560  152.0780   23.0577 H   0  0  0  0  0  0
   53.6560  154.5071   23.3421 H   0  0  0  0  0  0
   51.7824  151.5995   26.8677 H   0  0  0  0  0  0
   52.5170  157.4312   26.5040 H   0  0  0  0  0  0
   52.5507  158.0151   28.5183 H   0  0  0  0  0  0
   52.8559  159.9020   29.7903 H   0  0  0  0  0  0
   51.9920  161.5385   31.4003 H   0  0  0  0  0  0
   48.1816  159.5697   31.3672 H   0  0  0  0  0  0
   49.0254  157.9247   29.7846 H   0  0  0  0  0  0
   52.3457  149.6364   25.5555 H   0  0  0  0  0  0
   52.8571  149.8306   23.8856 H   0  0  0  0  0  0
   54.0560  149.8993   25.1580 H   0  0  0  0  0  0
   50.3551  161.8729   32.9482 H   0  0  0  0  0  0
  1  2  2  0  0  0
  1  4  1  0  0  0
  1 20  1  0  0  0
  2  3  1  0  0  0
  2 23  1  0  0  0
  3  6  2  0  0  0
  3 24  1  0  0  0
  4  5  2  0  0  0
  4 25  1  0  0  0
  5  6  1  0  0  0
  5 10  1  0  0  0
  6  7  1  0  0  0
  7  8  1  0  0  0
  8  9  2  0  0  0
  8 26  1  0  0  0
  9 10  1  0  0  0
  9 11  1  0  0  0
 10 22  2  0  0  0
 11 12  1  0  0  0
 11 13  2  0  0  0
 12 14  1  0  0  0
 12 27  1  0  0  0
 14 15  2  0  0  0
 14 19  1  0  0  0
 15 16  1  0  0  0
 15 28  1  0  0  0
 16 17  2  0  0  0
 16 29  1  0  0  0
 17 18  1  0  0  0
 17 21  1  0  0  0
 18 19  2  0  0  0
 18 30  1  0  0  0
 19 31  1  0  0  0
 20 32  1  0  0  0
 20 33  1  0  0  0
 20 34  1  0  0  0
 21 35  1  0  0  0
M  END
> <s_m_entry_id>
9999

> <s_m_entry_name>
dock_pv.35

> <s_m_Source_Path>
/home/csk/Desktop/cluster/DUD-E-result/aofb

> <s_m_Source_File>
dock_pv.maegz

> <i_m_Source_File_Index>
35

> <chembl_id>
CHEMBL4091517

> <chembl_pref_name>
None

> <i_lp_mmshare_version>
53161

> <i_f3d_flags>
0

> <r_lp_tautomer_probability>
0.999999999997365

> <s_lp_Force_Field>
OPLS_2005

> <r_lp_Energy>
23.841539

> <b_lp_Chiralities_Consistent>
1

> <s_lp_Variant>
CHEMBL2039_lig1933-1

> <s_i_glide_gridfile>
glide-grid_1s3b

> <i_i_glide_lignum>
2268

> <i_i_glide_rotatable_bonds>
4

> <r_i_docking_score>
-8.32296548760266

> <r_i_glide_ligand_efficiency>
-0.378316613072848

> <r_i_glide_ligand_efficiency_sa>
-1.06005802817823

> <r_i_glide_ligand_efficiency_ln>
-2.03443635271259

> <r_i_glide_gscore>
-8.32296548760266

> <r_i_glide_lipo>
-3.97892722968945

> <r_i_glide_hbond>
-0.32

> <r_i_glide_metal>
0

> <r_i_glide_rewards>
-2.42395649744379

> <r_i_glide_evdw>
-26.7581310272217

> <r_i_glide_ecoul>
-5.94574356079102

> <r_i_glide_erotb>
0.629686325010318

> <r_i_glide_esite>
0

> <r_i_glide_emodel>
-37.1939136006157

> <r_i_glide_energy>
-32.7038745880127

> <r_i_glide_einternal>
5.9774055480957

> <i_i_glide_confnum>
9

> <i_i_glide_posenum>
363

> <r_i_glide_eff_state_penalty>
0

> <s_user_duplicate_titles>
CHEMBL2039_lig1933

> <s_m_subgroup_title>
dock_pv

> <s_m_subgroupid>
dock_pv

> <b_m_subgroup_collapsed>
1

$$$$
CHEMBL2039_lig2398 
                    3D
 Schrodinger Suite 2021-1.
 43 45  0  0  1  0            999 V2000
   52.3113  153.5948   25.5394 N   0  0  1  0  0  0
   51.9390  153.0771   26.8755 C   0  0  0  0  0  0
   51.1530  154.0741   27.7504 C   0  0  0  0  0  0
   51.9319  155.3794   27.9587 C   0  0  0  0  0  0
   52.1653  155.9753   26.5468 C   0  0  0  0  0  0
   52.7694  155.0040   25.5105 C   0  0  0  0  0  0
   53.3741  152.8251   24.8501 C   0  0  0  0  0  0
   53.2467  151.3512   24.8619 C   0  0  0  0  0  0
   53.2513  150.1295   24.8736 C   0  0  0  0  0  0
   51.1778  156.3296   28.8901 C   0  0  0  0  0  0
   51.2761  157.6784   28.9036 C   0  0  0  0  0  0
   50.4591  158.6010   29.7044 C   0  0  0  0  0  0
   49.1781  158.2257   30.1043 C   0  0  0  0  0  0
   48.4285  159.0320   30.9358 C   0  0  0  0  0  0
   48.9608  160.2326   31.3979 C   0  0  0  0  0  0
   50.2302  160.6401   30.9782 C   0  0  0  0  0  0
   50.9722  159.8340   30.1150 C   0  0  0  0  0  0
   48.2003  161.0541   32.4202 C   0  0  0  0  0  0
   46.8568  160.6444   32.9850 C   0  0  0  0  0  0
   48.0836  160.6040   33.8485 C   0  0  0  0  0  0
   51.4079  152.1299   26.7787 H   0  0  0  0  0  0
   52.8558  152.8439   27.4145 H   0  0  0  0  0  0
   50.1786  154.2422   27.3071 H   0  0  0  0  0  0
   50.9659  153.5974   28.7141 H   0  0  0  0  0  0
   52.8562  155.0936   28.4398 H   0  0  0  0  0  0
   52.8314  156.8356   26.6117 H   0  0  0  0  0  0
   51.2559  156.3468   26.1049 H   0  0  0  0  0  0
   53.8404  155.0488   25.7035 H   0  0  0  0  0  0
   52.6519  155.3873   24.4968 H   0  0  0  0  0  0
   54.3471  153.0244   25.3034 H   0  0  0  0  0  0
   53.4473  153.1412   23.8090 H   0  0  0  0  0  0
   53.2538  149.0626   24.8986 H   0  0  0  0  0  0
   50.5104  155.8502   29.5929 H   0  0  0  0  0  0
   51.9815  158.1540   28.2368 H   0  0  0  0  0  0
   48.7577  157.2716   29.8238 H   0  0  0  0  0  0
   47.4580  158.6785   31.2405 H   0  0  0  0  0  0
   50.6638  161.5514   31.3606 H   0  0  0  0  0  0
   51.9700  160.1328   29.8281 H   0  0  0  0  0  0
   48.3279  162.1261   32.2867 H   0  0  0  0  0  0
   46.1330  161.3853   33.3041 H   0  0  0  0  0  0
   46.3730  159.7157   32.6935 H   0  0  0  0  0  0
   48.4560  159.6263   34.1472 H   0  0  0  0  0  0
   48.2374  161.3726   34.6034 H   0  0  0  0  0  0
  1  2  1  0  0  0
  1  6  1  0  0  0
  1  7  1  0  0  0
  2  3  1  0  0  0
  2 21  1  0  0  0
  2 22  1  0  0  0
  3  4  1  0  0  0
  3 23  1  0  0  0
  3 24  1  0  0  0
  4  5  1  0  0  0
  4 10  1  0  0  0
  4 25  1  0  0  0
  5  6  1  0  0  0
  5 26  1  0  0  0
  5 27  1  0  0  0
  6 28  1  0  0  0
  6 29  1  0  0  0
  7  8  1  0  0  0
  7 30  1  0  0  0
  7 31  1  0  0  0
  8  9  3  0  0  0
  9 32  1  0  0  0
 10 11  2  0  0  0
 10 33  1  0  0  0
 11 12  1  0  0  0
 11 34  1  0  0  0
 12 13  2  0  0  0
 12 17  1  0  0  0
 13 14  1  0  0  0
 13 35  1  0  0  0
 14 15  2  0  0  0
 14 36  1  0  0  0
 15 16  1  0  0  0
 15 18  1  0  0  0
 16 17  2  0  0  0
 16 37  1  0  0  0
 17 38  1  0  0  0
 18 19  1  0  0  0
 18 20  1  0  0  0
 18 39  1  0  0  0
 19 20  1  0  0  0
 19 40  1  0  0  0
 19 41  1  0  0  0
 20 42  1  0  0  0
 20 43  1  0  0  0
M  END
> <s_m_entry_id>
10000

> <s_m_entry_name>
dock_pv.36

> <s_m_Source_Path>
/home/csk/Desktop/cluster/DUD-E-result/aofb

> <s_m_Source_File>
dock_pv.maegz

> <i_m_Source_File_Index>
36

> <chembl_id>
CHEMBL4449776

> <chembl_pref_name>
None

> <i_lp_mmshare_version>
53161

> <i_f3d_flags>
0

> <r_lp_tautomer_probability>
1

> <s_lp_Force_Field>
OPLS_2005

> <r_lp_Energy>
24.818173

> <b_lp_Chiralities_Consistent>
1

> <s_lp_Variant>
CHEMBL2039_lig2398 -1

> <s_i_glide_gridfile>
glide-grid_1s3b

> <i_i_glide_lignum>
2790

> <i_i_glide_rotatable_bonds>
5

> <r_i_docking_score>
-8.31412046944589

> <r_i_glide_ligand_efficiency>
-0.415706023472294

> <r_i_glide_ligand_efficiency_sa>
-1.12839975231102

> <r_i_glide_ligand_efficiency_ln>
-2.08075013545663

> <r_i_glide_gscore>
-8.31412046944589

> <r_i_glide_lipo>
-5.44514956353298

> <r_i_glide_hbond>
0

> <r_i_glide_metal>
0

> <r_i_glide_rewards>
-2.49959577272727

> <r_i_glide_evdw>
-31.6441802978516

> <r_i_glide_ecoul>
-0.336071938276291

> <r_i_glide_erotb>
1.26324467244839

> <r_i_glide_esite>
0

> <r_i_glide_emodel>
-30.8224127491979

> <r_i_glide_energy>
-31.9802522361279

> <r_i_glide_einternal>
20.2534275054932

> <i_i_glide_confnum>
49

> <i_i_glide_posenum>
158

> <r_i_glide_eff_state_penalty>
0

> <s_user_duplicate_titles>
CHEMBL2039_lig2398 

> <s_m_subgroup_title>
dock_pv

> <s_m_subgroupid>
dock_pv

> <b_m_subgroup_collapsed>
1

$$$$
CHEMBL2039_lig2288
                    3D
 Schrodinger Suite 2021-1.
 31 33  0  0  1  0            999 V2000
   53.2560  152.4459   24.3703 C   0  0  0  0  0  0
   52.6454  151.6100   25.3040 C   0  0  0  0  0  0
   51.8809  152.1560   26.3363 C   0  0  0  0  0  0
   53.1567  153.8293   24.4941 C   0  0  0  0  0  0
   52.4598  154.3704   25.5821 C   0  0  0  0  0  0
   51.8389  153.5256   26.5064 C   0  0  0  0  0  0
   51.2561  154.0851   27.6425 N   0  0  0  0  0  0
   51.4144  155.4302   27.8795 C   0  0  0  0  0  0
   52.0560  156.2440   27.1291 N   0  0  0  0  0  0
   52.5178  155.8567   25.8648 C   0  0  0  0  0  0
   50.4560  155.9440   29.3040 S   0  0  0  0  0  0
   52.9518  156.6127   24.9976 O   0  0  0  0  0  0
   50.8507  157.7500   29.4435 C   0  0  0  0  0  0
   49.8074  158.6391   30.1349 C   0  0  0  0  0  0
   50.2327  159.8932   30.5804 C   0  0  0  0  0  0
   49.4001  160.6738   31.3745 C   0  0  0  0  0  0
   48.1156  160.2372   31.6802 C   0  0  0  0  0  0
   47.6559  159.0171   31.1979 C   0  0  0  0  0  0
   48.5047  158.2165   30.4387 C   0  0  0  0  0  0
   47.3150  160.9979   32.4592 F   0  0  0  0  0  0
   53.7773  152.0184   23.5299 H   0  0  0  0  0  0
   52.7136  150.5374   25.1935 H   0  0  0  0  0  0
   51.3742  151.5046   27.0322 H   0  0  0  0  0  0
   53.6630  154.4591   23.7752 H   0  0  0  0  0  0
   50.7919  153.5045   28.3211 H   0  0  0  0  0  0
   51.1044  158.2142   28.5040 H   0  0  0  0  0  0
   51.7675  157.8440   30.0172 H   0  0  0  0  0  0
   51.2366  160.2361   30.3730 H   0  0  0  0  0  0
   49.7550  161.6161   31.7642 H   0  0  0  0  0  0
   46.6569  158.6838   31.4356 H   0  0  0  0  0  0
   48.1476  157.2557   30.1040 H   0  0  0  0  0  0
  1  4  2  0  0  0
  1 21  1  0  0  0
  1  2  1  0  0  0
  2 22  1  0  0  0
  2  3  2  0  0  0
  3 23  1  0  0  0
  3  6  1  0  0  0
  4  5  1  0  0  0
  4 24  1  0  0  0
  5 10  1  0  0  0
  5  6  2  0  0  0
  6  7  1  0  0  0
  7 25  1  0  0  0
  7  8  1  0  0  0
  8 11  1  0  0  0
  8  9  2  0  0  0
  9 10  1  0  0  0
 10 12  2  0  0  0
 11 13  1  0  0  0
 13 14  1  0  0  0
 13 26  1  0  0  0
 13 27  1  0  0  0
 14 15  2  0  0  0
 14 19  1  0  0  0
 15 16  1  0  0  0
 15 28  1  0  0  0
 16 17  2  0  0  0
 16 29  1  0  0  0
 17 18  1  0  0  0
 17 20  1  0  0  0
 18 19  2  0  0  0
 18 30  1  0  0  0
 19 31  1  0  0  0
M  END
> <s_m_entry_id>
10001

> <s_m_entry_name>
dock_pv.37

> <s_m_Source_Path>
/home/csk/Desktop/cluster/DUD-E-result/aofb

> <s_m_Source_File>
dock_pv.maegz

> <i_m_Source_File_Index>
37

> <chembl_id>
CHEMBL4277956

> <chembl_pref_name>
None

> <i_lp_mmshare_version>
53161

> <i_f3d_flags>
0

> <r_lp_tautomer_probability>
0.116051

> <s_lp_Force_Field>
OPLS_2005

> <r_lp_Energy>
12.01386

> <b_lp_Chiralities_Consistent>
1

> <s_lp_Variant>
CHEMBL2039_lig2288-2

> <s_i_glide_gridfile>
glide-grid_1s3b

> <i_i_glide_lignum>
2650

> <i_i_glide_rotatable_bonds>
3

> <r_i_docking_score>
-8.31116721518291

> <r_i_glide_ligand_efficiency>
-0.415558360759146

> <r_i_glide_ligand_efficiency_sa>
-1.12799893404153

> <r_i_glide_ligand_efficiency_ln>
-2.08001103331945

> <r_i_glide_gscore>
-8.31116721518291

> <r_i_glide_lipo>
-4.15704146490432

> <r_i_glide_hbond>
0

> <r_i_glide_metal>
0

> <r_i_glide_rewards>
-3.17294679205505

> <r_i_glide_evdw>
-25.4338359832764

> <r_i_glide_ecoul>
-2.49304533004761

> <r_i_glide_erotb>
0.664469640447413

> <r_i_glide_esite>
0

> <r_i_glide_emodel>
-30.0378128202727

> <r_i_glide_energy>
-27.926881313324

> <r_i_glide_einternal>
6.12908315658569

> <i_i_glide_confnum>
6

> <i_i_glide_posenum>
129

> <r_i_glide_eff_state_penalty>
0

> <s_user_duplicate_titles>
CHEMBL2039_lig2288,CHEMBL2039_lig2288

> <s_m_subgroup_title>
dock_pv

> <s_m_subgroupid>
dock_pv

> <b_m_subgroup_collapsed>
1

$$$$
CHEMBL2039_lig2741
                    3D
 Schrodinger Suite 2021-1.
 31 32  0  0  1  0            999 V2000
   51.9865  153.8301   25.7619 C   0  0  0  0  0  0
   51.6560  152.7986   26.6362 C   0  0  0  0  0  0
   51.3376  153.0666   27.9615 C   0  0  0  0  0  0
   51.3999  154.3667   28.4460 C   0  0  0  0  0  0
   51.7919  155.4056   27.5958 C   0  0  0  0  0  0
   52.0560  155.1350   26.2441 C   0  0  0  0  0  0
   52.0560  156.7667   28.1379 C   0  0  0  0  0  0
   51.0845  157.3392   29.0744 C   0  0  0  0  0  0
   52.9878  157.4439   27.7040 O   0  0  0  0  0  0
   51.0371  158.6577   29.3665 C   0  0  0  0  0  0
   50.0560  159.3099   30.2574 C   0  0  0  0  0  0
   50.4497  160.4623   30.9425 C   0  0  0  0  0  0
   49.6051  161.0433   31.8839 C   0  0  0  0  0  0
   48.3485  160.4899   32.1274 C   0  0  0  0  0  0
   47.9357  159.3553   31.4285 C   0  0  0  0  0  0
   48.7909  158.7617   30.5043 C   0  0  0  0  0  0
   51.6560  151.1607   26.1040 Cl  0  0  0  0  0  0
   47.4394  161.1238   33.1614 C   0  0  0  0  0  0
   52.2284  153.6163   24.7311 H   0  0  0  0  0  0
   51.0715  152.2553   28.6215 H   0  0  0  0  0  0
   51.2102  154.5348   29.4969 H   0  0  0  0  0  0
   52.3679  155.9242   25.5739 H   0  0  0  0  0  0
   50.3743  156.6573   29.5143 H   0  0  0  0  0  0
   51.7567  159.3235   28.9089 H   0  0  0  0  0  0
   51.4306  160.8881   30.7848 H   0  0  0  0  0  0
   49.9390  161.9119   32.4330 H   0  0  0  0  0  0
   46.9655  158.9181   31.6148 H   0  0  0  0  0  0
   48.4682  157.8611   30.0070 H   0  0  0  0  0  0
   46.4560  160.6548   33.1836 H   0  0  0  0  0  0
   47.8871  161.0514   34.1529 H   0  0  0  0  0  0
   47.3027  162.1813   32.9351 H   0  0  0  0  0  0
  1  6  1  0  0  0
  1  2  2  0  0  0
  1 19  1  0  0  0
  2  3  1  0  0  0
  2 17  1  0  0  0
  3  4  2  0  0  0
  3 20  1  0  0  0
  4  5  1  0  0  0
  4 21  1  0  0  0
  5  6  2  0  0  0
  5  7  1  0  0  0
  6 22  1  0  0  0
  7  9  2  0  0  0
  7  8  1  0  0  0
  8 10  2  0  0  0
  8 23  1  0  0  0
 10 11  1  0  0  0
 10 24  1  0  0  0
 11 12  2  0  0  0
 11 16  1  0  0  0
 12 13  1  0  0  0
 12 25  1  0  0  0
 13 14  2  0  0  0
 13 26  1  0  0  0
 14 15  1  0  0  0
 14 18  1  0  0  0
 15 16  2  0  0  0
 15 27  1  0  0  0
 16 28  1  0  0  0
 18 29  1  0  0  0
 18 30  1  0  0  0
 18 31  1  0  0  0
M  END
> <s_m_entry_id>
10002

> <s_m_entry_name>
dock_pv.38

> <s_m_Source_Path>
/home/csk/Desktop/cluster/DUD-E-result/aofb

> <s_m_Source_File>
dock_pv.maegz

> <i_m_Source_File_Index>
38

> <chembl_id>
CHEMBL389840

> <chembl_pref_name>
None

> <i_lp_mmshare_version>
53161

> <i_f3d_flags>
0

> <r_lp_tautomer_probability>
1

> <s_lp_Force_Field>
OPLS_2005

> <r_lp_Energy>
15.640816

> <b_lp_Chiralities_Consistent>
1

> <s_lp_Variant>
CHEMBL2039_lig2741-1

> <s_i_glide_gridfile>
glide-grid_1s3b

> <i_i_glide_lignum>
3199

> <i_i_glide_rotatable_bonds>
3

> <r_i_docking_score>
-8.31021135312295

> <r_i_glide_ligand_efficiency>
-0.461678408506831

> <r_i_glide_ligand_efficiency_sa>
-1.20993971482061

> <r_i_glide_ligand_efficiency_ln>
-2.13609697743049

> <r_i_glide_gscore>
-8.31021135312295

> <r_i_glide_lipo>
-4.36568023776052

> <r_i_glide_hbond>
0

> <r_i_glide_metal>
0

> <r_i_glide_rewards>
-3.00868281818182

> <r_i_glide_evdw>
-33.3826522827148

> <r_i_glide_ecoul>
1.32159841060638

> <r_i_glide_erotb>
0.53504455536417

> <r_i_glide_esite>
0

> <r_i_glide_emodel>
-42.7630466945871

> <r_i_glide_energy>
-32.0610538721085

> <r_i_glide_einternal>
6.08615255355835

> <i_i_glide_confnum>
3

> <i_i_glide_posenum>
139

> <r_i_glide_eff_state_penalty>
0

> <s_user_duplicate_titles>
CHEMBL2039_lig2741

> <s_m_subgroup_title>
dock_pv

> <s_m_subgroupid>
dock_pv

> <b_m_subgroup_collapsed>
1

$$$$
CHEMBL2039_lig1248
                    3D
 Schrodinger Suite 2021-1.
 34 36  0  0  1  0            999 V2000
   52.4248  155.9710   26.7859 C   0  0  0  0  0  0
   51.5156  155.3070   27.7800 C   0  0  0  0  0  0
   51.1938  154.0091   27.5437 C   0  0  0  0  0  0
   51.7322  153.2522   26.4145 C   0  0  0  0  0  0
   51.6799  151.8631   26.3470 C   0  0  0  0  0  0
   52.4627  151.1936   25.3969 C   0  0  0  0  0  0
   53.2560  151.9117   24.5040 C   0  0  0  0  0  0
   53.2680  153.3020   24.5318 C   0  0  0  0  0  0
   52.4893  153.9677   25.4808 C   0  0  0  0  0  0
   52.6459  155.3344   25.5885 O   0  0  0  0  0  0
   50.8726  156.0208   28.8905 C   0  0  0  0  0  0
   50.0065  155.4969   29.5902 O   0  0  0  0  0  0
   51.2560  157.3205   28.9951 N   0  0  0  0  0  0
   50.7058  158.3997   29.7040 C   0  0  0  0  0  0
   49.4027  158.4424   30.2252 C   0  0  0  0  0  0
   48.9561  159.5695   30.9316 C   0  0  0  0  0  0
   49.8297  160.6440   31.1272 C   0  0  0  0  0  0
   51.1138  160.6184   30.5906 C   0  0  0  0  0  0
   51.5387  159.5066   29.8674 C   0  0  0  0  0  0
   47.5428  159.6504   31.4998 C   0  0  0  0  0  0
   47.5937  159.8906   32.8106 F   0  0  0  0  0  0
   46.8560  158.5270   31.3039 F   0  0  0  0  0  0
   46.8846  160.6440   30.9040 F   0  0  0  0  0  0
   53.0005  157.0440   26.9040 O   0  0  0  0  0  0
   54.4538  154.2440   23.3707 Br  0  0  0  0  0  0
   52.4561  149.2901   25.3040 Br  0  0  0  0  0  0
   50.5024  153.4972   28.1995 H   0  0  0  0  0  0
   51.1101  151.2915   27.0657 H   0  0  0  0  0  0
   53.8395  151.3845   23.7710 H   0  0  0  0  0  0
   52.0800  157.5599   28.4569 H   0  0  0  0  0  0
   48.7422  157.5974   30.1040 H   0  0  0  0  0  0
   49.5129  161.5014   31.7022 H   0  0  0  0  0  0
   51.7833  161.4511   30.7488 H   0  0  0  0  0  0
   52.5443  159.4842   29.4743 H   0  0  0  0  0  0
  1  2  1  0  0  0
  1 10  1  0  0  0
  1 24  2  0  0  0
  2  3  2  0  0  0
  2 11  1  0  0  0
  3  4  1  0  0  0
  3 27  1  0  0  0
  4  5  1  0  0  0
  4  9  2  0  0  0
  5  6  2  0  0  0
  5 28  1  0  0  0
  6  7  1  0  0  0
  6 26  1  0  0  0
  7  8  2  0  0  0
  7 29  1  0  0  0
  8  9  1  0  0  0
  8 25  1  0  0  0
  9 10  1  0  0  0
 11 12  2  0  0  0
 11 13  1  0  0  0
 13 14  1  0  0  0
 13 30  1  0  0  0
 14 15  1  0  0  0
 14 19  2  0  0  0
 15 16  2  0  0  0
 15 31  1  0  0  0
 16 17  1  0  0  0
 16 20  1  0  0  0
 17 18  2  0  0  0
 17 32  1  0  0  0
 18 19  1  0  0  0
 18 33  1  0  0  0
 19 34  1  0  0  0
 20 21  1  0  0  0
 20 22  1  0  0  0
 20 23  1  0  0  0
M  END
> <s_m_entry_id>
10003

> <s_m_entry_name>
dock_pv.39

> <s_m_Source_Path>
/home/csk/Desktop/cluster/DUD-E-result/aofb

> <s_m_Source_File>
dock_pv.maegz

> <i_m_Source_File_Index>
39

> <chembl_id>
CHEMBL3261204

> <chembl_pref_name>
None

> <i_lp_mmshare_version>
53161

> <i_f3d_flags>
0

> <r_lp_tautomer_probability>
1

> <s_lp_Force_Field>
OPLS_2005

> <r_lp_Energy>
30.235241

> <b_lp_Chiralities_Consistent>
1

> <s_lp_Variant>
CHEMBL2039_lig1248-1

> <s_i_glide_gridfile>
glide-grid_1s3b

> <i_i_glide_lignum>
1440

> <i_i_glide_rotatable_bonds>
4

> <r_i_docking_score>
-8.30174678647052

> <r_i_glide_ligand_efficiency>
-0.319297953325789

> <r_i_glide_ligand_efficiency_sa>
-0.945918930350872

> <r_i_glide_ligand_efficiency_ln>
-1.94963799254958

> <r_i_glide_gscore>
-8.30174678647052

> <r_i_glide_lipo>
-4.31895423572711

> <r_i_glide_hbond>
0

> <r_i_glide_metal>
0

> <r_i_glide_rewards>
-2.56915415830145

> <r_i_glide_evdw>
-24.0786666870117

> <r_i_glide_ecoul>
-3.0862979888916

> <r_i_glide_erotb>
0.253239640242368

> <r_i_glide_esite>
0

> <r_i_glide_emodel>
-27.086081539314

> <r_i_glide_energy>
-27.1649646759033

> <r_i_glide_einternal>
2.70936727523804

> <i_i_glide_confnum>
2

> <i_i_glide_posenum>
353

> <r_i_glide_eff_state_penalty>
0

> <s_user_duplicate_titles>
CHEMBL2039_lig1248

> <s_m_subgroup_title>
dock_pv

> <s_m_subgroupid>
dock_pv

> <b_m_subgroup_collapsed>
1

$$$$
CHEMBL2039_lig1565
                    3D
 Schrodinger Suite 2021-1.
 29 30  0  0  1  0            999 V2000
   51.9455  155.1832   26.8321 C   0  0  0  0  0  0
   51.3713  155.0206   28.1678 C   0  0  0  0  0  0
   50.8544  156.1693   28.9138 C   0  0  0  0  0  0
   51.2555  153.8942   28.6480 O   0  0  0  0  0  0
   51.3543  157.4259   28.9431 C   0  0  0  0  0  0
   50.7761  158.5623   29.7038 C   0  0  0  0  0  0
   51.6113  159.6301   30.0451 C   0  0  0  0  0  0
   51.1571  160.6516   30.8716 C   0  0  0  0  0  0
   49.8425  160.6441   31.3303 C   0  0  0  0  0  0
   48.9662  159.6221   30.9611 C   0  0  0  0  0  0
   49.4454  158.5834   30.1536 C   0  0  0  0  0  0
   52.0557  154.0574   26.0499 N   0  0  0  0  0  0
   52.6678  154.3809   24.8667 C   0  0  0  0  0  0
   52.9517  155.7377   24.9040 C   0  0  0  0  0  0
   52.4561  156.2446   26.1043 C   0  0  0  0  0  0
   47.5248  159.6493   31.4665 C   0  0  0  0  0  0
   47.5082  159.8416   32.7866 F   0  0  0  0  0  0
   46.8742  160.6522   30.8843 F   0  0  0  0  0  0
   46.8612  158.5258   31.1936 F   0  0  0  0  0  0
   49.9796  155.9334   29.4995 H   0  0  0  0  0  0
   52.2522  157.6628   28.3963 H   0  0  0  0  0  0
   52.6372  159.6406   29.7044 H   0  0  0  0  0  0
   51.8238  161.4495   31.1652 H   0  0  0  0  0  0
   49.5046  161.4442   31.9740 H   0  0  0  0  0  0
   48.7796  157.7717   29.9102 H   0  0  0  0  0  0
   51.7702  153.1310   26.3347 H   0  0  0  0  0  0
   52.8741  153.6207   24.1265 H   0  0  0  0  0  0
   53.4612  156.3125   24.1445 H   0  0  0  0  0  0
   52.5193  157.2753   26.4070 H   0  0  0  0  0  0
  1  2  1  0  0  0
  1 12  1  0  0  0
  1 15  2  0  0  0
  2  3  1  0  0  0
  2  4  2  0  0  0
  3  5  2  0  0  0
  3 20  1  0  0  0
  5  6  1  0  0  0
  5 21  1  0  0  0
  6  7  2  0  0  0
  6 11  1  0  0  0
  7  8  1  0  0  0
  7 22  1  0  0  0
  8  9  2  0  0  0
  8 23  1  0  0  0
  9 10  1  0  0  0
  9 24  1  0  0  0
 10 11  2  0  0  0
 10 16  1  0  0  0
 11 25  1  0  0  0
 12 13  1  0  0  0
 12 26  1  0  0  0
 13 14  2  0  0  0
 13 27  1  0  0  0
 14 15  1  0  0  0
 14 28  1  0  0  0
 15 29  1  0  0  0
 16 17  1  0  0  0
 16 18  1  0  0  0
 16 19  1  0  0  0
M  END
> <s_m_entry_id>
10004

> <s_m_entry_name>
dock_pv.40

> <s_m_Source_Path>
/home/csk/Desktop/cluster/DUD-E-result/aofb

> <s_m_Source_File>
dock_pv.maegz

> <i_m_Source_File_Index>
40

> <chembl_id>
CHEMBL3735739

> <chembl_pref_name>
None

> <i_lp_mmshare_version>
53161

> <i_f3d_flags>
0

> <r_lp_tautomer_probability>
1

> <s_lp_Force_Field>
OPLS_2005

> <r_lp_Energy>
9.028712

> <b_lp_Chiralities_Consistent>
1

> <s_lp_Variant>
CHEMBL2039_lig1565-1

> <s_i_glide_gridfile>
glide-grid_1s3b

> <i_i_glide_lignum>
1826

> <i_i_glide_rotatable_bonds>
4

> <r_i_docking_score>
-8.29350410160903

> <r_i_glide_ligand_efficiency>
-0.436500215874159

> <r_i_glide_ligand_efficiency_sa>
-1.16475789456291

> <r_i_glide_ligand_efficiency_ln>
-2.10258141789321

> <r_i_glide_gscore>
-8.29350410160903

> <r_i_glide_lipo>
-2.93429446751978

> <r_i_glide_hbond>
0

> <r_i_glide_metal>
0

> <r_i_glide_rewards>
-4.24177923722337

> <r_i_glide_evdw>
-31.7129211425781

> <r_i_glide_ecoul>
-0.250769793987274

> <r_i_glide_erotb>
0.505831129361119

> <r_i_glide_esite>
0

> <r_i_glide_emodel>
-45.244336268097

> <r_i_glide_energy>
-31.9636909365654

> <r_i_glide_einternal>
3.33330583572388

> <i_i_glide_confnum>
4

> <i_i_glide_posenum>
221

> <r_i_glide_eff_state_penalty>
0

> <s_user_duplicate_titles>
CHEMBL2039_lig1565

> <s_m_subgroup_title>
dock_pv

> <s_m_subgroupid>
dock_pv

> <b_m_subgroup_collapsed>
1

$$$$
CHEMBL2039_lig1328
                    3D
 Schrodinger Suite 2021-1.
 43 46  0  0  1  0            999 V2000
   51.0859  153.5319   27.5083 O   0  0  0  0  0  0
   51.6140  152.7463   26.5040 C   0  0  0  0  0  0
   51.2560  151.5712   26.5040 O   0  0  0  0  0  0
   52.3146  155.4921   26.7622 C   0  0  0  0  0  0
   52.7926  156.7646   27.0719 C   0  0  0  0  0  0
   52.2972  157.4443   28.1657 C   0  0  0  0  0  0
   51.2560  156.8996   28.9040 C   0  0  0  0  0  0
   50.8933  155.5633   28.7219 C   0  0  0  0  0  0
   51.4534  154.8546   27.6633 C   0  0  0  0  0  0
   50.4560  157.6929   29.7227 N   0  0  0  0  0  0
   50.4233  159.1482   29.6258 C   0  0  0  0  0  0
   49.4030  159.7086   30.6109 C   0  0  0  0  0  0
   49.7910  160.6069   31.6156 C   0  0  0  0  0  0
   48.8560  161.0559   32.5486 C   0  0  0  0  0  0
   47.5272  160.6438   32.4689 C   0  0  0  0  0  0
   47.1250  159.7836   31.4484 C   0  0  0  0  0  0
   48.0586  159.3186   30.5225 C   0  0  0  0  0  0
   51.0876  161.0440   31.7040 O   0  0  0  0  0  0
   52.4976  153.3952   25.5170 C   0  0  0  0  0  0
   52.8120  154.7133   25.6218 C   0  0  0  0  0  0
   53.7081  155.4233   24.6016 C   0  0  0  0  0  0
   54.4560  154.4647   23.6748 C   0  0  0  0  0  0
   53.5442  153.3078   23.2516 C   0  0  0  0  0  0
   53.1651  152.4887   24.4871 C   0  0  0  0  0  0
   53.5466  157.2651   26.4917 H   0  0  0  0  0  0
   52.6476  158.4427   28.3643 H   0  0  0  0  0  0
   50.1373  155.1001   29.3384 H   0  0  0  0  0  0
   49.6347  157.2609   30.1166 H   0  0  0  0  0  0
   51.4199  159.5528   29.8047 H   0  0  0  0  0  0
   50.1421  159.4440   28.6138 H   0  0  0  0  0  0
   49.1578  161.7313   33.3348 H   0  0  0  0  0  0
   46.8078  160.9988   33.1922 H   0  0  0  0  0  0
   46.0921  159.4731   31.3789 H   0  0  0  0  0  0
   47.7376  158.6447   29.7410 H   0  0  0  0  0  0
   51.2698  161.5989   32.4746 H   0  0  0  0  0  0
   54.4560  156.0720   25.0248 H   0  0  0  0  0  0
   53.0702  156.1456   24.1040 H   0  0  0  0  0  0
   55.3246  154.0768   24.2075 H   0  0  0  0  0  0
   54.8560  154.9956   22.8097 H   0  0  0  0  0  0
   54.0437  152.6798   22.5147 H   0  0  0  0  0  0
   52.6413  153.6829   22.7700 H   0  0  0  0  0  0
   52.5288  151.6514   24.2059 H   0  0  0  0  0  0
   54.0593  152.0391   24.9195 H   0  0  0  0  0  0
  1  2  1  0  0  0
  1  9  1  0  0  0
  2  3  2  0  0  0
  2 19  1  0  0  0
  4 20  1  0  0  0
  4  5  1  0  0  0
  4  9  2  0  0  0
  5  6  2  0  0  0
  5 25  1  0  0  0
  6  7  1  0  0  0
  6 26  1  0  0  0
  7  8  2  0  0  0
  7 10  1  0  0  0
  8  9  1  0  0  0
  8 27  1  0  0  0
 10 11  1  0  0  0
 10 28  1  0  0  0
 11 12  1  0  0  0
 11 29  1  0  0  0
 11 30  1  0  0  0
 12 13  1  0  0  0
 12 17  2  0  0  0
 13 14  2  0  0  0
 13 18  1  0  0  0
 14 15  1  0  0  0
 14 31  1  0  0  0
 15 16  2  0  0  0
 15 32  1  0  0  0
 16 17  1  0  0  0
 16 33  1  0  0  0
 17 34  1  0  0  0
 18 35  1  0  0  0
 19 20  2  0  0  0
 19 24  1  0  0  0
 20 21  1  0  0  0
 21 22  1  0  0  0
 21 36  1  0  0  0
 21 37  1  0  0  0
 22 23  1  0  0  0
 22 38  1  0  0  0
 22 39  1  0  0  0
 23 24  1  0  0  0
 23 40  1  0  0  0
 23 41  1  0  0  0
 24 42  1  0  0  0
 24 43  1  0  0  0
M  END
> <s_m_entry_id>
10005

> <s_m_entry_name>
dock_pv.41

> <s_m_Source_Path>
/home/csk/Desktop/cluster/DUD-E-result/aofb

> <s_m_Source_File>
dock_pv.maegz

> <i_m_Source_File_Index>
41

> <chembl_id>
CHEMBL3394543

> <chembl_pref_name>
None

> <i_lp_mmshare_version>
53161

> <i_f3d_flags>
0

> <r_lp_tautomer_probability>
0.999999999997365

> <s_lp_Force_Field>
OPLS_2005

> <r_lp_Energy>
22.220086

> <b_lp_Chiralities_Consistent>
1

> <s_lp_Variant>
CHEMBL2039_lig1328-1

> <s_i_glide_gridfile>
glide-grid_1s3b

> <i_i_glide_lignum>
1549

> <i_i_glide_rotatable_bonds>
4

> <r_i_docking_score>
-8.28748575369504

> <r_i_glide_ligand_efficiency>
-0.34531190640396

> <r_i_glide_ligand_efficiency_sa>
-0.996051896211118

> <r_i_glide_ligand_efficiency_ln>
-1.98357562880057

> <r_i_glide_gscore>
-8.28748575369504

> <r_i_glide_lipo>
-4.81357295497564

> <r_i_glide_hbond>
-0.32

> <r_i_glide_metal>
0

> <r_i_glide_rewards>
-2.1142085455094

> <r_i_glide_evdw>
-22.8510837554932

> <r_i_glide_ecoul>
-2.93282651901245

> <r_i_glide_erotb>
0.542773912416515

> <r_i_glide_esite>
0

> <r_i_glide_emodel>
-28.7385470787827

> <r_i_glide_energy>
-25.7839102745056

> <r_i_glide_einternal>
5.56061601638794

> <i_i_glide_confnum>
11

> <i_i_glide_posenum>
100

> <r_i_glide_eff_state_penalty>
0

> <s_user_duplicate_titles>
CHEMBL2039_lig1328

> <s_m_subgroup_title>
dock_pv

> <s_m_subgroupid>
dock_pv

> <b_m_subgroup_collapsed>
1

$$$$
CHEMBL2039_lig934
                    3D
 Schrodinger Suite 2021-1.
 33 34  0  0  1  0            999 V2000
   53.7880  154.2442   24.0842 C   0  0  0  0  0  0
   53.3982  155.4443   24.6725 C   0  0  0  0  0  0
   52.4851  155.4440   25.7230 C   0  0  0  0  0  0
   52.0560  154.2338   26.2980 C   0  0  0  0  0  0
   52.4308  153.0337   25.6527 C   0  0  0  0  0  0
   53.2560  153.0468   24.5352 C   0  0  0  0  0  0
   52.0530  151.8024   26.1040 O   0  0  0  0  0  0
   51.4097  154.2148   27.6565 C   0  0  0  0  0  0
   51.2560  153.1569   28.2624 O   0  0  0  0  0  0
   50.9331  155.4339   28.2895 C   0  0  0  0  0  0
   51.7258  156.4862   28.6002 C   0  0  0  0  0  0
   51.2557  157.7168   29.2238 C   0  0  0  0  0  0
   50.0560  157.8284   29.8291 C   0  0  0  0  0  0
   49.4549  158.9883   30.5040 C   0  0  0  0  0  0
   50.2229  160.0788   30.9153 C   0  0  0  0  0  0
   49.6560  161.0440   31.7362 C   0  0  0  0  0  0
   48.3074  160.9742   32.0786 C   0  0  0  0  0  0
   47.5156  159.9314   31.6082 C   0  0  0  0  0  0
   48.0930  158.9348   30.8273 C   0  0  0  0  0  0
   54.0560  156.9374   24.1040 Cl  0  0  0  0  0  0
   54.4858  154.2422   23.2600 H   0  0  0  0  0  0
   52.2183  156.4041   26.1353 H   0  0  0  0  0  0
   53.5468  152.1211   24.0603 H   0  0  0  0  0  0
   51.5555  151.8707   26.9270 H   0  0  0  0  0  0
   49.8767  155.4281   28.5040 H   0  0  0  0  0  0
   52.7873  156.4253   28.3932 H   0  0  0  0  0  0
   51.9076  158.5774   29.1796 H   0  0  0  0  0  0
   49.4312  156.9500   29.8676 H   0  0  0  0  0  0
   51.2769  160.1390   30.6864 H   0  0  0  0  0  0
   50.2671  161.8552   32.1041 H   0  0  0  0  0  0
   47.8729  161.7381   32.7066 H   0  0  0  0  0  0
   46.4683  159.8812   31.8690 H   0  0  0  0  0  0
   47.4828  158.1029   30.5064 H   0  0  0  0  0  0
  1  2  2  0  0  0
  1  6  1  0  0  0
  1 21  1  0  0  0
  2  3  1  0  0  0
  2 20  1  0  0  0
  3  4  2  0  0  0
  3 22  1  0  0  0
  4  5  1  0  0  0
  4  8  1  0  0  0
  5  6  2  0  0  0
  5  7  1  0  0  0
  6 23  1  0  0  0
  7 24  1  0  0  0
  8  9  2  0  0  0
  8 10  1  0  0  0
 10 11  2  0  0  0
 10 25  1  0  0  0
 11 12  1  0  0  0
 11 26  1  0  0  0
 12 13  2  0  0  0
 12 27  1  0  0  0
 13 14  1  0  0  0
 13 28  1  0  0  0
 14 15  2  0  0  0
 14 19  1  0  0  0
 15 16  1  0  0  0
 15 29  1  0  0  0
 16 17  2  0  0  0
 16 30  1  0  0  0
 17 18  1  0  0  0
 17 31  1  0  0  0
 18 19  2  0  0  0
 18 32  1  0  0  0
 19 33  1  0  0  0
M  END
> <s_m_entry_id>
10006

> <s_m_entry_name>
dock_pv.42

> <s_m_Source_Path>
/home/csk/Desktop/cluster/DUD-E-result/aofb

> <s_m_Source_File>
dock_pv.maegz

> <i_m_Source_File_Index>
42

> <chembl_id>
CHEMBL2332186

> <chembl_pref_name>
None

> <i_lp_mmshare_version>
53161

> <i_f3d_flags>
0

> <r_lp_tautomer_probability>
1

> <s_lp_Force_Field>
OPLS_2005

> <r_lp_Energy>
18.847297

> <b_lp_Chiralities_Consistent>
1

> <s_lp_Variant>
CHEMBL2039_lig934-1

> <s_i_glide_gridfile>
glide-grid_1s3b

> <i_i_glide_lignum>
1081

> <i_i_glide_rotatable_bonds>
5

> <r_i_docking_score>
-8.26586647179926

> <r_i_glide_ligand_efficiency>
-0.413293323589963

> <r_i_glide_ligand_efficiency_sa>
-1.1218506772534

> <r_i_glide_ligand_efficiency_ln>
-2.06867375136904

> <r_i_glide_gscore>
-8.26586647179926

> <r_i_glide_lipo>
-4.35411346613859

> <r_i_glide_hbond>
0

> <r_i_glide_metal>
0

> <r_i_glide_rewards>
-2.63944986951766

> <r_i_glide_evdw>
-34.8453636169434

> <r_i_glide_ecoul>
-1.33980011940002

> <r_i_glide_erotb>
0.670935062614166

> <r_i_glide_esite>
0

> <r_i_glide_emodel>
-46.1752016884879

> <r_i_glide_energy>
-36.1851637363434

> <r_i_glide_einternal>
4.02919626235962

> <i_i_glide_confnum>
1

> <i_i_glide_posenum>
41

> <r_i_glide_eff_state_penalty>
0

> <s_user_duplicate_titles>
CHEMBL2039_lig934

> <s_m_subgroup_title>
dock_pv

> <s_m_subgroupid>
dock_pv

> <b_m_subgroup_collapsed>
1

$$$$
CHEMBL2039_lig2018
                    3D
 Schrodinger Suite 2021-1.
 36 38  0  0  1  0            999 V2000
   52.8561  153.4692   24.5854 C   0  0  0  0  0  0
   52.4996  152.2894   25.2369 C   0  0  0  0  0  0
   51.8395  152.3370   26.4520 C   0  0  0  0  0  0
   52.6307  154.7049   25.1992 C   0  0  0  0  0  0
   52.0560  154.7594   26.4767 C   0  0  0  0  0  0
   51.6560  153.5583   27.0729 C   0  0  0  0  0  0
   51.1492  153.5019   28.3367 O   0  0  0  0  0  0
   50.9058  154.6714   28.9513 C   0  0  0  0  0  0
   51.2642  155.9023   28.5338 C   0  0  0  0  0  0
   52.0560  156.0153   27.2880 C   0  0  0  0  0  0
   52.6526  157.0183   26.9040 O   0  0  0  0  0  0
   50.8560  157.0453   29.3040 C   0  0  0  0  0  0
   51.1700  158.2661   29.1456 N   0  0  0  0  0  0
   50.5919  159.2046   30.0211 C   0  0  0  0  0  0
   49.2337  159.1791   30.4167 C   0  0  0  0  0  0
   48.7179  160.0630   31.3749 C   0  0  0  0  0  0
   49.5686  161.0440   31.8901 C   0  0  0  0  0  0
   50.8753  161.1427   31.4286 C   0  0  0  0  0  0
   51.3800  160.2539   30.5028 C   0  0  0  0  0  0
   52.6778  160.4209   30.1040 O   0  0  0  0  0  0
   53.4771  153.3994   23.2124 C   0  0  0  0  0  0
   47.3161  159.9541   31.8424 N   0  3  0  0  0  0
   46.9655  160.6440   32.7959 O   0  0  0  0  0  0
   46.5662  159.1714   31.2656 O   0  5  0  0  0  0
   52.6769  151.3316   24.7691 H   0  0  0  0  0  0
   51.5095  151.4269   26.9239 H   0  0  0  0  0  0
   52.9636  155.6107   24.7102 H   0  0  0  0  0  0
   50.3756  154.4875   29.8758 H   0  0  0  0  0  0
   50.1862  156.7466   30.1040 H   0  0  0  0  0  0
   48.5827  158.4185   30.0112 H   0  0  0  0  0  0
   49.2182  161.7575   32.6225 H   0  0  0  0  0  0
   51.5133  161.9459   31.7562 H   0  0  0  0  0  0
   52.9843  159.6181   29.6627 H   0  0  0  0  0  0
   52.7835  153.8402   22.5040 H   0  0  0  0  0  0
   54.4174  153.9505   23.1748 H   0  0  0  0  0  0
   53.6561  152.3700   22.9040 H   0  0  0  0  0  0
  1  2  2  0  0  0
  1  4  1  0  0  0
  1 21  1  0  0  0
  2  3  1  0  0  0
  2 25  1  0  0  0
  3  6  2  0  0  0
  3 26  1  0  0  0
  4  5  2  0  0  0
  4 27  1  0  0  0
  5  6  1  0  0  0
  5 10  1  0  0  0
  6  7  1  0  0  0
  7  8  1  0  0  0
  8  9  2  0  0  0
  8 28  1  0  0  0
  9 10  1  0  0  0
  9 12  1  0  0  0
 10 11  2  0  0  0
 12 13  2  0  0  0
 12 29  1  0  0  0
 13 14  1  0  0  0
 14 15  2  0  0  0
 14 19  1  0  0  0
 15 16  1  0  0  0
 15 30  1  0  0  0
 16 17  2  0  0  0
 16 22  1  0  0  0
 17 18  1  0  0  0
 17 31  1  0  0  0
 18 19  2  0  0  0
 18 32  1  0  0  0
 19 20  1  0  0  0
 20 33  1  0  0  0
 21 34  1  0  0  0
 21 35  1  0  0  0
 21 36  1  0  0  0
 22 23  2  0  0  0
 22 24  1  0  0  0
M  CHG  2  22   1  24  -1
M  END
> <s_m_entry_id>
10007

> <s_m_entry_name>
dock_pv.43

> <s_m_Source_Path>
/home/csk/Desktop/cluster/DUD-E-result/aofb

> <s_m_Source_File>
dock_pv.maegz

> <i_m_Source_File_Index>
43

> <chembl_id>
CHEMBL4096448

> <chembl_pref_name>
None

> <i_lp_mmshare_version>
53161

> <i_f3d_flags>
0

> <r_lp_tautomer_probability>
1

> <s_lp_Force_Field>
OPLS_2005

> <r_lp_Energy>
21.34982

> <b_lp_Chiralities_Consistent>
1

> <s_lp_Variant>
CHEMBL2039_lig2018-1

> <s_i_glide_gridfile>
glide-grid_1s3b

> <i_i_glide_lignum>
2353

> <i_i_glide_rotatable_bonds>
4

> <r_i_docking_score>
-8.26377856856217

> <r_i_glide_ligand_efficiency>
-0.344324107023424

> <r_i_glide_ligand_efficiency_sa>
-0.99320258974988

> <r_i_glide_ligand_efficiency_ln>
-1.97790141154643

> <r_i_glide_gscore>
-8.26377856856217

> <r_i_glide_lipo>
-3.87029557492148

> <r_i_glide_hbond>
-0.243748807326484

> <r_i_glide_metal>
0

> <r_i_glide_rewards>
-2.73793795540351

> <r_i_glide_evdw>
-24.989164352417

> <r_i_glide_ecoul>
-3.45643639564514

> <r_i_glide_erotb>
0.356127446056922

> <r_i_glide_esite>
0

> <r_i_glide_emodel>
-26.5425678280757

> <r_i_glide_energy>
-28.4456007480621

> <r_i_glide_einternal>
4.55492258071899

> <i_i_glide_confnum>
2

> <i_i_glide_posenum>
215

> <r_i_glide_eff_state_penalty>
0

> <s_user_duplicate_titles>
CHEMBL2039_lig2018

> <s_m_subgroup_title>
dock_pv

> <s_m_subgroupid>
dock_pv

> <b_m_subgroup_collapsed>
1

$$$$
CHEMBL2039_lig235
                    3D
 Schrodinger Suite 2021-1.
 36 38  0  0  1  0            999 V2000
   47.0854  159.6968   31.3224 N   0  3  0  0  0  0
   52.4064  155.2788   26.1982 C   0  0  0  0  0  0
   52.6606  152.9726   25.4194 C   0  0  0  0  0  0
   53.2012  155.7055   25.1469 O   0  0  0  0  0  0
   53.9622  154.8093   24.4303 C   0  0  0  0  0  0
   52.0561  153.9325   26.3870 C   0  0  0  0  0  0
   53.5706  153.4071   24.5230 C   0  0  0  0  0  0
   48.5392  159.8574   31.1106 C   0  0  0  0  0  0
   52.0561  156.2440   27.1306 C   0  0  0  0  0  0
   46.5728  160.2412   32.2961 O   0  5  0  0  0  0
   51.3439  153.5934   27.5489 C   0  0  0  0  0  0
   46.4541  159.0350   30.5065 O   0  0  0  0  0  0
   54.8560  155.2834   23.7326 O   0  0  0  0  0  0
   49.2346  159.0223   30.2238 C   0  0  0  0  0  0
   51.3298  155.9222   28.2842 C   0  0  0  0  0  0
   50.8997  156.8693   29.2113 O   0  0  0  0  0  0
   50.9876  154.5829   28.4787 C   0  0  0  0  0  0
   50.6079  159.1811   30.0087 C   0  0  0  0  0  0
   51.3718  158.2277   29.0959 C   0  0  0  0  0  0
   52.4315  151.4788   25.5567 C   0  0  0  0  0  0
   49.2491  160.8533   31.7896 C   0  0  0  0  0  0
   50.6050  161.0439   31.5431 C   0  0  0  0  0  0
   51.2822  160.2317   30.6408 C   0  0  0  0  0  0
   54.0555  152.6907   23.8795 H   0  0  0  0  0  0
   52.3796  157.2539   26.9376 H   0  0  0  0  0  0
   51.0960  152.5668   27.7717 H   0  0  0  0  0  0
   48.7079  158.2336   29.7083 H   0  0  0  0  0  0
   50.4558  154.3034   29.3749 H   0  0  0  0  0  0
   51.2558  158.6450   28.1039 H   0  0  0  0  0  0
   52.4414  158.2524   29.3037 H   0  0  0  0  0  0
   52.4560  150.9928   24.5816 H   0  0  0  0  0  0
   53.2596  151.0465   26.1041 H   0  0  0  0  0  0
   51.5039  151.2219   26.0679 H   0  0  0  0  0  0
   48.7494  161.5077   32.4900 H   0  0  0  0  0  0
   51.1267  161.8413   32.0489 H   0  0  0  0  0  0
   52.3404  160.3810   30.4798 H   0  0  0  0  0  0
  1  8  1  0  0  0
  1 10  1  0  0  0
  1 12  2  0  0  0
  2  9  2  0  0  0
  2  4  1  0  0  0
  2  6  1  0  0  0
  3  6  1  0  0  0
  3  7  2  0  0  0
  3 20  1  0  0  0
  4  5  1  0  0  0
  5 13  2  0  0  0
  5  7  1  0  0  0
  6 11  2  0  0  0
  7 24  1  0  0  0
  8 14  1  0  0  0
  8 21  2  0  0  0
  9 15  1  0  0  0
  9 25  1  0  0  0
 11 17  1  0  0  0
 11 26  1  0  0  0
 14 18  2  0  0  0
 14 27  1  0  0  0
 15 16  1  0  0  0
 15 17  2  0  0  0
 16 19  1  0  0  0
 17 28  1  0  0  0
 18 19  1  0  0  0
 18 23  1  0  0  0
 19 29  1  0  0  0
 19 30  1  0  0  0
 20 31  1  0  0  0
 20 32  1  0  0  0
 20 33  1  0  0  0
 21 22  1  0  0  0
 21 34  1  0  0  0
 22 23  2  0  0  0
 22 35  1  0  0  0
 23 36  1  0  0  0
M  CHG  2   1   1  10  -1
M  END
> <s_m_entry_id>
10008

> <s_m_entry_name>
dock_pv.44

> <s_m_Source_Path>
/home/csk/Desktop/cluster/DUD-E-result/aofb

> <s_m_Source_File>
dock_pv.maegz

> <i_m_Source_File_Index>
44

> <chembl_id>
CHEMBL145503

> <chembl_pref_name>
None

> <i_lp_mmshare_version>
53161

> <i_f3d_flags>
0

> <r_lp_tautomer_probability>
1

> <s_lp_Force_Field>
OPLS_2005

> <r_lp_Energy>
23.321385

> <b_lp_Chiralities_Consistent>
1

> <s_lp_Variant>
CHEMBL2039_lig235-1

> <s_i_glide_gridfile>
glide-grid_1s3b

> <i_i_glide_lignum>
276

> <i_i_glide_rotatable_bonds>
4

> <r_i_docking_score>
-8.26228592785647

> <r_i_glide_ligand_efficiency>
-0.359229822950281

> <r_i_glide_ligand_efficiency_sa>
-1.02160183059849

> <r_i_glide_ligand_efficiency_ln>
-1.99789565562241

> <r_i_glide_gscore>
-8.26228592785647

> <r_i_glide_lipo>
-3.88475278472766

> <r_i_glide_hbond>
0

> <r_i_glide_metal>
0

> <r_i_glide_rewards>
-2.6358424739953

> <r_i_glide_evdw>
-34.8877754211426

> <r_i_glide_ecoul>
-3.80925226211548

> <r_i_glide_erotb>
0.574085941240945

> <r_i_glide_esite>
0

> <r_i_glide_emodel>
-41.3453393354155

> <r_i_glide_energy>
-38.6970276832581

> <r_i_glide_einternal>
4.15285491943359

> <i_i_glide_confnum>
21

> <i_i_glide_posenum>
169

> <r_i_glide_eff_state_penalty>
0

> <s_user_duplicate_titles>
CHEMBL2039_lig235

> <s_m_subgroup_title>
dock_pv

> <s_m_subgroupid>
dock_pv

> <b_m_subgroup_collapsed>
1

$$$$
CHEMBL2039_lig1916
                    3D
 Schrodinger Suite 2021-1.
 35 37  0  0  1  0            999 V2000
   52.8548  151.4037   25.0446 C   0  0  0  0  0  0
   53.2560  152.2501   24.0146 C   0  0  0  0  0  0
   53.1259  153.6262   24.1265 C   0  0  0  0  0  0
   52.1042  151.9419   26.1040 C   0  0  0  0  0  0
   51.9419  153.3212   26.2227 C   0  0  0  0  0  0
   52.5164  154.1540   25.2578 C   0  0  0  0  0  0
   52.5345  155.5222   25.4162 O   0  0  0  0  0  0
   52.4560  156.0350   26.6881 C   0  0  0  0  0  0
   51.5936  155.3061   27.6680 C   0  0  0  0  0  0
   51.3588  153.9920   27.4010 C   0  0  0  0  0  0
   53.1136  157.0440   26.8968 O   0  0  0  0  0  0
   50.9208  155.9881   28.7805 C   0  0  0  0  0  0
   51.2561  157.3010   28.9061 N   0  0  0  0  0  0
   50.0570  155.4440   29.4637 O   0  0  0  0  0  0
   50.7328  158.3431   29.7018 C   0  0  0  0  0  0
   49.4481  158.3571   30.2649 C   0  0  0  0  0  0
   49.0629  159.4217   31.0835 C   0  0  0  0  0  0
   49.9571  160.4614   31.3378 C   0  0  0  0  0  0
   51.1990  160.4937   30.7117 C   0  0  0  0  0  0
   51.5728  159.4442   29.8782 C   0  0  0  0  0  0
   53.0402  149.9031   24.9040 C   0  0  0  0  0  0
   49.6412  161.4328   32.2504 O   0  0  0  0  0  0
   53.6706  151.8440   23.1103 H   0  0  0  0  0  0
   53.5212  154.2576   23.3487 H   0  0  0  0  0  0
   51.6560  151.2981   26.8473 H   0  0  0  0  0  0
   50.7073  153.4182   28.0476 H   0  0  0  0  0  0
   52.0694  157.5695   28.3654 H   0  0  0  0  0  0
   48.7647  157.5360   30.1106 H   0  0  0  0  0  0
   48.0952  159.4123   31.5627 H   0  0  0  0  0  0
   51.8886  161.3038   30.8985 H   0  0  0  0  0  0
   52.5547  159.4492   29.4280 H   0  0  0  0  0  0
   52.3513  149.3500   25.5428 H   0  0  0  0  0  0
   52.8564  149.5842   23.8784 H   0  0  0  0  0  0
   54.0562  149.6147   25.1553 H   0  0  0  0  0  0
   50.4243  161.8495   32.6282 H   0  0  0  0  0  0
  1  2  2  0  0  0
  1  4  1  0  0  0
  1 21  1  0  0  0
  2  3  1  0  0  0
  2 23  1  0  0  0
  3  6  2  0  0  0
  3 24  1  0  0  0
  4  5  2  0  0  0
  4 25  1  0  0  0
  5  6  1  0  0  0
  5 10  1  0  0  0
  6  7  1  0  0  0
  7  8  1  0  0  0
  8  9  1  0  0  0
  8 11  2  0  0  0
  9 10  2  0  0  0
  9 12  1  0  0  0
 10 26  1  0  0  0
 12 13  1  0  0  0
 12 14  2  0  0  0
 13 15  1  0  0  0
 13 27  1  0  0  0
 15 16  2  0  0  0
 15 20  1  0  0  0
 16 17  1  0  0  0
 16 28  1  0  0  0
 17 18  2  0  0  0
 17 29  1  0  0  0
 18 19  1  0  0  0
 18 22  1  0  0  0
 19 20  2  0  0  0
 19 30  1  0  0  0
 20 31  1  0  0  0
 21 32  1  0  0  0
 21 33  1  0  0  0
 21 34  1  0  0  0
 22 35  1  0  0  0
M  END
> <s_m_entry_id>
10009

> <s_m_entry_name>
dock_pv.45

> <s_m_Source_Path>
/home/csk/Desktop/cluster/DUD-E-result/aofb

> <s_m_Source_File>
dock_pv.maegz

> <i_m_Source_File_Index>
45

> <chembl_id>
CHEMBL4097014

> <chembl_pref_name>
None

> <i_lp_mmshare_version>
53161

> <i_f3d_flags>
0

> <r_lp_tautomer_probability>
0.999999999997365

> <s_lp_Force_Field>
OPLS_2005

> <r_lp_Energy>
29.122416

> <b_lp_Chiralities_Consistent>
1

> <s_lp_Variant>
CHEMBL2039_lig1916-1

> <s_i_glide_gridfile>
glide-grid_1s3b

> <i_i_glide_lignum>
2251

> <i_i_glide_rotatable_bonds>
4

> <r_i_docking_score>
-8.23698911704633

> <r_i_glide_ligand_efficiency>
-0.374408596229379

> <r_i_glide_ligand_efficiency_sa>
-1.04910761128925

> <r_i_glide_ligand_efficiency_ln>
-2.01342059168431

> <r_i_glide_gscore>
-8.23698911704633

> <r_i_glide_lipo>
-4.11747700636631

> <r_i_glide_hbond>
-0.32

> <r_i_glide_metal>
0

> <r_i_glide_rewards>
-2.54209590330357

> <r_i_glide_evdw>
-22.4357223510742

> <r_i_glide_ecoul>
-5.10210943222046

> <r_i_glide_erotb>
0.629686325010318

> <r_i_glide_esite>
0

> <r_i_glide_emodel>
-30.0436407712674

> <r_i_glide_energy>
-27.5378317832947

> <r_i_glide_einternal>
1.87323844432831

> <i_i_glide_confnum>
1

> <i_i_glide_posenum>
285

> <r_i_glide_eff_state_penalty>
0

> <s_user_duplicate_titles>
CHEMBL2039_lig1916

> <s_m_subgroup_title>
dock_pv

> <s_m_subgroupid>
dock_pv

> <b_m_subgroup_collapsed>
1

$$$$
CHEMBL2039_lig2020
                    3D
 Schrodinger Suite 2021-1.
 34 36  0  0  1  0            999 V2000
   53.2760  153.9089   24.4418 C   0  0  0  0  0  0
   52.8561  152.6472   24.8735 C   0  0  0  0  0  0
   52.0561  152.5273   26.0120 C   0  0  0  0  0  0
   52.8567  155.0470   25.1186 C   0  0  0  0  0  0
   52.1216  154.9276   26.3037 C   0  0  0  0  0  0
   51.7098  153.6657   26.7314 C   0  0  0  0  0  0
   51.0820  153.4854   27.9400 O   0  0  0  0  0  0
   50.8761  154.5815   28.7149 C   0  0  0  0  0  0
   51.2662  155.8451   28.4597 C   0  0  0  0  0  0
   52.0559  156.0666   27.2463 C   0  0  0  0  0  0
   52.7242  157.0596   27.0102 O   0  0  0  0  0  0
   50.8560  156.9406   29.3042 C   0  0  0  0  0  0
   51.1214  158.1845   29.1992 N   0  0  0  0  0  0
   50.4584  159.0906   30.0535 C   0  0  0  0  0  0
   49.0827  158.9828   30.3697 C   0  0  0  0  0  0
   48.4642  159.8456   31.2706 C   0  0  0  0  0  0
   49.2025  160.8660   31.8534 C   0  0  0  0  0  0
   50.5333  161.0440   31.4857 C   0  0  0  0  0  0
   51.1459  160.2009   30.5660 C   0  0  0  0  0  0
   52.4526  160.4381   30.2282 O   0  0  0  0  0  0
   54.3186  154.0484   23.3544 C   0  0  0  0  0  0
   46.7970  159.6353   31.6704 Cl  0  0  0  0  0  0
   53.1859  151.7588   24.3538 H   0  0  0  0  0  0
   51.7541  151.5548   26.3704 H   0  0  0  0  0  0
   53.2432  156.0090   24.8089 H   0  0  0  0  0  0
   50.3251  154.3068   29.6003 H   0  0  0  0  0  0
   50.2140  156.5839   30.1040 H   0  0  0  0  0  0
   48.4863  158.1928   29.9412 H   0  0  0  0  0  0
   48.7442  161.5386   32.5642 H   0  0  0  0  0  0
   51.0994  161.8577   31.9063 H   0  0  0  0  0  0
   52.8163  159.6657   29.7768 H   0  0  0  0  0  0
   54.4560  155.0460   22.9457 H   0  0  0  0  0  0
   55.2634  153.8441   23.8403 H   0  0  0  0  0  0
   54.1488  153.3488   22.5345 H   0  0  0  0  0  0
  1  2  2  0  0  0
  1  4  1  0  0  0
  1 21  1  0  0  0
  2  3  1  0  0  0
  2 23  1  0  0  0
  3  6  2  0  0  0
  3 24  1  0  0  0
  4  5  2  0  0  0
  4 25  1  0  0  0
  5  6  1  0  0  0
  5 10  1  0  0  0
  6  7  1  0  0  0
  7  8  1  0  0  0
  8  9  2  0  0  0
  8 26  1  0  0  0
  9 10  1  0  0  0
  9 12  1  0  0  0
 10 11  2  0  0  0
 12 13  2  0  0  0
 12 27  1  0  0  0
 13 14  1  0  0  0
 14 15  2  0  0  0
 14 19  1  0  0  0
 15 16  1  0  0  0
 15 28  1  0  0  0
 16 17  2  0  0  0
 16 22  1  0  0  0
 17 18  1  0  0  0
 17 29  1  0  0  0
 18 19  2  0  0  0
 18 30  1  0  0  0
 19 20  1  0  0  0
 20 31  1  0  0  0
 21 32  1  0  0  0
 21 33  1  0  0  0
 21 34  1  0  0  0
M  END
> <s_m_entry_id>
10010

> <s_m_entry_name>
dock_pv.46

> <s_m_Source_Path>
/home/csk/Desktop/cluster/DUD-E-result/aofb

> <s_m_Source_File>
dock_pv.maegz

> <i_m_Source_File_Index>
46

> <chembl_id>
CHEMBL4073506

> <chembl_pref_name>
None

> <i_lp_mmshare_version>
53161

> <i_f3d_flags>
0

> <r_lp_tautomer_probability>
1

> <s_lp_Force_Field>
OPLS_2005

> <r_lp_Energy>
19.447968

> <b_lp_Chiralities_Consistent>
1

> <s_lp_Variant>
CHEMBL2039_lig2020-1

> <s_i_glide_gridfile>
glide-grid_1s3b

> <i_i_glide_lignum>
2355

> <i_i_glide_rotatable_bonds>
3

> <r_i_docking_score>
-8.23168566478882

> <r_i_glide_ligand_efficiency>
-0.374167530217674

> <r_i_glide_ligand_efficiency_sa>
-1.04843213484386

> <r_i_glide_ligand_efficiency_ln>
-2.01212423450445

> <r_i_glide_gscore>
-8.23168566478882

> <r_i_glide_lipo>
-4.59186079703322

> <r_i_glide_hbond>
-0.153783726684296

> <r_i_glide_metal>
0

> <r_i_glide_rewards>
-2.43243034936195

> <r_i_glide_evdw>
-23.3591156005859

> <r_i_glide_ecoul>
-1.75433444976807

> <r_i_glide_erotb>
0.377495155785152

> <r_i_glide_esite>
0

> <r_i_glide_emodel>
-26.2096167459011

> <r_i_glide_energy>
-25.113450050354

> <r_i_glide_einternal>
1.93144834041595

> <i_i_glide_confnum>
2

> <i_i_glide_posenum>
105

> <r_i_glide_eff_state_penalty>
0

> <s_user_duplicate_titles>
CHEMBL2039_lig2020

> <s_m_subgroup_title>
dock_pv

> <s_m_subgroupid>
dock_pv

> <b_m_subgroup_collapsed>
1

$$$$
CHEMBL2039_lig1334
                    3D
 Schrodinger Suite 2021-1.
 38 40  0  0  1  0            999 V2000
   51.0963  153.4440   27.4159 O   0  0  0  0  0  0
   51.6149  152.6404   26.4347 C   0  0  0  0  0  0
   51.2560  151.4665   26.5040 O   0  0  0  0  0  0
   52.4560  153.2767   25.3915 C   0  0  0  0  0  0
   52.7755  154.5918   25.4686 C   0  0  0  0  0  0
   52.3313  155.3875   26.6398 C   0  0  0  0  0  0
   52.8313  156.6440   26.9778 C   0  0  0  0  0  0
   52.3498  157.3115   28.1030 C   0  0  0  0  0  0
   51.2560  156.8019   28.8258 C   0  0  0  0  0  0
   50.9202  155.4626   28.6179 C   0  0  0  0  0  0
   51.4729  154.7612   27.5511 C   0  0  0  0  0  0
   53.7173  155.2629   24.4786 C   0  0  0  0  0  0
   52.9887  152.3271   24.3215 C   0  0  0  0  0  0
   50.4668  157.5471   29.7040 N   0  0  0  0  0  0
   50.4139  158.8213   29.7040 C   0  0  0  0  0  0
   49.5583  159.5263   30.6530 C   0  0  0  0  0  0
   50.0639  160.5673   31.4493 C   0  0  0  0  0  0
   49.2792  161.1022   32.4672 C   0  0  0  0  0  0
   47.9813  160.6610   32.6675 C   0  0  0  0  0  0
   47.4397  159.6816   31.8409 C   0  0  0  0  0  0
   48.2311  159.1080   30.8469 C   0  0  0  0  0  0
   47.2560  161.1949   33.6899 O   0  0  0  0  0  0
   51.3444  161.0440   31.3040 O   0  0  0  0  0  0
   53.5993  157.1111   26.3841 H   0  0  0  0  0  0
   52.7457  158.2882   28.3213 H   0  0  0  0  0  0
   50.1677  154.9933   29.2341 H   0  0  0  0  0  0
   53.8845  154.6440   23.5969 H   0  0  0  0  0  0
   53.3110  156.2193   24.1536 H   0  0  0  0  0  0
   54.6996  155.4439   24.9040 H   0  0  0  0  0  0
   52.5168  152.5414   23.3635 H   0  0  0  0  0  0
   54.0560  152.4794   24.2030 H   0  0  0  0  0  0
   52.8560  151.2676   24.5461 H   0  0  0  0  0  0
   50.9841  159.4483   29.0242 H   0  0  0  0  0  0
   49.6887  161.8440   33.1310 H   0  0  0  0  0  0
   46.4256  159.3390   31.9841 H   0  0  0  0  0  0
   47.8162  158.3113   30.2447 H   0  0  0  0  0  0
   46.3528  160.8758   33.6969 H   0  0  0  0  0  0
   51.6055  161.6145   32.0359 H   0  0  0  0  0  0
  1  2  1  0  0  0
  1 11  1  0  0  0
  2  3  2  0  0  0
  2  4  1  0  0  0
  4  5  2  0  0  0
  4 13  1  0  0  0
  5  6  1  0  0  0
  5 12  1  0  0  0
  6  7  1  0  0  0
  6 11  2  0  0  0
  7  8  2  0  0  0
  7 24  1  0  0  0
  8  9  1  0  0  0
  8 25  1  0  0  0
  9 10  2  0  0  0
  9 14  1  0  0  0
 10 11  1  0  0  0
 10 26  1  0  0  0
 12 27  1  0  0  0
 12 28  1  0  0  0
 12 29  1  0  0  0
 13 30  1  0  0  0
 13 31  1  0  0  0
 13 32  1  0  0  0
 14 15  2  0  0  0
 15 16  1  0  0  0
 15 33  1  0  0  0
 16 17  1  0  0  0
 16 21  2  0  0  0
 17 18  2  0  0  0
 17 23  1  0  0  0
 18 19  1  0  0  0
 18 34  1  0  0  0
 19 20  2  0  0  0
 19 22  1  0  0  0
 20 21  1  0  0  0
 20 35  1  0  0  0
 21 36  1  0  0  0
 22 37  1  0  0  0
 23 38  1  0  0  0
M  END
> <s_m_entry_id>
10011

> <s_m_entry_name>
dock_pv.47

> <s_m_Source_Path>
/home/csk/Desktop/cluster/DUD-E-result/aofb

> <s_m_Source_File>
dock_pv.maegz

> <i_m_Source_File_Index>
47

> <chembl_id>
CHEMBL3394534

> <chembl_pref_name>
None

> <i_lp_mmshare_version>
53161

> <i_f3d_flags>
0

> <r_lp_tautomer_probability>
1

> <s_lp_Force_Field>
OPLS_2005

> <r_lp_Energy>
26.13326

> <b_lp_Chiralities_Consistent>
1

> <s_lp_Variant>
CHEMBL2039_lig1334-1

> <s_i_glide_gridfile>
glide-grid_1s3b

> <i_i_glide_lignum>
1555

> <i_i_glide_rotatable_bonds>
4

> <r_i_docking_score>
-8.22637305670372

> <r_i_glide_ligand_efficiency>
-0.357668393769727

> <r_i_glide_ligand_efficiency_sa>
-1.01716133371517

> <r_i_glide_ligand_efficiency_ln>
-1.98921159773777

> <r_i_glide_gscore>
-8.22637305670372

> <r_i_glide_lipo>
-4.18104860017303

> <r_i_glide_hbond>
-0.32

> <r_i_glide_metal>
0

> <r_i_glide_rewards>
-2.45949567004892

> <r_i_glide_evdw>
-27.2438144683838

> <r_i_glide_ecoul>
-1.93772971630096

> <r_i_glide_erotb>
0.387021394382565

> <r_i_glide_esite>
0

> <r_i_glide_emodel>
-32.7594428465506

> <r_i_glide_energy>
-29.1815441846848

> <r_i_glide_einternal>
2.37293124198914

> <i_i_glide_confnum>
2

> <i_i_glide_posenum>
159

> <r_i_glide_eff_state_penalty>
0

> <s_user_duplicate_titles>
CHEMBL2039_lig1334

> <s_m_subgroup_title>
dock_pv

> <s_m_subgroupid>
dock_pv

> <b_m_subgroup_collapsed>
1

$$$$
CHEMBL2039_lig973
                    3D
 Schrodinger Suite 2021-1.
 34 36  0  0  1  0            999 V2000
   50.6940  158.7105   29.7039 C   0  0  0  0  0  0
   51.4898  159.7709   30.1772 C   0  0  0  0  0  0
   50.9852  160.6465   31.1489 C   0  0  0  0  0  0
   49.3556  158.6449   30.1044 C   0  0  0  0  0  0
   48.8548  159.5396   31.0414 C   0  0  0  0  0  0
   49.6673  160.5020   31.5949 C   0  0  0  0  0  0
   48.8656  161.2006   32.6525 C   0  0  0  0  0  0
   47.5670  160.6362   32.5670 O   0  0  0  0  0  0
   47.5079  159.6659   31.6272 C   0  0  0  0  0  0
   46.4792  159.0443   31.3724 O   0  0  0  0  0  0
   51.1093  157.6642   28.9043 O   0  0  0  0  0  0
   52.4559  157.4461   28.5042 C   0  0  0  0  0  0
   52.4578  156.7708   27.1320 C   0  0  0  0  0  0
   51.6782  155.5823   27.1709 O   0  0  0  0  0  0
   52.0422  154.5344   26.3579 C   0  0  0  0  0  0
   52.7897  154.6668   25.1760 C   0  0  0  0  0  0
   53.2108  153.5269   24.4936 C   0  0  0  0  0  0
   52.8563  152.2688   24.9726 C   0  0  0  0  0  0
   52.0561  152.1422   26.1040 C   0  0  0  0  0  0
   51.6520  153.2737   26.7964 C   0  0  0  0  0  0
   53.2564  151.1561   24.3184 F   0  0  0  0  0  0
   52.5237  159.8677   29.8891 H   0  0  0  0  0  0
   51.6306  161.4056   31.5691 H   0  0  0  0  0  0
   48.7238  157.8555   29.7298 H   0  0  0  0  0  0
   49.2701  161.0449   33.6527 H   0  0  0  0  0  0
   48.8024  162.2712   32.5039 H   0  0  0  0  0  0
   52.9264  156.7803   29.2258 H   0  0  0  0  0  0
   53.0589  158.3463   28.4848 H   0  0  0  0  0  0
   53.4957  156.5872   26.8600 H   0  0  0  0  0  0
   52.0560  157.4430   26.3792 H   0  0  0  0  0  0
   53.0790  155.6378   24.8062 H   0  0  0  0  0  0
   53.8146  153.6122   23.6021 H   0  0  0  0  0  0
   51.7525  151.1634   26.4458 H   0  0  0  0  0  0
   51.0605  153.1772   27.6953 H   0  0  0  0  0  0
  1  2  2  0  0  0
  1  4  1  0  0  0
  1 11  1  0  0  0
  2  3  1  0  0  0
  2 22  1  0  0  0
  3  6  2  0  0  0
  3 23  1  0  0  0
  4  5  2  0  0  0
  4 24  1  0  0  0
  5  6  1  0  0  0
  5  9  1  0  0  0
  6  7  1  0  0  0
  7  8  1  0  0  0
  7 25  1  0  0  0
  7 26  1  0  0  0
  8  9  1  0  0  0
  9 10  2  0  0  0
 11 12  1  0  0  0
 12 13  1  0  0  0
 12 27  1  0  0  0
 12 28  1  0  0  0
 13 14  1  0  0  0
 13 29  1  0  0  0
 13 30  1  0  0  0
 14 15  1  0  0  0
 15 16  2  0  0  0
 15 20  1  0  0  0
 16 17  1  0  0  0
 16 31  1  0  0  0
 17 18  2  0  0  0
 17 32  1  0  0  0
 18 19  1  0  0  0
 18 21  1  0  0  0
 19 20  2  0  0  0
 19 33  1  0  0  0
 20 34  1  0  0  0
M  END
> <s_m_entry_id>
10012

> <s_m_entry_name>
dock_pv.48

> <s_m_Source_Path>
/home/csk/Desktop/cluster/DUD-E-result/aofb

> <s_m_Source_File>
dock_pv.maegz

> <i_m_Source_File_Index>
48

> <chembl_id>
CHEMBL2391880

> <chembl_pref_name>
None

> <i_lp_mmshare_version>
53161

> <i_f3d_flags>
0

> <r_lp_tautomer_probability>
1

> <s_lp_Force_Field>
OPLS_2005

> <r_lp_Energy>
31.44081

> <b_lp_Chiralities_Consistent>
1

> <s_lp_Variant>
CHEMBL2039_lig973-1

> <s_i_glide_gridfile>
glide-grid_1s3b

> <i_i_glide_lignum>
1120

> <i_i_glide_rotatable_bonds>
5

> <r_i_docking_score>
-8.21811466619789

> <r_i_glide_ligand_efficiency>
-0.391338793628471

> <r_i_glide_ligand_efficiency_sa>
-1.07967405780171

> <r_i_glide_ligand_efficiency_ln>
-2.03191224495313

> <r_i_glide_gscore>
-8.21811466619789

> <r_i_glide_lipo>
-3.65979809327675

> <r_i_glide_hbond>
0

> <r_i_glide_metal>
0

> <r_i_glide_rewards>
-3.08684991094146

> <r_i_glide_evdw>
-33.8734931945801

> <r_i_glide_ecoul>
-2.89647150039673

> <r_i_glide_erotb>
0.656678722808835

> <r_i_glide_esite>
0

> <r_i_glide_emodel>
-49.9285249345458

> <r_i_glide_energy>
-36.7699646949768

> <r_i_glide_einternal>
2.22997617721558

> <i_i_glide_confnum>
2

> <i_i_glide_posenum>
299

> <r_i_glide_eff_state_penalty>
0

> <s_user_duplicate_titles>
CHEMBL2039_lig973

> <s_m_subgroup_title>
dock_pv

> <s_m_subgroupid>
dock_pv

> <b_m_subgroup_collapsed>
1

$$$$
CHEMBL2039_lig1700
                    3D
 Schrodinger Suite 2021-1.
 41 44  0  0  1  0            999 V2000
   49.8191  158.1718   29.7053 O   0  0  0  0  0  0
   51.0361  158.7461   29.6929 C   0  0  0  0  0  0
   51.0234  159.9743   30.4847 C   0  0  0  0  0  0
   49.6679  160.0003   31.0175 C   0  0  0  0  0  0
   49.0036  158.9386   30.4628 C   0  0  0  0  0  0
   49.0002  160.8341   31.8971 C   0  0  0  0  0  0
   47.6512  160.6299   32.1551 C   0  0  0  0  0  0
   46.9825  159.5847   31.5222 C   0  0  0  0  0  0
   47.6544  158.7025   30.6791 C   0  0  0  0  0  0
   51.9600  160.7554   30.6496 O   0  0  0  0  0  0
   52.0642  158.2304   29.0081 C   0  0  0  0  0  0
   52.0714  156.9924   28.2211 C   0  0  0  0  0  0
   52.8559  157.0237   27.0826 C   0  0  0  0  0  0
   52.7832  156.0127   26.1454 C   0  0  0  0  0  0
   52.0560  154.8523   26.4271 C   0  0  0  0  0  0
   51.3400  154.7694   27.6315 C   0  0  0  0  0  0
   51.3089  155.8538   28.5040 C   0  0  0  0  0  0
   52.0972  153.7571   25.5553 N   0  0  0  0  0  0
   52.3681  152.4218   26.1040 C   0  0  0  0  0  0
   53.5292  151.8441   25.2993 C   0  0  0  0  0  0
   53.2418  152.4088   23.9313 C   0  0  0  0  0  0
   52.7707  153.8084   24.2488 C   0  0  0  0  0  0
   45.6560  159.4443   31.7450 O   0  0  0  0  0  0
   49.6560  161.8440   32.5104 O   0  0  0  0  0  0
   47.1243  161.2861   32.8317 H   0  0  0  0  0  0
   47.1498  157.8725   30.2116 H   0  0  0  0  0  0
   53.0037  158.7596   29.0269 H   0  0  0  0  0  0
   53.5239  157.8442   26.9040 H   0  0  0  0  0  0
   53.3779  156.1258   25.2555 H   0  0  0  0  0  0
   50.7729  153.8816   27.8700 H   0  0  0  0  0  0
   50.7025  155.7999   29.3955 H   0  0  0  0  0  0
   52.7216  152.4977   27.1322 H   0  0  0  0  0  0
   51.5177  151.7483   26.0006 H   0  0  0  0  0  0
   54.4878  152.1827   25.6972 H   0  0  0  0  0  0
   53.5362  150.7535   25.3038 H   0  0  0  0  0  0
   52.4565  151.8528   23.4302 H   0  0  0  0  0  0
   54.0560  152.4278   23.2236 H   0  0  0  0  0  0
   52.0561  154.0879   23.4761 H   0  0  0  0  0  0
   53.6690  154.4236   24.2240 H   0  0  0  0  0  0
   45.1796  158.8936   31.1203 H   0  0  0  0  0  0
   50.6133  161.8159   32.4020 H   0  0  0  0  0  0
  1  2  1  0  0  0
  1  5  1  0  0  0
  2  3  1  0  0  0
  2 11  2  0  0  0
  3  4  1  0  0  0
  3 10  2  0  0  0
  4  5  1  0  0  0
  4  6  2  0  0  0
  5  9  2  0  0  0
  6  7  1  0  0  0
  6 24  1  0  0  0
  7  8  2  0  0  0
  7 25  1  0  0  0
  8  9  1  0  0  0
  8 23  1  0  0  0
  9 26  1  0  0  0
 11 12  1  0  0  0
 11 27  1  0  0  0
 12 13  1  0  0  0
 12 17  2  0  0  0
 13 14  2  0  0  0
 13 28  1  0  0  0
 14 15  1  0  0  0
 14 29  1  0  0  0
 15 16  2  0  0  0
 15 18  1  0  0  0
 16 17  1  0  0  0
 16 30  1  0  0  0
 17 31  1  0  0  0
 18 19  1  0  0  0
 18 22  1  0  0  0
 19 20  1  0  0  0
 19 32  1  0  0  0
 19 33  1  0  0  0
 20 21  1  0  0  0
 20 34  1  0  0  0
 20 35  1  0  0  0
 21 22  1  0  0  0
 21 36  1  0  0  0
 21 37  1  0  0  0
 22 38  1  0  0  0
 22 39  1  0  0  0
 23 40  1  0  0  0
 24 41  1  0  0  0
M  END
> <s_m_entry_id>
10013

> <s_m_entry_name>
dock_pv.49

> <s_m_Source_Path>
/home/csk/Desktop/cluster/DUD-E-result/aofb

> <s_m_Source_File>
dock_pv.maegz

> <i_m_Source_File_Index>
49

> <chembl_id>
CHEMBL3786282

> <chembl_pref_name>
None

> <i_lp_mmshare_version>
53161

> <i_f3d_flags>
0

> <r_lp_tautomer_probability>
1

> <s_lp_Force_Field>
OPLS_2005

> <r_lp_Energy>
56.856108

> <b_lp_Chiralities_Consistent>
1

> <s_lp_Variant>
CHEMBL2039_lig1700-1

> <s_i_glide_gridfile>
glide-grid_1s3b

> <i_i_glide_lignum>
1988

> <i_i_glide_rotatable_bonds>
4

> <r_i_docking_score>
-8.20800045465715

> <r_i_glide_ligand_efficiency>
-0.342000018944048

> <r_i_glide_ligand_efficiency_sa>
-0.986498759689309

> <r_i_glide_ligand_efficiency_ln>
-1.96455114939809

> <r_i_glide_gscore>
-8.20800045465715

> <r_i_glide_lipo>
-4.46087513588677

> <r_i_glide_hbond>
-0.022367299763227

> <r_i_glide_metal>
0

> <r_i_glide_rewards>
-1.95194787532391

> <r_i_glide_evdw>
-29.3630065917969

> <r_i_glide_ecoul>
-4.41750240325928

> <r_i_glide_erotb>
0.357965546395492

> <r_i_glide_esite>
0

> <r_i_glide_emodel>
-46.3318802376826

> <r_i_glide_energy>
-33.7805089950562

> <r_i_glide_einternal>
8.47519969940186

> <i_i_glide_confnum>
17

> <i_i_glide_posenum>
53

> <r_i_glide_eff_state_penalty>
0

> <s_user_duplicate_titles>
CHEMBL2039_lig1700

> <s_m_subgroup_title>
dock_pv

> <s_m_subgroupid>
dock_pv

> <b_m_subgroup_collapsed>
1

$$$$
CHEMBL2039_lig2022
                    3D
 Schrodinger Suite 2021-1.
 37 39  0  0  1  0            999 V2000
   52.8484  153.4779   24.5992 C   0  0  0  0  0  0
   52.4920  152.3036   25.2622 C   0  0  0  0  0  0
   51.8363  152.3611   26.4806 C   0  0  0  0  0  0
   52.6290  154.7188   25.2074 C   0  0  0  0  0  0
   52.0561  154.7851   26.4861 C   0  0  0  0  0  0
   51.6559  153.5886   27.0916 C   0  0  0  0  0  0
   51.1471  153.5440   28.3549 O   0  0  0  0  0  0
   50.9076  154.7190   28.9605 C   0  0  0  0  0  0
   51.2710  155.9476   28.5376 C   0  0  0  0  0  0
   52.0560  156.0480   27.2911 C   0  0  0  0  0  0
   52.6580  157.0440   26.9039 O   0  0  0  0  0  0
   50.8560  157.0929   29.3040 C   0  0  0  0  0  0
   51.1018  158.3347   29.1686 N   0  0  0  0  0  0
   50.3840  159.2039   30.0239 C   0  0  0  0  0  0
   48.9851  159.0992   30.2237 C   0  0  0  0  0  0
   48.2990  159.9084   31.1291 C   0  0  0  0  0  0
   49.0044  160.8711   31.8408 C   0  0  0  0  0  0
   50.3634  161.0440   31.6016 C   0  0  0  0  0  0
   51.0463  160.2443   30.6918 C   0  0  0  0  0  0
   52.3858  160.4713   30.5041 O   0  0  0  0  0  0
   46.8092  159.7242   31.3602 C   0  0  0  0  0  0
   53.4530  153.3960   23.2172 C   0  0  0  0  0  0
   52.6633  151.3421   24.7998 H   0  0  0  0  0  0
   51.5063  151.4537   26.9609 H   0  0  0  0  0  0
   52.9605  155.6208   24.7105 H   0  0  0  0  0  0
   50.3703  154.5412   29.8826 H   0  0  0  0  0  0
   50.1956  156.7679   30.1029 H   0  0  0  0  0  0
   48.4222  158.3401   29.7041 H   0  0  0  0  0  0
   48.5006  161.5107   32.5509 H   0  0  0  0  0  0
   50.8875  161.8389   32.1040 H   0  0  0  0  0  0
   52.7956  159.7167   30.0639 H   0  0  0  0  0  0
   46.5673  159.8459   32.4171 H   0  0  0  0  0  0
   46.4782  158.7249   31.0742 H   0  0  0  0  0  0
   46.2397  160.4627   30.7954 H   0  0  0  0  0  0
   52.7427  153.8028   22.5041 H   0  0  0  0  0  0
   54.3793  153.9682   23.1577 H   0  0  0  0  0  0
   53.6561  152.3671   22.9213 H   0  0  0  0  0  0
  1  2  2  0  0  0
  1  4  1  0  0  0
  1 22  1  0  0  0
  2  3  1  0  0  0
  2 23  1  0  0  0
  3  6  2  0  0  0
  3 24  1  0  0  0
  4  5  2  0  0  0
  4 25  1  0  0  0
  5  6  1  0  0  0
  5 10  1  0  0  0
  6  7  1  0  0  0
  7  8  1  0  0  0
  8  9  2  0  0  0
  8 26  1  0  0  0
  9 10  1  0  0  0
  9 12  1  0  0  0
 10 11  2  0  0  0
 12 13  2  0  0  0
 12 27  1  0  0  0
 13 14  1  0  0  0
 14 15  2  0  0  0
 14 19  1  0  0  0
 15 16  1  0  0  0
 15 28  1  0  0  0
 16 17  2  0  0  0
 16 21  1  0  0  0
 17 18  1  0  0  0
 17 29  1  0  0  0
 18 19  2  0  0  0
 18 30  1  0  0  0
 19 20  1  0  0  0
 20 31  1  0  0  0
 21 32  1  0  0  0
 21 33  1  0  0  0
 21 34  1  0  0  0
 22 35  1  0  0  0
 22 36  1  0  0  0
 22 37  1  0  0  0
M  END
> <s_m_entry_id>
10014

> <s_m_entry_name>
dock_pv.50

> <s_m_Source_Path>
/home/csk/Desktop/cluster/DUD-E-result/aofb

> <s_m_Source_File>
dock_pv.maegz

> <i_m_Source_File_Index>
50

> <chembl_id>
CHEMBL4082612

> <chembl_pref_name>
None

> <i_lp_mmshare_version>
53161

> <i_f3d_flags>
0

> <r_lp_tautomer_probability>
1

> <s_lp_Force_Field>
OPLS_2005

> <r_lp_Energy>
20.628546

> <b_lp_Chiralities_Consistent>
1

> <s_lp_Variant>
CHEMBL2039_lig2022-1

> <s_i_glide_gridfile>
glide-grid_1s3b

> <i_i_glide_lignum>
2357

> <i_i_glide_rotatable_bonds>
3

> <r_i_docking_score>
-8.20606407310541

> <r_i_glide_ligand_efficiency>
-0.373002912413882

> <r_i_glide_ligand_efficiency_sa>
-1.04516882995582

> <r_i_glide_ligand_efficiency_ln>
-2.00586138292676

> <r_i_glide_gscore>
-8.20606407310541

> <r_i_glide_lipo>
-4.42373134038334

> <r_i_glide_hbond>
-0.142580926778853

> <r_i_glide_metal>
0

> <r_i_glide_rewards>
-2.57433023998303

> <r_i_glide_evdw>
-24.9816780090332

> <r_i_glide_ecoul>
-1.60714530944824

> <r_i_glide_erotb>
0.424734130908704

> <r_i_glide_esite>
0

> <r_i_glide_emodel>
-26.1770098375432

> <r_i_glide_energy>
-26.5888233184814

> <r_i_glide_einternal>
4.32336902618408

> <i_i_glide_confnum>
1

> <i_i_glide_posenum>
345

> <r_i_glide_eff_state_penalty>
0

> <s_user_duplicate_titles>
CHEMBL2039_lig2022

> <s_m_subgroup_title>
dock_pv

> <s_m_subgroupid>
dock_pv

> <b_m_subgroup_collapsed>
1

$$$$
CHEMBL2039_lig821
                    3D
 Schrodinger Suite 2021-1.
 40 42  0  0  1  0            999 V2000
   51.6560  153.9622   27.4741 C   0  0  0  0  0  0
   51.9717  153.9748   26.1487 N   0  0  0  0  0  0
   48.5566  159.8625   31.5388 C   0  0  0  0  0  0
   49.3835  160.8714   31.9329 C   0  0  0  0  0  0
   47.3928  159.9241   32.2359 O   0  0  0  0  0  0
   48.7629  161.5851   32.9040 O   0  0  0  0  0  0
   47.6560  160.8164   33.2806 C   0  0  0  0  0  0
   51.4180  155.2049   28.1674 C   0  0  0  0  0  0
   48.9543  158.9254   30.6022 C   0  0  0  0  0  0
   51.5331  152.9147   28.1040 O   0  0  0  0  0  0
   52.2352  156.2888   28.1559 C   0  0  0  0  0  0
   51.9536  157.5512   28.8314 C   0  0  0  0  0  0
   50.7532  157.8287   29.3709 C   0  0  0  0  0  0
   50.6520  161.0433   31.3860 C   0  0  0  0  0  0
   50.2676  159.0036   30.1040 C   0  0  0  0  0  0
   51.0942  160.0892   30.4598 C   0  0  0  0  0  0
   52.0105  155.1690   25.2882 C   0  0  0  0  0  0
   52.3152  152.7219   25.4578 C   0  0  0  0  0  0
   53.7382  152.8248   24.9040 C   0  0  0  0  0  0
   53.4580  155.3566   24.8338 C   0  0  0  0  0  0
   53.9961  154.1180   24.1040 C   0  0  0  0  0  0
   47.8958  160.2536   34.1860 H   0  0  0  0  0  0
   46.7911  161.4441   33.4861 H   0  0  0  0  0  0
   50.4967  155.1729   28.7249 H   0  0  0  0  0  0
   48.3017  158.1026   30.3494 H   0  0  0  0  0  0
   53.1600  156.2440   27.6025 H   0  0  0  0  0  0
   52.7480  158.2802   28.9001 H   0  0  0  0  0  0
   50.0197  157.0526   29.3040 H   0  0  0  0  0  0
   51.3028  161.8440   31.7040 H   0  0  0  0  0  0
   52.1075  160.1485   30.0913 H   0  0  0  0  0  0
   51.3799  154.9635   24.4221 H   0  0  0  0  0  0
   51.5800  156.0601   25.7392 H   0  0  0  0  0  0
   51.6560  152.6681   24.6016 H   0  0  0  0  0  0
   52.1315  151.8165   26.0395 H   0  0  0  0  0  0
   53.9141  151.9592   24.2672 H   0  0  0  0  0  0
   54.4671  152.7214   25.7040 H   0  0  0  0  0  0
   54.0560  155.5666   25.7040 H   0  0  0  0  0  0
   53.5490  156.2388   24.2014 H   0  0  0  0  0  0
   55.0613  154.2440   23.9051 H   0  0  0  0  0  0
   53.5120  154.0254   23.1319 H   0  0  0  0  0  0
  1  2  1  0  0  0
  1  8  1  0  0  0
  1 10  2  0  0  0
  2 17  1  0  0  0
  2 18  1  0  0  0
  3  9  1  0  0  0
  3  4  2  0  0  0
  3  5  1  0  0  0
  4  6  1  0  0  0
  4 14  1  0  0  0
  5  7  1  0  0  0
  6  7  1  0  0  0
  7 22  1  0  0  0
  7 23  1  0  0  0
  8 11  2  0  0  0
  8 24  1  0  0  0
  9 15  2  0  0  0
  9 25  1  0  0  0
 11 12  1  0  0  0
 11 26  1  0  0  0
 12 13  2  0  0  0
 12 27  1  0  0  0
 13 15  1  0  0  0
 13 28  1  0  0  0
 14 16  2  0  0  0
 14 29  1  0  0  0
 15 16  1  0  0  0
 16 30  1  0  0  0
 17 20  1  0  0  0
 17 31  1  0  0  0
 17 32  1  0  0  0
 18 19  1  0  0  0
 18 33  1  0  0  0
 18 34  1  0  0  0
 19 21  1  0  0  0
 19 35  1  0  0  0
 19 36  1  0  0  0
 20 21  1  0  0  0
 20 37  1  0  0  0
 20 38  1  0  0  0
 21 39  1  0  0  0
 21 40  1  0  0  0
M  END
> <s_m_entry_id>
10015

> <s_m_entry_name>
dock_pv.51

> <s_m_Source_Path>
/home/csk/Desktop/cluster/DUD-E-result/aofb

> <s_m_Source_File>
dock_pv.maegz

> <i_m_Source_File_Index>
51

> <chembl_id>
CHEMBL43185

> <chembl_pref_name>
PIPERINE

> <i_lp_mmshare_version>
53161

> <i_f3d_flags>
0

> <r_lp_tautomer_probability>
1

> <s_lp_Force_Field>
OPLS_2005

> <r_lp_Energy>
43.86185

> <b_lp_Chiralities_Consistent>
1

> <s_lp_Variant>
CHEMBL2039_lig821-1

> <s_i_glide_gridfile>
glide-grid_1s3b

> <i_i_glide_lignum>
954

> <i_i_glide_rotatable_bonds>
4

> <r_i_docking_score>
-8.20333853112465

> <r_i_glide_ligand_efficiency>
-0.390635168148793

> <r_i_glide_ligand_efficiency_sa>
-1.07773280845668

> <r_i_glide_ligand_efficiency_ln>
-2.02825887541426

> <r_i_glide_gscore>
-8.20333853112465

> <r_i_glide_lipo>
-3.75575869430643

> <r_i_glide_hbond>
0

> <r_i_glide_metal>
0

> <r_i_glide_rewards>
-3.19433769233722

> <r_i_glide_evdw>
-35.0209350585938

> <r_i_glide_ecoul>
0.347686320543289

> <r_i_glide_erotb>
0.445651660367193

> <r_i_glide_esite>
0

> <r_i_glide_emodel>
-36.6782426260313

> <r_i_glide_energy>
-34.6732487380505

> <r_i_glide_einternal>
8.25674629211426

> <i_i_glide_confnum>
4

> <i_i_glide_posenum>
59

> <r_i_glide_eff_state_penalty>
0

> <s_user_duplicate_titles>
CHEMBL2039_lig821

> <s_m_subgroup_title>
dock_pv

> <s_m_subgroupid>
dock_pv

> <b_m_subgroup_collapsed>
1

$$$$
CHEMBL2039_lig994
                    3D
 Schrodinger Suite 2021-1.
 35 37  0  0  1  0            999 V2000
   52.8560  152.8669   25.3169 C   0  0  0  0  0  0
   52.8983  154.0903   24.3940 C   0  0  1  0  0  0
   53.0823  155.4356   25.1454 C   0  0  0  0  0  0
   51.8495  153.0193   26.4489 C   0  0  0  0  0  0
   51.7580  154.3676   27.0648 C   0  0  0  0  0  0
   52.3916  155.4928   26.5048 C   0  0  0  0  0  0
   52.4552  156.6638   27.1912 N   0  0  0  0  0  0
   51.7589  156.7618   28.3528 C   0  0  0  0  0  0
   51.0291  155.7609   28.9040 N   0  0  0  0  0  0
   51.0690  154.5686   28.2656 C   0  0  0  0  0  0
   51.7375  158.0515   28.9040 N   0  0  0  0  0  0
   51.2560  152.0528   26.9040 O   0  0  0  0  0  0
   50.8404  158.7442   29.7284 C   0  0  0  0  0  0
   51.2463  159.9739   30.2513 C   0  0  0  0  0  0
   50.4419  160.6499   31.1694 C   0  0  0  0  0  0
   49.1961  160.1275   31.5246 C   0  0  0  0  0  0
   48.7611  158.9282   30.9701 C   0  0  0  0  0  0
   49.5947  158.2336   30.1040 C   0  0  0  0  0  0
   54.0560  153.8535   23.4273 C   0  0  0  0  0  0
   48.3524  160.7949   32.5040 C   0  0  0  0  0  0
   47.6762  161.3167   33.2838 N   0  0  0  0  0  0
   52.5593  152.0016   24.7235 H   0  0  0  0  0  0
   53.8402  152.6943   25.7523 H   0  0  0  0  0  0
   51.9731  154.1368   23.8217 H   0  0  0  0  0  0
   52.7385  156.2611   24.5210 H   0  0  0  0  0  0
   54.1419  155.6128   25.3040 H   0  0  0  0  0  0
   50.5523  153.7601   28.7575 H   0  0  0  0  0  0
   52.4378  158.6443   28.4815 H   0  0  0  0  0  0
   52.2180  160.3755   30.0061 H   0  0  0  0  0  0
   50.8032  161.5676   31.6140 H   0  0  0  0  0  0
   47.8056  158.4992   31.2402 H   0  0  0  0  0  0
   49.2581  157.2782   29.7394 H   0  0  0  0  0  0
   54.9955  153.8440   23.9795 H   0  0  0  0  0  0
   53.9494  152.9189   22.8759 H   0  0  0  0  0  0
   54.1837  154.6440   22.7031 H   0  0  0  0  0  0
  1  2  1  0  0  0
  1  4  1  0  0  0
  1 22  1  0  0  0
  1 23  1  0  0  0
  2  3  1  0  0  0
  2 19  1  0  0  0
  2 24  1  0  0  0
  3  6  1  0  0  0
  3 25  1  0  0  0
  3 26  1  0  0  0
  4  5  1  0  0  0
  4 12  2  0  0  0
  5  6  2  0  0  0
  5 10  1  0  0  0
  6  7  1  0  0  0
  7  8  2  0  0  0
  8  9  1  0  0  0
  8 11  1  0  0  0
  9 10  2  0  0  0
 10 27  1  0  0  0
 11 13  1  0  0  0
 11 28  1  0  0  0
 13 14  2  0  0  0
 13 18  1  0  0  0
 14 15  1  0  0  0
 14 29  1  0  0  0
 15 16  2  0  0  0
 15 30  1  0  0  0
 16 17  1  0  0  0
 16 20  1  0  0  0
 17 18  2  0  0  0
 17 31  1  0  0  0
 18 32  1  0  0  0
 19 33  1  0  0  0
 19 34  1  0  0  0
 19 35  1  0  0  0
 20 21  3  0  0  0
M  END
> <s_m_entry_id>
10016

> <s_m_entry_name>
dock_pv.52

> <s_m_Source_Path>
/home/csk/Desktop/cluster/DUD-E-result/aofb

> <s_m_Source_File>
dock_pv.maegz

> <i_m_Source_File_Index>
52

> <chembl_id>
CHEMBL2408569

> <chembl_pref_name>
None

> <i_lp_mmshare_version>
53161

> <i_f3d_flags>
0

> <r_lp_tautomer_probability>
0.99995

> <s_lp_Force_Field>
OPLS_2005

> <r_lp_Energy>
9.41671

> <b_lp_Chiralities_Consistent>
1

> <s_lp_Variant>
CHEMBL2039_lig994-2

> <s_i_glide_gridfile>
glide-grid_1s3b

> <i_i_glide_lignum>
1143

> <i_i_glide_rotatable_bonds>
2

> <r_i_docking_score>
-8.20131702085978

> <r_i_glide_ligand_efficiency>
-0.390538905755228

> <r_i_glide_ligand_efficiency_sa>
-1.07746722781207

> <r_i_glide_ligand_efficiency_ln>
-2.02775906108612

> <r_i_glide_gscore>
-8.20131702085978

> <r_i_glide_lipo>
-3.14140897021769

> <r_i_glide_hbond>
-0.134579773056933

> <r_i_glide_metal>
0

> <r_i_glide_rewards>
-3.66554182232925

> <r_i_glide_evdw>
-29.0683917999268

> <r_i_glide_ecoul>
-1.81175744533539

> <r_i_glide_erotb>
0.465396751540742

> <r_i_glide_esite>
0

> <r_i_glide_emodel>
-37.8141913071622

> <r_i_glide_energy>
-30.8801492452621

> <r_i_glide_einternal>
1.48654997348785

> <i_i_glide_confnum>
7

> <i_i_glide_posenum>
371

> <r_i_glide_eff_state_penalty>
0

> <s_user_duplicate_titles>
CHEMBL2039_lig994

> <s_m_subgroup_title>
dock_pv

> <s_m_subgroupid>
dock_pv

> <b_m_subgroup_collapsed>
1

$$$$
CHEMBL2039_lig927
                    3D
 Schrodinger Suite 2021-1.
 33 34  0  0  1  0            999 V2000
   53.7910  154.3141   24.1264 C   0  0  0  0  0  0
   53.4266  155.4991   24.7592 C   0  0  0  0  0  0
   52.5095  155.4922   25.8066 C   0  0  0  0  0  0
   52.0560  154.2774   26.3500 C   0  0  0  0  0  0
   52.4241  153.0835   25.6800 C   0  0  0  0  0  0
   53.2560  153.1119   24.5630 C   0  0  0  0  0  0
   52.0346  151.8440   26.1040 O   0  0  0  0  0  0
   51.3925  154.2440   27.7043 C   0  0  0  0  0  0
   51.2560  153.1773   28.2989 O   0  0  0  0  0  0
   50.8552  155.4476   28.3407 C   0  0  0  0  0  0
   51.5793  156.5390   28.6822 C   0  0  0  0  0  0
   51.0325  157.7451   29.3040 C   0  0  0  0  0  0
   49.8711  157.8017   29.9949 C   0  0  0  0  0  0
   49.2560  158.9630   30.6668 C   0  0  0  0  0  0
   50.0175  160.0489   31.1102 C   0  0  0  0  0  0
   49.4237  161.0440   31.8782 C   0  0  0  0  0  0
   48.0574  160.9963   32.1453 C   0  0  0  0  0  0
   47.2783  159.9507   31.6573 C   0  0  0  0  0  0
   47.8806  158.9317   30.9244 C   0  0  0  0  0  0
   53.9887  156.6616   24.3657 F   0  0  0  0  0  0
   54.4906  154.3281   23.3042 H   0  0  0  0  0  0
   52.2713  156.4471   26.2461 H   0  0  0  0  0  0
   53.5384  152.1929   24.0702 H   0  0  0  0  0  0
   51.5839  151.8921   26.9550 H   0  0  0  0  0  0
   49.7950  155.4047   28.5360 H   0  0  0  0  0  0
   52.6475  156.5322   28.5039 H   0  0  0  0  0  0
   51.6046  158.6540   29.1868 H   0  0  0  0  0  0
   49.3063  156.8879   30.1040 H   0  0  0  0  0  0
   51.0817  160.0907   30.9287 H   0  0  0  0  0  0
   50.0264  161.8529   32.2650 H   0  0  0  0  0  0
   47.6010  161.7780   32.7343 H   0  0  0  0  0  0
   46.2180  159.9191   31.8631 H   0  0  0  0  0  0
   47.2756  158.1057   30.5792 H   0  0  0  0  0  0
  1  2  2  0  0  0
  1  6  1  0  0  0
  1 21  1  0  0  0
  2  3  1  0  0  0
  2 20  1  0  0  0
  3  4  2  0  0  0
  3 22  1  0  0  0
  4  5  1  0  0  0
  4  8  1  0  0  0
  5  6  2  0  0  0
  5  7  1  0  0  0
  6 23  1  0  0  0
  7 24  1  0  0  0
  8  9  2  0  0  0
  8 10  1  0  0  0
 10 11  2  0  0  0
 10 25  1  0  0  0
 11 12  1  0  0  0
 11 26  1  0  0  0
 12 13  2  0  0  0
 12 27  1  0  0  0
 13 14  1  0  0  0
 13 28  1  0  0  0
 14 15  2  0  0  0
 14 19  1  0  0  0
 15 16  1  0  0  0
 15 29  1  0  0  0
 16 17  2  0  0  0
 16 30  1  0  0  0
 17 18  1  0  0  0
 17 31  1  0  0  0
 18 19  2  0  0  0
 18 32  1  0  0  0
 19 33  1  0  0  0
M  END
> <s_m_entry_id>
10017

> <s_m_entry_name>
dock_pv.53

> <s_m_Source_Path>
/home/csk/Desktop/cluster/DUD-E-result/aofb

> <s_m_Source_File>
dock_pv.maegz

> <i_m_Source_File_Index>
53

> <chembl_id>
CHEMBL2332176

> <chembl_pref_name>
None

> <i_lp_mmshare_version>
53161

> <i_f3d_flags>
0

> <r_lp_tautomer_probability>
1

> <s_lp_Force_Field>
OPLS_2005

> <r_lp_Energy>
18.908733

> <b_lp_Chiralities_Consistent>
1

> <s_lp_Variant>
CHEMBL2039_lig927-1

> <s_i_glide_gridfile>
glide-grid_1s3b

> <i_i_glide_lignum>
1074

> <i_i_glide_rotatable_bonds>
5

> <r_i_docking_score>
-8.19260131441859

> <r_i_glide_ligand_efficiency>
-0.409630065720929

> <r_i_glide_ligand_efficiency_sa>
-1.11190706556949

> <r_i_glide_ligand_efficiency_ln>
-2.05033789892327

> <r_i_glide_gscore>
-8.19260131441859

> <r_i_glide_lipo>
-4.05765980491201

> <r_i_glide_hbond>
0

> <r_i_glide_metal>
0

> <r_i_glide_rewards>
-3.02662019591842

> <r_i_glide_evdw>
-33.5526123046875

> <r_i_glide_ecoul>
-1.16393625736237

> <r_i_glide_erotb>
0.743899740250572

> <r_i_glide_esite>
0

> <r_i_glide_emodel>
-44.7060843395401

> <r_i_glide_energy>
-34.7165485620499

> <r_i_glide_einternal>
5.15862035751343

> <i_i_glide_confnum>
1

> <i_i_glide_posenum>
82

> <r_i_glide_eff_state_penalty>
0

> <s_user_duplicate_titles>
CHEMBL2039_lig927

> <s_m_subgroup_title>
dock_pv

> <s_m_subgroupid>
dock_pv

> <b_m_subgroup_collapsed>
1

$$$$
CHEMBL2039_lig1330
                    3D
 Schrodinger Suite 2021-1.
 38 40  0  0  1  0            999 V2000
   51.2425  153.4447   27.5091 N   0  0  0  0  0  0
   51.6379  152.6446   26.5039 C   0  0  0  0  0  0
   52.4540  153.2903   25.4683 C   0  0  0  0  0  0
   52.7677  154.6175   25.5204 C   0  0  0  0  0  0
   52.3443  155.4270   26.7036 C   0  0  0  0  0  0
   52.8232  156.7005   27.0002 C   0  0  0  0  0  0
   52.3303  157.3938   28.1040 C   0  0  0  0  0  0
   51.2622  156.8801   28.8586 C   0  0  0  0  0  0
   50.9589  155.5245   28.6990 C   0  0  0  0  0  0
   51.5210  154.8004   27.6501 C   0  0  0  0  0  0
   51.2560  151.4794   26.5040 O   0  0  0  0  0  0
   53.6816  155.2911   24.5040 C   0  0  0  0  0  0
   52.9871  152.3658   24.3734 C   0  0  0  0  0  0
   50.4560  157.6373   29.7040 N   0  0  0  0  0  0
   50.3785  158.9120   29.7047 C   0  0  0  0  0  0
   49.4487  159.5766   30.6263 C   0  0  0  0  0  0
   49.8698  160.5797   31.5214 C   0  0  0  0  0  0
   48.9784  161.0972   32.4639 C   0  0  0  0  0  0
   47.6562  160.6612   32.5036 C   0  0  0  0  0  0
   47.2177  159.6968   31.6013 C   0  0  0  0  0  0
   48.1092  159.1544   30.6771 C   0  0  0  0  0  0
   51.1629  161.0440   31.5371 O   0  0  0  0  0  0
   50.6712  152.9752   28.1928 H   0  0  0  0  0  0
   53.5730  157.1672   26.3848 H   0  0  0  0  0  0
   52.6952  158.3890   28.2907 H   0  0  0  0  0  0
   50.2282  155.0623   29.3448 H   0  0  0  0  0  0
   53.8176  154.6714   23.6189 H   0  0  0  0  0  0
   53.2852  156.2610   24.2020 H   0  0  0  0  0  0
   54.6802  155.4436   24.9040 H   0  0  0  0  0  0
   52.5087  152.5983   23.4225 H   0  0  0  0  0  0
   54.0560  152.5200   24.2545 H   0  0  0  0  0  0
   52.8559  151.3012   24.5737 H   0  0  0  0  0  0
   50.9691  159.5597   29.0634 H   0  0  0  0  0  0
   49.3129  161.8440   33.1686 H   0  0  0  0  0  0
   46.9719  161.0706   33.2324 H   0  0  0  0  0  0
   46.1917  159.3588   31.6281 H   0  0  0  0  0  0
   47.7543  158.3842   30.0065 H   0  0  0  0  0  0
   51.3652  161.5900   32.3079 H   0  0  0  0  0  0
  1  2  1  0  0  0
  1 10  1  0  0  0
  1 23  1  0  0  0
  2  3  1  0  0  0
  2 11  2  0  0  0
  3  4  2  0  0  0
  3 13  1  0  0  0
  4  5  1  0  0  0
  4 12  1  0  0  0
  5  6  1  0  0  0
  5 10  2  0  0  0
  6  7  2  0  0  0
  6 24  1  0  0  0
  7  8  1  0  0  0
  7 25  1  0  0  0
  8  9  2  0  0  0
  8 14  1  0  0  0
  9 10  1  0  0  0
  9 26  1  0  0  0
 12 27  1  0  0  0
 12 28  1  0  0  0
 12 29  1  0  0  0
 13 30  1  0  0  0
 13 31  1  0  0  0
 13 32  1  0  0  0
 14 15  2  0  0  0
 15 16  1  0  0  0
 15 33  1  0  0  0
 16 17  1  0  0  0
 16 21  2  0  0  0
 17 18  2  0  0  0
 17 22  1  0  0  0
 18 19  1  0  0  0
 18 34  1  0  0  0
 19 20  2  0  0  0
 19 35  1  0  0  0
 20 21  1  0  0  0
 20 36  1  0  0  0
 21 37  1  0  0  0
 22 38  1  0  0  0
M  END
> <s_m_entry_id>
10018

> <s_m_entry_name>
dock_pv.54

> <s_m_Source_Path>
/home/csk/Desktop/cluster/DUD-E-result/aofb

> <s_m_Source_File>
dock_pv.maegz

> <i_m_Source_File_Index>
54

> <chembl_id>
CHEMBL3394539

> <chembl_pref_name>
None

> <i_lp_mmshare_version>
53161

> <i_f3d_flags>
0

> <r_lp_tautomer_probability>
1

> <s_lp_Force_Field>
OPLS_2005

> <r_lp_Energy>
30.689169

> <b_lp_Chiralities_Consistent>
1

> <s_lp_Variant>
CHEMBL2039_lig1330-1

> <s_i_glide_gridfile>
glide-grid_1s3b

> <i_i_glide_lignum>
1551

> <i_i_glide_rotatable_bonds>
3

> <r_i_docking_score>
-8.17976078121783

> <r_i_glide_ligand_efficiency>
-0.371807308237174

> <r_i_glide_ligand_efficiency_sa>
-1.04181870003224

> <r_i_glide_ligand_efficiency_ln>
-1.99943189895355

> <r_i_glide_gscore>
-8.17976078121783

> <r_i_glide_lipo>
-4.23351024788494

> <r_i_glide_hbond>
-0.32

> <r_i_glide_metal>
0

> <r_i_glide_rewards>
-2.25718913261164

> <r_i_glide_evdw>
-26.7418365478516

> <r_i_glide_ecoul>
-3.06136107444763

> <r_i_glide_erotb>
0.427234587838477

> <r_i_glide_esite>
0

> <r_i_glide_emodel>
-24.4643203417348

> <r_i_glide_energy>
-29.8031976222992

> <r_i_glide_einternal>
10.7199659347534

> <i_i_glide_confnum>
1

> <i_i_glide_posenum>
130

> <r_i_glide_eff_state_penalty>
0

> <s_user_duplicate_titles>
CHEMBL2039_lig1330

> <s_m_subgroup_title>
dock_pv

> <s_m_subgroupid>
dock_pv

> <b_m_subgroup_collapsed>
1

$$$$
CHEMBL2039_lig1483
                    3D
 Schrodinger Suite 2021-1.
 29 30  0  0  1  0            999 V2000
   51.0177  157.4434   29.3038 C   0  0  0  0  0  0
   52.0558  156.8749   28.4254 C   0  0  0  0  0  0
   50.9735  158.7470   29.6608 C   0  0  0  0  0  0
   51.7558  155.5746   27.7619 C   0  0  0  0  0  0
   53.0558  157.5122   28.1047 O   0  0  0  0  0  0
   52.0587  155.4058   26.4036 C   0  0  0  0  0  0
   51.3022  154.4842   28.5069 C   0  0  0  0  0  0
   49.9042  159.3767   30.4701 C   0  0  0  0  0  0
   51.6564  153.0455   26.6121 C   0  0  0  0  0  0
   52.0036  154.1393   25.8253 C   0  0  0  0  0  0
   51.2653  153.2183   27.9332 C   0  0  0  0  0  0
   51.7452  151.7832   26.1040 O   0  0  0  0  0  0
   48.6011  158.8596   30.5041 C   0  0  0  0  0  0
   50.2253  160.4769   31.2699 C   0  0  0  0  0  0
   49.2644  161.0367   32.1064 C   0  0  0  0  0  0
   47.6347  159.4357   31.3245 C   0  0  0  0  0  0
   47.9725  160.5194   32.1300 C   0  0  0  0  0  0
   50.2486  156.7628   29.6373 H   0  0  0  0  0  0
   51.7553  159.4123   29.3158 H   0  0  0  0  0  0
   52.4118  156.2357   25.8078 H   0  0  0  0  0  0
   51.0672  154.5808   29.5577 H   0  0  0  0  0  0
   52.2944  153.9957   24.7962 H   0  0  0  0  0  0
   50.9794  152.3663   28.5330 H   0  0  0  0  0  0
   51.6456  151.1014   26.7758 H   0  0  0  0  0  0
   48.3258  158.0072   29.9040 H   0  0  0  0  0  0
   51.2299  160.8775   31.2807 H   0  0  0  0  0  0
   49.5368  161.8481   32.7613 H   0  0  0  0  0  0
   46.6319  159.0356   31.3500 H   0  0  0  0  0  0
   47.2315  160.9545   32.7837 H   0  0  0  0  0  0
  1  2  1  0  0  0
  1  3  2  0  0  0
  1 18  1  0  0  0
  2  4  1  0  0  0
  2  5  2  0  0  0
  3  8  1  0  0  0
  3 19  1  0  0  0
  4  6  2  0  0  0
  4  7  1  0  0  0
  6 10  1  0  0  0
  6 20  1  0  0  0
  7 11  2  0  0  0
  7 21  1  0  0  0
  8 13  1  0  0  0
  8 14  2  0  0  0
  9 11  1  0  0  0
  9 12  1  0  0  0
  9 10  2  0  0  0
 10 22  1  0  0  0
 11 23  1  0  0  0
 12 24  1  0  0  0
 13 16  2  0  0  0
 13 25  1  0  0  0
 14 15  1  0  0  0
 14 26  1  0  0  0
 15 17  2  0  0  0
 15 27  1  0  0  0
 16 17  1  0  0  0
 16 28  1  0  0  0
 17 29  1  0  0  0
M  END
> <s_m_entry_id>
10019

> <s_m_entry_name>
dock_pv.55

> <s_m_Source_Path>
/home/csk/Desktop/cluster/DUD-E-result/aofb

> <s_m_Source_File>
dock_pv.maegz

> <i_m_Source_File_Index>
55

> <chembl_id>
CHEMBL276473

> <chembl_pref_name>
4'-HYDROXYCHALCONE

> <i_lp_mmshare_version>
53161

> <i_f3d_flags>
0

> <r_lp_tautomer_probability>
1

> <s_lp_Force_Field>
OPLS_2005

> <r_lp_Energy>
15.016868

> <b_lp_Chiralities_Consistent>
1

> <s_lp_Variant>
CHEMBL2039_lig1483-1

> <s_i_glide_gridfile>
glide-grid_1s3b

> <i_i_glide_lignum>
1707

> <i_i_glide_rotatable_bonds>
4

> <r_i_docking_score>
-8.1775342113846

> <r_i_glide_ligand_efficiency>
-0.481031424199094

> <r_i_glide_ligand_efficiency_sa>
-1.23686724440314

> <r_i_glide_ligand_efficiency_ln>
-2.13333657101677

> <r_i_glide_gscore>
-8.1775342113846

> <r_i_glide_lipo>
-3.98874764648995

> <r_i_glide_hbond>
-0.164302635199321

> <r_i_glide_metal>
0

> <r_i_glide_rewards>
-3.06576492898829

> <r_i_glide_evdw>
-32.3669090270996

> <r_i_glide_ecoul>
-0.0948795899748802

> <r_i_glide_erotb>
0.673858389144176

> <r_i_glide_esite>
0

> <r_i_glide_emodel>
-42.1336659641079

> <r_i_glide_energy>
-32.4617886170745

> <r_i_glide_einternal>
7.59624433517456

> <i_i_glide_confnum>
5

> <i_i_glide_posenum>
72

> <r_i_glide_eff_state_penalty>
0

> <s_user_duplicate_titles>
CHEMBL2039_lig1483

> <s_m_subgroup_title>
dock_pv

> <s_m_subgroupid>
dock_pv

> <b_m_subgroup_collapsed>
1

$$$$
CHEMBL2039_lig1043
                    3D
 Schrodinger Suite 2021-1.
 28 29  0  0  1  0            999 V2000
   50.0556  159.3768   30.4094 C   0  0  0  0  0  0
   48.7344  158.9083   30.4533 C   0  0  0  0  0  0
   47.7904  159.5090   31.2850 C   0  0  0  0  0  0
   48.1591  160.5747   32.1033 C   0  0  0  0  0  0
   49.4718  161.0435   32.0783 C   0  0  0  0  0  0
   50.4081  160.4591   31.2239 C   0  0  0  0  0  0
   51.1008  158.7148   29.5888 C   0  0  0  0  0  0
   51.0949  157.4292   29.1618 C   0  0  0  0  0  0
   52.1461  156.8750   28.2958 C   0  0  0  0  0  0
   53.2165  157.4454   28.1041 O   0  0  0  0  0  0
   51.8611  155.6290   27.5950 C   0  0  0  0  0  0
   52.3970  155.4876   26.3515 O   0  0  0  0  0  0
   52.0556  154.2597   25.8857 C   0  0  0  0  0  0
   51.2676  153.6212   26.8303 C   0  0  0  0  0  0
   51.1336  154.4910   27.9167 C   0  0  0  0  0  0
   52.5989  153.8815   24.5288 C   0  0  0  0  0  0
   46.5202  159.0454   31.3042 F   0  0  0  0  0  0
   48.4221  158.0767   29.8448 H   0  0  0  0  0  0
   47.4300  161.0307   32.7578 H   0  0  0  0  0  0
   49.7728  161.8543   32.7264 H   0  0  0  0  0  0
   51.4250  160.8302   31.2319 H   0  0  0  0  0  0
   51.9267  159.3530   29.3025 H   0  0  0  0  0  0
   50.2920  156.7608   29.4310 H   0  0  0  0  0  0
   50.8561  152.6258   26.7443 H   0  0  0  0  0  0
   50.5982  154.3014   28.8346 H   0  0  0  0  0  0
   52.4352  152.8265   24.3032 H   0  0  0  0  0  0
   53.6763  154.0504   24.4713 H   0  0  0  0  0  0
   52.1300  154.4619   23.7348 H   0  0  0  0  0  0
  1  2  2  0  0  0
  1  6  1  0  0  0
  1  7  1  0  0  0
  2  3  1  0  0  0
  2 18  1  0  0  0
  3  4  2  0  0  0
  3 17  1  0  0  0
  4  5  1  0  0  0
  4 19  1  0  0  0
  5  6  2  0  0  0
  5 20  1  0  0  0
  6 21  1  0  0  0
  7  8  2  0  0  0
  7 22  1  0  0  0
  8  9  1  0  0  0
  8 23  1  0  0  0
  9 10  2  0  0  0
  9 11  1  0  0  0
 11 12  1  0  0  0
 11 15  2  0  0  0
 12 13  1  0  0  0
 13 14  2  0  0  0
 13 16  1  0  0  0
 14 15  1  0  0  0
 14 24  1  0  0  0
 15 25  1  0  0  0
 16 26  1  0  0  0
 16 27  1  0  0  0
 16 28  1  0  0  0
M  END
> <s_m_entry_id>
10020

> <s_m_entry_name>
dock_pv.56

> <s_m_Source_Path>
/home/csk/Desktop/cluster/DUD-E-result/aofb

> <s_m_Source_File>
dock_pv.maegz

> <i_m_Source_File_Index>
56

> <chembl_id>
CHEMBL2420784

> <chembl_pref_name>
None

> <i_lp_mmshare_version>
53161

> <i_f3d_flags>
0

> <r_lp_tautomer_probability>
1

> <s_lp_Force_Field>
OPLS_2005

> <r_lp_Energy>
7.245294

> <b_lp_Chiralities_Consistent>
1

> <s_lp_Variant>
CHEMBL2039_lig1043-1

> <s_i_glide_gridfile>
glide-grid_1s3b

> <i_i_glide_lignum>
1216

> <i_i_glide_rotatable_bonds>
3

> <r_i_docking_score>
-8.17617063135635

> <r_i_glide_ligand_efficiency>
-0.480951213609197

> <r_i_glide_ligand_efficiency_sa>
-1.23666100039016

> <r_i_glide_ligand_efficiency_ln>
-2.13298084335283

> <r_i_glide_gscore>
-8.17617063135635

> <r_i_glide_lipo>
-3.74193636067973

> <r_i_glide_hbond>
0

> <r_i_glide_metal>
0

> <r_i_glide_rewards>
-3.63456570503756

> <r_i_glide_evdw>
-31.6725845336914

> <r_i_glide_ecoul>
0.92992752790451

> <r_i_glide_erotb>
0.64447153185983

> <r_i_glide_esite>
0

> <r_i_glide_emodel>
-43.1944565996707

> <r_i_glide_energy>
-30.7426570057869

> <r_i_glide_einternal>
4.23763418197632

> <i_i_glide_confnum>
3

> <i_i_glide_posenum>
184

> <r_i_glide_eff_state_penalty>
0

> <s_user_duplicate_titles>
CHEMBL2039_lig1043

> <s_m_subgroup_title>
dock_pv

> <s_m_subgroupid>
dock_pv

> <b_m_subgroup_collapsed>
1

$$$$
CHEMBL2039_lig1042
                    3D
 Schrodinger Suite 2021-1.
 28 29  0  0  1  0            999 V2000
   47.2544  161.0117   33.1454 F   0  0  0  0  0  0
   52.2589  155.3771   26.5053 O   0  0  0  0  0  0
   53.0799  157.4440   28.1041 O   0  0  0  0  0  0
   51.7761  155.5511   27.7648 C   0  0  0  0  0  0
   52.0558  156.8302   28.3973 C   0  0  0  0  0  0
   51.9525  154.1146   26.1142 C   0  0  0  0  0  0
   51.0999  154.4075   28.1662 C   0  0  0  0  0  0
   49.9278  159.3115   30.4759 C   0  0  0  0  0  0
   51.2288  153.4892   27.1205 C   0  0  0  0  0  0
   51.0275  157.3654   29.3032 C   0  0  0  0  0  0
   50.9578  158.6771   29.6232 C   0  0  0  0  0  0
   50.2825  160.4494   31.2043 C   0  0  0  0  0  0
   48.6464  158.7662   30.6347 C   0  0  0  0  0  0
   48.1144  160.4660   32.2541 C   0  0  0  0  0  0
   49.3840  161.0114   32.1041 C   0  0  0  0  0  0
   47.7356  159.3503   31.5128 C   0  0  0  0  0  0
   52.4843  153.6897   24.7731 C   0  0  0  0  0  0
   50.6107  154.2444   29.1158 H   0  0  0  0  0  0
   50.8561  152.4772   27.1012 H   0  0  0  0  0  0
   50.3087  156.6605   29.6943 H   0  0  0  0  0  0
   51.6989  159.3505   29.2104 H   0  0  0  0  0  0
   51.2745  160.8730   31.1222 H   0  0  0  0  0  0
   48.3531  157.8737   30.1012 H   0  0  0  0  0  0
   49.6868  161.8463   32.7143 H   0  0  0  0  0  0
   46.7502  158.9295   31.6404 H   0  0  0  0  0  0
   52.2763  152.6424   24.5656 H   0  0  0  0  0  0
   53.5661  153.8140   24.7232 H   0  0  0  0  0  0
   52.0559  154.2762   23.9618 H   0  0  0  0  0  0
  1 14  1  0  0  0
  2  4  1  0  0  0
  2  6  1  0  0  0
  3  5  2  0  0  0
  4  5  1  0  0  0
  4  7  2  0  0  0
  5 10  1  0  0  0
  6  9  2  0  0  0
  6 17  1  0  0  0
  7  9  1  0  0  0
  7 18  1  0  0  0
  8 11  1  0  0  0
  8 12  2  0  0  0
  8 13  1  0  0  0
  9 19  1  0  0  0
 10 11  2  0  0  0
 10 20  1  0  0  0
 11 21  1  0  0  0
 12 15  1  0  0  0
 12 22  1  0  0  0
 13 16  2  0  0  0
 13 23  1  0  0  0
 14 15  2  0  0  0
 14 16  1  0  0  0
 15 24  1  0  0  0
 16 25  1  0  0  0
 17 26  1  0  0  0
 17 27  1  0  0  0
 17 28  1  0  0  0
M  END
> <s_m_entry_id>
10021

> <s_m_entry_name>
dock_pv.57

> <s_m_Source_Path>
/home/csk/Desktop/cluster/DUD-E-result/aofb

> <s_m_Source_File>
dock_pv.maegz

> <i_m_Source_File_Index>
57

> <chembl_id>
CHEMBL1438596

> <chembl_pref_name>
None

> <i_lp_mmshare_version>
53161

> <i_f3d_flags>
0

> <r_lp_tautomer_probability>
1

> <s_lp_Force_Field>
OPLS_2005

> <r_lp_Energy>
6.68764

> <b_lp_Chiralities_Consistent>
1

> <s_lp_Variant>
CHEMBL2039_lig1042-1

> <s_i_glide_gridfile>
glide-grid_1s3b

> <i_i_glide_lignum>
1215

> <i_i_glide_rotatable_bonds>
3

> <r_i_docking_score>
-8.17320669257795

> <r_i_glide_ligand_efficiency>
-0.480776864269291

> <r_i_glide_ligand_efficiency_sa>
-1.23621269914254

> <r_i_glide_ligand_efficiency_ln>
-2.13220761772922

> <r_i_glide_gscore>
-8.17320669257795

> <r_i_glide_lipo>
-3.70427441934814

> <r_i_glide_hbond>
0

> <r_i_glide_metal>
0

> <r_i_glide_rewards>
-3.63931129772727

> <r_i_glide_evdw>
-32.563362121582

> <r_i_glide_ecoul>
1.02717065811157

> <r_i_glide_erotb>
0.64447153185983

> <r_i_glide_esite>
0

> <r_i_glide_emodel>
-43.9152343624381

> <r_i_glide_energy>
-31.5361914634705

> <r_i_glide_einternal>
4.27149105072021

> <i_i_glide_confnum>
1

> <i_i_glide_posenum>
287

> <r_i_glide_eff_state_penalty>
0

> <s_user_duplicate_titles>
CHEMBL2039_lig1042

> <s_m_subgroup_title>
dock_pv

> <s_m_subgroupid>
dock_pv

> <b_m_subgroup_collapsed>
1

$$$$
CHEMBL2039_lig946
                    3D
 Schrodinger Suite 2021-1.
 37 39  0  0  1  0            999 V2000
   51.6560  152.5235   26.3834 C   0  0  0  0  0  0
   52.8560  154.3966   25.3043 C   0  0  0  0  0  0
   52.5741  153.0690   25.3485 C   0  0  0  0  0  0
   51.1548  153.3881   27.3131 O   0  0  0  0  0  0
   51.5740  154.6930   27.3917 C   0  0  0  0  0  0
   52.3825  155.2777   26.4062 C   0  0  0  0  0  0
   51.1278  155.4094   28.4992 C   0  0  0  0  0  0
   52.8551  156.5725   26.6395 C   0  0  0  0  0  0
   47.6484  159.5308   31.4532 C   0  0  0  0  0  0
   51.2560  151.3683   26.5039 O   0  0  0  0  0  0
   48.0451  160.5482   32.3226 C   0  0  0  0  0  0
   48.5579  159.0051   30.5354 C   0  0  0  0  0  0
   51.5100  156.7347   28.6552 C   0  0  0  0  0  0
   49.3394  161.0550   32.2476 C   0  0  0  0  0  0
   50.8562  157.4699   29.6265 O   0  0  0  0  0  0
   49.8657  159.5006   30.4727 C   0  0  0  0  0  0
   46.3890  159.0444   31.5004 F   0  0  0  0  0  0
   52.4561  157.2670   27.7742 C   0  0  0  0  0  0
   47.1872  161.0441   33.2424 F   0  0  0  0  0  0
   53.8879  154.9935   24.3569 C   0  0  0  0  0  0
   50.8808  158.8933   29.5183 C   0  0  0  0  0  0
   53.2149  152.0067   24.4553 C   0  0  0  0  0  0
   50.2435  160.5487   31.3156 C   0  0  0  0  0  0
   50.4444  154.9570   29.2023 H   0  0  0  0  0  0
   53.5667  157.0436   25.9823 H   0  0  0  0  0  0
   48.2465  158.1992   29.8891 H   0  0  0  0  0  0
   49.6509  161.8430   32.9181 H   0  0  0  0  0  0
   52.8610  158.2441   27.9311 H   0  0  0  0  0  0
   54.0220  154.4268   23.4375 H   0  0  0  0  0  0
   53.6159  156.0139   24.1040 H   0  0  0  0  0  0
   54.8538  155.0365   24.8598 H   0  0  0  0  0  0
   50.6249  159.2155   28.5078 H   0  0  0  0  0  0
   51.8835  159.2603   29.7453 H   0  0  0  0  0  0
   53.3877  152.3579   23.4390 H   0  0  0  0  0  0
   54.1686  151.7212   24.9002 H   0  0  0  0  0  0
   52.6237  151.0952   24.3733 H   0  0  0  0  0  0
   51.2481  160.9474   31.2856 H   0  0  0  0  0  0
  1  3  1  0  0  0
  1  4  1  0  0  0
  1 10  2  0  0  0
  2  3  2  0  0  0
  2 20  1  0  0  0
  2  6  1  0  0  0
  3 22  1  0  0  0
  4  5  1  0  0  0
  5  6  2  0  0  0
  5  7  1  0  0  0
  6  8  1  0  0  0
  7 13  2  0  0  0
  7 24  1  0  0  0
  8 18  2  0  0  0
  8 25  1  0  0  0
  9 12  2  0  0  0
  9 17  1  0  0  0
  9 11  1  0  0  0
 11 14  2  0  0  0
 11 19  1  0  0  0
 12 16  1  0  0  0
 12 26  1  0  0  0
 13 15  1  0  0  0
 13 18  1  0  0  0
 14 23  1  0  0  0
 14 27  1  0  0  0
 15 21  1  0  0  0
 16 21  1  0  0  0
 16 23  2  0  0  0
 18 28  1  0  0  0
 20 29  1  0  0  0
 20 30  1  0  0  0
 20 31  1  0  0  0
 21 32  1  0  0  0
 21 33  1  0  0  0
 22 34  1  0  0  0
 22 35  1  0  0  0
 22 36  1  0  0  0
 23 37  1  0  0  0
M  END
> <s_m_entry_id>
10022

> <s_m_entry_name>
dock_pv.58

> <s_m_Source_Path>
/home/csk/Desktop/cluster/DUD-E-result/aofb

> <s_m_Source_File>
dock_pv.maegz

> <i_m_Source_File_Index>
58

> <chembl_id>
CHEMBL325761

> <chembl_pref_name>
None

> <i_lp_mmshare_version>
53161

> <i_f3d_flags>
0

> <r_lp_tautomer_probability>
1

> <s_lp_Force_Field>
OPLS_2005

> <r_lp_Energy>
29.066937

> <b_lp_Chiralities_Consistent>
1

> <s_lp_Variant>
CHEMBL2039_lig946-1

> <s_i_glide_gridfile>
glide-grid_1s3b

> <i_i_glide_lignum>
1093

> <i_i_glide_rotatable_bonds>
3

> <r_i_docking_score>
-8.17172926719765

> <r_i_glide_ligand_efficiency>
-0.35529257683468

> <r_i_glide_ligand_efficiency_sa>
-1.01040482639048

> <r_i_glide_ligand_efficiency_ln>
-1.97599823395271

> <r_i_glide_gscore>
-8.17172926719765

> <r_i_glide_lipo>
-4.2567302200863

> <r_i_glide_hbond>
0

> <r_i_glide_metal>
0

> <r_i_glide_rewards>
-2.932071998339

> <r_i_glide_evdw>
-29.1882915496826

> <r_i_glide_ecoul>
-0.544705986976624

> <r_i_glide_erotb>
0.558193426758276

> <r_i_glide_esite>
0

> <r_i_glide_emodel>
-32.1143888936542

> <r_i_glide_energy>
-29.7329975366592

> <r_i_glide_einternal>
1.48898065090179

> <i_i_glide_confnum>
3

> <i_i_glide_posenum>
341

> <r_i_glide_eff_state_penalty>
0

> <s_user_duplicate_titles>
CHEMBL2039_lig946

> <s_m_subgroup_title>
dock_pv

> <s_m_subgroupid>
dock_pv

> <b_m_subgroup_collapsed>
1

$$$$
CHEMBL2039_lig2010
                    3D
 Schrodinger Suite 2021-1.
 34 36  0  0  1  0            999 V2000
   53.1510  153.7545   24.3685 C   0  0  0  0  0  0
   52.8560  152.5027   24.9040 C   0  0  0  0  0  0
   52.1457  152.4084   26.1023 C   0  0  0  0  0  0
   52.7956  154.9130   25.0590 C   0  0  0  0  0  0
   52.1541  154.8277   26.3056 C   0  0  0  0  0  0
   51.8152  153.5656   26.8009 C   0  0  0  0  0  0
   51.2533  153.4039   28.0430 O   0  0  0  0  0  0
   50.9876  154.5176   28.7689 C   0  0  0  0  0  0
   51.2964  155.7933   28.4609 C   0  0  0  0  0  0
   52.0560  156.0099   27.2117 C   0  0  0  0  0  0
   52.6283  157.0440   26.9040 O   0  0  0  0  0  0
   50.8560  156.8852   29.3040 C   0  0  0  0  0  0
   51.1103  158.1291   29.1963 N   0  0  0  0  0  0
   50.4601  159.0440   30.0510 C   0  0  0  0  0  0
   49.1007  158.9353   30.4255 C   0  0  0  0  0  0
   48.5055  159.8344   31.3113 C   0  0  0  0  0  0
   49.2661  160.8778   31.8292 C   0  0  0  0  0  0
   50.5834  161.0440   31.4108 C   0  0  0  0  0  0
   51.1641  160.1692   30.5040 C   0  0  0  0  0  0
   52.4560  160.3981   30.1049 O   0  0  0  0  0  0
   47.0571  159.6582   31.7313 C   0  0  0  0  0  0
   53.6839  153.8237   23.4310 H   0  0  0  0  0  0
   53.1426  151.6084   24.3698 H   0  0  0  0  0  0
   51.8859  151.4417   26.5040 H   0  0  0  0  0  0
   53.0963  155.8722   24.6593 H   0  0  0  0  0  0
   50.4561  154.2440   29.6700 H   0  0  0  0  0  0
   50.2098  156.5214   30.0956 H   0  0  0  0  0  0
   48.5026  158.1193   30.0499 H   0  0  0  0  0  0
   48.8359  161.5781   32.5303 H   0  0  0  0  0  0
   51.1648  161.8736   31.7787 H   0  0  0  0  0  0
   52.7930  159.6149   29.6520 H   0  0  0  0  0  0
   46.9043  159.9973   32.7567 H   0  0  0  0  0  0
   46.7672  158.6074   31.7040 H   0  0  0  0  0  0
   46.3939  160.2227   31.0751 H   0  0  0  0  0  0
  1  2  2  0  0  0
  1  4  1  0  0  0
  1 22  1  0  0  0
  2  3  1  0  0  0
  2 23  1  0  0  0
  3  6  2  0  0  0
  3 24  1  0  0  0
  4  5  2  0  0  0
  4 25  1  0  0  0
  5  6  1  0  0  0
  5 10  1  0  0  0
  6  7  1  0  0  0
  7  8  1  0  0  0
  8  9  2  0  0  0
  8 26  1  0  0  0
  9 10  1  0  0  0
  9 12  1  0  0  0
 10 11  2  0  0  0
 12 13  2  0  0  0
 12 27  1  0  0  0
 13 14  1  0  0  0
 14 15  2  0  0  0
 14 19  1  0  0  0
 15 16  1  0  0  0
 15 28  1  0  0  0
 16 17  2  0  0  0
 16 21  1  0  0  0
 17 18  1  0  0  0
 17 29  1  0  0  0
 18 19  2  0  0  0
 18 30  1  0  0  0
 19 20  1  0  0  0
 20 31  1  0  0  0
 21 32  1  0  0  0
 21 33  1  0  0  0
 21 34  1  0  0  0
M  END
> <s_m_entry_id>
10023

> <s_m_entry_name>
dock_pv.59

> <s_m_Source_Path>
/home/csk/Desktop/cluster/DUD-E-result/aofb

> <s_m_Source_File>
dock_pv.maegz

> <i_m_Source_File_Index>
59

> <chembl_id>
CHEMBL4100473

> <chembl_pref_name>
None

> <i_lp_mmshare_version>
53161

> <i_f3d_flags>
0

> <r_lp_tautomer_probability>
1

> <s_lp_Force_Field>
OPLS_2005

> <r_lp_Energy>
20.095807

> <b_lp_Chiralities_Consistent>
1

> <s_lp_Variant>
CHEMBL2039_lig2010-1

> <s_i_glide_gridfile>
glide-grid_1s3b

> <i_i_glide_lignum>
2345

> <i_i_glide_rotatable_bonds>
3

> <r_i_docking_score>
-8.16874052089713

> <r_i_glide_ligand_efficiency>
-0.388987643852244

> <r_i_glide_ligand_efficiency_sa>
-1.07318741384837

> <r_i_glide_ligand_efficiency_ln>
-2.01970458729737

> <r_i_glide_gscore>
-8.16874052089713

> <r_i_glide_lipo>
-4.42194760601101

> <r_i_glide_hbond>
-0.168596832674654

> <r_i_glide_metal>
0

> <r_i_glide_rewards>
-2.66638990970363

> <r_i_glide_evdw>
-22.6742191314697

> <r_i_glide_ecoul>
-1.60437643527985

> <r_i_glide_erotb>
0.462561249357624

> <r_i_glide_esite>
0

> <r_i_glide_emodel>
-27.7020352029799

> <r_i_glide_energy>
-24.2785955667496

> <r_i_glide_einternal>
3.35956788063049

> <i_i_glide_confnum>
4

> <i_i_glide_posenum>
65

> <r_i_glide_eff_state_penalty>
0

> <s_user_duplicate_titles>
CHEMBL2039_lig2010

> <s_m_subgroup_title>
dock_pv

> <s_m_subgroupid>
dock_pv

> <b_m_subgroup_collapsed>
1

$$$$
CHEMBL2039_lig82
                    3D
 Schrodinger Suite 2021-1.
 34 36  0  0  1  0            999 V2000
   52.8560  151.6407   24.9994 C   0  0  0  0  0  0
   53.2560  152.4635   23.9514 C   0  0  0  0  0  0
   53.2240  153.8440   24.0881 C   0  0  0  0  0  0
   52.2003  152.2106   26.0939 C   0  0  0  0  0  0
   52.1268  153.5991   26.2331 C   0  0  0  0  0  0
   52.6877  154.4064   25.2370 C   0  0  0  0  0  0
   52.8048  155.7697   25.3700 O   0  0  0  0  0  0
   52.3978  156.3208   26.5363 C   0  0  0  0  0  0
   51.8302  155.6736   27.5818 C   0  0  0  0  0  0
   51.6560  154.2014   27.5052 C   0  0  0  0  0  0
   51.2560  156.4098   28.6905 C   0  0  0  0  0  0
   51.6501  157.6981   28.9040 N   0  0  0  0  0  0
   50.3299  155.9018   29.3171 O   0  0  0  0  0  0
   50.9879  158.6783   29.7040 C   0  0  0  0  0  0
   51.7183  159.8040   30.1040 C   0  0  0  0  0  0
   51.1583  160.7706   30.9360 C   0  0  0  0  0  0
   49.8326  160.6511   31.3459 C   0  0  0  0  0  0
   49.0653  159.5741   30.9156 C   0  0  0  0  0  0
   49.6394  158.5982   30.1040 C   0  0  0  0  0  0
   53.0349  150.1364   24.9039 C   0  0  0  0  0  0
   47.4127  159.4376   31.3978 Cl  0  0  0  0  0  0
   51.2560  153.4688   28.4089 O   0  0  0  0  0  0
   53.6564  152.0336   23.0482 H   0  0  0  0  0  0
   53.6560  154.4636   23.3214 H   0  0  0  0  0  0
   51.7825  151.5675   26.8571 H   0  0  0  0  0  0
   52.5185  157.3935   26.4941 H   0  0  0  0  0  0
   52.5430  157.9774   28.5282 H   0  0  0  0  0  0
   52.7562  159.8947   29.8194 H   0  0  0  0  0  0
   51.7533  161.6068   31.2749 H   0  0  0  0  0  0
   49.4019  161.4014   31.9927 H   0  0  0  0  0  0
   49.0087  157.7771   29.8127 H   0  0  0  0  0  0
   52.3463  149.6013   25.5589 H   0  0  0  0  0  0
   52.8562  149.7871   23.8875 H   0  0  0  0  0  0
   54.0560  149.8624   25.1577 H   0  0  0  0  0  0
  1  2  2  0  0  0
  1  4  1  0  0  0
  1 20  1  0  0  0
  2  3  1  0  0  0
  2 23  1  0  0  0
  3  6  2  0  0  0
  3 24  1  0  0  0
  4  5  2  0  0  0
  4 25  1  0  0  0
  5  6  1  0  0  0
  5 10  1  0  0  0
  6  7  1  0  0  0
  7  8  1  0  0  0
  8  9  2  0  0  0
  8 26  1  0  0  0
  9 10  1  0  0  0
  9 11  1  0  0  0
 10 22  2  0  0  0
 11 12  1  0  0  0
 11 13  2  0  0  0
 12 14  1  0  0  0
 12 27  1  0  0  0
 14 15  2  0  0  0
 14 19  1  0  0  0
 15 16  1  0  0  0
 15 28  1  0  0  0
 16 17  2  0  0  0
 16 29  1  0  0  0
 17 18  1  0  0  0
 17 30  1  0  0  0
 18 19  2  0  0  0
 18 21  1  0  0  0
 19 31  1  0  0  0
 20 32  1  0  0  0
 20 33  1  0  0  0
 20 34  1  0  0  0
M  END
> <s_m_entry_id>
10024

> <s_m_entry_name>
dock_pv.60

> <s_m_Source_Path>
/home/csk/Desktop/cluster/DUD-E-result/aofb

> <s_m_Source_File>
dock_pv.maegz

> <i_m_Source_File_Index>
60

> <chembl_id>
CHEMBL4060916

> <chembl_pref_name>
None

> <i_lp_mmshare_version>
53161

> <i_f3d_flags>
0

> <r_lp_tautomer_probability>
1

> <s_lp_Force_Field>
OPLS_2005

> <r_lp_Energy>
24.622838

> <b_lp_Chiralities_Consistent>
1

> <s_lp_Variant>
CHEMBL2039_lig82-1

> <s_i_glide_gridfile>
glide-grid_1s3b

> <i_i_glide_lignum>
105

> <i_i_glide_rotatable_bonds>
3

> <r_i_docking_score>
-8.16304271050122

> <r_i_glide_ligand_efficiency>
-0.371047395931874

> <r_i_glide_ligand_efficiency_sa>
-1.03968939586713

> <r_i_glide_ligand_efficiency_ln>
-1.99534539266397

> <r_i_glide_gscore>
-8.16304271050122

> <r_i_glide_lipo>
-4.34604751300271

> <r_i_glide_hbond>
0

> <r_i_glide_metal>
0

> <r_i_glide_rewards>
-2.46202761833291

> <r_i_glide_evdw>
-30.340799331665

> <r_i_glide_ecoul>
-2.69446897506714

> <r_i_glide_erotb>
0.566242733677729

> <r_i_glide_esite>
0

> <r_i_glide_emodel>
-39.0731109865072

> <r_i_glide_energy>
-33.0352683067322

> <r_i_glide_einternal>
6.60284948348999

> <i_i_glide_confnum>
7

> <i_i_glide_posenum>
135

> <r_i_glide_eff_state_penalty>
0

> <s_user_duplicate_titles>
CHEMBL2039_lig82

> <s_m_subgroup_title>
dock_pv

> <s_m_subgroupid>
dock_pv

> <b_m_subgroup_collapsed>
1

$$$$
CHEMBL2039_lig609
                    3D
 Schrodinger Suite 2021-1.
 34 35  0  0  1  0            999 V2000
   51.2560  154.5888   28.1531 C   0  0  0  0  0  0
   50.7716  155.6891   28.9504 C   0  0  0  0  0  0
   51.2543  156.9553   28.9040 C   0  0  0  0  0  0
   50.7309  158.0557   29.7038 C   0  0  0  0  0  0
   49.4585  158.1366   30.1524 C   0  0  0  0  0  0
   51.6561  154.9275   26.9173 N   0  0  0  0  0  0
   48.8576  159.1907   30.9951 C   0  0  0  0  0  0
   49.6252  160.1889   31.6099 C   0  0  0  0  0  0
   49.0275  161.0987   32.4760 C   0  0  0  0  0  0
   47.6561  161.0402   32.7012 C   0  0  0  0  0  0
   46.8760  160.0764   32.0673 C   0  0  0  0  0  0
   47.4772  159.1522   31.2191 C   0  0  0  0  0  0
   52.2155  154.1235   25.9194 C   0  0  0  0  0  0
   52.2878  152.7129   25.9332 C   0  0  0  0  0  0
   52.9649  152.0506   24.9053 C   0  0  0  0  0  0
   53.4842  152.7779   23.8527 C   0  0  0  0  0  0
   53.5117  154.1530   23.8908 C   0  0  0  0  0  0
   52.8525  154.8369   24.9040 C   0  0  0  0  0  0
   51.2571  153.4440   28.5890 O   0  0  0  0  0  0
   53.2548  150.3501   24.9040 Cl  0  0  0  0  0  0
   49.9797  155.4147   29.6315 H   0  0  0  0  0  0
   52.0684  157.1960   28.2329 H   0  0  0  0  0  0
   51.4282  158.8415   29.9539 H   0  0  0  0  0  0
   48.7818  157.3300   29.9107 H   0  0  0  0  0  0
   51.6090  155.9079   26.6941 H   0  0  0  0  0  0
   50.6936  160.2445   31.4644 H   0  0  0  0  0  0
   49.6333  161.8440   32.9704 H   0  0  0  0  0  0
   47.1932  161.7504   33.3697 H   0  0  0  0  0  0
   45.8103  160.0357   32.2394 H   0  0  0  0  0  0
   46.8635  158.3960   30.7508 H   0  0  0  0  0  0
   51.8597  152.1234   26.7277 H   0  0  0  0  0  0
   53.9679  152.2719   23.0327 H   0  0  0  0  0  0
   54.0561  154.6449   23.1056 H   0  0  0  0  0  0
   52.8695  155.9175   24.9062 H   0  0  0  0  0  0
  1  2  1  0  0  0
  1  6  1  0  0  0
  1 19  2  0  0  0
  2  3  2  0  0  0
  2 21  1  0  0  0
  3  4  1  0  0  0
  3 22  1  0  0  0
  4  5  2  0  0  0
  4 23  1  0  0  0
  5  7  1  0  0  0
  5 24  1  0  0  0
  6 13  1  0  0  0
  6 25  1  0  0  0
  7  8  1  0  0  0
  7 12  2  0  0  0
  8  9  2  0  0  0
  8 26  1  0  0  0
  9 10  1  0  0  0
  9 27  1  0  0  0
 10 11  2  0  0  0
 10 28  1  0  0  0
 11 12  1  0  0  0
 11 29  1  0  0  0
 12 30  1  0  0  0
 13 14  1  0  0  0
 13 18  2  0  0  0
 14 15  2  0  0  0
 14 31  1  0  0  0
 15 16  1  0  0  0
 15 20  1  0  0  0
 16 17  2  0  0  0
 16 32  1  0  0  0
 17 18  1  0  0  0
 17 33  1  0  0  0
 18 34  1  0  0  0
M  END
> <s_m_entry_id>
10025

> <s_m_entry_name>
dock_pv.61

> <s_m_Source_Path>
/home/csk/Desktop/cluster/DUD-E-result/aofb

> <s_m_Source_File>
dock_pv.maegz

> <i_m_Source_File_Index>
61

> <chembl_id>
CHEMBL1830135

> <chembl_pref_name>
None

> <i_lp_mmshare_version>
53161

> <i_f3d_flags>
0

> <r_lp_tautomer_probability>
1

> <s_lp_Force_Field>
OPLS_2005

> <r_lp_Energy>
18.022548

> <b_lp_Chiralities_Consistent>
1

> <s_lp_Variant>
CHEMBL2039_lig609-1

> <s_i_glide_gridfile>
glide-grid_1s3b

> <i_i_glide_lignum>
718

> <i_i_glide_rotatable_bonds>
5

> <r_i_docking_score>
-8.16215439540977

> <r_i_glide_ligand_efficiency>
-0.408107719770489

> <r_i_glide_ligand_efficiency_sa>
-1.10777478290719

> <r_i_glide_ligand_efficiency_ln>
-2.04271803930196

> <r_i_glide_gscore>
-8.16215439540977

> <r_i_glide_lipo>
-4.56356901399364

> <r_i_glide_hbond>
0

> <r_i_glide_metal>
0

> <r_i_glide_rewards>
-2.82359657530096

> <r_i_glide_evdw>
-31.7477703094482

> <r_i_glide_ecoul>
0.993108987808228

> <r_i_glide_erotb>
0.674991227537717

> <r_i_glide_esite>
-0.0115578663517128

> <r_i_glide_emodel>
-39.1232398422857

> <r_i_glide_energy>
-30.75466132164

> <r_i_glide_einternal>
4.63891887664795

> <i_i_glide_confnum>
10

> <i_i_glide_posenum>
280

> <r_i_glide_eff_state_penalty>
0

> <s_user_duplicate_titles>
CHEMBL2039_lig609

> <s_m_subgroup_title>
dock_pv

> <s_m_subgroupid>
dock_pv

> <b_m_subgroup_collapsed>
1

$$$$
CHEMBL2039_lig140
                    3D
 Schrodinger Suite 2021-1.
 33 36  0  0  1  0            999 V2000
   52.2028  155.9059   26.9081 C   0  0  0  0  0  0
   51.6560  154.6871   27.2705 C   0  0  0  0  0  0
   52.8526  155.7810   25.5812 C   0  0  0  0  0  0
   50.9694  154.4950   28.4182 N   0  0  0  0  0  0
   52.7429  154.3409   25.2734 C   0  0  0  0  0  0
   52.0560  153.6834   26.2909 C   0  0  0  0  0  0
   48.7710  160.9022   32.1814 C   0  0  0  0  0  0
   50.7210  155.5595   29.1948 N   0  0  0  0  0  0
   52.0627  156.9796   27.7889 C   0  0  0  0  0  0
   51.2334  156.8017   28.9040 C   0  0  0  0  0  0
   49.3911  159.9691   31.1599 C   0  0  0  0  0  0
   53.4006  156.6440   24.9038 O   0  0  0  0  0  0
   50.6157  157.9590   29.6430 C   0  0  0  0  0  0
   48.6904  158.8137   30.8607 C   0  0  0  0  0  0
   50.6538  160.1935   30.5853 C   0  0  0  0  0  0
   47.6561  161.4440   31.6923 F   0  0  0  0  0  0
   49.6400  161.8440   32.5041 F   0  0  0  0  0  0
   48.4555  160.2386   33.2946 F   0  0  0  0  0  0
   51.2560  159.1927   29.8146 C   0  0  0  0  0  0
   49.3000  157.8376   30.1040 C   0  0  0  0  0  0
   53.3023  153.6244   24.2157 C   0  0  0  0  0  0
   51.9861  152.2951   26.3011 C   0  0  0  0  0  0
   53.2560  152.2320   24.2441 C   0  0  0  0  0  0
   52.6370  151.5676   25.3040 C   0  0  0  0  0  0
   52.4529  157.9529   27.5408 H   0  0  0  0  0  0
   47.7053  158.6380   31.2698 H   0  0  0  0  0  0
   51.2025  161.1015   30.7901 H   0  0  0  0  0  0
   52.2541  159.3467   29.4313 H   0  0  0  0  0  0
   48.7439  156.9244   29.9525 H   0  0  0  0  0  0
   53.8230  154.1207   23.4095 H   0  0  0  0  0  0
   51.4758  151.7796   27.1007 H   0  0  0  0  0  0
   53.6561  151.6623   23.4229 H   0  0  0  0  0  0
   52.6013  150.4879   25.3177 H   0  0  0  0  0  0
  1  2  1  0  0  0
  1  3  1  0  0  0
  1  9  2  0  0  0
  2  4  2  0  0  0
  2  6  1  0  0  0
  3  5  1  0  0  0
  3 12  2  0  0  0
  4  8  1  0  0  0
  5 21  2  0  0  0
  5  6  1  0  0  0
  6 22  2  0  0  0
  7 11  1  0  0  0
  7 16  1  0  0  0
  7 17  1  0  0  0
  7 18  1  0  0  0
  8 10  2  0  0  0
  9 10  1  0  0  0
  9 25  1  0  0  0
 10 13  1  0  0  0
 11 14  2  0  0  0
 11 15  1  0  0  0
 13 19  1  0  0  0
 13 20  2  0  0  0
 14 20  1  0  0  0
 14 26  1  0  0  0
 15 19  2  0  0  0
 15 27  1  0  0  0
 19 28  1  0  0  0
 20 29  1  0  0  0
 21 23  1  0  0  0
 21 30  1  0  0  0
 22 24  1  0  0  0
 22 31  1  0  0  0
 23 24  2  0  0  0
 23 32  1  0  0  0
 24 33  1  0  0  0
M  END
> <s_m_entry_id>
10026

> <s_m_entry_name>
dock_pv.62

> <s_m_Source_Path>
/home/csk/Desktop/cluster/DUD-E-result/aofb

> <s_m_Source_File>
dock_pv.maegz

> <i_m_Source_File_Index>
62

> <chembl_id>
CHEMBL127983

> <chembl_pref_name>
None

> <i_lp_mmshare_version>
53161

> <i_f3d_flags>
0

> <r_lp_tautomer_probability>
1

> <s_lp_Force_Field>
OPLS_2005

> <r_lp_Energy>
45.525995

> <b_lp_Chiralities_Consistent>
1

> <s_lp_Variant>
CHEMBL2039_lig140-1

> <s_i_glide_gridfile>
glide-grid_1s3b

> <i_i_glide_lignum>
166

> <i_i_glide_rotatable_bonds>
2

> <r_i_docking_score>
-8.15453544641397

> <r_i_glide_ligand_efficiency>
-0.339772310267249

> <r_i_glide_ligand_efficiency_sa>
-0.980072935932349

> <r_i_glide_ligand_efficiency_ln>
-1.95175451957613

> <r_i_glide_gscore>
-8.15453544641397

> <r_i_glide_lipo>
-4.16546860684097

> <r_i_glide_hbond>
0

> <r_i_glide_metal>
0

> <r_i_glide_rewards>
-2.9823555539238

> <r_i_glide_evdw>
-17.9871234893799

> <r_i_glide_ecoul>
-1.65166354179382

> <r_i_glide_erotb>
0.176156758634647

> <r_i_glide_esite>
-0.0357623385457808

> <r_i_glide_emodel>
-36.0695454081223

> <r_i_glide_energy>
-19.6387870311737

> <r_i_glide_einternal>
0.564244568347931

> <i_i_glide_confnum>
4

> <i_i_glide_posenum>
175

> <r_i_glide_eff_state_penalty>
0

> <s_user_duplicate_titles>
CHEMBL2039_lig140,207703

> <s_m_subgroup_title>
dock_pv

> <s_m_subgroupid>
dock_pv

> <b_m_subgroup_collapsed>
1

$$$$
CHEMBL2039_lig994
                    3D
 Schrodinger Suite 2021-1.
 35 37  0  0  1  0            999 V2000
   52.1275  153.0671   25.1052 C   0  0  0  0  0  0
   53.2982  153.9952   24.7632 C   0  0  2  0  0  0
   52.9280  155.4710   25.0871 C   0  0  0  0  0  0
   51.6559  153.1792   26.5391 C   0  0  0  0  0  0
   51.6561  154.5446   27.0919 C   0  0  0  0  0  0
   52.3211  155.6279   26.4841 C   0  0  0  0  0  0
   52.4761  156.8075   27.1541 N   0  0  0  0  0  0
   51.8228  156.9545   28.3366 C   0  0  0  0  0  0
   51.0780  155.9849   28.9040 N   0  0  0  0  0  0
   51.0760  154.7719   28.3342 C   0  0  0  0  0  0
   51.8066  158.2440   28.8967 N   0  0  0  0  0  0
   51.2560  152.2217   27.1894 O   0  0  0  0  0  0
   50.9056  158.9057   29.7527 C   0  0  0  0  0  0
   51.3021  160.1207   30.3198 C   0  0  0  0  0  0
   50.4836  160.7724   31.2430 C   0  0  0  0  0  0
   49.2362  160.2352   31.5691 C   0  0  0  0  0  0
   48.8162  159.0441   30.9865 C   0  0  0  0  0  0
   49.6559  158.3786   30.1040 C   0  0  0  0  0  0
   53.6560  153.7584   23.3041 C   0  0  0  0  0  0
   48.3658  160.8854   32.5358 C   0  0  0  0  0  0
   47.6668  161.3934   33.3042 N   0  0  0  0  0  0
   51.2830  153.3938   24.5033 H   0  0  0  0  0  0
   52.4127  152.0341   24.9031 H   0  0  0  0  0  0
   54.1936  153.7047   25.3040 H   0  0  0  0  0  0
   52.1801  155.8165   24.3732 H   0  0  0  0  0  0
   53.7905  156.1264   24.9608 H   0  0  0  0  0  0
   50.5641  153.9950   28.8832 H   0  0  0  0  0  0
   52.5008  158.8462   28.4751 H   0  0  0  0  0  0
   52.2735  160.5343   30.0946 H   0  0  0  0  0  0
   50.8318  161.6872   31.7040 H   0  0  0  0  0  0
   47.8584  158.6059   31.2337 H   0  0  0  0  0  0
   49.3128  157.4402   29.7063 H   0  0  0  0  0  0
   52.7807  153.8441   22.6629 H   0  0  0  0  0  0
   54.4307  154.4446   22.9577 H   0  0  0  0  0  0
   54.0324  152.7487   23.1501 H   0  0  0  0  0  0
  1  2  1  0  0  0
  1  4  1  0  0  0
  1 22  1  0  0  0
  1 23  1  0  0  0
  2  3  1  0  0  0
  2 19  1  0  0  0
  2 24  1  0  0  0
  3  6  1  0  0  0
  3 25  1  0  0  0
  3 26  1  0  0  0
  4  5  1  0  0  0
  4 12  2  0  0  0
  5  6  2  0  0  0
  5 10  1  0  0  0
  6  7  1  0  0  0
  7  8  2  0  0  0
  8  9  1  0  0  0
  8 11  1  0  0  0
  9 10  2  0  0  0
 10 27  1  0  0  0
 11 13  1  0  0  0
 11 28  1  0  0  0
 13 14  2  0  0  0
 13 18  1  0  0  0
 14 15  1  0  0  0
 14 29  1  0  0  0
 15 16  2  0  0  0
 15 30  1  0  0  0
 16 17  1  0  0  0
 16 20  1  0  0  0
 17 18  2  0  0  0
 17 31  1  0  0  0
 18 32  1  0  0  0
 19 33  1  0  0  0
 19 34  1  0  0  0
 19 35  1  0  0  0
 20 21  3  0  0  0
M  END
> <s_m_entry_id>
10027

> <s_m_entry_name>
dock_pv.63

> <s_m_Source_Path>
/home/csk/Desktop/cluster/DUD-E-result/aofb

> <s_m_Source_File>
dock_pv.maegz

> <i_m_Source_File_Index>
63

> <chembl_id>
CHEMBL2408569

> <chembl_pref_name>
None

> <i_lp_mmshare_version>
53161

> <i_f3d_flags>
0

> <r_lp_tautomer_probability>
0.99995

> <s_lp_Force_Field>
OPLS_2005

> <r_lp_Energy>
10.3729

> <b_lp_Chiralities_Consistent>
1

> <s_lp_Variant>
CHEMBL2039_lig994-1

> <s_i_glide_gridfile>
glide-grid_1s3b

> <i_i_glide_lignum>
1142

> <i_i_glide_rotatable_bonds>
2

> <r_i_docking_score>
-8.14886119577301

> <r_i_glide_ligand_efficiency>
-0.388041009322524

> <r_i_glide_ligand_efficiency_sa>
-1.07057572096078

> <r_i_glide_ligand_efficiency_ln>
-2.01478946433039

> <r_i_glide_gscore>
-8.14886119577301

> <r_i_glide_lipo>
-3.03814955890559

> <r_i_glide_hbond>
-0.280900083191619

> <r_i_glide_metal>
0

> <r_i_glide_rewards>
-3.63825387830865

> <r_i_glide_evdw>
-28.0869750976562

> <r_i_glide_ecoul>
-1.66619193553925

> <r_i_glide_erotb>
0.465396751540742

> <r_i_glide_esite>
-0.00267688169418593

> <r_i_glide_emodel>
-35.3665553538386

> <r_i_glide_energy>
-29.7531670331955

> <r_i_glide_einternal>
4.59281253814697

> <i_i_glide_confnum>
5

> <i_i_glide_posenum>
391

> <r_i_glide_eff_state_penalty>
0

> <s_user_duplicate_titles>
CHEMBL2039_lig994

> <s_m_subgroup_title>
dock_pv

> <s_m_subgroupid>
dock_pv

> <b_m_subgroup_collapsed>
1

$$$$
CHEMBL2039_lig79
                    3D
 Schrodinger Suite 2021-1.
 35 37  0  0  1  0            999 V2000
   47.3421  160.2274   32.1286 C   0  0  0  0  0  0
   48.1737  161.2548   32.5546 C   0  0  0  0  0  0
   49.5089  161.2704   32.1584 C   0  0  0  0  0  0
   50.0067  160.2623   31.3363 C   0  0  0  0  0  0
   49.1732  159.2097   30.9385 C   0  0  0  0  0  0
   47.8340  159.2097   31.3269 C   0  0  0  0  0  0
   49.6504  158.0616   30.1731 C   0  0  0  0  0  0
   50.8806  157.8777   29.6675 C   0  0  0  0  0  0
   51.2560  156.6893   28.9019 C   0  0  0  0  0  0
   50.6286  155.4533   29.0913 C   0  0  0  0  0  0
   50.8926  154.4082   28.2271 C   0  0  0  0  0  0
   51.7158  154.5976   27.1190 C   0  0  0  0  0  0
   52.3429  155.8363   26.9255 C   0  0  0  0  0  0
   52.1601  156.8545   27.8529 C   0  0  0  0  0  0
   52.0072  153.4506   26.2555 C   0  0  0  0  0  0
   51.6560  152.2440   26.5027 N   0  0  0  0  0  0
   52.0911  151.2300   25.7040 N   0  0  0  0  0  0
   53.1632  151.2121   24.9040 C   0  0  0  0  0  0
   53.6005  152.6600   24.5653 C   0  0  0  0  0  0
   52.7843  153.7097   25.1415 O   0  0  0  0  0  0
   53.6560  150.1631   24.5040 O   0  0  0  0  0  0
   46.0560  160.2004   32.5040 F   0  0  0  0  0  0
   47.7767  162.0324   33.1863 H   0  0  0  0  0  0
   50.1572  162.0666   32.4913 H   0  0  0  0  0  0
   51.0498  160.2915   31.0594 H   0  0  0  0  0  0
   47.1669  158.4127   31.0318 H   0  0  0  0  0  0
   48.9141  157.2855   30.0262 H   0  0  0  0  0  0
   51.6538  158.6195   29.8067 H   0  0  0  0  0  0
   49.9415  155.2856   29.9060 H   0  0  0  0  0  0
   50.4560  153.4438   28.4264 H   0  0  0  0  0  0
   53.0189  155.9949   26.0973 H   0  0  0  0  0  0
   52.6527  157.8046   27.6980 H   0  0  0  0  0  0
   51.7369  150.3219   25.9682 H   0  0  0  0  0  0
   53.6560  152.7662   23.4817 H   0  0  0  0  0  0
   54.6104  152.7872   24.9503 H   0  0  0  0  0  0
  1  2  2  0  0  0
  1  6  1  0  0  0
  1 22  1  0  0  0
  2  3  1  0  0  0
  2 23  1  0  0  0
  3  4  2  0  0  0
  3 24  1  0  0  0
  4  5  1  0  0  0
  4 25  1  0  0  0
  5  6  2  0  0  0
  5  7  1  0  0  0
  6 26  1  0  0  0
  7  8  2  0  0  0
  7 27  1  0  0  0
  8  9  1  0  0  0
  8 28  1  0  0  0
  9 10  2  0  0  0
  9 14  1  0  0  0
 10 11  1  0  0  0
 10 29  1  0  0  0
 11 12  2  0  0  0
 11 30  1  0  0  0
 12 13  1  0  0  0
 12 15  1  0  0  0
 13 14  2  0  0  0
 13 31  1  0  0  0
 14 32  1  0  0  0
 15 16  2  0  0  0
 15 20  1  0  0  0
 16 17  1  0  0  0
 17 18  1  0  0  0
 17 33  1  0  0  0
 18 19  1  0  0  0
 18 21  2  0  0  0
 19 20  1  0  0  0
 19 34  1  0  0  0
 19 35  1  0  0  0
M  END
> <s_m_entry_id>
10028

> <s_m_entry_name>
dock_pv.64

> <s_m_Source_Path>
/home/csk/Desktop/cluster/DUD-E-result/aofb

> <s_m_Source_File>
dock_pv.maegz

> <i_m_Source_File_Index>
64

> <chembl_id>
CHEMBL4104933

> <chembl_pref_name>
None

> <i_lp_mmshare_version>
53161

> <i_f3d_flags>
0

> <r_lp_tautomer_probability>
1

> <s_lp_Force_Field>
OPLS_2005

> <r_lp_Energy>
29.735954

> <b_lp_Chiralities_Consistent>
1

> <s_lp_Variant>
CHEMBL2039_lig79-1

> <s_i_glide_gridfile>
glide-grid_1s3b

> <i_i_glide_lignum>
102

> <i_i_glide_rotatable_bonds>
3

> <r_i_docking_score>
-8.13376011357261

> <r_i_glide_ligand_efficiency>
-0.369716368798755

> <r_i_glide_ligand_efficiency_sa>
-1.03595980549381

> <r_i_glide_ligand_efficiency_ln>
-1.98818765786594

> <r_i_glide_gscore>
-8.13376011357261

> <r_i_glide_lipo>
-3.6843254871656

> <r_i_glide_hbond>
0

> <r_i_glide_metal>
0

> <r_i_glide_rewards>
-3.32891722627375

> <r_i_glide_evdw>
-22.8075942993164

> <r_i_glide_ecoul>
-4.04061269760132

> <r_i_glide_erotb>
0.62595421947276

> <r_i_glide_esite>
0

> <r_i_glide_emodel>
-25.9301221370117

> <r_i_glide_energy>
-26.8482069969177

> <r_i_glide_einternal>
4.04711198806763

> <i_i_glide_confnum>
7

> <i_i_glide_posenum>
54

> <r_i_glide_eff_state_penalty>
0

> <s_user_duplicate_titles>
CHEMBL2039_lig79

> <s_m_subgroup_title>
dock_pv

> <s_m_subgroupid>
dock_pv

> <b_m_subgroup_collapsed>
1

$$$$
CHEMBL2039_lig1335
                    3D
 Schrodinger Suite 2021-1.
 41 44  0  0  1  0            999 V2000
   53.2547  156.6450   25.9155 O   0  0  0  0  0  0
   53.6397  155.8482   24.9041 C   0  0  0  0  0  0
   54.4461  156.3373   24.1096 O   0  0  0  0  0  0
   53.1284  154.4758   24.9476 C   0  0  0  0  0  0
   52.3614  154.0542   25.9870 C   0  0  0  0  0  0
   51.8957  155.0020   27.0251 C   0  0  0  0  0  0
   51.0576  154.7049   28.1026 C   0  0  0  0  0  0
   50.7262  155.7134   29.0081 C   0  0  0  0  0  0
   51.2557  157.0200   28.9040 C   0  0  0  0  0  0
   52.2228  157.2342   27.9358 C   0  0  0  0  0  0
   52.4551  156.2701   26.9622 C   0  0  0  0  0  0
   50.8581  158.1200   29.7037 N   0  0  0  0  0  0
   49.6597  158.2522   30.1063 C   0  0  0  0  0  0
   49.0917  159.2960   30.9780 C   0  0  0  0  0  0
   49.8082  160.3599   31.5670 C   0  0  0  0  0  0
   49.1827  161.1964   32.4926 C   0  0  0  0  0  0
   47.8350  161.0362   32.8008 C   0  0  0  0  0  0
   47.1015  160.0317   32.1830 C   0  0  0  0  0  0
   47.7275  159.1683   31.2884 C   0  0  0  0  0  0
   51.1318  160.6208   31.3043 O   0  0  0  0  0  0
   53.8724  153.5370   24.0367 C   0  0  0  0  0  0
   53.2566  152.1567   23.9734 C   0  0  0  0  0  0
   52.8442  151.6511   25.3271 C   0  0  0  0  0  0
   51.8888  152.6201   26.0802 C   0  0  0  0  0  0
   50.6197  153.7293   28.2283 H   0  0  0  0  0  0
   50.0174  155.4673   29.7848 H   0  0  0  0  0  0
   52.6813  158.2079   27.8552 H   0  0  0  0  0  0
   48.9177  157.5037   29.8316 H   0  0  0  0  0  0
   49.7460  161.9817   32.9627 H   0  0  0  0  0  0
   47.3550  161.6996   33.5041 H   0  0  0  0  0  0
   46.0510  159.9093   32.4083 H   0  0  0  0  0  0
   47.1253  158.3815   30.8549 H   0  0  0  0  0  0
   51.5103  161.2652   31.9108 H   0  0  0  0  0  0
   54.8572  153.4494   24.5027 H   0  0  0  0  0  0
   54.0406  153.9315   23.0358 H   0  0  0  0  0  0
   53.9953  151.4473   23.6212 H   0  0  0  0  0  0
   52.4563  152.1795   23.2470 H   0  0  0  0  0  0
   53.7439  151.5267   25.9330 H   0  0  0  0  0  0
   52.3886  150.6610   25.2517 H   0  0  0  0  0  0
   50.8689  152.6425   25.7084 H   0  0  0  0  0  0
   51.8017  152.2914   27.1168 H   0  0  0  0  0  0
  1  2  1  0  0  0
  1 11  1  0  0  0
  2  3  2  0  0  0
  2  4  1  0  0  0
  4  5  2  0  0  0
  4 21  1  0  0  0
  5  6  1  0  0  0
  5 24  1  0  0  0
  6  7  1  0  0  0
  6 11  2  0  0  0
  7  8  2  0  0  0
  7 25  1  0  0  0
  8  9  1  0  0  0
  8 26  1  0  0  0
  9 10  2  0  0  0
  9 12  1  0  0  0
 10 11  1  0  0  0
 10 27  1  0  0  0
 12 13  2  0  0  0
 13 14  1  0  0  0
 13 28  1  0  0  0
 14 15  1  0  0  0
 14 19  2  0  0  0
 15 16  2  0  0  0
 15 20  1  0  0  0
 16 17  1  0  0  0
 16 29  1  0  0  0
 17 18  2  0  0  0
 17 30  1  0  0  0
 18 19  1  0  0  0
 18 31  1  0  0  0
 19 32  1  0  0  0
 20 33  1  0  0  0
 21 22  1  0  0  0
 21 34  1  0  0  0
 21 35  1  0  0  0
 22 23  1  0  0  0
 22 36  1  0  0  0
 22 37  1  0  0  0
 23 24  1  0  0  0
 23 38  1  0  0  0
 23 39  1  0  0  0
 24 40  1  0  0  0
 24 41  1  0  0  0
M  END
> <s_m_entry_id>
10029

> <s_m_entry_name>
dock_pv.65

> <s_m_Source_Path>
/home/csk/Desktop/cluster/DUD-E-result/aofb

> <s_m_Source_File>
dock_pv.maegz

> <i_m_Source_File_Index>
65

> <chembl_id>
CHEMBL3394532

> <chembl_pref_name>
None

> <i_lp_mmshare_version>
53161

> <i_f3d_flags>
0

> <r_lp_tautomer_probability>
1

> <s_lp_Force_Field>
OPLS_2005

> <r_lp_Energy>
27.557932

> <b_lp_Chiralities_Consistent>
1

> <s_lp_Variant>
CHEMBL2039_lig1335-1

> <s_i_glide_gridfile>
glide-grid_1s3b

> <i_i_glide_lignum>
1556

> <i_i_glide_rotatable_bonds>
3

> <r_i_docking_score>
-8.12461447904628

> <r_i_glide_ligand_efficiency>
-0.338525603293595

> <r_i_glide_ligand_efficiency_sa>
-0.976476810742056

> <r_i_glide_ligand_efficiency_ln>
-1.94459305910132

> <r_i_glide_gscore>
-8.12461447904628

> <r_i_glide_lipo>
-4.76229796736742

> <r_i_glide_hbond>
-0.106995691102246

> <r_i_glide_metal>
0

> <r_i_glide_rewards>
-2.50884204598005

> <r_i_glide_evdw>
-17.8132762908936

> <r_i_glide_ecoul>
-1.477991938591

> <r_i_glide_erotb>
0.365883830736763

> <r_i_glide_esite>
0

> <r_i_glide_emodel>
-28.2236286722486

> <r_i_glide_energy>
-19.2912682294846

> <r_i_glide_einternal>
1.03065717220306

> <i_i_glide_confnum>
4

> <i_i_glide_posenum>
107

> <r_i_glide_eff_state_penalty>
0

> <s_user_duplicate_titles>
CHEMBL2039_lig1335

> <s_m_subgroup_title>
dock_pv

> <s_m_subgroupid>
dock_pv

> <b_m_subgroup_collapsed>
1

$$$$
CHEMBL2039_lig649
                    3D
 Schrodinger Suite 2021-1.
 34 36  0  0  1  0            999 V2000
   50.8835  158.5946   29.6875 C   0  0  0  0  0  0
   51.6543  159.6962   30.1039 C   0  0  0  0  0  0
   51.1064  160.6441   30.9719 C   0  0  0  0  0  0
   49.5627  158.5026   30.1040 C   0  0  0  0  0  0
   48.9954  159.4469   30.9525 C   0  0  0  0  0  0
   49.7874  160.5101   31.4007 C   0  0  0  0  0  0
   49.3025  161.4439   32.2902 O   0  0  0  0  0  0
   48.0044  161.3414   32.6689 C   0  0  0  0  0  0
   47.1595  160.3689   32.2865 C   0  0  0  0  0  0
   47.5801  159.3192   31.3848 C   0  0  0  0  0  0
   46.8561  158.4103   30.9942 O   0  0  0  0  0  0
   51.2854  157.5335   28.9043 O   0  0  0  0  0  0
   52.6302  157.3376   28.4996 C   0  0  0  0  0  0
   52.5977  156.7777   27.0649 C   0  0  0  0  0  0
   52.0614  155.3634   26.8528 C   0  0  0  0  0  0
   51.6139  154.5638   27.9107 C   0  0  0  0  0  0
   51.4076  153.2035   27.7057 C   0  0  0  0  0  0
   51.6558  152.6448   26.4555 C   0  0  0  0  0  0
   52.0496  153.4439   25.3855 C   0  0  0  0  0  0
   52.2315  154.8072   25.5811 C   0  0  0  0  0  0
   52.6839  159.8110   29.8064 H   0  0  0  0  0  0
   51.7025  161.4685   31.3358 H   0  0  0  0  0  0
   48.9853  157.6470   29.7882 H   0  0  0  0  0  0
   47.7065  162.1568   33.3038 H   0  0  0  0  0  0
   46.1385  160.3800   32.6342 H   0  0  0  0  0  0
   53.1380  156.6439   29.1698 H   0  0  0  0  0  0
   53.2209  158.2449   28.5008 H   0  0  0  0  0  0
   53.6226  156.7852   26.6967 H   0  0  0  0  0  0
   52.0560  157.4440   26.4083 H   0  0  0  0  0  0
   51.4857  154.9641   28.9049 H   0  0  0  0  0  0
   51.0900  152.5743   28.5229 H   0  0  0  0  0  0
   51.5207  151.5828   26.3116 H   0  0  0  0  0  0
   52.2291  153.0081   24.4136 H   0  0  0  0  0  0
   52.5909  155.4150   24.7636 H   0  0  0  0  0  0
  1 12  1  0  0  0
  1  2  2  0  0  0
  1  4  1  0  0  0
  2  3  1  0  0  0
  2 21  1  0  0  0
  3  6  2  0  0  0
  3 22  1  0  0  0
  4  5  2  0  0  0
  4 23  1  0  0  0
  5  6  1  0  0  0
  5 10  1  0  0  0
  6  7  1  0  0  0
  7  8  1  0  0  0
  8  9  2  0  0  0
  8 24  1  0  0  0
  9 10  1  0  0  0
  9 25  1  0  0  0
 10 11  2  0  0  0
 12 13  1  0  0  0
 13 14  1  0  0  0
 13 26  1  0  0  0
 13 27  1  0  0  0
 14 15  1  0  0  0
 14 28  1  0  0  0
 14 29  1  0  0  0
 15 16  2  0  0  0
 15 20  1  0  0  0
 16 17  1  0  0  0
 16 30  1  0  0  0
 17 18  2  0  0  0
 17 31  1  0  0  0
 18 19  1  0  0  0
 18 32  1  0  0  0
 19 20  2  0  0  0
 19 33  1  0  0  0
 20 34  1  0  0  0
M  END
> <s_m_entry_id>
10030

> <s_m_entry_name>
dock_pv.66

> <s_m_Source_Path>
/home/csk/Desktop/cluster/DUD-E-result/aofb

> <s_m_Source_File>
dock_pv.maegz

> <i_m_Source_File_Index>
66

> <chembl_id>
CHEMBL1945150

> <chembl_pref_name>
None

> <i_lp_mmshare_version>
53161

> <i_f3d_flags>
0

> <r_lp_tautomer_probability>
1

> <s_lp_Force_Field>
OPLS_2005

> <r_lp_Energy>
13.352845

> <b_lp_Chiralities_Consistent>
1

> <s_lp_Variant>
CHEMBL2039_lig649-1

> <s_i_glide_gridfile>
glide-grid_1s3b

> <i_i_glide_lignum>
758

> <i_i_glide_rotatable_bonds>
4

> <r_i_docking_score>
-8.1204967829366

> <r_i_glide_ligand_efficiency>
-0.40602483914683

> <r_i_glide_ligand_efficiency_sa>
-1.10212097505472

> <r_i_glide_ligand_efficiency_ln>
-2.03229251285994

> <r_i_glide_gscore>
-8.1204967829366

> <r_i_glide_lipo>
-4.16513151773728

> <r_i_glide_hbond>
0

> <r_i_glide_metal>
0

> <r_i_glide_rewards>
-2.49296296720002

> <r_i_glide_evdw>
-35.6449851989746

> <r_i_glide_ecoul>
-1.21673476696014

> <r_i_glide_erotb>
0.502357176993454

> <r_i_glide_esite>
0

> <r_i_glide_emodel>
-49.8216724676514

> <r_i_glide_energy>
-36.8617199659348

> <r_i_glide_einternal>
2.06710267066956

> <i_i_glide_confnum>
2

> <i_i_glide_posenum>
56

> <r_i_glide_eff_state_penalty>
0

> <s_user_duplicate_titles>
CHEMBL2039_lig649

> <s_m_subgroup_title>
dock_pv

> <s_m_subgroupid>
dock_pv

> <b_m_subgroup_collapsed>
1

$$$$
CHEMBL2039_lig64
                    3D
 Schrodinger Suite 2021-1.
 39 41  0  0  1  0            999 V2000
   51.1100  153.4440   27.5015 O   0  0  0  0  0  0
   51.6121  152.6535   26.4818 C   0  0  0  0  0  0
   51.2560  151.4774   26.5040 O   0  0  0  0  0  0
   52.4368  153.3121   25.4429 C   0  0  0  0  0  0
   52.7145  154.6345   25.5200 C   0  0  0  0  0  0
   52.2777  155.4146   26.6990 C   0  0  0  0  0  0
   52.7512  156.6898   26.9966 C   0  0  0  0  0  0
   52.2720  157.3786   28.1040 C   0  0  0  0  0  0
   51.2560  156.8270   28.8866 C   0  0  0  0  0  0
   50.9137  155.4824   28.7100 C   0  0  0  0  0  0
   51.4545  154.7751   27.6342 C   0  0  0  0  0  0
   53.5967  155.3444   24.5040 C   0  0  0  0  0  0
   52.9860  152.3838   24.3604 C   0  0  0  0  0  0
   50.4560  157.6267   29.7040 N   0  0  0  0  0  0
   50.4592  159.0874   29.6370 C   0  0  0  0  0  0
   49.4310  159.6645   30.6089 C   0  0  0  0  0  0
   49.8032  160.5858   31.6027 C   0  0  0  0  0  0
   48.8560  161.0440   32.5188 C   0  0  0  0  0  0
   47.5304  160.6239   32.4325 C   0  0  0  0  0  0
   47.1428  159.7461   31.4221 C   0  0  0  0  0  0
   48.0882  159.2693   30.5145 C   0  0  0  0  0  0
   51.0924  161.0440   31.7040 O   0  0  0  0  0  0
   53.4834  157.1711   26.3716 H   0  0  0  0  0  0
   52.6126  158.3845   28.2757 H   0  0  0  0  0  0
   50.1821  155.0101   29.3480 H   0  0  0  0  0  0
   53.8303  154.7030   23.6580 H   0  0  0  0  0  0
   53.0884  156.2345   24.1363 H   0  0  0  0  0  0
   54.5570  155.6494   24.9040 H   0  0  0  0  0  0
   52.5219  152.6126   23.4015 H   0  0  0  0  0  0
   54.0560  152.5425   24.2577 H   0  0  0  0  0  0
   52.8560  151.3195   24.5627 H   0  0  0  0  0  0
   49.6349  157.1998   30.1040 H   0  0  0  0  0  0
   50.2148  159.4172   28.6259 H   0  0  0  0  0  0
   51.4616  159.4586   29.8543 H   0  0  0  0  0  0
   49.1450  161.7341   33.2973 H   0  0  0  0  0  0
   46.8020  160.9873   33.1424 H   0  0  0  0  0  0
   46.1116  159.4317   31.3462 H   0  0  0  0  0  0
   47.7759  158.5830   29.7405 H   0  0  0  0  0  0
   51.2591  161.6045   32.4740 H   0  0  0  0  0  0
  1  2  1  0  0  0
  1 11  1  0  0  0
  2  3  2  0  0  0
  2  4  1  0  0  0
  4  5  2  0  0  0
  4 13  1  0  0  0
  5  6  1  0  0  0
  5 12  1  0  0  0
  6  7  1  0  0  0
  6 11  2  0  0  0
  7  8  2  0  0  0
  7 23  1  0  0  0
  8  9  1  0  0  0
  8 24  1  0  0  0
  9 10  2  0  0  0
  9 14  1  0  0  0
 10 11  1  0  0  0
 10 25  1  0  0  0
 12 26  1  0  0  0
 12 27  1  0  0  0
 12 28  1  0  0  0
 13 29  1  0  0  0
 13 30  1  0  0  0
 13 31  1  0  0  0
 14 15  1  0  0  0
 14 32  1  0  0  0
 15 16  1  0  0  0
 15 33  1  0  0  0
 15 34  1  0  0  0
 16 17  1  0  0  0
 16 21  2  0  0  0
 17 18  2  0  0  0
 17 22  1  0  0  0
 18 19  1  0  0  0
 18 35  1  0  0  0
 19 20  2  0  0  0
 19 36  1  0  0  0
 20 21  1  0  0  0
 20 37  1  0  0  0
 21 38  1  0  0  0
 22 39  1  0  0  0
M  END
> <s_m_entry_id>
10031

> <s_m_entry_name>
dock_pv.67

> <s_m_Source_Path>
/home/csk/Desktop/cluster/DUD-E-result/aofb

> <s_m_Source_File>
dock_pv.maegz

> <i_m_Source_File_Index>
67

> <chembl_id>
CHEMBL3394541

> <chembl_pref_name>
None

> <i_lp_mmshare_version>
53161

> <i_f3d_flags>
0

> <r_lp_tautomer_probability>
0.999999999997365

> <s_lp_Force_Field>
OPLS_2005

> <r_lp_Energy>
21.394512

> <b_lp_Chiralities_Consistent>
1

> <s_lp_Variant>
CHEMBL2039_lig64-1

> <s_i_glide_gridfile>
glide-grid_1s3b

> <i_i_glide_lignum>
87

> <i_i_glide_rotatable_bonds>
4

> <r_i_docking_score>
-8.11861215088939

> <r_i_glide_ligand_efficiency>
-0.369027825040427

> <r_i_glide_ligand_efficiency_sa>
-1.03403047880408

> <r_i_glide_ligand_efficiency_ln>
-1.9844849432508

> <r_i_glide_gscore>
-8.11861215088939

> <r_i_glide_lipo>
-4.53551970135716

> <r_i_glide_hbond>
-0.32

> <r_i_glide_metal>
0

> <r_i_glide_rewards>
-2.14620928285385

> <r_i_glide_evdw>
-26.8177471160889

> <r_i_glide_ecoul>
-2.70347833633423

> <r_i_glide_erotb>
0.629525939576193

> <r_i_glide_esite>
0

> <r_i_glide_emodel>
-36.549235746474

> <r_i_glide_energy>
-29.5212254524231

> <r_i_glide_einternal>
4.36838293075562

> <i_i_glide_confnum>
2

> <i_i_glide_posenum>
37

> <r_i_glide_eff_state_penalty>
0

> <s_user_duplicate_titles>
CHEMBL2039_lig64

> <s_m_subgroup_title>
dock_pv

> <s_m_subgroupid>
dock_pv

> <b_m_subgroup_collapsed>
1

$$$$
CHEMBL2039_lig2323 
                    3D
 Schrodinger Suite 2021-1.
 36 39  0  0  1  0            999 V2000
   53.2548  151.6354   24.8984 C   0  0  0  0  0  0
   52.6047  152.2724   26.0184 N   0  0  0  0  0  0
   52.4128  153.4953   25.7040 C   0  0  0  0  0  0
   52.7135  153.7911   24.3938 N   0  0  0  0  0  0
   53.1583  152.6071   23.7283 C   0  0  0  0  0  0
   51.9896  154.5617   26.6320 C   0  0  0  0  0  0
   51.2558  154.3154   27.8008 C   0  0  0  0  0  0
   51.0417  155.3520   28.7152 C   0  0  0  0  0  0
   51.6150  156.6161   28.5035 C   0  0  0  0  0  0
   52.4101  156.8297   27.3822 C   0  0  0  0  0  0
   52.4922  155.8483   26.4070 C   0  0  0  0  0  0
   51.2162  157.8175   29.3045 C   0  0  0  0  0  0
   50.0600  158.0219   29.8684 N   0  0  0  0  0  0
   50.1236  159.2842   30.2311 C   0  0  0  0  0  0
   51.2558  159.8976   29.9587 N   0  0  0  0  0  0
   51.9987  158.9223   29.3037 O   0  0  0  0  0  0
   49.0639  159.8995   31.0803 C   0  0  0  0  0  0
   47.6906  159.6048   30.9766 C   0  0  0  0  0  0
   46.8000  160.1020   31.9241 C   0  0  0  0  0  0
   47.2584  160.8979   32.9691 C   0  0  0  0  0  0
   48.6021  161.2269   33.0535 C   0  0  0  0  0  0
   49.4945  160.7523   32.1035 C   0  0  0  0  0  0
   47.0365  158.6439   29.7001 Cl  0  0  0  0  0  0
   54.2892  151.4514   25.1954 H   0  0  0  0  0  0
   52.7589  150.6868   24.6885 H   0  0  0  0  0  0
   52.1746  154.3452   23.7442 H   0  0  0  0  0  0
   52.4560  152.2274   22.9949 H   0  0  0  0  0  0
   54.0599  152.7719   23.1633 H   0  0  0  0  0  0
   50.8596  153.3309   28.0071 H   0  0  0  0  0  0
   50.4194  155.1744   29.5802 H   0  0  0  0  0  0
   52.8634  157.7954   27.2146 H   0  0  0  0  0  0
   53.0893  156.0690   25.5335 H   0  0  0  0  0  0
   45.7471  159.8671   31.8511 H   0  0  0  0  0  0
   46.5632  161.2740   33.7020 H   0  0  0  0  0  0
   48.9600  161.8395   33.8629 H   0  0  0  0  0  0
   50.5396  161.0107   32.2112 H   0  0  0  0  0  0
  1  2  1  0  0  0
  1  5  1  0  0  0
  1 24  1  0  0  0
  1 25  1  0  0  0
  2  3  2  0  0  0
  3  4  1  0  0  0
  3  6  1  0  0  0
  4  5  1  0  0  0
  4 26  1  0  0  0
  5 27  1  0  0  0
  5 28  1  0  0  0
  6  7  2  0  0  0
  6 11  1  0  0  0
  7  8  1  0  0  0
  7 29  1  0  0  0
  8  9  2  0  0  0
  8 30  1  0  0  0
  9 10  1  0  0  0
  9 12  1  0  0  0
 10 11  2  0  0  0
 10 31  1  0  0  0
 11 32  1  0  0  0
 12 13  2  0  0  0
 12 16  1  0  0  0
 13 14  1  0  0  0
 14 15  2  0  0  0
 14 17  1  0  0  0
 15 16  1  0  0  0
 17 18  2  0  0  0
 17 22  1  0  0  0
 18 19  1  0  0  0
 18 23  1  0  0  0
 19 20  2  0  0  0
 19 33  1  0  0  0
 20 21  1  0  0  0
 20 34  1  0  0  0
 21 22  2  0  0  0
 21 35  1  0  0  0
 22 36  1  0  0  0
M  END
> <s_m_entry_id>
10032

> <s_m_entry_name>
dock_pv.68

> <s_m_Source_Path>
/home/csk/Desktop/cluster/DUD-E-result/aofb

> <s_m_Source_File>
dock_pv.maegz

> <i_m_Source_File_Index>
68

> <chembl_id>
CHEMBL4527539

> <chembl_pref_name>
None

> <i_lp_mmshare_version>
53161

> <i_f3d_flags>
0

> <r_lp_tautomer_probability>
0.499999999998415

> <s_lp_Force_Field>
OPLS_2005

> <r_lp_Energy>
32.204222

> <b_lp_Chiralities_Consistent>
1

> <s_lp_Variant>
CHEMBL2039_lig2323 -1

> <s_i_glide_gridfile>
glide-grid_1s3b

> <i_i_glide_lignum>
2700

> <i_i_glide_rotatable_bonds>
3

> <r_i_docking_score>
-8.11731658420308

> <r_i_glide_ligand_efficiency>
-0.352926808008829

> <r_i_glide_ligand_efficiency_sa>
-1.00367689455172

> <r_i_glide_ligand_efficiency_ln>
-1.96284075381769

> <r_i_glide_gscore>
-8.11731658420308

> <r_i_glide_lipo>
-4.33607899276062

> <r_i_glide_hbond>
-0.00912075089719633

> <r_i_glide_metal>
0

> <r_i_glide_rewards>
-2.66964806919625

> <r_i_glide_evdw>
-31.1948585510254

> <r_i_glide_ecoul>
-0.299974203109741

> <r_i_glide_erotb>
0.532809191416699

> <r_i_glide_esite>
-0.0305389047479817

> <r_i_glide_emodel>
-33.5219612261707

> <r_i_glide_energy>
-31.4948327541351

> <r_i_glide_einternal>
1.02830219268799

> <i_i_glide_confnum>
14

> <i_i_glide_posenum>
56

> <r_i_glide_eff_state_penalty>
0

> <s_user_duplicate_titles>
CHEMBL2039_lig2323 

> <s_m_subgroup_title>
dock_pv

> <s_m_subgroupid>
dock_pv

> <b_m_subgroup_collapsed>
1

$$$$
CHEMBL2039_lig1639
                    3D
 Schrodinger Suite 2021-1.
 34 35  0  0  1  0            999 V2000
   47.7689  160.3028   32.1773 C   0  0  0  0  0  0
   46.5304  159.5754   31.6553 C   0  0  0  0  0  0
   49.0452  160.1359   31.4174 C   0  0  0  0  0  0
   49.2561  159.0419   30.5641 C   0  0  0  0  0  0
   50.4891  158.8342   29.9420 C   0  0  0  0  0  0
   51.5005  159.7914   30.1041 C   0  0  0  0  0  0
   51.3062  160.8844   30.9436 C   0  0  0  0  0  0
   50.0951  161.0421   31.6153 C   0  0  0  0  0  0
   50.6573  157.6205   29.3041 O   0  0  0  0  0  0
   51.8667  157.3153   28.6100 C   0  0  0  0  0  0
   51.7375  155.9662   27.9007 C   0  0  0  0  0  0
   52.0750  155.8466   26.5470 C   0  0  0  0  0  0
   52.0096  154.6103   25.8980 C   0  0  0  0  0  0
   51.6077  153.4788   26.6097 C   0  0  0  0  0  0
   51.2562  153.5920   27.9530 C   0  0  0  0  0  0
   51.2995  154.8321   28.5906 C   0  0  0  0  0  0
   52.3863  154.5024   24.4353 C   0  0  0  0  0  0
   47.6474  161.0467   33.1513 O   0  0  0  0  0  0
   46.6718  158.4968   31.7045 H   0  0  0  0  0  0
   46.3526  159.8425   30.6137 H   0  0  0  0  0  0
   45.6485  159.8432   32.2364 H   0  0  0  0  0  0
   48.4976  158.2854   30.4279 H   0  0  0  0  0  0
   52.4696  159.6505   29.6529 H   0  0  0  0  0  0
   52.1067  161.5909   31.1096 H   0  0  0  0  0  0
   49.9865  161.8770   32.2936 H   0  0  0  0  0  0
   52.0903  158.1009   27.8872 H   0  0  0  0  0  0
   52.7031  157.2540   29.3035 H   0  0  0  0  0  0
   52.4062  156.7158   25.9978 H   0  0  0  0  0  0
   51.5626  152.5134   26.1270 H   0  0  0  0  0  0
   50.9432  152.7166   28.5024 H   0  0  0  0  0  0
   51.0278  154.9010   29.6342 H   0  0  0  0  0  0
   52.4370  153.4672   24.0955 H   0  0  0  0  0  0
   51.6590  155.0408   23.8261 H   0  0  0  0  0  0
   53.3653  154.9528   24.2685 H   0  0  0  0  0  0
  1  2  1  0  0  0
  1  3  1  0  0  0
  1 18  2  0  0  0
  2 19  1  0  0  0
  2 20  1  0  0  0
  2 21  1  0  0  0
  3  4  1  0  0  0
  3  8  2  0  0  0
  4  5  2  0  0  0
  4 22  1  0  0  0
  5  6  1  0  0  0
  5  9  1  0  0  0
  6  7  2  0  0  0
  6 23  1  0  0  0
  7  8  1  0  0  0
  7 24  1  0  0  0
  8 25  1  0  0  0
  9 10  1  0  0  0
 10 11  1  0  0  0
 10 26  1  0  0  0
 10 27  1  0  0  0
 11 12  1  0  0  0
 11 16  2  0  0  0
 12 13  2  0  0  0
 12 28  1  0  0  0
 13 14  1  0  0  0
 13 17  1  0  0  0
 14 15  2  0  0  0
 14 29  1  0  0  0
 15 16  1  0  0  0
 15 30  1  0  0  0
 16 31  1  0  0  0
 17 32  1  0  0  0
 17 33  1  0  0  0
 17 34  1  0  0  0
M  END
> <s_m_entry_id>
10033

> <s_m_entry_name>
dock_pv.69

> <s_m_Source_Path>
/home/csk/Desktop/cluster/DUD-E-result/aofb

> <s_m_Source_File>
dock_pv.maegz

> <i_m_Source_File_Index>
69

> <chembl_id>
CHEMBL3769472

> <chembl_pref_name>
None

> <i_lp_mmshare_version>
53161

> <i_f3d_flags>
0

> <r_lp_tautomer_probability>
0.99995

> <s_lp_Force_Field>
OPLS_2005

> <r_lp_Energy>
21.412627

> <b_lp_Chiralities_Consistent>
1

> <s_lp_Variant>
CHEMBL2039_lig1639-1

> <s_i_glide_gridfile>
glide-grid_1s3b

> <i_i_glide_lignum>
1907

> <i_i_glide_rotatable_bonds>
4

> <r_i_docking_score>
-8.10822185560038

> <r_i_glide_ligand_efficiency>
-0.450456769755577

> <r_i_glide_ligand_efficiency_sa>
-1.18053070166268

> <r_i_glide_ligand_efficiency_ln>
-2.08417661863378

> <r_i_glide_gscore>
-8.10822185560038

> <r_i_glide_lipo>
-3.99512961798471

> <r_i_glide_hbond>
0

> <r_i_glide_metal>
0

> <r_i_glide_rewards>
-3.12038195259446

> <r_i_glide_evdw>
-34.1145439147949

> <r_i_glide_ecoul>
-1.23879790306091

> <r_i_glide_erotb>
0.898836596177675

> <r_i_glide_esite>
0

> <r_i_glide_emodel>
-47.397907051339

> <r_i_glide_energy>
-35.3533418178558

> <r_i_glide_einternal>
5.01421976089478

> <i_i_glide_confnum>
32

> <i_i_glide_posenum>
180

> <r_i_glide_eff_state_penalty>
0

> <s_user_duplicate_titles>
CHEMBL2039_lig1639

> <s_m_subgroup_title>
dock_pv

> <s_m_subgroupid>
dock_pv

> <b_m_subgroup_collapsed>
1

$$$$
CHEMBL2039_lig1562
                    3D
 Schrodinger Suite 2021-1.
 31 32  0  0  1  0            999 V2000
   51.7000  155.5700   27.8402 C   0  0  0  0  0  0
   51.9529  156.8699   28.5037 C   0  0  0  0  0  0
   50.8737  157.4539   29.3044 C   0  0  0  0  0  0
   52.9621  157.5092   28.2157 O   0  0  0  0  0  0
   50.8863  158.7442   29.7034 C   0  0  0  0  0  0
   49.8281  159.4303   30.4705 C   0  0  0  0  0  0
   50.2058  160.4311   31.3689 C   0  0  0  0  0  0
   49.2567  161.0470   32.1819 C   0  0  0  0  0  0
   47.9089  160.7259   32.0559 C   0  0  0  0  0  0
   47.5121  159.7644   31.1303 C   0  0  0  0  0  0
   48.4703  159.0876   30.3724 C   0  0  0  0  0  0
   45.8330  159.4365   30.9090 Cl  0  0  0  0  0  0
   51.2554  154.4508   28.5473 C   0  0  0  0  0  0
   51.2578  153.2021   27.9265 C   0  0  0  0  0  0
   51.7195  153.1028   26.6151 C   0  0  0  0  0  0
   52.0561  154.1962   25.8761 N   0  0  0  0  0  0
   52.0560  155.4000   26.4967 C   0  0  0  0  0  0
   51.9514  151.8440   26.1038 O   0  0  0  0  0  0
   52.8564  151.7020   25.0081 C   0  0  0  0  0  0
   50.0502  156.8032   29.5560 H   0  0  0  0  0  0
   51.7317  159.3667   29.4358 H   0  0  0  0  0  0
   51.2455  160.7053   31.4790 H   0  0  0  0  0  0
   49.5726  161.7944   32.8949 H   0  0  0  0  0  0
   47.1762  161.2294   32.6675 H   0  0  0  0  0  0
   48.1463  158.3080   29.7029 H   0  0  0  0  0  0
   50.9848  154.5172   29.5917 H   0  0  0  0  0  0
   50.9976  152.3155   28.4860 H   0  0  0  0  0  0
   52.4176  156.2309   25.9056 H   0  0  0  0  0  0
   52.9188  150.6502   24.7288 H   0  0  0  0  0  0
   52.5337  152.2610   24.1276 H   0  0  0  0  0  0
   53.8589  152.0382   25.2823 H   0  0  0  0  0  0
  1  2  1  0  0  0
  1 13  2  0  0  0
  1 17  1  0  0  0
  2  3  1  0  0  0
  2  4  2  0  0  0
  3  5  2  0  0  0
  3 20  1  0  0  0
  5  6  1  0  0  0
  5 21  1  0  0  0
  6  7  2  0  0  0
  6 11  1  0  0  0
  7  8  1  0  0  0
  7 22  1  0  0  0
  8  9  2  0  0  0
  8 23  1  0  0  0
  9 10  1  0  0  0
  9 24  1  0  0  0
 10 11  2  0  0  0
 10 12  1  0  0  0
 11 25  1  0  0  0
 13 14  1  0  0  0
 13 26  1  0  0  0
 14 15  2  0  0  0
 14 27  1  0  0  0
 15 16  1  0  0  0
 15 18  1  0  0  0
 16 17  2  0  0  0
 17 28  1  0  0  0
 18 19  1  0  0  0
 19 29  1  0  0  0
 19 30  1  0  0  0
 19 31  1  0  0  0
M  END
> <s_m_entry_id>
10034

> <s_m_entry_name>
dock_pv.70

> <s_m_Source_Path>
/home/csk/Desktop/cluster/DUD-E-result/aofb

> <s_m_Source_File>
dock_pv.maegz

> <i_m_Source_File_Index>
70

> <chembl_id>
CHEMBL3735467

> <chembl_pref_name>
None

> <i_lp_mmshare_version>
53161

> <i_f3d_flags>
0

> <r_lp_tautomer_probability>
1

> <s_lp_Force_Field>
OPLS_2005

> <r_lp_Energy>
12.541449

> <b_lp_Chiralities_Consistent>
1

> <s_lp_Variant>
CHEMBL2039_lig1562-1

> <s_i_glide_gridfile>
glide-grid_1s3b

> <i_i_glide_lignum>
1823

> <i_i_glide_rotatable_bonds>
4

> <r_i_docking_score>
-8.10263481585441

> <r_i_glide_ligand_efficiency>
-0.426454463992337

> <r_i_glide_ligand_efficiency_sa>
-1.13795179370511

> <r_i_glide_ligand_efficiency_ln>
-2.05419195445805

> <r_i_glide_gscore>
-8.10263481585441

> <r_i_glide_lipo>
-4.19166693429308

> <r_i_glide_hbond>
0

> <r_i_glide_metal>
0

> <r_i_glide_rewards>
-2.64225503117061

> <r_i_glide_evdw>
-38.8425521850586

> <r_i_glide_ecoul>
1.2959201335907

> <r_i_glide_erotb>
0.479026738823605

> <r_i_glide_esite>
0

> <r_i_glide_emodel>
-47.5796011634255

> <r_i_glide_energy>
-37.5466320514679

> <r_i_glide_einternal>
8.67348575592041

> <i_i_glide_confnum>
2

> <i_i_glide_posenum>
94

> <r_i_glide_eff_state_penalty>
0

> <s_user_duplicate_titles>
CHEMBL2039_lig1562

> <s_m_subgroup_title>
dock_pv

> <s_m_subgroupid>
dock_pv

> <b_m_subgroup_collapsed>
1

$$$$
CHEMBL2039_lig898
                    3D
 Schrodinger Suite 2021-1.
 35 37  0  0  1  0            999 V2000
   52.8378  152.8150   25.0631 N   0  0  0  0  0  0
   53.4907  153.7954   24.3478 C   0  0  0  0  0  0
   53.4837  155.1115   24.6228 C   0  0  0  0  0  0
   51.9615  153.0985   26.1040 C   0  0  0  0  0  0
   51.2562  152.2468   26.6433 O   0  0  0  0  0  0
   52.0560  154.5108   26.5026 C   0  0  0  0  0  0
   52.7493  155.5028   25.8031 C   0  0  0  0  0  0
   52.7773  156.6440   26.4448 N   0  0  0  0  0  0
   52.1065  156.4561   27.5564 C   0  0  0  0  0  0
   51.6290  155.1517   27.6529 N   0  0  0  0  0  0
   50.9298  154.5389   28.7733 C   0  0  0  0  0  0
   51.8485  157.5447   28.5040 C   0  0  0  0  0  0
   50.7818  157.7299   29.3040 C   0  0  0  0  0  0
   50.4508  158.9263   30.1040 C   0  0  0  0  0  0
   51.3956  159.9143   30.4084 C   0  0  0  0  0  0
   51.0575  160.9621   31.2586 C   0  0  0  0  0  0
   49.7660  161.0440   31.7729 C   0  0  0  0  0  0
   48.8021  160.1009   31.4321 C   0  0  0  0  0  0
   49.1460  159.0440   30.5960 C   0  0  0  0  0  0
   53.0589  151.4003   24.7324 C   0  0  0  0  0  0
   54.0195  153.3921   23.4947 H   0  0  0  0  0  0
   54.0560  155.8209   24.0464 H   0  0  0  0  0  0
   51.1836  153.4822   28.8506 H   0  0  0  0  0  0
   51.2192  155.0181   29.7040 H   0  0  0  0  0  0
   49.8577  154.6440   28.6152 H   0  0  0  0  0  0
   52.6012  158.3166   28.4588 H   0  0  0  0  0  0
   50.0560  156.9375   29.3481 H   0  0  0  0  0  0
   52.4111  159.8440   30.0476 H   0  0  0  0  0  0
   51.7973  161.6998   31.5346 H   0  0  0  0  0  0
   49.5131  161.8483   32.4470 H   0  0  0  0  0  0
   47.8008  160.1775   31.8297 H   0  0  0  0  0  0
   48.3989  158.3000   30.3595 H   0  0  0  0  0  0
   52.8564  151.2279   23.6749 H   0  0  0  0  0  0
   54.1020  151.1440   24.9148 H   0  0  0  0  0  0
   52.4482  150.6994   25.3038 H   0  0  0  0  0  0
  1  2  1  0  0  0
  1  4  1  0  0  0
  1 20  1  0  0  0
  2  3  2  0  0  0
  2 21  1  0  0  0
  3  7  1  0  0  0
  3 22  1  0  0  0
  4  6  1  0  0  0
  4  5  2  0  0  0
  6  7  2  0  0  0
  6 10  1  0  0  0
  7  8  1  0  0  0
  8  9  2  0  0  0
  9 10  1  0  0  0
  9 12  1  0  0  0
 10 11  1  0  0  0
 11 23  1  0  0  0
 11 24  1  0  0  0
 11 25  1  0  0  0
 12 13  2  0  0  0
 12 26  1  0  0  0
 13 14  1  0  0  0
 13 27  1  0  0  0
 14 15  2  0  0  0
 14 19  1  0  0  0
 15 16  1  0  0  0
 15 28  1  0  0  0
 16 17  2  0  0  0
 16 29  1  0  0  0
 17 18  1  0  0  0
 17 30  1  0  0  0
 18 19  2  0  0  0
 18 31  1  0  0  0
 19 32  1  0  0  0
 20 33  1  0  0  0
 20 34  1  0  0  0
 20 35  1  0  0  0
M  END
> <s_m_entry_id>
10035

> <s_m_entry_name>
dock_pv.71

> <s_m_Source_Path>
/home/csk/Desktop/cluster/DUD-E-result/aofb

> <s_m_Source_File>
dock_pv.maegz

> <i_m_Source_File_Index>
71

> <chembl_id>
CHEMBL2313287

> <chembl_pref_name>
None

> <i_lp_mmshare_version>
53161

> <i_f3d_flags>
0

> <r_lp_tautomer_probability>
1

> <s_lp_Force_Field>
OPLS_2005

> <r_lp_Energy>
28.686882

> <b_lp_Chiralities_Consistent>
1

> <s_lp_Variant>
CHEMBL2039_lig898-1

> <s_i_glide_gridfile>
glide-grid_1s3b

> <i_i_glide_lignum>
1031

> <i_i_glide_rotatable_bonds>
2

> <r_i_docking_score>
-8.09832068949933

> <r_i_glide_ligand_efficiency>
-0.404916034474967

> <r_i_glide_ligand_efficiency_sa>
-1.09911121612305

> <r_i_glide_ligand_efficiency_ln>
-2.02674256808911

> <r_i_glide_gscore>
-8.09832068949933

> <r_i_glide_lipo>
-3.27404332813838

> <r_i_glide_hbond>
0

> <r_i_glide_metal>
0

> <r_i_glide_rewards>
-3.63160270072681

> <r_i_glide_evdw>
-32.2155876159668

> <r_i_glide_ecoul>
-0.583103179931641

> <r_i_glide_erotb>
0.505570197153944

> <r_i_glide_esite>
0

> <r_i_glide_emodel>
-42.8218280295326

> <r_i_glide_energy>
-32.7986907958984

> <r_i_glide_einternal>
1.59486818313599

> <i_i_glide_confnum>
5

> <i_i_glide_posenum>
100

> <r_i_glide_eff_state_penalty>
0

> <s_user_duplicate_titles>
CHEMBL2039_lig898

> <s_m_subgroup_title>
dock_pv

> <s_m_subgroupid>
dock_pv

> <b_m_subgroup_collapsed>
1

$$$$
CHEMBL2039_lig2698
                    3D
 Schrodinger Suite 2021-1.
 30 31  0  0  1  0            999 V2000
   51.1607  158.5034   29.7021 C   0  0  0  0  0  0
   51.6766  157.5469   28.7358 C   0  0  0  0  0  0
   49.8731  158.5226   30.1043 C   0  0  0  0  0  0
   51.2899  156.2550   28.6590 C   0  0  0  0  0  0
   49.2277  159.4576   31.0458 C   0  0  0  0  0  0
   51.6560  155.2902   27.6038 C   0  0  0  0  0  0
   52.0572  155.7146   26.3293 C   0  0  0  0  0  0
   51.4668  153.9273   27.8480 C   0  0  0  0  0  0
   49.8960  160.5635   31.5850 C   0  0  0  0  0  0
   47.9001  159.2099   31.4138 C   0  0  0  0  0  0
   51.6560  153.0002   26.8275 C   0  0  0  0  0  0
   49.2554  161.3878   32.5038 C   0  0  0  0  0  0
   47.2555  160.0410   32.3235 C   0  0  0  0  0  0
   52.2623  154.7857   25.3126 C   0  0  0  0  0  0
   52.0580  153.4337   25.5680 C   0  0  0  0  0  0
   47.9387  161.1235   32.8711 C   0  0  0  0  0  0
   51.8583  159.2235   30.1031 H   0  0  0  0  0  0
   52.3868  157.9198   28.0109 H   0  0  0  0  0  0
   49.2127  157.7733   29.7045 H   0  0  0  0  0  0
   50.5978  155.8813   29.4011 H   0  0  0  0  0  0
   52.1840  156.7642   26.1082 H   0  0  0  0  0  0
   51.1425  153.5851   28.8209 H   0  0  0  0  0  0
   50.9176  160.7874   31.3168 H   0  0  0  0  0  0
   47.3621  158.3681   31.0037 H   0  0  0  0  0  0
   51.4935  151.9493   27.0127 H   0  0  0  0  0  0
   49.7873  162.2396   32.9040 H   0  0  0  0  0  0
   46.2297  159.8456   32.5993 H   0  0  0  0  0  0
   52.5685  155.1103   24.3300 H   0  0  0  0  0  0
   52.2174  152.7128   24.7785 H   0  0  0  0  0  0
   47.4359  161.7676   33.5764 H   0  0  0  0  0  0
  1  2  1  0  0  0
  1  3  2  0  0  0
  1 17  1  0  0  0
  2  4  2  0  0  0
  2 18  1  0  0  0
  3  5  1  0  0  0
  3 19  1  0  0  0
  4  6  1  0  0  0
  4 20  1  0  0  0
  5  9  2  0  0  0
  5 10  1  0  0  0
  6  7  2  0  0  0
  6  8  1  0  0  0
  7 14  1  0  0  0
  7 21  1  0  0  0
  8 11  2  0  0  0
  8 22  1  0  0  0
  9 12  1  0  0  0
  9 23  1  0  0  0
 10 13  2  0  0  0
 10 24  1  0  0  0
 11 15  1  0  0  0
 11 25  1  0  0  0
 12 16  2  0  0  0
 12 26  1  0  0  0
 13 16  1  0  0  0
 13 27  1  0  0  0
 14 15  2  0  0  0
 14 28  1  0  0  0
 15 29  1  0  0  0
 16 30  1  0  0  0
M  END
> <s_m_entry_id>
10036

> <s_m_entry_name>
dock_pv.72

> <s_m_Source_Path>
/home/csk/Desktop/cluster/DUD-E-result/aofb

> <s_m_Source_File>
dock_pv.maegz

> <i_m_Source_File_Index>
72

> <chembl_id>
CHEMBL198810

> <chembl_pref_name>
None

> <i_lp_mmshare_version>
53161

> <i_f3d_flags>
0

> <r_lp_tautomer_probability>
1

> <s_lp_Force_Field>
OPLS_2005

> <r_lp_Energy>
12.902075

> <b_lp_Chiralities_Consistent>
1

> <s_lp_Variant>
CHEMBL2039_lig2698-1

> <s_i_glide_gridfile>
glide-grid_1s3b

> <i_i_glide_lignum>
3123

> <i_i_glide_rotatable_bonds>
3

> <r_i_docking_score>
-8.08250268249409

> <r_i_glide_ligand_efficiency>
-0.505156417655881

> <r_i_glide_ligand_efficiency_sa>
-1.27291440701184

> <r_i_glide_ligand_efficiency_ln>
-2.14242878765102

> <r_i_glide_gscore>
-8.08250268249409

> <r_i_glide_lipo>
-4.04946343953036

> <r_i_glide_hbond>
0

> <r_i_glide_metal>
0

> <r_i_glide_rewards>
-2.90262027272727

> <r_i_glide_evdw>
-31.7012157440186

> <r_i_glide_ecoul>
0.445765674114227

> <r_i_glide_erotb>
0.387776965847339

> <r_i_glide_esite>
0

> <r_i_glide_emodel>
-42.2775227160533

> <r_i_glide_energy>
-31.2554500699043

> <r_i_glide_einternal>
3.70567154884338

> <i_i_glide_confnum>
3

> <i_i_glide_posenum>
392

> <r_i_glide_eff_state_penalty>
0

> <s_user_duplicate_titles>
CHEMBL2039_lig2698,330876

> <s_m_subgroup_title>
dock_pv

> <s_m_subgroupid>
dock_pv

> <b_m_subgroup_collapsed>
1

$$$$
CHEMBL2039_lig62
                    3D
 Schrodinger Suite 2021-1.
 38 41  0  0  1  0            999 V2000
   53.2560  156.6440   25.8769 O   0  0  0  0  0  0
   53.5927  155.7153   24.9040 C   0  0  0  0  0  0
   54.4560  156.0750   24.1040 O   0  0  0  0  0  0
   51.8550  155.0726   27.0837 C   0  0  0  0  0  0
   51.0288  154.7975   28.1643 C   0  0  0  0  0  0
   50.7027  155.8291   29.0344 C   0  0  0  0  0  0
   51.2560  157.1242   28.9040 C   0  0  0  0  0  0
   52.2484  157.2968   27.9378 C   0  0  0  0  0  0
   52.4560  156.3239   26.9631 C   0  0  0  0  0  0
   50.8744  158.2276   29.7040 N   0  0  0  0  0  0
   49.6650  158.3757   30.1040 C   0  0  0  0  0  0
   49.1191  159.4137   30.9920 C   0  0  0  0  0  0
   49.8620  160.4575   31.5814 C   0  0  0  0  0  0
   49.2560  161.3111   32.5040 C   0  0  0  0  0  0
   47.9099  161.1735   32.8275 C   0  0  0  0  0  0
   47.1546  160.1800   32.2183 C   0  0  0  0  0  0
   47.7549  159.3085   31.3142 C   0  0  0  0  0  0
   51.1911  160.6704   31.3117 O   0  0  0  0  0  0
   52.9527  154.3929   25.0079 C   0  0  0  0  0  0
   52.2229  154.0712   26.0968 C   0  0  0  0  0  0
   51.9562  152.5968   26.1669 C   0  0  0  0  0  0
   52.8561  152.0474   25.0519 C   0  0  0  0  0  0
   53.1581  153.2039   24.1047 C   0  0  0  0  0  0
   50.5863  153.8214   28.2957 H   0  0  0  0  0  0
   49.9817  155.6139   29.8051 H   0  0  0  0  0  0
   52.7484  158.2440   27.8497 H   0  0  0  0  0  0
   48.9107  157.6555   29.8043 H   0  0  0  0  0  0
   49.8438  162.0896   32.9610 H   0  0  0  0  0  0
   47.4474  161.8437   33.5363 H   0  0  0  0  0  0
   46.1057  160.0750   32.4562 H   0  0  0  0  0  0
   47.1375  158.5323   30.8823 H   0  0  0  0  0  0
   51.5927  161.3016   31.9165 H   0  0  0  0  0  0
   52.2559  152.2440   27.1483 H   0  0  0  0  0  0
   50.8931  152.3841   26.0795 H   0  0  0  0  0  0
   52.4560  151.1740   24.5422 H   0  0  0  0  0  0
   53.7970  151.7174   25.4971 H   0  0  0  0  0  0
   52.4560  153.2345   23.2744 H   0  0  0  0  0  0
   54.1426  153.1419   23.6586 H   0  0  0  0  0  0
  1  2  1  0  0  0
  1  9  1  0  0  0
  2  3  2  0  0  0
  2 19  1  0  0  0
  4 20  1  0  0  0
  4  5  1  0  0  0
  4  9  2  0  0  0
  5  6  2  0  0  0
  5 24  1  0  0  0
  6  7  1  0  0  0
  6 25  1  0  0  0
  7  8  2  0  0  0
  7 10  1  0  0  0
  8  9  1  0  0  0
  8 26  1  0  0  0
 10 11  2  0  0  0
 11 12  1  0  0  0
 11 27  1  0  0  0
 12 13  1  0  0  0
 12 17  2  0  0  0
 13 14  2  0  0  0
 13 18  1  0  0  0
 14 15  1  0  0  0
 14 28  1  0  0  0
 15 16  2  0  0  0
 15 29  1  0  0  0
 16 17  1  0  0  0
 16 30  1  0  0  0
 17 31  1  0  0  0
 18 32  1  0  0  0
 19 20  2  0  0  0
 19 23  1  0  0  0
 20 21  1  0  0  0
 21 22  1  0  0  0
 21 33  1  0  0  0
 21 34  1  0  0  0
 22 23  1  0  0  0
 22 35  1  0  0  0
 22 36  1  0  0  0
 23 37  1  0  0  0
 23 38  1  0  0  0
M  END
> <s_m_entry_id>
10037

> <s_m_entry_name>
dock_pv.73

> <s_m_Source_Path>
/home/csk/Desktop/cluster/DUD-E-result/aofb

> <s_m_Source_File>
dock_pv.maegz

> <i_m_Source_File_Index>
73

> <chembl_id>
CHEMBL3394533

> <chembl_pref_name>
None

> <i_lp_mmshare_version>
53161

> <i_f3d_flags>
0

> <r_lp_tautomer_probability>
1

> <s_lp_Force_Field>
OPLS_2005

> <r_lp_Energy>
37.641205

> <b_lp_Chiralities_Consistent>
1

> <s_lp_Variant>
CHEMBL2039_lig62-1

> <s_i_glide_gridfile>
glide-grid_1s3b

> <i_i_glide_lignum>
85

> <i_i_glide_rotatable_bonds>
3

> <r_i_docking_score>
-8.07453277229287

> <r_i_glide_ligand_efficiency>
-0.351066642273603

> <r_i_glide_ligand_efficiency_sa>
-0.998386830645783

> <r_i_glide_ligand_efficiency_ln>
-1.95249524015565

> <r_i_glide_gscore>
-8.07453277229287

> <r_i_glide_lipo>
-4.52408369700449

> <r_i_glide_hbond>
-0.137369934242283

> <r_i_glide_metal>
0

> <r_i_glide_rewards>
-2.33763512882209

> <r_i_glide_evdw>
-23.9247245788574

> <r_i_glide_ecoul>
-1.83428943157196

> <r_i_glide_erotb>
0.395935631454655

> <r_i_glide_esite>
0

> <r_i_glide_emodel>
-30.1166185985372

> <r_i_glide_energy>
-25.7590140104294

> <r_i_glide_einternal>
0.784330904483795

> <i_i_glide_confnum>
4

> <i_i_glide_posenum>
143

> <r_i_glide_eff_state_penalty>
0

> <s_user_duplicate_titles>
CHEMBL2039_lig62

> <s_m_subgroup_title>
dock_pv

> <s_m_subgroupid>
dock_pv

> <b_m_subgroup_collapsed>
1

$$$$
CHEMBL2039_lig2011
                    3D
 Schrodinger Suite 2021-1.
 31 33  0  0  1  0            999 V2000
   53.0670  153.7983   24.3685 C   0  0  0  0  0  0
   52.7603  152.5517   24.9040 C   0  0  0  0  0  0
   52.0560  152.4624   26.1041 C   0  0  0  0  0  0
   52.7351  154.9567   25.0676 C   0  0  0  0  0  0
   52.1063  154.8750   26.3213 C   0  0  0  0  0  0
   51.7513  153.6207   26.8179 C   0  0  0  0  0  0
   51.2130  153.4758   28.0749 O   0  0  0  0  0  0
   50.9709  154.6001   28.8005 C   0  0  0  0  0  0
   51.2911  155.8718   28.4800 C   0  0  0  0  0  0
   52.0560  156.0514   27.2333 C   0  0  0  0  0  0
   52.6895  157.0440   26.9270 O   0  0  0  0  0  0
   50.8560  156.9909   29.3040 C   0  0  0  0  0  0
   51.0983  158.2476   29.2192 N   0  0  0  0  0  0
   50.3972  159.1348   30.0821 C   0  0  0  0  0  0
   49.0114  158.9937   30.3301 C   0  0  0  0  0  0
   48.3304  159.8026   31.2339 C   0  0  0  0  0  0
   49.0101  160.8132   31.8976 C   0  0  0  0  0  0
   50.3511  161.0440   31.6080 C   0  0  0  0  0  0
   51.0307  160.2478   30.6817 C   0  0  0  0  0  0
   52.3332  160.5856   30.4100 O   0  0  0  0  0  0
   47.0156  159.5967   31.4723 F   0  0  0  0  0  0
   53.5906  153.8614   23.4254 H   0  0  0  0  0  0
   53.0298  151.6549   24.3649 H   0  0  0  0  0  0
   51.7898  151.4959   26.5040 H   0  0  0  0  0  0
   53.0476  155.9125   24.6686 H   0  0  0  0  0  0
   50.4560  154.3333   29.7123 H   0  0  0  0  0  0
   50.2008  156.6263   30.0893 H   0  0  0  0  0  0
   48.4464  158.2147   29.8433 H   0  0  0  0  0  0
   48.4917  161.4373   32.6102 H   0  0  0  0  0  0
   50.8560  161.8588   32.1040 H   0  0  0  0  0  0
   52.6797  161.2446   31.0157 H   0  0  0  0  0  0
  1  2  2  0  0  0
  1  4  1  0  0  0
  1 22  1  0  0  0
  2  3  1  0  0  0
  2 23  1  0  0  0
  3  6  2  0  0  0
  3 24  1  0  0  0
  4  5  2  0  0  0
  4 25  1  0  0  0
  5  6  1  0  0  0
  5 10  1  0  0  0
  6  7  1  0  0  0
  7  8  1  0  0  0
  8  9  2  0  0  0
  8 26  1  0  0  0
  9 10  1  0  0  0
  9 12  1  0  0  0
 10 11  2  0  0  0
 12 13  2  0  0  0
 12 27  1  0  0  0
 13 14  1  0  0  0
 14 15  2  0  0  0
 14 19  1  0  0  0
 15 16  1  0  0  0
 15 28  1  0  0  0
 16 17  2  0  0  0
 16 21  1  0  0  0
 17 18  1  0  0  0
 17 29  1  0  0  0
 18 19  2  0  0  0
 18 30  1  0  0  0
 19 20  1  0  0  0
 20 31  1  0  0  0
M  END
> <s_m_entry_id>
10038

> <s_m_entry_name>
dock_pv.74

> <s_m_Source_Path>
/home/csk/Desktop/cluster/DUD-E-result/aofb

> <s_m_Source_File>
dock_pv.maegz

> <i_m_Source_File_Index>
74

> <chembl_id>
CHEMBL4082043

> <chembl_pref_name>
None

> <i_lp_mmshare_version>
53161

> <i_f3d_flags>
0

> <r_lp_tautomer_probability>
1

> <s_lp_Force_Field>
OPLS_2005

> <r_lp_Energy>
19.833854

> <b_lp_Chiralities_Consistent>
1

> <s_lp_Variant>
CHEMBL2039_lig2011-1

> <s_i_glide_gridfile>
glide-grid_1s3b

> <i_i_glide_lignum>
2346

> <i_i_glide_rotatable_bonds>
3

> <r_i_docking_score>
-8.07148348825438

> <r_i_glide_ligand_efficiency>
-0.384356356583542

> <r_i_glide_ligand_efficiency_sa>
-1.06041004344795

> <r_i_glide_ligand_efficiency_ln>
-1.99565798250279

> <r_i_glide_gscore>
-8.07148348825438

> <r_i_glide_lipo>
-4.15880846535429

> <r_i_glide_hbond>
0

> <r_i_glide_metal>
0

> <r_i_glide_rewards>
-3.09118159002835

> <r_i_glide_evdw>
-24.9643268585205

> <r_i_glide_ecoul>
-0.164320170879364

> <r_i_glide_erotb>
0.451370935686194

> <r_i_glide_esite>
0

> <r_i_glide_emodel>
-29.374045015316

> <r_i_glide_energy>
-25.1286470293999

> <r_i_glide_einternal>
1.07892954349518

> <i_i_glide_confnum>
1

> <i_i_glide_posenum>
48

> <r_i_glide_eff_state_penalty>
0

> <s_user_duplicate_titles>
CHEMBL2039_lig2011

> <s_m_subgroup_title>
dock_pv

> <s_m_subgroupid>
dock_pv

> <b_m_subgroup_collapsed>
1

$$$$
CHEMBL2039_lig805
                    3D
 Schrodinger Suite 2021-1.
 44 46  0  0  1  0            999 V2000
   52.8631  153.3243   24.9034 N   0  0  0  0  0  0
   53.6101  154.3854   24.4131 C   0  0  0  0  0  0
   53.3367  155.6119   24.9888 N   0  0  0  0  0  0
   52.0637  153.2588   26.0242 C   0  0  0  0  0  0
   52.0180  154.5484   26.6547 C   0  0  0  0  0  0
   52.5976  155.6965   26.1699 C   0  0  0  0  0  0
   52.4397  156.7050   27.0214 N   0  0  0  0  0  0
   51.6654  156.2440   28.0025 C   0  0  0  0  0  0
   51.4600  154.9023   27.8468 N   0  0  0  0  0  0
   54.0272  156.8099   24.4707 C   0  0  0  0  0  0
   54.4560  154.2478   23.5224 O   0  0  0  0  0  0
   51.5200  152.2386   26.4459 O   0  0  0  0  0  0
   53.0432  152.0495   24.1735 C   0  0  0  0  0  0
   50.7011  154.0437   28.6850 C   0  0  0  0  0  0
   50.8576  157.1924   29.3040 S   0  0  0  0  0  0
   51.6247  158.7663   28.9274 C   0  0  0  0  0  0
   51.3385  159.9271   29.8615 C   0  0  0  0  0  0
   49.9950  160.5968   29.5490 C   0  0  0  0  0  0
   48.8398  160.1853   30.4229 C   0  0  0  0  0  0
   47.7724  159.4439   29.9085 C   0  0  0  0  0  0
   46.6458  159.2113   30.6950 C   0  0  0  0  0  0
   46.5882  159.7232   31.9898 C   0  0  0  0  0  0
   47.6782  160.4193   32.5115 C   0  0  0  0  0  0
   48.8033  160.6440   31.7349 C   0  0  0  0  0  0
   47.6560  161.0440   34.1040 Cl  0  0  0  0  0  0
   54.8535  156.5737   23.7976 H   0  0  0  0  0  0
   53.3227  157.4275   23.9118 H   0  0  0  0  0  0
   54.4557  157.4381   25.2560 H   0  0  0  0  0  0
   52.4477  151.2143   24.5330 H   0  0  0  0  0  0
   52.8560  152.1673   23.1045 H   0  0  0  0  0  0
   54.0560  151.7034   24.2866 H   0  0  0  0  0  0
   51.2561  153.1270   28.8864 H   0  0  0  0  0  0
   50.4560  154.5218   29.6319 H   0  0  0  0  0  0
   49.7980  153.8440   28.1040 H   0  0  0  0  0  0
   51.2575  159.0406   27.9435 H   0  0  0  0  0  0
   52.7038  158.6112   28.8874 H   0  0  0  0  0  0
   52.1326  160.6616   29.7227 H   0  0  0  0  0  0
   51.4153  159.6300   30.9040 H   0  0  0  0  0  0
   49.6871  160.5086   28.5053 H   0  0  0  0  0  0
   50.1552  161.6522   29.7041 H   0  0  0  0  0  0
   47.7945  159.0817   28.8921 H   0  0  0  0  0  0
   45.8067  158.6638   30.2908 H   0  0  0  0  0  0
   45.6992  159.5694   32.5816 H   0  0  0  0  0  0
   49.6282  161.2151   32.1380 H   0  0  0  0  0  0
  1  2  1  0  0  0
  1  4  1  0  0  0
  1 13  1  0  0  0
  2  3  1  0  0  0
  2 11  2  0  0  0
  3  6  1  0  0  0
  3 10  1  0  0  0
  4  5  1  0  0  0
  4 12  2  0  0  0
  5  6  2  0  0  0
  5  9  1  0  0  0
  6  7  1  0  0  0
  7  8  2  0  0  0
  8  9  1  0  0  0
  8 15  1  0  0  0
  9 14  1  0  0  0
 10 26  1  0  0  0
 10 27  1  0  0  0
 10 28  1  0  0  0
 13 29  1  0  0  0
 13 30  1  0  0  0
 13 31  1  0  0  0
 14 32  1  0  0  0
 14 33  1  0  0  0
 14 34  1  0  0  0
 15 16  1  0  0  0
 16 17  1  0  0  0
 16 35  1  0  0  0
 16 36  1  0  0  0
 17 18  1  0  0  0
 17 37  1  0  0  0
 17 38  1  0  0  0
 18 19  1  0  0  0
 18 39  1  0  0  0
 18 40  1  0  0  0
 19 20  2  0  0  0
 19 24  1  0  0  0
 20 21  1  0  0  0
 20 41  1  0  0  0
 21 22  2  0  0  0
 21 42  1  0  0  0
 22 23  1  0  0  0
 22 43  1  0  0  0
 23 24  2  0  0  0
 23 25  1  0  0  0
 24 44  1  0  0  0
M  END
> <s_m_entry_id>
10039

> <s_m_entry_name>
dock_pv.75

> <s_m_Source_Path>
/home/csk/Desktop/cluster/DUD-E-result/aofb

> <s_m_Source_File>
dock_pv.maegz

> <i_m_Source_File_Index>
75

> <chembl_id>
CHEMBL2206104

> <chembl_pref_name>
None

> <i_lp_mmshare_version>
53161

> <i_f3d_flags>
0

> <r_lp_tautomer_probability>
1

> <s_lp_Force_Field>
OPLS_2005

> <r_lp_Energy>
33.937418

> <b_lp_Chiralities_Consistent>
1

> <s_lp_Variant>
CHEMBL2039_lig805-1

> <s_i_glide_gridfile>
glide-grid_1s3b

> <i_i_glide_lignum>
935

> <i_i_glide_rotatable_bonds>
5

> <r_i_docking_score>
-8.06783894787991

> <r_i_glide_ligand_efficiency>
-0.322713557915197

> <r_i_glide_ligand_efficiency_sa>
-0.943620166693354

> <r_i_glide_ligand_efficiency_ln>
-1.91231960427087

> <r_i_glide_gscore>
-8.06783894787991

> <r_i_glide_lipo>
-3.86765380224771

> <r_i_glide_hbond>
0

> <r_i_glide_metal>
0

> <r_i_glide_rewards>
-3.28417156060606

> <r_i_glide_evdw>
-27.0657424926758

> <r_i_glide_ecoul>
-0.685754776000977

> <r_i_glide_erotb>
0.540136756007787

> <r_i_glide_esite>
0

> <r_i_glide_emodel>
-24.720469840977

> <r_i_glide_energy>
-27.7514972686768

> <r_i_glide_einternal>
6.23264741897583

> <i_i_glide_confnum>
3

> <i_i_glide_posenum>
296

> <r_i_glide_eff_state_penalty>
0

> <s_user_duplicate_titles>
CHEMBL2039_lig805

> <s_m_subgroup_title>
dock_pv

> <s_m_subgroupid>
dock_pv

> <b_m_subgroup_collapsed>
1

$$$$
CHEMBL2039_lig1336
                    3D
 Schrodinger Suite 2021-1.
 34 36  0  0  1  0            999 V2000
   51.0851  153.4458   27.4359 O   0  0  0  0  0  0
   51.6121  152.6386   26.4549 C   0  0  0  0  0  0
   51.2560  151.4637   26.5040 O   0  0  0  0  0  0
   52.4642  153.2678   25.4304 C   0  0  0  0  0  0
   52.7689  154.5856   25.4886 C   0  0  0  0  0  0
   52.3185  155.3871   26.6545 C   0  0  0  0  0  0
   52.8206  156.6440   26.9852 C   0  0  0  0  0  0
   52.3409  157.3240   28.1040 C   0  0  0  0  0  0
   51.2560  156.8170   28.8394 C   0  0  0  0  0  0
   50.9190  155.4744   28.6398 C   0  0  0  0  0  0
   51.4630  154.7650   27.5716 C   0  0  0  0  0  0
   53.7181  155.2517   24.5040 C   0  0  0  0  0  0
   53.1424  152.1922   24.1935 Cl  0  0  0  0  0  0
   50.4560  157.5695   29.7040 N   0  0  0  0  0  0
   50.3864  158.8450   29.7040 C   0  0  0  0  0  0
   49.4552  159.5220   30.6161 C   0  0  0  0  0  0
   49.8707  160.5479   31.4868 C   0  0  0  0  0  0
   48.9770  161.0796   32.4190 C   0  0  0  0  0  0
   47.6564  160.6402   32.4690 C   0  0  0  0  0  0
   47.2236  159.6520   31.5900 C   0  0  0  0  0  0
   48.1182  159.0923   30.6791 C   0  0  0  0  0  0
   51.1592  161.0259   31.4892 O   0  0  0  0  0  0
   53.5868  157.1079   26.3868 H   0  0  0  0  0  0
   52.7311  158.3053   28.3110 H   0  0  0  0  0  0
   50.1674  155.0102   29.2608 H   0  0  0  0  0  0
   53.8894  154.6440   23.6174 H   0  0  0  0  0  0
   53.3146  156.2098   24.1805 H   0  0  0  0  0  0
   54.6975  155.4324   24.9343 H   0  0  0  0  0  0
   50.9825  159.4865   29.0613 H   0  0  0  0  0  0
   49.3078  161.8440   33.1062 H   0  0  0  0  0  0
   46.9701  161.0629   33.1882 H   0  0  0  0  0  0
   46.1994  159.3089   31.6246 H   0  0  0  0  0  0
   47.7669  158.3042   30.0269 H   0  0  0  0  0  0
   51.3618  161.5718   32.2600 H   0  0  0  0  0  0
  1  2  1  0  0  0
  1 11  1  0  0  0
  2  3  2  0  0  0
  2  4  1  0  0  0
  4  5  2  0  0  0
  4 13  1  0  0  0
  5  6  1  0  0  0
  5 12  1  0  0  0
  6  7  1  0  0  0
  6 11  2  0  0  0
  7  8  2  0  0  0
  7 23  1  0  0  0
  8  9  1  0  0  0
  8 24  1  0  0  0
  9 10  2  0  0  0
  9 14  1  0  0  0
 10 11  1  0  0  0
 10 25  1  0  0  0
 12 26  1  0  0  0
 12 27  1  0  0  0
 12 28  1  0  0  0
 14 15  2  0  0  0
 15 16  1  0  0  0
 15 29  1  0  0  0
 16 17  1  0  0  0
 16 21  2  0  0  0
 17 18  2  0  0  0
 17 22  1  0  0  0
 18 19  1  0  0  0
 18 30  1  0  0  0
 19 20  2  0  0  0
 19 31  1  0  0  0
 20 21  1  0  0  0
 20 32  1  0  0  0
 21 33  1  0  0  0
 22 34  1  0  0  0
M  END
> <s_m_entry_id>
10040

> <s_m_entry_name>
dock_pv.76

> <s_m_Source_Path>
/home/csk/Desktop/cluster/DUD-E-result/aofb

> <s_m_Source_File>
dock_pv.maegz

> <i_m_Source_File_Index>
76

> <chembl_id>
CHEMBL3394531

> <chembl_pref_name>
None

> <i_lp_mmshare_version>
53161

> <i_f3d_flags>
0

> <r_lp_tautomer_probability>
1

> <s_lp_Force_Field>
OPLS_2005

> <r_lp_Energy>
25.349075

> <b_lp_Chiralities_Consistent>
1

> <s_lp_Variant>
CHEMBL2039_lig1336-1

> <s_i_glide_gridfile>
glide-grid_1s3b

> <i_i_glide_lignum>
1557

> <i_i_glide_rotatable_bonds>
3

> <r_i_docking_score>
-8.06678928125178

> <r_i_glide_ligand_efficiency>
-0.366672240056899

> <r_i_glide_ligand_efficiency_sa>
-1.02743003704033

> <r_i_glide_ligand_efficiency_ln>
-1.97181754362627

> <r_i_glide_gscore>
-8.06678928125178

> <r_i_glide_lipo>
-4.24654538476889

> <r_i_glide_hbond>
-0.32

> <r_i_glide_metal>
0

> <r_i_glide_rewards>
-2.19883934685804

> <r_i_glide_evdw>
-26.3564510345459

> <r_i_glide_ecoul>
-2.40718102455139

> <r_i_glide_erotb>
0.377495155785152

> <r_i_glide_esite>
0

> <r_i_glide_emodel>
-23.5432918160503

> <r_i_glide_energy>
-28.7636320590973

> <r_i_glide_einternal>
11.0986948013306

> <i_i_glide_confnum>
1

> <i_i_glide_posenum>
233

> <r_i_glide_eff_state_penalty>
0

> <s_user_duplicate_titles>
CHEMBL2039_lig1336

> <s_m_subgroup_title>
dock_pv

> <s_m_subgroupid>
dock_pv

> <b_m_subgroup_collapsed>
1

$$$$
CHEMBL2039_lig981
                    3D
 Schrodinger Suite 2021-1.
 33 35  0  0  1  0            999 V2000
   51.5869  156.4133   28.5038 C   0  0  0  0  0  0
   51.0706  155.1410   28.7844 C   0  0  0  0  0  0
   51.2271  154.0853   27.8800 C   0  0  0  0  0  0
   52.3205  156.5955   27.3177 C   0  0  0  0  0  0
   52.4102  155.5561   26.3973 C   0  0  0  0  0  0
   51.8657  154.3181   26.6639 C   0  0  0  0  0  0
   52.1630  153.4302   25.4959 C   0  0  0  0  0  0
   52.8763  154.2558   24.5846 O   0  0  0  0  0  0
   53.0671  155.5015   25.0856 C   0  0  0  0  0  0
   53.7009  156.3789   24.5053 O   0  0  0  0  0  0
   51.2552  157.4444   29.3662 O   0  0  0  0  0  0
   51.6573  158.7708   29.0474 C   0  0  0  0  0  0
   51.3471  159.8418   30.1210 C   0  0  0  0  0  0
   49.9007  159.9894   30.5998 C   0  0  0  0  0  0
   48.8220  159.5008   29.8606 C   0  0  0  0  0  0
   47.5238  159.6016   30.3528 C   0  0  0  0  0  0
   47.2970  160.2236   31.5775 C   0  0  0  0  0  0
   48.3588  160.7547   32.3056 C   0  0  0  0  0  0
   49.6563  160.6440   31.8103 C   0  0  0  0  0  0
   50.5236  154.9786   29.7014 H   0  0  0  0  0  0
   50.8253  153.1120   28.1198 H   0  0  0  0  0  0
   52.7623  157.5468   27.0738 H   0  0  0  0  0  0
   52.7806  152.5767   25.7785 H   0  0  0  0  0  0
   51.2572  153.0441   25.0324 H   0  0  0  0  0  0
   51.1947  159.0440   28.1041 H   0  0  0  0  0  0
   52.7377  158.7700   28.9060 H   0  0  0  0  0  0
   51.6681  160.8144   29.7490 H   0  0  0  0  0  0
   51.9837  159.6408   30.9813 H   0  0  0  0  0  0
   48.9883  159.0440   28.9041 H   0  0  0  0  0  0
   46.6976  159.2000   29.7850 H   0  0  0  0  0  0
   46.2895  160.2994   31.9605 H   0  0  0  0  0  0
   48.1800  161.2445   33.2514 H   0  0  0  0  0  0
   50.4774  161.0481   32.3855 H   0  0  0  0  0  0
  1  2  2  0  0  0
  1  4  1  0  0  0
  1 11  1  0  0  0
  2  3  1  0  0  0
  2 20  1  0  0  0
  3  6  2  0  0  0
  3 21  1  0  0  0
  4  5  2  0  0  0
  4 22  1  0  0  0
  5  6  1  0  0  0
  5  9  1  0  0  0
  6  7  1  0  0  0
  7  8  1  0  0  0
  7 23  1  0  0  0
  7 24  1  0  0  0
  8  9  1  0  0  0
  9 10  2  0  0  0
 11 12  1  0  0  0
 12 13  1  0  0  0
 12 25  1  0  0  0
 12 26  1  0  0  0
 13 14  1  0  0  0
 13 27  1  0  0  0
 13 28  1  0  0  0
 14 15  2  0  0  0
 14 19  1  0  0  0
 15 16  1  0  0  0
 15 29  1  0  0  0
 16 17  2  0  0  0
 16 30  1  0  0  0
 17 18  1  0  0  0
 17 31  1  0  0  0
 18 19  2  0  0  0
 18 32  1  0  0  0
 19 33  1  0  0  0
M  END
> <s_m_entry_id>
10041

> <s_m_entry_name>
dock_pv.77

> <s_m_Source_Path>
/home/csk/Desktop/cluster/DUD-E-result/aofb

> <s_m_Source_File>
dock_pv.maegz

> <i_m_Source_File_Index>
77

> <chembl_id>
CHEMBL2391872

> <chembl_pref_name>
None

> <i_lp_mmshare_version>
53161

> <i_f3d_flags>
0

> <r_lp_tautomer_probability>
1

> <s_lp_Force_Field>
OPLS_2005

> <r_lp_Energy>
28.657431

> <b_lp_Chiralities_Consistent>
1

> <s_lp_Variant>
CHEMBL2039_lig981-1

> <s_i_glide_gridfile>
glide-grid_1s3b

> <i_i_glide_lignum>
1128

> <i_i_glide_rotatable_bonds>
4

> <r_i_docking_score>
-8.06647410036818

> <r_i_glide_ligand_efficiency>
-0.424551268440431

> <r_i_glide_ligand_efficiency_sa>
-1.13287330356155

> <r_i_glide_ligand_efficiency_ln>
-2.04502443642133

> <r_i_glide_gscore>
-8.06647410036818

> <r_i_glide_lipo>
-3.86531579208363

> <r_i_glide_hbond>
0

> <r_i_glide_metal>
0

> <r_i_glide_rewards>
-2.89372904871

> <r_i_glide_evdw>
-30.7450199127197

> <r_i_glide_ecoul>
-2.09399318695068

> <r_i_glide_erotb>
0.543920714104031

> <r_i_glide_esite>
0

> <r_i_glide_emodel>
-43.8109755776281

> <r_i_glide_energy>
-32.8390130996704

> <r_i_glide_einternal>
4.36792850494385

> <i_i_glide_confnum>
9

> <i_i_glide_posenum>
313

> <r_i_glide_eff_state_penalty>
0

> <s_user_duplicate_titles>
CHEMBL2039_lig981

> <s_m_subgroup_title>
dock_pv

> <s_m_subgroupid>
dock_pv

> <b_m_subgroup_collapsed>
1

$$$$
CHEMBL2039_lig2289
                    3D
 Schrodinger Suite 2021-1.
 31 33  0  0  1  0            999 V2000
   48.1276  161.3110   32.7302 Cl  0  0  0  0  0  0
   50.8560  155.9784   28.9040 S   0  0  0  0  0  0
   53.3569  156.4811   24.5710 O   0  0  0  0  0  0
   51.5579  154.0846   27.2905 N   0  0  0  0  0  0
   52.2041  156.2440   26.5857 N   0  0  0  0  0  0
   52.6880  154.2731   25.1839 C   0  0  0  0  0  0
   52.1091  153.4684   26.1759 C   0  0  0  0  0  0
   52.7824  155.7769   25.3999 C   0  0  0  0  0  0
   51.6560  155.4455   27.4180 C   0  0  0  0  0  0
   53.2359  153.6706   24.0520 C   0  0  0  0  0  0
   52.1726  152.0866   26.1040 C   0  0  0  0  0  0
   50.4560  158.6440   29.9154 C   0  0  0  0  0  0
   53.2560  152.2839   23.9704 C   0  0  0  0  0  0
   52.8560  151.4909   25.0409 C   0  0  0  0  0  0
   51.3536  157.7463   29.0490 C   0  0  0  0  0  0
   50.9861  159.8675   30.3338 C   0  0  0  0  0  0
   49.1809  158.2657   30.3660 C   0  0  0  0  0  0
   49.0084  160.2965   31.6455 C   0  0  0  0  0  0
   50.2768  160.6767   31.2161 C   0  0  0  0  0  0
   48.4539  159.0955   31.2151 C   0  0  0  0  0  0
   51.1632  153.5370   28.0362 H   0  0  0  0  0  0
   53.6678  154.2441   23.2462 H   0  0  0  0  0  0
   51.7042  151.4814   26.8670 H   0  0  0  0  0  0
   53.6560  151.8289   23.0815 H   0  0  0  0  0  0
   52.9255  150.4147   24.9770 H   0  0  0  0  0  0
   51.4799  158.2474   28.1036 H   0  0  0  0  0  0
   52.3658  157.7416   29.4385 H   0  0  0  0  0  0
   51.9768  160.1660   30.0221 H   0  0  0  0  0  0
   48.7497  157.3136   30.1012 H   0  0  0  0  0  0
   50.7161  161.5952   31.5772 H   0  0  0  0  0  0
   47.4763  158.7933   31.5613 H   0  0  0  0  0  0
  1 18  1  0  0  0
  2 15  1  0  0  0
  2  9  1  0  0  0
  3  8  2  0  0  0
  4  7  1  0  0  0
  4 21  1  0  0  0
  4  9  1  0  0  0
  5  9  2  0  0  0
  5  8  1  0  0  0
  6  8  1  0  0  0
  6 10  1  0  0  0
  6  7  2  0  0  0
  7 11  1  0  0  0
 10 22  1  0  0  0
 10 13  2  0  0  0
 11 14  2  0  0  0
 11 23  1  0  0  0
 12 15  1  0  0  0
 12 16  2  0  0  0
 12 17  1  0  0  0
 13 24  1  0  0  0
 13 14  1  0  0  0
 14 25  1  0  0  0
 15 26  1  0  0  0
 15 27  1  0  0  0
 16 19  1  0  0  0
 16 28  1  0  0  0
 17 20  2  0  0  0
 17 29  1  0  0  0
 18 19  2  0  0  0
 18 20  1  0  0  0
 19 30  1  0  0  0
 20 31  1  0  0  0
M  END
> <s_m_entry_id>
10042

> <s_m_entry_name>
dock_pv.78

> <s_m_Source_Path>
/home/csk/Desktop/cluster/DUD-E-result/aofb

> <s_m_Source_File>
dock_pv.maegz

> <i_m_Source_File_Index>
78

> <chembl_id>
CHEMBL1701338

> <chembl_pref_name>
None

> <i_lp_mmshare_version>
53161

> <i_f3d_flags>
0

> <r_lp_tautomer_probability>
0.116051

> <s_lp_Force_Field>
OPLS_2005

> <r_lp_Energy>
11.842546

> <b_lp_Chiralities_Consistent>
1

> <s_lp_Variant>
CHEMBL2039_lig2289-2

> <s_i_glide_gridfile>
glide-grid_1s3b

> <i_i_glide_lignum>
2652

> <i_i_glide_rotatable_bonds>
3

> <r_i_docking_score>
-8.06560060410079

> <r_i_glide_ligand_efficiency>
-0.403280030205039

> <r_i_glide_ligand_efficiency_sa>
-1.09467041731637

> <r_i_glide_ligand_efficiency_ln>
-2.01855380989449

> <r_i_glide_gscore>
-8.06560060410079

> <r_i_glide_lipo>
-4.41140622946333

> <r_i_glide_hbond>
0

> <r_i_glide_metal>
0

> <r_i_glide_rewards>
-2.47482807642976

> <r_i_glide_evdw>
-26.0996360778809

> <r_i_glide_ecoul>
-3.18049597740173

> <r_i_glide_erotb>
0.602689902296609

> <r_i_glide_esite>
0

> <r_i_glide_emodel>
-32.396170466635

> <r_i_glide_energy>
-29.2801320552826

> <r_i_glide_einternal>
6.10086536407471

> <i_i_glide_confnum>
6

> <i_i_glide_posenum>
266

> <r_i_glide_eff_state_penalty>
0

> <s_user_duplicate_titles>
CHEMBL2039_lig2289,CHEMBL2039_lig2289

> <s_m_subgroup_title>
dock_pv

> <s_m_subgroupid>
dock_pv

> <b_m_subgroup_collapsed>
1

$$$$
CHEMBL2039_lig1525
                    3D
 Schrodinger Suite 2021-1.
 38 40  0  0  1  0            999 V2000
   48.3710  160.8613   33.5007 C   0  0  0  0  0  0
   48.5961  161.2803   32.1591 O   0  0  0  0  0  0
   49.2561  160.3758   31.3614 C   0  0  0  0  0  0
   50.5617  160.6440   30.9416 C   0  0  0  0  0  0
   51.2396  159.7554   30.1040 C   0  0  0  0  0  0
   50.6363  158.5590   29.7040 C   0  0  0  0  0  0
   51.4690  157.5288   28.9291 C   0  0  0  0  0  0
   50.8560  156.1984   28.9040 N   0  0  2  0  0  0
   51.7687  155.2150   28.3529 C   0  0  1  0  0  0
   51.6560  153.7860   28.8519 C   0  0  0  0  0  0
   51.1400  154.1311   27.4972 C   0  0  2  0  0  0
   51.8428  153.6061   26.2660 C   0  0  0  0  0  0
   52.3272  154.4918   25.3040 C   0  0  0  0  0  0
   53.0428  153.9911   24.2223 C   0  0  0  0  0  0
   53.2560  152.6255   24.1040 C   0  0  0  0  0  0
   52.8558  151.7483   25.1006 C   0  0  0  0  0  0
   52.0741  152.2390   26.1433 C   0  0  0  0  0  0
   49.3155  158.3106   30.1148 C   0  0  0  0  0  0
   48.6226  159.2133   30.9149 C   0  0  0  0  0  0
   47.3480  158.9357   31.2786 F   0  0  0  0  0  0
   47.5552  161.4440   33.9275 H   0  0  0  0  0  0
   49.2560  161.0440   34.1081 H   0  0  0  0  0  0
   48.0993  159.8082   33.5935 H   0  0  0  0  0  0
   51.0596  161.5369   31.2887 H   0  0  0  0  0  0
   52.2622  159.9631   29.8239 H   0  0  0  0  0  0
   51.6560  157.9041   27.9232 H   0  0  0  0  0  0
   52.4560  157.4618   29.3810 H   0  0  0  0  0  0
   50.1045  156.2733   28.2333 H   0  0  0  0  0  0
   52.7821  155.5558   28.1287 H   0  0  0  0  0  0
   52.5414  153.1540   28.9040 H   0  0  0  0  0  0
   50.9539  153.5798   29.6587 H   0  0  0  0  0  0
   50.0561  154.0471   27.4381 H   0  0  0  0  0  0
   52.1746  155.5560   25.4088 H   0  0  0  0  0  0
   53.4616  154.6440   23.4804 H   0  0  0  0  0  0
   53.7749  152.2466   23.2385 H   0  0  0  0  0  0
   53.0501  150.6895   25.0125 H   0  0  0  0  0  0
   51.6595  151.5617   26.8775 H   0  0  0  0  0  0
   48.8166  157.3844   29.8751 H   0  0  0  0  0  0
  1  2  1  0  0  0
  1 21  1  0  0  0
  1 22  1  0  0  0
  1 23  1  0  0  0
  2  3  1  0  0  0
  3  4  2  0  0  0
  3 19  1  0  0  0
  4  5  1  0  0  0
  4 24  1  0  0  0
  5  6  2  0  0  0
  5 25  1  0  0  0
  6  7  1  0  0  0
  6 18  1  0  0  0
  7  8  1  0  0  0
  7 26  1  0  0  0
  7 27  1  0  0  0
  8  9  1  0  0  0
  8 28  1  0  0  0
  9 10  1  0  0  0
  9 11  1  0  0  0
  9 29  1  0  0  0
 10 11  1  0  0  0
 10 30  1  0  0  0
 10 31  1  0  0  0
 11 12  1  0  0  0
 11 32  1  0  0  0
 12 13  2  0  0  0
 12 17  1  0  0  0
 13 14  1  0  0  0
 13 33  1  0  0  0
 14 15  2  0  0  0
 14 34  1  0  0  0
 15 16  1  0  0  0
 15 35  1  0  0  0
 16 17  2  0  0  0
 16 36  1  0  0  0
 17 37  1  0  0  0
 18 19  2  0  0  0
 18 38  1  0  0  0
 19 20  1  0  0  0
M  END
> <s_m_entry_id>
10043

> <s_m_entry_name>
dock_pv.79

> <s_m_Source_Path>
/home/csk/Desktop/cluster/DUD-E-result/aofb

> <s_m_Source_File>
dock_pv.maegz

> <i_m_Source_File_Index>
79

> <chembl_id>
CHEMBL3651136

> <chembl_pref_name>
None

> <i_lp_mmshare_version>
53161

> <i_f3d_flags>
0

> <r_lp_tautomer_probability>
1

> <s_lp_Force_Field>
OPLS_2005

> <r_lp_Energy>
25.043382

> <b_lp_Chiralities_Consistent>
1

> <s_lp_Variant>
CHEMBL2039_lig1525-2

> <s_i_glide_gridfile>
glide-grid_1s3b

> <i_i_glide_lignum>
1767

> <i_i_glide_rotatable_bonds>
5

> <r_i_docking_score>
-8.06454317195013

> <r_i_glide_ligand_efficiency>
-0.403227158597506

> <r_i_glide_ligand_efficiency_sa>
-1.09452690169361

> <r_i_glide_ligand_efficiency_ln>
-2.01828916950363

> <r_i_glide_gscore>
-8.06454317195013

> <r_i_glide_lipo>
-4.54576916327432

> <r_i_glide_hbond>
0

> <r_i_glide_metal>
0

> <r_i_glide_rewards>
-2.90911825227273

> <r_i_glide_evdw>
-28.621675491333

> <r_i_glide_ecoul>
-1.00834822654724

> <r_i_glide_erotb>
0.972680252145659

> <r_i_glide_esite>
0

> <r_i_glide_emodel>
-33.6501642329866

> <r_i_glide_energy>
-29.6300237178802

> <r_i_glide_einternal>
13.4397163391113

> <i_i_glide_confnum>
108

> <i_i_glide_posenum>
394

> <r_i_glide_eff_state_penalty>
0

> <s_user_duplicate_titles>
CHEMBL2039_lig1525

> <s_m_subgroup_title>
dock_pv

> <s_m_subgroupid>
dock_pv

> <b_m_subgroup_collapsed>
1

$$$$
CHEMBL2039_lig1885
                    3D
 Schrodinger Suite 2021-1.
 35 37  0  0  1  0            999 V2000
   46.9169  160.0162   32.1040 C   0  0  0  0  0  0
   47.7113  161.0170   32.6558 C   0  0  0  0  0  0
   49.0752  161.0665   32.3811 C   0  0  0  0  0  0
   49.6521  160.1139   31.5476 C   0  0  0  0  0  0
   48.8703  159.0778   31.0246 C   0  0  0  0  0  0
   47.4976  159.0461   31.2945 C   0  0  0  0  0  0
   49.4435  157.9801   30.2247 C   0  0  0  0  0  0
   50.6824  157.8696   29.6926 C   0  0  0  0  0  0
   51.1359  156.6991   28.9040 C   0  0  0  0  0  0
   50.5505  155.4440   29.0943 C   0  0  0  0  0  0
   50.8624  154.3950   28.2478 C   0  0  0  0  0  0
   51.6939  154.5937   27.1488 C   0  0  0  0  0  0
   52.2966  155.8441   26.9655 C   0  0  0  0  0  0
   52.0618  156.8729   27.8755 C   0  0  0  0  0  0
   52.0093  153.4542   26.2785 C   0  0  0  0  0  0
   51.6560  152.2443   26.5040 N   0  0  0  0  0  0
   52.0965  151.2382   25.7040 N   0  0  0  0  0  0
   53.1672  151.2285   24.9040 C   0  0  0  0  0  0
   53.6098  152.6792   24.5820 C   0  0  0  0  0  0
   52.8026  153.7265   25.1785 O   0  0  0  0  0  0
   53.6560  150.1787   24.5040 O   0  0  0  0  0  0
   45.8576  159.9815   32.3128 H   0  0  0  0  0  0
   47.2655  161.7619   33.2984 H   0  0  0  0  0  0
   49.6893  161.8440   32.8116 H   0  0  0  0  0  0
   50.7137  160.1656   31.3560 H   0  0  0  0  0  0
   46.8739  158.2607   30.8918 H   0  0  0  0  0  0
   48.7591  157.1587   30.0767 H   0  0  0  0  0  0
   51.4051  158.6611   29.8292 H   0  0  0  0  0  0
   49.8590  155.2572   29.9009 H   0  0  0  0  0  0
   50.4560  153.4186   28.4504 H   0  0  0  0  0  0
   52.9821  156.0147   26.1474 H   0  0  0  0  0  0
   52.5291  157.8351   27.7177 H   0  0  0  0  0  0
   51.7414  150.3281   25.9594 H   0  0  0  0  0  0
   53.6559  152.7993   23.4994 H   0  0  0  0  0  0
   54.6241  152.7967   24.9586 H   0  0  0  0  0  0
  1  2  2  0  0  0
  1  6  1  0  0  0
  1 22  1  0  0  0
  2  3  1  0  0  0
  2 23  1  0  0  0
  3  4  2  0  0  0
  3 24  1  0  0  0
  4  5  1  0  0  0
  4 25  1  0  0  0
  5  6  2  0  0  0
  5  7  1  0  0  0
  6 26  1  0  0  0
  7  8  2  0  0  0
  7 27  1  0  0  0
  8  9  1  0  0  0
  8 28  1  0  0  0
  9 10  2  0  0  0
  9 14  1  0  0  0
 10 11  1  0  0  0
 10 29  1  0  0  0
 11 12  2  0  0  0
 11 30  1  0  0  0
 12 13  1  0  0  0
 12 15  1  0  0  0
 13 14  2  0  0  0
 13 31  1  0  0  0
 14 32  1  0  0  0
 15 16  2  0  0  0
 15 20  1  0  0  0
 16 17  1  0  0  0
 17 18  1  0  0  0
 17 33  1  0  0  0
 18 19  1  0  0  0
 18 21  2  0  0  0
 19 20  1  0  0  0
 19 34  1  0  0  0
 19 35  1  0  0  0
M  END
> <s_m_entry_id>
10044

> <s_m_entry_name>
dock_pv.80

> <s_m_Source_Path>
/home/csk/Desktop/cluster/DUD-E-result/aofb

> <s_m_Source_File>
dock_pv.maegz

> <i_m_Source_File_Index>
80

> <chembl_id>
CHEMBL4080702

> <chembl_pref_name>
None

> <i_lp_mmshare_version>
53161

> <i_f3d_flags>
0

> <r_lp_tautomer_probability>
1

> <s_lp_Force_Field>
OPLS_2005

> <r_lp_Energy>
29.630398

> <b_lp_Chiralities_Consistent>
1

> <s_lp_Variant>
CHEMBL2039_lig1885-1

> <s_i_glide_gridfile>
glide-grid_1s3b

> <i_i_glide_lignum>
2220

> <i_i_glide_rotatable_bonds>
3

> <r_i_docking_score>
-8.05141493110118

> <r_i_glide_ligand_efficiency>
-0.383400711004818

> <r_i_glide_ligand_efficiency_sa>
-1.05777348975943

> <r_i_glide_ligand_efficiency_ln>
-1.990696072299

> <r_i_glide_gscore>
-8.05141493110118

> <r_i_glide_lipo>
-3.858908339156

> <r_i_glide_hbond>
0

> <r_i_glide_metal>
0

> <r_i_glide_rewards>
-3.18498391252839

> <r_i_glide_evdw>
-24.4111499786377

> <r_i_glide_ecoul>
-3.23383116722107

> <r_i_glide_erotb>
0.698109494598248

> <r_i_glide_esite>
0

> <r_i_glide_emodel>
-30.7159349573202

> <r_i_glide_energy>
-27.6449811458588

> <r_i_glide_einternal>
1.99875950813293

> <i_i_glide_confnum>
8

> <i_i_glide_posenum>
49

> <r_i_glide_eff_state_penalty>
0

> <s_user_duplicate_titles>
CHEMBL2039_lig1885

> <s_m_subgroup_title>
dock_pv

> <s_m_subgroupid>
dock_pv

> <b_m_subgroup_collapsed>
1

$$$$
CHEMBL2039_lig2534 
                    3D
 Schrodinger Suite 2021-1.
 33 35  0  0  1  0            999 V2000
   51.6704  159.8186   30.1040 C   0  0  0  0  0  0
   50.8558  158.7427   29.7040 C   0  0  0  0  0  0
   49.5380  158.6924   30.1727 C   0  0  0  0  0  0
   51.2184  160.7603   31.0293 C   0  0  0  0  0  0
   49.9266  160.6440   31.5326 C   0  0  0  0  0  0
   49.0897  159.6375   31.0932 C   0  0  0  0  0  0
   47.8187  159.7943   31.7884 C   0  0  0  0  0  0
   48.0516  160.9952   32.7607 C   0  0  0  0  0  0
   49.3022  161.4101   32.5040 N   0  0  0  0  0  0
   47.2560  161.4435   33.5833 O   0  0  0  0  0  0
   51.2480  157.6848   28.9040 O   0  0  0  0  0  0
   52.5980  157.4526   28.5218 C   0  0  0  0  0  0
   52.6026  156.8286   27.1155 C   0  0  0  0  0  0
   46.7671  159.1615   31.7040 O   0  0  0  0  0  0
   52.0560  155.4162   26.9631 C   0  0  0  0  0  0
   51.5889  154.6696   28.0500 C   0  0  0  0  0  0
   51.3042  153.3209   27.8809 C   0  0  0  0  0  0
   51.4904  152.7223   26.6400 C   0  0  0  0  0  0
   51.9109  153.4685   25.5451 C   0  0  0  0  0  0
   52.1768  154.8218   25.7037 C   0  0  0  0  0  0
   51.2560  151.4000   26.5040 F   0  0  0  0  0  0
   52.6912  159.8997   29.7712 H   0  0  0  0  0  0
   48.8997  157.8755   29.8765 H   0  0  0  0  0  0
   51.8831  161.5412   31.3702 H   0  0  0  0  0  0
   49.7665  162.1464   33.0164 H   0  0  0  0  0  0
   53.0823  156.7823   29.2316 H   0  0  0  0  0  0
   53.2007  158.3504   28.5040 H   0  0  0  0  0  0
   53.6329  156.8208   26.7629 H   0  0  0  0  0  0
   52.0560  157.4440   26.4163 H   0  0  0  0  0  0
   51.4920  155.0997   29.0350 H   0  0  0  0  0  0
   50.9726  152.7273   28.7186 H   0  0  0  0  0  0
   52.0560  152.9963   24.5851 H   0  0  0  0  0  0
   52.5482  155.3898   24.8633 H   0  0  0  0  0  0
  1  2  2  0  0  0
  1  4  1  0  0  0
  1 22  1  0  0  0
  2  3  1  0  0  0
  2 11  1  0  0  0
  3  6  2  0  0  0
  3 23  1  0  0  0
  4  5  2  0  0  0
  4 24  1  0  0  0
  5  6  1  0  0  0
  5  9  1  0  0  0
  6  7  1  0  0  0
  7  8  1  0  0  0
  7 14  2  0  0  0
  8  9  1  0  0  0
  8 10  2  0  0  0
  9 25  1  0  0  0
 11 12  1  0  0  0
 12 13  1  0  0  0
 12 26  1  0  0  0
 12 27  1  0  0  0
 13 15  1  0  0  0
 13 28  1  0  0  0
 13 29  1  0  0  0
 15 16  2  0  0  0
 15 20  1  0  0  0
 16 17  1  0  0  0
 16 30  1  0  0  0
 17 18  2  0  0  0
 17 31  1  0  0  0
 18 19  1  0  0  0
 18 21  1  0  0  0
 19 20  2  0  0  0
 19 32  1  0  0  0
 20 33  1  0  0  0
M  END
> <s_m_entry_id>
10045

> <s_m_entry_name>
dock_pv.81

> <s_m_Source_Path>
/home/csk/Desktop/cluster/DUD-E-result/aofb

> <s_m_Source_File>
dock_pv.maegz

> <i_m_Source_File_Index>
81

> <chembl_id>
CHEMBL4582083

> <chembl_pref_name>
None

> <i_lp_mmshare_version>
53161

> <i_f3d_flags>
0

> <r_lp_tautomer_probability>
1

> <s_lp_Force_Field>
OPLS_2005

> <r_lp_Energy>
34.271534

> <b_lp_Chiralities_Consistent>
1

> <s_lp_Variant>
CHEMBL2039_lig2534 -1

> <s_i_glide_gridfile>
glide-grid_1s3b

> <i_i_glide_lignum>
2939

> <i_i_glide_rotatable_bonds>
4

> <r_i_docking_score>
-8.05079453873681

> <r_i_glide_ligand_efficiency>
-0.383371168511277

> <r_i_glide_ligand_efficiency_sa>
-1.05769198425985

> <r_i_glide_ligand_efficiency_ln>
-1.99054268154053

> <r_i_glide_gscore>
-8.05079453873681

> <r_i_glide_lipo>
-3.35987935554316

> <r_i_glide_hbond>
-0.0574775971048251

> <r_i_glide_metal>
0

> <r_i_glide_rewards>
-2.78553198730815

> <r_i_glide_evdw>
-37.298828125

> <r_i_glide_ecoul>
-2.85382652282715

> <r_i_glide_erotb>
0.445836232366875

> <r_i_glide_esite>
-0.000726446473484549

> <r_i_glide_emodel>
-53.2260058388956

> <r_i_glide_energy>
-40.1526546478271

> <r_i_glide_einternal>
2.0243501663208

> <i_i_glide_confnum>
1

> <i_i_glide_posenum>
112

> <r_i_glide_eff_state_penalty>
0

> <s_user_duplicate_titles>
CHEMBL2039_lig2534 

> <s_m_subgroup_title>
dock_pv

> <s_m_subgroupid>
dock_pv

> <b_m_subgroup_collapsed>
1

$$$$
CHEMBL2039_lig828
                    3D
 Schrodinger Suite 2021-1.
 39 41  0  0  1  0            999 V2000
   51.1087  160.8026   31.0396 C   0  0  0  0  0  0
   51.5238  159.8449   30.1037 C   0  0  0  0  0  0
   50.6799  158.7843   29.7276 C   0  0  0  0  0  0
   49.3691  158.7239   30.2498 C   0  0  0  0  0  0
   49.8292  160.6747   31.5702 C   0  0  0  0  0  0
   48.9830  159.6818   31.1769 C   0  0  0  0  0  0
   47.8045  159.7960   31.8448 O   0  0  0  0  0  0
   48.0390  160.7509   32.8453 C   0  0  0  0  0  0
   49.2098  161.4439   32.5039 O   0  0  0  0  0  0
   51.2447  157.6864   28.9279 C   0  0  0  0  0  0
   50.7860  156.4149   28.9957 C   0  0  0  0  0  0
   51.2561  155.3280   28.1889 C   0  0  0  0  0  0
   51.6560  155.6831   26.9529 N   0  0  0  0  0  0
   51.2561  154.1725   28.6024 O   0  0  0  0  0  0
   52.2293  154.8275   25.9378 C   0  0  0  0  0  0
   51.6562  153.4780   25.4797 C   0  0  0  0  0  0
   52.7820  152.6400   24.8129 C   0  0  0  0  0  0
   53.3694  153.4052   23.6237 C   0  0  0  0  0  0
   54.0771  154.6611   24.1321 C   0  0  0  0  0  0
   53.1030  155.5753   24.9065 C   0  0  0  0  0  0
   51.7759  161.5881   31.3627 H   0  0  0  0  0  0
   52.5377  159.8828   29.7324 H   0  0  0  0  0  0
   48.6921  157.9218   30.0013 H   0  0  0  0  0  0
   47.1939  161.4349   32.9335 H   0  0  0  0  0  0
   48.1898  160.2403   33.7990 H   0  0  0  0  0  0
   52.0472  157.9527   28.2509 H   0  0  0  0  0  0
   50.0150  156.1288   29.6954 H   0  0  0  0  0  0
   51.5135  156.6421   26.6795 H   0  0  0  0  0  0
   52.8560  154.3505   26.6362 H   0  0  0  0  0  0
   51.2114  152.9198   26.3058 H   0  0  0  0  0  0
   50.8556  153.6666   24.7703 H   0  0  0  0  0  0
   53.5691  152.4316   25.5404 H   0  0  0  0  0  0
   52.4560  151.6534   24.4966 H   0  0  0  0  0  0
   54.0560  152.7770   23.0610 H   0  0  0  0  0  0
   52.5807  153.6795   22.9221 H   0  0  0  0  0  0
   54.8970  154.3691   24.7899 H   0  0  0  0  0  0
   54.5406  155.1986   23.3054 H   0  0  0  0  0  0
   52.4308  156.0777   24.2102 H   0  0  0  0  0  0
   53.6582  156.3723   25.3976 H   0  0  0  0  0  0
  1  5  1  0  0  0
  1  2  2  0  0  0
  1 21  1  0  0  0
  2  3  1  0  0  0
  2 22  1  0  0  0
  3  4  2  0  0  0
  3 10  1  0  0  0
  4  6  1  0  0  0
  4 23  1  0  0  0
  5  6  2  0  0  0
  5  9  1  0  0  0
  6  7  1  0  0  0
  7  8  1  0  0  0
  8  9  1  0  0  0
  8 24  1  0  0  0
  8 25  1  0  0  0
 10 11  2  0  0  0
 10 26  1  0  0  0
 11 12  1  0  0  0
 11 27  1  0  0  0
 12 13  1  0  0  0
 12 14  2  0  0  0
 13 15  1  0  0  0
 13 28  1  0  0  0
 15 16  1  0  0  0
 15 20  1  0  0  0
 15 29  1  0  0  0
 16 17  1  0  0  0
 16 30  1  0  0  0
 16 31  1  0  0  0
 17 18  1  0  0  0
 17 32  1  0  0  0
 17 33  1  0  0  0
 18 19  1  0  0  0
 18 34  1  0  0  0
 18 35  1  0  0  0
 19 20  1  0  0  0
 19 36  1  0  0  0
 19 37  1  0  0  0
 20 38  1  0  0  0
 20 39  1  0  0  0
M  END
> <s_m_entry_id>
10046

> <s_m_entry_name>
dock_pv.82

> <s_m_Source_Path>
/home/csk/Desktop/cluster/DUD-E-result/aofb

> <s_m_Source_File>
dock_pv.maegz

> <i_m_Source_File_Index>
82

> <chembl_id>
CHEMBL2203918

> <chembl_pref_name>
None

> <i_lp_mmshare_version>
53161

> <i_f3d_flags>
0

> <r_lp_tautomer_probability>
1

> <s_lp_Force_Field>
OPLS_2005

> <r_lp_Energy>
25.946511

> <b_lp_Chiralities_Consistent>
1

> <s_lp_Variant>
CHEMBL2039_lig828-1

> <s_i_glide_gridfile>
glide-grid_1s3b

> <i_i_glide_lignum>
961

> <i_i_glide_rotatable_bonds>
4

> <r_i_docking_score>
-8.04745063783631

> <r_i_glide_ligand_efficiency>
-0.402372531891816

> <r_i_glide_ligand_efficiency_sa>
-1.09220708791039

> <r_i_glide_ligand_efficiency_ln>
-2.01401147196445

> <r_i_glide_gscore>
-8.04745063783631

> <r_i_glide_lipo>
-3.64207267574153

> <r_i_glide_hbond>
0

> <r_i_glide_metal>
0

> <r_i_glide_rewards>
-3.34531005619136

> <r_i_glide_evdw>
-33.2219085693359

> <r_i_glide_ecoul>
0.805501341819763

> <r_i_glide_erotb>
0.48020232129041

> <r_i_glide_esite>
0

> <r_i_glide_emodel>
-33.2846802218518

> <r_i_glide_energy>
-32.4164072275162

> <r_i_glide_einternal>
2.79586815834045

> <i_i_glide_confnum>
9

> <i_i_glide_posenum>
303

> <r_i_glide_eff_state_penalty>
0

> <s_user_duplicate_titles>
CHEMBL2039_lig828

> <s_m_subgroup_title>
dock_pv

> <s_m_subgroupid>
dock_pv

> <b_m_subgroup_collapsed>
1

$$$$
CHEMBL2039_lig2133
                    3D
 Schrodinger Suite 2021-1.
 33 34  0  0  1  0            999 V2000
   46.8803  158.6434   30.9577 F   0  0  0  0  0  0
   47.6707  159.6485   31.3375 C   0  0  0  0  0  0
   47.7104  159.6734   32.6691 F   0  0  0  0  0  0
   52.2615  153.9326   24.7431 C   0  0  0  0  0  0
   51.9743  153.6092   26.2287 C   0  0  0  0  0  0
   53.6475  154.2992   24.5041 N   0  0  0  0  0  0
   51.2571  156.9785   28.9039 C   0  0  0  0  0  0
   50.6221  155.7356   29.0872 C   0  0  0  0  0  0
   50.9213  154.6459   28.2718 C   0  0  0  0  0  0
   51.7748  154.7926   27.1820 C   0  0  0  0  0  0
   52.4557  155.9992   27.0195 C   0  0  0  0  0  0
   52.2479  157.0459   27.9096 C   0  0  0  0  0  0
   50.8173  158.2342   29.6101 C   0  0  0  0  0  0
   49.5186  158.3572   30.1305 C   0  0  0  0  0  0
   49.0890  159.5179   30.7870 C   0  0  0  0  0  0
   49.9833  160.5778   30.9398 C   0  0  0  0  0  0
   51.2615  160.5006   30.4001 C   0  0  0  0  0  0
   51.6554  159.3543   29.7115 C   0  0  0  0  0  0
   47.1254  160.7845   30.9032 F   0  0  0  0  0  0
   51.5986  154.7153   24.3713 H   0  0  0  0  0  0
   52.0546  153.0445   24.1441 H   0  0  0  0  0  0
   51.0514  153.0275   26.2417 H   0  0  0  0  0  0
   52.7429  152.9504   26.6333 H   0  0  0  0  0  0
   54.2414  153.8392   25.1825 H   0  0  0  0  0  0
   53.9423  153.9617   23.5986 H   0  0  0  0  0  0
   49.8721  155.5967   29.8474 H   0  0  0  0  0  0
   50.4556  153.6920   28.4513 H   0  0  0  0  0  0
   53.1635  156.1336   26.2172 H   0  0  0  0  0  0
   52.7843  157.9593   27.7133 H   0  0  0  0  0  0
   48.8301  157.5297   30.0638 H   0  0  0  0  0  0
   49.6838  161.4626   31.4788 H   0  0  0  0  0  0
   51.9475  161.3263   30.5169 H   0  0  0  0  0  0
   52.6582  159.3217   29.3161 H   0  0  0  0  0  0
  1  2  1  0  0  0
  2  3  1  0  0  0
  2 15  1  0  0  0
  2 19  1  0  0  0
  4  5  1  0  0  0
  4  6  1  0  0  0
  4 20  1  0  0  0
  4 21  1  0  0  0
  5 10  1  0  0  0
  5 22  1  0  0  0
  5 23  1  0  0  0
  6 24  1  0  0  0
  6 25  1  0  0  0
  7  8  1  0  0  0
  7 12  2  0  0  0
  7 13  1  0  0  0
  8  9  2  0  0  0
  8 26  1  0  0  0
  9 10  1  0  0  0
  9 27  1  0  0  0
 10 11  2  0  0  0
 11 12  1  0  0  0
 11 28  1  0  0  0
 12 29  1  0  0  0
 13 14  1  0  0  0
 13 18  2  0  0  0
 14 15  2  0  0  0
 14 30  1  0  0  0
 15 16  1  0  0  0
 16 17  2  0  0  0
 16 31  1  0  0  0
 17 18  1  0  0  0
 17 32  1  0  0  0
 18 33  1  0  0  0
M  END
> <s_m_entry_id>
10047

> <s_m_entry_name>
dock_pv.83

> <s_m_Source_Path>
/home/csk/Desktop/cluster/DUD-E-result/aofb

> <s_m_Source_File>
dock_pv.maegz

> <i_m_Source_File_Index>
83

> <chembl_id>
CHEMBL4218888

> <chembl_pref_name>
None

> <i_lp_mmshare_version>
53161

> <i_f3d_flags>
0

> <r_lp_tautomer_probability>
1

> <s_lp_Force_Field>
OPLS_2005

> <r_lp_Energy>
14.658351

> <b_lp_Chiralities_Consistent>
1

> <s_lp_Variant>
CHEMBL2039_lig2133-1

> <s_i_glide_gridfile>
glide-grid_1s3b

> <i_i_glide_lignum>
2492

> <i_i_glide_rotatable_bonds>
4

> <r_i_docking_score>
-8.04375727370739

> <r_i_glide_ligand_efficiency>
-0.423355645984599

> <r_i_glide_ligand_efficiency_sa>
-1.12968290263229

> <r_i_glide_ligand_efficiency_ln>
-2.03926523295012

> <r_i_glide_gscore>
-8.04375727370739

> <r_i_glide_lipo>
-3.58825943695834

> <r_i_glide_hbond>
-0.0941536305654338

> <r_i_glide_metal>
0

> <r_i_glide_rewards>
-3.49207415075758

> <r_i_glide_evdw>
-20.5307922363281

> <r_i_glide_ecoul>
-2.32279896736145

> <r_i_glide_erotb>
0.505689401494583

> <r_i_glide_esite>
0

> <r_i_glide_emodel>
-28.1251020618488

> <r_i_glide_energy>
-22.8535912036896

> <r_i_glide_einternal>
0.896062195301056

> <i_i_glide_confnum>
4

> <i_i_glide_posenum>
293

> <r_i_glide_eff_state_penalty>
0

> <s_user_duplicate_titles>
CHEMBL2039_lig2133

> <s_m_subgroup_title>
dock_pv

> <s_m_subgroupid>
dock_pv

> <b_m_subgroup_collapsed>
1

$$$$
CHEMBL2039_lig201
                    3D
 Schrodinger Suite 2021-1.
 36 40  0  0  1  0            999 V2000
   51.5818  154.8629   27.8033 C   0  0  0  0  0  0
   52.1889  155.3979   26.6893 C   0  0  0  0  0  0
   51.5720  153.4009   27.6623 C   0  0  0  0  0  0
   52.6873  156.6440   26.6692 N   0  0  0  0  0  0
   52.1227  153.1431   26.3147 C   0  0  0  0  0  0
   52.4560  154.3520   25.7187 C   0  0  0  0  0  0
   52.4560  157.4440   27.7216 N   0  0  0  0  0  0
   51.2049  155.7246   28.8342 C   0  0  0  0  0  0
   51.6010  157.0717   28.7229 C   0  0  0  0  0  0
   50.9885  158.1862   29.5434 C   0  0  0  0  0  0
   49.7063  158.0614   30.1040 C   0  0  0  0  0  0
   51.2560  152.5784   28.5035 O   0  0  0  0  0  0
   49.1265  159.0767   30.9035 C   0  0  0  0  0  0
   51.6560  159.3974   29.7449 C   0  0  0  0  0  0
   49.8914  160.2434   31.1920 C   0  0  0  0  0  0
   51.1530  160.3991   30.5730 C   0  0  0  0  0  0
   52.4560  151.9418   25.6896 C   0  0  0  0  0  0
   53.1211  154.3902   24.5040 C   0  0  0  0  0  0
   47.8239  158.9512   31.4502 C   0  0  0  0  0  0
   49.3723  161.1927   32.1040 C   0  0  0  0  0  0
   53.1455  151.9766   24.4765 C   0  0  0  0  0  0
   53.4417  153.1969   23.8659 C   0  0  0  0  0  0
   47.3172  159.9395   32.2902 C   0  0  0  0  0  0
   48.0932  161.0408   32.6321 C   0  0  0  0  0  0
   50.6310  155.3710   29.6784 H   0  0  0  0  0  0
   49.1361  157.1575   29.9533 H   0  0  0  0  0  0
   52.6393  159.5206   29.3203 H   0  0  0  0  0  0
   51.7369  161.2868   30.7703 H   0  0  0  0  0  0
   52.2135  150.9804   26.1142 H   0  0  0  0  0  0
   53.4468  155.3354   24.1040 H   0  0  0  0  0  0
   47.2288  158.0798   31.2193 H   0  0  0  0  0  0
   49.9705  162.0537   32.3668 H   0  0  0  0  0  0
   53.4152  151.0533   23.9865 H   0  0  0  0  0  0
   53.9718  153.2110   22.9248 H   0  0  0  0  0  0
   46.3212  159.8440   32.6970 H   0  0  0  0  0  0
   47.6966  161.7874   33.3039 H   0  0  0  0  0  0
  1  2  2  0  0  0
  1  3  1  0  0  0
  1  8  1  0  0  0
  2  4  1  0  0  0
  2  6  1  0  0  0
  3  5  1  0  0  0
  3 12  2  0  0  0
  4  7  2  0  0  0
  5 17  1  0  0  0
  5  6  2  0  0  0
  6 18  1  0  0  0
  7  9  1  0  0  0
  8  9  2  0  0  0
  8 25  1  0  0  0
  9 10  1  0  0  0
 10 11  2  0  0  0
 10 14  1  0  0  0
 11 13  1  0  0  0
 11 26  1  0  0  0
 13 19  1  0  0  0
 13 15  2  0  0  0
 14 16  2  0  0  0
 14 27  1  0  0  0
 15 16  1  0  0  0
 15 20  1  0  0  0
 16 28  1  0  0  0
 17 21  2  0  0  0
 17 29  1  0  0  0
 18 22  2  0  0  0
 18 30  1  0  0  0
 19 23  2  0  0  0
 19 31  1  0  0  0
 20 24  2  0  0  0
 20 32  1  0  0  0
 21 22  1  0  0  0
 21 33  1  0  0  0
 22 34  1  0  0  0
 23 24  1  0  0  0
 23 35  1  0  0  0
 24 36  1  0  0  0
M  END
> <s_m_entry_id>
10048

> <s_m_entry_name>
dock_pv.84

> <s_m_Source_Path>
/home/csk/Desktop/cluster/DUD-E-result/aofb

> <s_m_Source_File>
dock_pv.maegz

> <i_m_Source_File_Index>
84

> <chembl_id>
CHEMBL127982

> <chembl_pref_name>
None

> <i_lp_mmshare_version>
53161

> <i_f3d_flags>
0

> <r_lp_tautomer_probability>
1

> <s_lp_Force_Field>
OPLS_2005

> <r_lp_Energy>
47.696277

> <b_lp_Chiralities_Consistent>
1

> <s_lp_Variant>
CHEMBL2039_lig201-1

> <s_i_glide_gridfile>
glide-grid_1s3b

> <i_i_glide_lignum>
242

> <i_i_glide_rotatable_bonds>
1

> <r_i_docking_score>
-8.03685380852903

> <r_i_glide_ligand_efficiency>
-0.33486890868871

> <r_i_glide_ligand_efficiency_sa>
-0.965929078307946

> <r_i_glide_ligand_efficiency_ln>
-1.92358790357178

> <r_i_glide_gscore>
-8.03685380852903

> <r_i_glide_lipo>
-4.7828873968916

> <r_i_glide_hbond>
0

> <r_i_glide_metal>
0

> <r_i_glide_rewards>
-2.46109579049027

> <r_i_glide_evdw>
-24.609842300415

> <r_i_glide_ecoul>
1.62017524242401

> <r_i_glide_erotb>
0.194595207509992

> <r_i_glide_esite>
0

> <r_i_glide_emodel>
-32.548745950403

> <r_i_glide_energy>
-22.989667057991

> <r_i_glide_einternal>
0.484406322240829

> <i_i_glide_confnum>
4

> <i_i_glide_posenum>
17

> <r_i_glide_eff_state_penalty>
0

> <s_user_duplicate_titles>
CHEMBL2039_lig201

> <s_m_subgroup_title>
dock_pv

> <s_m_subgroupid>
dock_pv

> <b_m_subgroup_collapsed>
1

$$$$
CHEMBL2039_lig2709
                    3D
 Schrodinger Suite 2021-1.
 38 40  0  0  1  0            999 V2000
   53.4204  154.3213   24.7201 S   0  0  0  0  0  0
   52.0242  153.9875   25.8473 C   0  0  1  0  0  0
   52.1073  152.5946   26.5040 C   0  0  0  0  0  0
   52.6388  151.5049   25.7040 N   0  0  0  0  0  0
   53.2560  151.5155   24.5260 C   0  0  0  0  0  0
   53.2560  152.8302   23.7202 C   0  0  0  0  0  0
   51.8179  155.0378   26.9537 C   0  0  0  0  0  0
   50.9737  154.7258   28.0302 C   0  0  0  0  0  0
   50.6742  155.6820   28.9722 C   0  0  0  0  0  0
   51.2560  156.9399   28.9040 C   0  0  0  0  0  0
   52.2275  157.2151   27.9465 C   0  0  0  0  0  0
   52.4560  156.2865   26.9356 C   0  0  0  0  0  0
   53.5618  150.4081   24.1049 O   0  0  0  0  0  0
   50.7590  157.8440   29.8067 O   0  0  0  0  0  0
   50.7850  159.2360   29.5477 C   0  0  0  0  0  0
   49.7072  159.8601   30.4227 C   0  0  0  0  0  0
   50.0560  160.5993   31.5557 C   0  0  0  0  0  0
   49.0638  161.0440   32.4258 C   0  0  0  0  0  0
   47.7256  160.7758   32.1471 C   0  0  0  0  0  0
   47.3674  160.0756   30.9974 C   0  0  0  0  0  0
   48.3600  159.6163   30.1353 C   0  0  0  0  0  0
   51.1264  154.0405   25.2297 H   0  0  0  0  0  0
   52.7069  152.6440   27.4140 H   0  0  0  0  0  0
   51.1151  152.2568   26.7978 H   0  0  0  0  0  0
   52.5988  150.5883   26.1289 H   0  0  0  0  0  0
   54.0560  152.8165   22.9867 H   0  0  0  0  0  0
   52.3454  152.9375   23.1618 H   0  0  0  0  0  0
   50.4560  153.7836   28.1050 H   0  0  0  0  0  0
   49.9406  155.4622   29.7312 H   0  0  0  0  0  0
   52.7207  158.1747   27.9219 H   0  0  0  0  0  0
   53.1441  156.5574   26.1503 H   0  0  0  0  0  0
   50.5530  159.4440   28.5040 H   0  0  0  0  0  0
   51.7720  159.6476   29.7659 H   0  0  0  0  0  0
   51.0937  160.7883   31.7933 H   0  0  0  0  0  0
   49.3388  161.5869   33.3180 H   0  0  0  0  0  0
   46.9591  161.1120   32.8298 H   0  0  0  0  0  0
   46.3271  159.8728   30.7870 H   0  0  0  0  0  0
   48.0837  159.0440   29.2622 H   0  0  0  0  0  0
  1  2  1  0  0  0
  1  6  1  0  0  0
  2  7  1  0  0  0
  2  3  1  0  0  0
  2 22  1  0  0  0
  3  4  1  0  0  0
  3 23  1  0  0  0
  3 24  1  0  0  0
  4  5  1  0  0  0
  4 25  1  0  0  0
  5  6  1  0  0  0
  5 13  2  0  0  0
  6 26  1  0  0  0
  6 27  1  0  0  0
  7 12  1  0  0  0
  7  8  2  0  0  0
  8  9  1  0  0  0
  8 28  1  0  0  0
  9 10  2  0  0  0
  9 29  1  0  0  0
 10 11  1  0  0  0
 10 14  1  0  0  0
 11 12  2  0  0  0
 11 30  1  0  0  0
 12 31  1  0  0  0
 14 15  1  0  0  0
 15 16  1  0  0  0
 15 32  1  0  0  0
 15 33  1  0  0  0
 16 17  2  0  0  0
 16 21  1  0  0  0
 17 18  1  0  0  0
 17 34  1  0  0  0
 18 19  2  0  0  0
 18 35  1  0  0  0
 19 20  1  0  0  0
 19 36  1  0  0  0
 20 21  2  0  0  0
 20 37  1  0  0  0
 21 38  1  0  0  0
M  END
> <s_m_entry_id>
10049

> <s_m_entry_name>
dock_pv.85

> <s_m_Source_Path>
/home/csk/Desktop/cluster/DUD-E-result/aofb

> <s_m_Source_File>
dock_pv.maegz

> <i_m_Source_File_Index>
85

> <chembl_id>
CHEMBL598394

> <chembl_pref_name>
None

> <i_lp_mmshare_version>
53161

> <i_f3d_flags>
0

> <r_lp_tautomer_probability>
1

> <s_lp_Force_Field>
OPLS_2005

> <r_lp_Energy>
22.171386

> <b_lp_Chiralities_Consistent>
1

> <s_lp_Variant>
CHEMBL2039_lig2709-2

> <s_i_glide_gridfile>
glide-grid_1s3b

> <i_i_glide_lignum>
3144

> <i_i_glide_rotatable_bonds>
4

> <r_i_docking_score>
-8.02949187431615

> <r_i_glide_ligand_efficiency>
-0.382356755919816

> <r_i_glide_ligand_efficiency_sa>
-1.05489329683929

> <r_i_glide_ligand_efficiency_ln>
-1.9852756408086

> <r_i_glide_gscore>
-8.02949187431615

> <r_i_glide_lipo>
-4.43157232772361

> <r_i_glide_hbond>
-0.0998071752906113

> <r_i_glide_metal>
0

> <r_i_glide_rewards>
-2.64034710685579

> <r_i_glide_evdw>
-23.431468963623

> <r_i_glide_ecoul>
-3.37186694145203

> <r_i_glide_erotb>
0.819588224952819

> <r_i_glide_esite>
0

> <r_i_glide_emodel>
-26.3524674128738

> <r_i_glide_energy>
-26.8033359050751

> <r_i_glide_einternal>
12.9709644317627

> <i_i_glide_confnum>
135

> <i_i_glide_posenum>
90

> <r_i_glide_eff_state_penalty>
0

> <s_user_duplicate_titles>
CHEMBL2039_lig2709,603655

> <s_m_subgroup_title>
dock_pv

> <s_m_subgroupid>
dock_pv

> <b_m_subgroup_collapsed>
1

$$$$
CHEMBL2039_lig1929
                    3D
 Schrodinger Suite 2021-1.
 37 39  0  0  1  0            999 V2000
   52.8560  151.5942   24.9913 C   0  0  0  0  0  0
   53.2560  152.4563   23.9738 C   0  0  0  0  0  0
   53.1487  153.8296   24.1288 C   0  0  0  0  0  0
   52.1830  152.1152   26.1033 C   0  0  0  0  0  0
   52.0724  153.4971   26.2805 C   0  0  0  0  0  0
   52.5785  154.3426   25.2850 C   0  0  0  0  0  0
   52.5963  155.7079   25.4166 O   0  0  0  0  0  0
   52.1426  156.2260   26.5773 C   0  0  0  0  0  0
   51.6560  155.5376   27.6425 C   0  0  0  0  0  0
   51.6053  154.0629   27.5735 C   0  0  0  0  0  0
   51.0446  156.2440   28.7535 C   0  0  0  0  0  0
   51.4635  157.5254   28.9419 N   0  0  0  0  0  0
   50.1066  155.7435   29.3694 O   0  0  0  0  0  0
   50.8571  158.5546   29.7040 C   0  0  0  0  0  0
   51.6547  159.6547   30.0346 C   0  0  0  0  0  0
   51.1588  160.6805   30.8362 C   0  0  0  0  0  0
   49.8387  160.6438   31.2803 C   0  0  0  0  0  0
   49.0080  159.5826   30.9196 C   0  0  0  0  0  0
   49.5179  158.5463   30.1323 C   0  0  0  0  0  0
   53.0815  150.1000   24.8405 C   0  0  0  0  0  0
   47.5676  159.5517   31.3996 C   0  0  0  0  0  0
   51.2560  153.3113   28.4816 O   0  0  0  0  0  0
   53.6768  152.0632   23.0636 H   0  0  0  0  0  0
   53.5511  154.4819   23.3747 H   0  0  0  0  0  0
   51.7734  151.4444   26.8461 H   0  0  0  0  0  0
   52.1665  157.3045   26.5056 H   0  0  0  0  0  0
   52.3648  157.7623   28.5576 H   0  0  0  0  0  0
   52.6826  159.6954   29.7040 H   0  0  0  0  0  0
   51.7985  161.5038   31.1196 H   0  0  0  0  0  0
   49.4651  161.4429   31.9041 H   0  0  0  0  0  0
   48.8630  157.7246   29.8984 H   0  0  0  0  0  0
   52.4553  149.5192   25.5187 H   0  0  0  0  0  0
   52.8561  149.7756   23.8253 H   0  0  0  0  0  0
   54.1274  149.8563   25.0121 H   0  0  0  0  0  0
   47.0450  160.4531   31.0773 H   0  0  0  0  0  0
   47.5351  159.5264   32.4895 H   0  0  0  0  0  0
   47.0220  158.6878   31.0171 H   0  0  0  0  0  0
  1  2  2  0  0  0
  1  4  1  0  0  0
  1 20  1  0  0  0
  2  3  1  0  0  0
  2 23  1  0  0  0
  3  6  2  0  0  0
  3 24  1  0  0  0
  4  5  2  0  0  0
  4 25  1  0  0  0
  5  6  1  0  0  0
  5 10  1  0  0  0
  6  7  1  0  0  0
  7  8  1  0  0  0
  8  9  2  0  0  0
  8 26  1  0  0  0
  9 10  1  0  0  0
  9 11  1  0  0  0
 10 22  2  0  0  0
 11 12  1  0  0  0
 11 13  2  0  0  0
 12 14  1  0  0  0
 12 27  1  0  0  0
 14 15  2  0  0  0
 14 19  1  0  0  0
 15 16  1  0  0  0
 15 28  1  0  0  0
 16 17  2  0  0  0
 16 29  1  0  0  0
 17 18  1  0  0  0
 17 30  1  0  0  0
 18 19  2  0  0  0
 18 21  1  0  0  0
 19 31  1  0  0  0
 20 32  1  0  0  0
 20 33  1  0  0  0
 20 34  1  0  0  0
 21 35  1  0  0  0
 21 36  1  0  0  0
 21 37  1  0  0  0
M  END
> <s_m_entry_id>
10050

> <s_m_entry_name>
dock_pv.86

> <s_m_Source_Path>
/home/csk/Desktop/cluster/DUD-E-result/aofb

> <s_m_Source_File>
dock_pv.maegz

> <i_m_Source_File_Index>
86

> <chembl_id>
CHEMBL4094520

> <chembl_pref_name>
None

> <i_lp_mmshare_version>
53161

> <i_f3d_flags>
0

> <r_lp_tautomer_probability>
1

> <s_lp_Force_Field>
OPLS_2005

> <r_lp_Energy>
25.098153

> <b_lp_Chiralities_Consistent>
1

> <s_lp_Variant>
CHEMBL2039_lig1929-1

> <s_i_glide_gridfile>
glide-grid_1s3b

> <i_i_glide_lignum>
2264

> <i_i_glide_rotatable_bonds>
3

> <r_i_docking_score>
-8.02139970431559

> <r_i_glide_ligand_efficiency>
-0.36460907746889

> <r_i_glide_ligand_efficiency_sa>
-1.02164897432915

> <r_i_glide_ligand_efficiency_ln>
-1.96072267539802

> <r_i_glide_gscore>
-8.02139970431559

> <r_i_glide_lipo>
-4.44025695343545

> <r_i_glide_hbond>
0

> <r_i_glide_metal>
0

> <r_i_glide_rewards>
-2.6473957624192

> <r_i_glide_evdw>
-25.4530715942383

> <r_i_glide_ecoul>
-1.98796403408051

> <r_i_glide_erotb>
0.637101196363056

> <r_i_glide_esite>
0

> <r_i_glide_emodel>
-27.2552107363141

> <r_i_glide_energy>
-27.4410356283188

> <r_i_glide_einternal>
3.38200759887695

> <i_i_glide_confnum>
5

> <i_i_glide_posenum>
216

> <r_i_glide_eff_state_penalty>
0

> <s_user_duplicate_titles>
CHEMBL2039_lig1929

> <s_m_subgroup_title>
dock_pv

> <s_m_subgroupid>
dock_pv

> <b_m_subgroup_collapsed>
1

$$$$
CHEMBL2039_lig2019
                    3D
 Schrodinger Suite 2021-1.
 34 36  0  0  1  0            999 V2000
   52.8560  153.5176   24.5241 C   0  0  0  0  0  0
   52.5422  152.3308   25.1833 C   0  0  0  0  0  0
   51.9032  152.3617   26.4119 C   0  0  0  0  0  0
   52.6166  154.7480   25.1490 C   0  0  0  0  0  0
   52.0560  154.7893   26.4362 C   0  0  0  0  0  0
   51.6880  153.5786   27.0340 C   0  0  0  0  0  0
   51.2157  153.5082   28.3112 O   0  0  0  0  0  0
   50.9667  154.6716   28.9371 C   0  0  0  0  0  0
   51.2920  155.9147   28.5233 C   0  0  0  0  0  0
   52.0560  156.0386   27.2650 C   0  0  0  0  0  0
   52.6472  157.0440   26.8894 O   0  0  0  0  0  0
   50.8560  157.0502   29.3040 C   0  0  0  0  0  0
   51.1011  158.2977   29.1865 N   0  0  0  0  0  0
   50.3679  159.1717   30.0273 C   0  0  0  0  0  0
   48.9703  159.0444   30.2094 C   0  0  0  0  0  0
   48.2625  159.8540   31.0886 C   0  0  0  0  0  0
   48.9309  160.8412   31.7951 C   0  0  0  0  0  0
   50.2922  161.0440   31.5811 C   0  0  0  0  0  0
   50.9996  160.2440   30.6851 C   0  0  0  0  0  0
   52.3382  160.4852   30.5130 O   0  0  0  0  0  0
   48.0552  161.8255   32.9039 Cl  0  0  0  0  0  0
   53.4726  153.4440   23.1449 C   0  0  0  0  0  0
   52.7433  151.3784   24.7139 H   0  0  0  0  0  0
   51.6209  151.4440   26.9039 H   0  0  0  0  0  0
   52.9275  155.6621   24.6612 H   0  0  0  0  0  0
   50.4558  154.4662   29.8679 H   0  0  0  0  0  0
   50.2011  156.7118   30.1039 H   0  0  0  0  0  0
   48.4177  158.2689   29.7040 H   0  0  0  0  0  0
   47.2016  159.7055   31.2296 H   0  0  0  0  0  0
   50.8064  161.8362   32.1040 H   0  0  0  0  0  0
   52.7634  159.7341   30.0815 H   0  0  0  0  0  0
   54.1652  154.2655   22.9667 H   0  0  0  0  0  0
   54.0423  152.5298   23.0138 H   0  0  0  0  0  0
   52.6845  153.4440   22.3954 H   0  0  0  0  0  0
  1  2  2  0  0  0
  1  4  1  0  0  0
  1 22  1  0  0  0
  2  3  1  0  0  0
  2 23  1  0  0  0
  3  6  2  0  0  0
  3 24  1  0  0  0
  4  5  2  0  0  0
  4 25  1  0  0  0
  5  6  1  0  0  0
  5 10  1  0  0  0
  6  7  1  0  0  0
  7  8  1  0  0  0
  8  9  2  0  0  0
  8 26  1  0  0  0
  9 10  1  0  0  0
  9 12  1  0  0  0
 10 11  2  0  0  0
 12 13  2  0  0  0
 12 27  1  0  0  0
 13 14  1  0  0  0
 14 15  2  0  0  0
 14 19  1  0  0  0
 15 16  1  0  0  0
 15 28  1  0  0  0
 16 17  2  0  0  0
 16 29  1  0  0  0
 17 18  1  0  0  0
 17 21  1  0  0  0
 18 19  2  0  0  0
 18 30  1  0  0  0
 19 20  1  0  0  0
 20 31  1  0  0  0
 22 32  1  0  0  0
 22 33  1  0  0  0
 22 34  1  0  0  0
M  END
> <s_m_entry_id>
10051

> <s_m_entry_name>
dock_pv.87

> <s_m_Source_Path>
/home/csk/Desktop/cluster/DUD-E-result/aofb

> <s_m_Source_File>
dock_pv.maegz

> <i_m_Source_File_Index>
87

> <chembl_id>
CHEMBL4099570

> <chembl_pref_name>
None

> <i_lp_mmshare_version>
53161

> <i_f3d_flags>
0

> <r_lp_tautomer_probability>
1

> <s_lp_Force_Field>
OPLS_2005

> <r_lp_Energy>
19.707909

> <b_lp_Chiralities_Consistent>
1

> <s_lp_Variant>
CHEMBL2039_lig2019-1

> <s_i_glide_gridfile>
glide-grid_1s3b

> <i_i_glide_lignum>
2354

> <i_i_glide_rotatable_bonds>
3

> <r_i_docking_score>
-8.01439342927654

> <r_i_glide_ligand_efficiency>
-0.364290610421661

> <r_i_glide_ligand_efficiency_sa>
-1.02075661713822

> <r_i_glide_ligand_efficiency_ln>
-1.95901008621838

> <r_i_glide_gscore>
-8.01439342927654

> <r_i_glide_lipo>
-4.26416046061405

> <r_i_glide_hbond>
-0.139653397884405

> <r_i_glide_metal>
0

> <r_i_glide_rewards>
-2.43438006113126

> <r_i_glide_evdw>
-23.6012897491455

> <r_i_glide_ecoul>
-2.49086785316467

> <r_i_glide_erotb>
0.377495155785152

> <r_i_glide_esite>
0

> <r_i_glide_emodel>
-25.9000092685236

> <r_i_glide_energy>
-26.0921576023102

> <r_i_glide_einternal>
2.58676338195801

> <i_i_glide_confnum>
3

> <i_i_glide_posenum>
176

> <r_i_glide_eff_state_penalty>
0

> <s_user_duplicate_titles>
CHEMBL2039_lig2019

> <s_m_subgroup_title>
dock_pv

> <s_m_subgroupid>
dock_pv

> <b_m_subgroup_collapsed>
1

$$$$
CHEMBL2039_lig1736
                    3D
 Schrodinger Suite 2021-1.
 31 33  0  0  1  0            999 V2000
   52.4498  156.3248   27.0693 C   0  0  0  0  0  0
   51.6706  156.6673   28.2609 C   0  0  0  0  0  0
   50.9727  155.3951   28.7307 C   0  0  0  0  0  0
   51.4047  154.3732   27.7188 C   0  0  0  0  0  0
   51.2557  152.9960   27.6930 C   0  0  0  0  0  0
   51.5829  152.2791   26.5457 C   0  0  0  0  0  0
   52.1809  152.9160   25.4600 C   0  0  0  0  0  0
   52.4421  154.2798   25.5242 C   0  0  0  0  0  0
   52.0560  154.9817   26.6685 C   0  0  0  0  0  0
   53.2558  157.0440   26.5040 O   0  0  0  0  0  0
   51.6560  157.9550   28.7005 C   0  0  0  0  0  0
   50.8172  158.6469   29.7040 C   0  0  0  0  0  0
   49.5725  158.1593   30.1040 C   0  0  0  0  0  0
   48.7707  158.8671   30.9901 C   0  0  0  0  0  0
   49.2302  160.0654   31.5293 C   0  0  0  0  0  0
   50.4754  160.5728   31.1495 C   0  0  0  0  0  0
   51.2560  159.8683   30.2306 C   0  0  0  0  0  0
   51.2560  150.9540   26.5040 O   0  0  0  0  0  0
   48.4091  160.7498   32.5155 C   0  0  0  0  0  0
   47.7505  161.2846   33.3017 N   0  0  0  0  0  0
   51.2560  155.0597   29.7227 H   0  0  0  0  0  0
   49.8875  155.4768   28.7178 H   0  0  0  0  0  0
   50.8151  152.4799   28.5280 H   0  0  0  0  0  0
   52.4566  152.3511   24.5817 H   0  0  0  0  0  0
   52.9782  154.7600   24.7181 H   0  0  0  0  0  0
   52.3125  158.6440   28.1916 H   0  0  0  0  0  0
   49.2026  157.2219   29.7293 H   0  0  0  0  0  0
   47.8122  158.4558   31.2768 H   0  0  0  0  0  0
   50.8543  161.4922   31.5745 H   0  0  0  0  0  0
   52.2204  160.2656   29.9500 H   0  0  0  0  0  0
   51.1916  150.5728   27.3839 H   0  0  0  0  0  0
  1  2  1  0  0  0
  1  9  1  0  0  0
  1 10  2  0  0  0
  2  3  1  0  0  0
  2 11  2  0  0  0
  3  4  1  0  0  0
  3 21  1  0  0  0
  3 22  1  0  0  0
  4  5  1  0  0  0
  4  9  2  0  0  0
  5  6  2  0  0  0
  5 23  1  0  0  0
  6  7  1  0  0  0
  6 18  1  0  0  0
  7  8  2  0  0  0
  7 24  1  0  0  0
  8  9  1  0  0  0
  8 25  1  0  0  0
 11 12  1  0  0  0
 11 26  1  0  0  0
 12 13  1  0  0  0
 12 17  2  0  0  0
 13 14  2  0  0  0
 13 27  1  0  0  0
 14 15  1  0  0  0
 14 28  1  0  0  0
 15 16  2  0  0  0
 15 19  1  0  0  0
 16 17  1  0  0  0
 16 29  1  0  0  0
 17 30  1  0  0  0
 18 31  1  0  0  0
 19 20  3  0  0  0
M  END
> <s_m_entry_id>
10052

> <s_m_entry_name>
dock_pv.88

> <s_m_Source_Path>
/home/csk/Desktop/cluster/DUD-E-result/aofb

> <s_m_Source_File>
dock_pv.maegz

> <i_m_Source_File_Index>
88

> <chembl_id>
CHEMBL3900500

> <chembl_pref_name>
None

> <i_lp_mmshare_version>
53161

> <i_f3d_flags>
0

> <r_lp_tautomer_probability>
1

> <s_lp_Force_Field>
OPLS_2005

> <r_lp_Energy>
25.185144

> <b_lp_Chiralities_Consistent>
1

> <s_lp_Variant>
CHEMBL2039_lig1736-1

> <s_i_glide_gridfile>
glide-grid_1s3b

> <i_i_glide_lignum>
2024

> <i_i_glide_rotatable_bonds>
2

> <r_i_docking_score>
-8.0104823592156

> <r_i_glide_ligand_efficiency>
-0.40052411796078

> <r_i_glide_ligand_efficiency_sa>
-1.08718972057823

> <r_i_glide_ligand_efficiency_ln>
-2.00475953112111

> <r_i_glide_gscore>
-8.0104823592156

> <r_i_glide_lipo>
-3.4783832457052

> <r_i_glide_hbond>
-0.070118489105657

> <r_i_glide_metal>
0

> <r_i_glide_rewards>
-3.08962920322793

> <r_i_glide_evdw>
-20.5021381378174

> <r_i_glide_ecoul>
-4.04533672332764

> <r_i_glide_erotb>
0.259555994213202

> <r_i_glide_esite>
0

> <r_i_glide_emodel>
-32.8547438894074

> <r_i_glide_energy>
-24.547474861145

> <r_i_glide_einternal>
0.227204695343971

> <i_i_glide_confnum>
3

> <i_i_glide_posenum>
62

> <r_i_glide_eff_state_penalty>
0

> <s_user_duplicate_titles>
CHEMBL2039_lig1736

> <s_m_subgroup_title>
dock_pv

> <s_m_subgroupid>
dock_pv

> <b_m_subgroup_collapsed>
1

$$$$
CHEMBL2039_lig1925
                    3D
 Schrodinger Suite 2021-1.
 36 38  0  0  1  0            999 V2000
   52.5642  151.2059   25.3040 C   0  0  0  0  0  0
   53.2560  151.9629   24.3466 C   0  0  0  0  0  0
   53.2394  153.3558   24.3773 C   0  0  0  0  0  0
   51.8020  151.8759   26.2625 C   0  0  0  0  0  0
   51.8082  153.2630   26.3273 C   0  0  0  0  0  0
   52.5322  153.9982   25.3872 C   0  0  0  0  0  0
   52.6417  155.3710   25.4883 O   0  0  0  0  0  0
   52.4560  155.9828   26.7149 C   0  0  0  0  0  0
   51.5586  155.3000   27.7040 C   0  0  0  0  0  0
   51.2560  154.0001   27.4600 C   0  0  0  0  0  0
   53.0462  157.0440   26.8679 O   0  0  0  0  0  0
   50.9084  155.9904   28.8226 C   0  0  0  0  0  0
   51.2560  157.2994   28.9358 N   0  0  0  0  0  0
   50.0560  155.4440   29.5230 O   0  0  0  0  0  0
   50.7117  158.3456   29.7040 C   0  0  0  0  0  0
   49.4163  158.3609   30.2471 C   0  0  0  0  0  0
   48.9952  159.4407   31.0287 C   0  0  0  0  0  0
   49.8704  160.4947   31.2983 C   0  0  0  0  0  0
   51.1528  160.4868   30.7507 C   0  0  0  0  0  0
   51.5467  159.4440   29.9182 C   0  0  0  0  0  0
   52.5117  149.8254   25.3040 O   0  0  0  0  0  0
   53.4247  149.0842   24.5040 C   0  0  0  0  0  0
   52.0560  161.4635   31.0662 O   0  0  0  0  0  0
   53.7682  151.4777   23.5383 H   0  0  0  0  0  0
   53.7945  153.9226   23.6447 H   0  0  0  0  0  0
   51.2560  151.2980   26.9945 H   0  0  0  0  0  0
   50.5740  153.4699   28.1117 H   0  0  0  0  0  0
   52.0646  157.5672   28.3880 H   0  0  0  0  0  0
   48.7399  157.5321   30.1040 H   0  0  0  0  0  0
   48.0036  159.4403   31.4570 H   0  0  0  0  0  0
   49.5565  161.3037   31.9415 H   0  0  0  0  0  0
   52.5496  159.4440   29.5180 H   0  0  0  0  0  0
   53.2979  148.0207   24.7071 H   0  0  0  0  0  0
   53.2559  149.2392   23.4380 H   0  0  0  0  0  0
   54.4560  149.3413   24.7423 H   0  0  0  0  0  0
   51.8470  161.9171   31.8913 H   0  0  0  0  0  0
  1  2  2  0  0  0
  1  4  1  0  0  0
  1 21  1  0  0  0
  2  3  1  0  0  0
  2 24  1  0  0  0
  3  6  2  0  0  0
  3 25  1  0  0  0
  4  5  2  0  0  0
  4 26  1  0  0  0
  5  6  1  0  0  0
  5 10  1  0  0  0
  6  7  1  0  0  0
  7  8  1  0  0  0
  8  9  1  0  0  0
  8 11  2  0  0  0
  9 10  2  0  0  0
  9 12  1  0  0  0
 10 27  1  0  0  0
 12 13  1  0  0  0
 12 14  2  0  0  0
 13 15  1  0  0  0
 13 28  1  0  0  0
 15 16  2  0  0  0
 15 20  1  0  0  0
 16 17  1  0  0  0
 16 29  1  0  0  0
 17 18  2  0  0  0
 17 30  1  0  0  0
 18 19  1  0  0  0
 18 31  1  0  0  0
 19 20  2  0  0  0
 19 23  1  0  0  0
 20 32  1  0  0  0
 21 22  1  0  0  0
 22 33  1  0  0  0
 22 34  1  0  0  0
 22 35  1  0  0  0
 23 36  1  0  0  0
M  END
> <s_m_entry_id>
10053

> <s_m_entry_name>
dock_pv.89

> <s_m_Source_Path>
/home/csk/Desktop/cluster/DUD-E-result/aofb

> <s_m_Source_File>
dock_pv.maegz

> <i_m_Source_File_Index>
89

> <chembl_id>
CHEMBL4081648

> <chembl_pref_name>
None

> <i_lp_mmshare_version>
53161

> <i_f3d_flags>
0

> <r_lp_tautomer_probability>
0.999999999997365

> <s_lp_Force_Field>
OPLS_2005

> <r_lp_Energy>
33.189644

> <b_lp_Chiralities_Consistent>
1

> <s_lp_Variant>
CHEMBL2039_lig1925-1

> <s_i_glide_gridfile>
glide-grid_1s3b

> <i_i_glide_lignum>
2260

> <i_i_glide_rotatable_bonds>
5

> <r_i_docking_score>
-8.00144757621421

> <r_i_glide_ligand_efficiency>
-0.347889025052792

> <r_i_glide_ligand_efficiency_sa>
-0.989350109966354

> <r_i_glide_ligand_efficiency_ln>
-1.93482257704391

> <r_i_glide_gscore>
-8.00144757621421

> <r_i_glide_lipo>
-3.97113025319056

> <r_i_glide_hbond>
-0.32

> <r_i_glide_metal>
0

> <r_i_glide_rewards>
-2.54484921668005

> <r_i_glide_evdw>
-20.8907165527344

> <r_i_glide_ecoul>
-4.6334547996521

> <r_i_glide_erotb>
0.574085941240945

> <r_i_glide_esite>
0

> <r_i_glide_emodel>
-22.817174568156

> <r_i_glide_energy>
-25.5241713523865

> <r_i_glide_einternal>
6.44332647323608

> <i_i_glide_confnum>
7

> <i_i_glide_posenum>
304

> <r_i_glide_eff_state_penalty>
0

> <s_user_duplicate_titles>
CHEMBL2039_lig1925

> <s_m_subgroup_title>
dock_pv

> <s_m_subgroupid>
dock_pv

> <b_m_subgroup_collapsed>
1

$$$$
CHEMBL2039_lig1252
                    3D
 Schrodinger Suite 2021-1.
 35 37  0  0  1  0            999 V2000
   51.0139  154.6097   28.4734 C   0  0  0  0  0  0
   51.3481  155.9450   28.3014 C   0  0  0  0  0  0
   52.0808  156.3000   27.1561 C   0  0  0  0  0  0
   51.3799  153.6565   27.5262 C   0  0  0  0  0  0
   52.0546  154.0232   26.3505 C   0  0  0  0  0  0
   52.4170  155.3755   26.1580 C   0  0  0  0  0  0
   53.1865  155.8095   24.9048 C   0  0  0  0  0  0
   54.0180  154.6458   24.3121 C   0  0  0  0  0  0
   53.0965  153.4418   24.0776 C   0  0  0  0  0  0
   52.5220  152.9520   25.4112 C   0  0  0  0  0  0
   52.4569  151.7580   25.7034 O   0  0  0  0  0  0
   50.8636  156.8388   29.2483 O   0  0  0  0  0  0
   51.2560  158.2188   29.1960 C   0  0  0  0  0  0
   50.3708  159.0681   30.1039 C   0  0  0  0  0  0
   50.8935  160.2453   30.6469 C   0  0  0  0  0  0
   50.1466  160.9866   31.5595 C   0  0  0  0  0  0
   48.8604  160.5795   31.9008 C   0  0  0  0  0  0
   48.3218  159.4197   31.3526 C   0  0  0  0  0  0
   49.0805  158.6558   30.4689 C   0  0  0  0  0  0
   48.1376  161.3067   32.7827 F   0  0  0  0  0  0
   50.4586  154.3086   29.3492 H   0  0  0  0  0  0
   52.3770  157.3240   26.9989 H   0  0  0  0  0  0
   51.1250  152.6231   27.7194 H   0  0  0  0  0  0
   52.4540  156.1561   24.1767 H   0  0  0  0  0  0
   53.8296  156.6621   25.1196 H   0  0  0  0  0  0
   54.4656  154.9554   23.3681 H   0  0  0  0  0  0
   54.8560  154.3777   24.9562 H   0  0  0  0  0  0
   52.2735  153.7830   23.4521 H   0  0  0  0  0  0
   53.6565  152.6372   23.6010 H   0  0  0  0  0  0
   51.2032  158.6445   28.1981 H   0  0  0  0  0  0
   52.2988  158.3062   29.4816 H   0  0  0  0  0  0
   51.8985  160.5606   30.4060 H   0  0  0  0  0  0
   50.5647  161.8708   32.0158 H   0  0  0  0  0  0
   47.3295  159.1001   31.6343 H   0  0  0  0  0  0
   48.6685  157.7282   30.1014 H   0  0  0  0  0  0
  1  2  2  0  0  0
  1  4  1  0  0  0
  1 21  1  0  0  0
  2  3  1  0  0  0
  2 12  1  0  0  0
  3  6  2  0  0  0
  3 22  1  0  0  0
  4  5  2  0  0  0
  4 23  1  0  0  0
  5  6  1  0  0  0
  5 10  1  0  0  0
  6  7  1  0  0  0
  7  8  1  0  0  0
  7 24  1  0  0  0
  7 25  1  0  0  0
  8  9  1  0  0  0
  8 26  1  0  0  0
  8 27  1  0  0  0
  9 10  1  0  0  0
  9 28  1  0  0  0
  9 29  1  0  0  0
 10 11  2  0  0  0
 12 13  1  0  0  0
 13 14  1  0  0  0
 13 30  1  0  0  0
 13 31  1  0  0  0
 14 15  2  0  0  0
 14 19  1  0  0  0
 15 16  1  0  0  0
 15 32  1  0  0  0
 16 17  2  0  0  0
 16 33  1  0  0  0
 17 18  1  0  0  0
 17 20  1  0  0  0
 18 19  2  0  0  0
 18 34  1  0  0  0
 19 35  1  0  0  0
M  END
> <s_m_entry_id>
10054

> <s_m_entry_name>
dock_pv.90

> <s_m_Source_Path>
/home/csk/Desktop/cluster/DUD-E-result/aofb

> <s_m_Source_File>
dock_pv.maegz

> <i_m_Source_File_Index>
90

> <chembl_id>
CHEMBL3288293

> <chembl_pref_name>
None

> <i_lp_mmshare_version>
53161

> <i_f3d_flags>
0

> <r_lp_tautomer_probability>
0.99995

> <s_lp_Force_Field>
OPLS_2005

> <r_lp_Energy>
22.758742

> <b_lp_Chiralities_Consistent>
1

> <s_lp_Variant>
CHEMBL2039_lig1252-1

> <s_i_glide_gridfile>
glide-grid_1s3b

> <i_i_glide_lignum>
1444

> <i_i_glide_rotatable_bonds>
3

> <r_i_docking_score>
-7.99920079667213

> <r_i_glide_ligand_efficiency>
-0.399960039833607

> <r_i_glide_ligand_efficiency_sa>
-1.08565857697423

> <r_i_glide_ligand_efficiency_ln>
-2.00193612810732

> <r_i_glide_gscore>
-7.99920079667213

> <r_i_glide_lipo>
-4.18768905722135

> <r_i_glide_hbond>
0

> <r_i_glide_metal>
0

> <r_i_glide_rewards>
-2.79646440673352

> <r_i_glide_evdw>
-30.7198429107666

> <r_i_glide_ecoul>
-1.42258262634277

> <r_i_glide_erotb>
0.734332206772483

> <r_i_glide_esite>
0

> <r_i_glide_emodel>
-43.0090033659176

> <r_i_glide_energy>
-32.1424255371094

> <r_i_glide_einternal>
1.02469515800476

> <i_i_glide_confnum>
17

> <i_i_glide_posenum>
359

> <r_i_glide_eff_state_penalty>
0

> <s_user_duplicate_titles>
CHEMBL2039_lig1252

> <s_m_subgroup_title>
dock_pv

> <s_m_subgroupid>
dock_pv

> <b_m_subgroup_collapsed>
1

$$$$
CHEMBL2039_lig1329
                    3D
 Schrodinger Suite 2021-1.
 36 38  0  0  1  0            999 V2000
   51.0513  153.4422   27.4441 O   0  0  0  0  0  0
   51.6002  152.6333   26.4697 C   0  0  0  0  0  0
   51.2560  151.4547   26.5040 O   0  0  0  0  0  0
   52.4560  153.2648   25.4538 C   0  0  0  0  0  0
   52.7343  154.5870   25.5037 C   0  0  0  0  0  0
   52.2769  155.3865   26.6697 C   0  0  0  0  0  0
   52.7637  156.6532   26.9865 C   0  0  0  0  0  0
   52.2874  157.3373   28.1040 C   0  0  0  0  0  0
   51.2560  156.7924   28.8729 C   0  0  0  0  0  0
   50.8932  155.4588   28.6728 C   0  0  0  0  0  0
   51.4309  154.7584   27.5932 C   0  0  0  0  0  0
   53.6637  155.2573   24.5040 C   0  0  0  0  0  0
   53.1505  152.1905   24.2238 Cl  0  0  0  0  0  0
   50.4560  157.5825   29.7040 N   0  0  0  0  0  0
   50.4949  159.0440   29.6890 C   0  0  0  0  0  0
   49.4514  159.6246   30.6425 C   0  0  0  0  0  0
   49.8102  160.5730   31.6141 C   0  0  0  0  0  0
   48.8560  161.0440   32.5163 C   0  0  0  0  0  0
   47.5350  160.6084   32.4362 C   0  0  0  0  0  0
   47.1596  159.7028   31.4459 C   0  0  0  0  0  0
   48.1126  159.2139   30.5528 C   0  0  0  0  0  0
   51.0953  161.0440   31.7040 O   0  0  0  0  0  0
   53.5107  157.1254   26.3713 H   0  0  0  0  0  0
   52.6442  158.3350   28.2912 H   0  0  0  0  0  0
   50.1474  154.9902   29.2971 H   0  0  0  0  0  0
   53.8332  154.6440   23.6209 H   0  0  0  0  0  0
   53.2407  156.2080   24.1824 H   0  0  0  0  0  0
   54.6439  155.4440   24.9304 H   0  0  0  0  0  0
   49.6336  157.1569   30.1026 H   0  0  0  0  0  0
   50.2924  159.4111   28.6817 H   0  0  0  0  0  0
   51.5009  159.3776   29.9475 H   0  0  0  0  0  0
   49.1358  161.7561   33.2781 H   0  0  0  0  0  0
   46.8004  160.9815   33.1347 H   0  0  0  0  0  0
   46.1317  159.3769   31.3739 H   0  0  0  0  0  0
   47.8083  158.5079   29.7936 H   0  0  0  0  0  0
   51.2608  161.6123   32.4686 H   0  0  0  0  0  0
  1  2  1  0  0  0
  1 11  1  0  0  0
  2  3  2  0  0  0
  2  4  1  0  0  0
  4  5  2  0  0  0
  4 13  1  0  0  0
  5  6  1  0  0  0
  5 12  1  0  0  0
  6  7  1  0  0  0
  6 11  2  0  0  0
  7  8  2  0  0  0
  7 23  1  0  0  0
  8  9  1  0  0  0
  8 24  1  0  0  0
  9 10  2  0  0  0
  9 14  1  0  0  0
 10 11  1  0  0  0
 10 25  1  0  0  0
 12 26  1  0  0  0
 12 27  1  0  0  0
 12 28  1  0  0  0
 14 15  1  0  0  0
 14 29  1  0  0  0
 15 16  1  0  0  0
 15 30  1  0  0  0
 15 31  1  0  0  0
 16 17  1  0  0  0
 16 21  2  0  0  0
 17 18  2  0  0  0
 17 22  1  0  0  0
 18 19  1  0  0  0
 18 32  1  0  0  0
 19 20  2  0  0  0
 19 33  1  0  0  0
 20 21  1  0  0  0
 20 34  1  0  0  0
 21 35  1  0  0  0
 22 36  1  0  0  0
M  END
> <s_m_entry_id>
10055

> <s_m_entry_name>
dock_pv.91

> <s_m_Source_Path>
/home/csk/Desktop/cluster/DUD-E-result/aofb

> <s_m_Source_File>
dock_pv.maegz

> <i_m_Source_File_Index>
91

> <chembl_id>
CHEMBL3394542

> <chembl_pref_name>
None

> <i_lp_mmshare_version>
53161

> <i_f3d_flags>
0

> <r_lp_tautomer_probability>
0.999999999997365

> <s_lp_Force_Field>
OPLS_2005

> <r_lp_Energy>
24.932573

> <b_lp_Chiralities_Consistent>
1

> <s_lp_Variant>
CHEMBL2039_lig1329-1

> <s_i_glide_gridfile>
glide-grid_1s3b

> <i_i_glide_lignum>
1550

> <i_i_glide_rotatable_bonds>
4

> <r_i_docking_score>
-7.9989974336357

> <r_i_glide_ligand_efficiency>
-0.363590792437986

> <r_i_glide_ligand_efficiency_sa>
-1.01879569962568

> <r_i_glide_ligand_efficiency_ln>
-1.95524674330118

> <r_i_glide_gscore>
-7.9989974336357

> <r_i_glide_lipo>
-4.49993022801155

> <r_i_glide_hbond>
-0.32

> <r_i_glide_metal>
0

> <r_i_glide_rewards>
-1.99666096043788

> <r_i_glide_evdw>
-27.0325050354004

> <r_i_glide_ecoul>
-2.60453701019287

> <r_i_glide_erotb>
0.559899558112681

> <r_i_glide_esite>
0

> <r_i_glide_emodel>
-35.4188715297025

> <r_i_glide_energy>
-29.6370420455933

> <r_i_glide_einternal>
4.18013763427734

> <i_i_glide_confnum>
14

> <i_i_glide_posenum>
11

> <r_i_glide_eff_state_penalty>
0

> <s_user_duplicate_titles>
CHEMBL2039_lig1329

> <s_m_subgroup_title>
dock_pv

> <s_m_subgroupid>
dock_pv

> <b_m_subgroup_collapsed>
1

$$$$
CHEMBL2039_lig1526
                    3D
 Schrodinger Suite 2021-1.
 38 40  0  0  1  0            999 V2000
   48.5559  160.9410   33.5059 C   0  0  0  0  0  0
   48.4986  161.2455   32.1184 O   0  0  0  0  0  0
   49.1827  160.3653   31.3168 C   0  0  0  0  0  0
   50.4956  160.6440   30.9252 C   0  0  0  0  0  0
   51.1974  159.7579   30.1040 C   0  0  0  0  0  0
   50.6148  158.5511   29.7040 C   0  0  0  0  0  0
   51.4650  157.5267   28.9398 C   0  0  0  0  0  0
   50.8560  156.1947   28.9040 N   0  0  2  0  0  0
   51.7700  155.2126   28.3540 C   0  0  1  0  0  0
   51.6560  153.7832   28.8520 C   0  0  0  0  0  0
   51.1408  154.1294   27.4973 C   0  0  2  0  0  0
   51.8433  153.6046   26.2660 C   0  0  0  0  0  0
   52.3270  154.4906   25.3040 C   0  0  0  0  0  0
   53.0426  153.9904   24.2223 C   0  0  0  0  0  0
   53.2560  152.6248   24.1040 C   0  0  0  0  0  0
   52.8560  151.7472   25.1001 C   0  0  0  0  0  0
   52.0746  152.2375   26.1430 C   0  0  0  0  0  0
   49.2940  158.2865   30.1040 C   0  0  0  0  0  0
   48.5717  159.1890   30.8773 C   0  0  0  0  0  0
   46.9383  158.8119   31.3040 Cl  0  0  0  0  0  0
   47.7411  161.4440   34.0246 H   0  0  0  0  0  0
   49.4944  161.2952   33.9308 H   0  0  0  0  0  0
   48.4560  159.8737   33.7149 H   0  0  0  0  0  0
   50.9794  161.5409   31.2809 H   0  0  0  0  0  0
   52.2215  159.9760   29.8380 H   0  0  0  0  0  0
   51.6560  157.9039   27.9353 H   0  0  0  0  0  0
   52.4498  157.4641   29.3989 H   0  0  0  0  0  0
   50.1088  156.2713   28.2287 H   0  0  0  0  0  0
   52.7833  155.5543   28.1312 H   0  0  0  0  0  0
   52.5411  153.1507   28.9040 H   0  0  0  0  0  0
   50.9534  153.5767   29.6583 H   0  0  0  0  0  0
   50.0569  154.0463   27.4379 H   0  0  0  0  0  0
   52.1741  155.5548   25.4091 H   0  0  0  0  0  0
   53.4610  154.6440   23.4807 H   0  0  0  0  0  0
   53.7748  152.2460   23.2384 H   0  0  0  0  0  0
   53.0505  150.6884   25.0117 H   0  0  0  0  0  0
   51.6606  151.5600   26.8773 H   0  0  0  0  0  0
   48.8144  157.3501   29.8637 H   0  0  0  0  0  0
  1  2  1  0  0  0
  1 21  1  0  0  0
  1 22  1  0  0  0
  1 23  1  0  0  0
  2  3  1  0  0  0
  3  4  2  0  0  0
  3 19  1  0  0  0
  4  5  1  0  0  0
  4 24  1  0  0  0
  5  6  2  0  0  0
  5 25  1  0  0  0
  6  7  1  0  0  0
  6 18  1  0  0  0
  7  8  1  0  0  0
  7 26  1  0  0  0
  7 27  1  0  0  0
  8  9  1  0  0  0
  8 28  1  0  0  0
  9 10  1  0  0  0
  9 11  1  0  0  0
  9 29  1  0  0  0
 10 11  1  0  0  0
 10 30  1  0  0  0
 10 31  1  0  0  0
 11 12  1  0  0  0
 11 32  1  0  0  0
 12 13  2  0  0  0
 12 17  1  0  0  0
 13 14  1  0  0  0
 13 33  1  0  0  0
 14 15  2  0  0  0
 14 34  1  0  0  0
 15 16  1  0  0  0
 15 35  1  0  0  0
 16 17  2  0  0  0
 16 36  1  0  0  0
 17 37  1  0  0  0
 18 19  2  0  0  0
 18 38  1  0  0  0
 19 20  1  0  0  0
M  END
> <s_m_entry_id>
10056

> <s_m_entry_name>
dock_pv.92

> <s_m_Source_Path>
/home/csk/Desktop/cluster/DUD-E-result/aofb

> <s_m_Source_File>
dock_pv.maegz

> <i_m_Source_File_Index>
92

> <chembl_id>
CHEMBL3651135

> <chembl_pref_name>
None

> <i_lp_mmshare_version>
53161

> <i_f3d_flags>
0

> <r_lp_tautomer_probability>
1

> <s_lp_Force_Field>
OPLS_2005

> <r_lp_Energy>
24.876943

> <b_lp_Chiralities_Consistent>
1

> <s_lp_Variant>
CHEMBL2039_lig1526-2

> <s_i_glide_gridfile>
glide-grid_1s3b

> <i_i_glide_lignum>
1769

> <i_i_glide_rotatable_bonds>
5

> <r_i_docking_score>
-7.99848085280105

> <r_i_glide_ligand_efficiency>
-0.399924042640052

> <r_i_glide_ligand_efficiency_sa>
-1.08556086555799

> <r_i_glide_ligand_efficiency_ln>
-2.00175594990172

> <r_i_glide_gscore>
-7.99848085280105

> <r_i_glide_lipo>
-4.90143349005894

> <r_i_glide_hbond>
0

> <r_i_glide_metal>
0

> <r_i_glide_rewards>
-2.34692986363636

> <r_i_glide_evdw>
-29.4999294281006

> <r_i_glide_ecoul>
-1.02183163166046

> <r_i_glide_erotb>
0.878153717048351

> <r_i_glide_esite>
0

> <r_i_glide_emodel>
-34.3631882032056

> <r_i_glide_energy>
-30.521761059761

> <r_i_glide_einternal>
14.1448316574097

> <i_i_glide_confnum>
101

> <i_i_glide_posenum>
209

> <r_i_glide_eff_state_penalty>
0

> <s_user_duplicate_titles>
CHEMBL2039_lig1526

> <s_m_subgroup_title>
dock_pv

> <s_m_subgroupid>
dock_pv

> <b_m_subgroup_collapsed>
1

$$$$
CHEMBL2039_lig2021
                    3D
 Schrodinger Suite 2021-1.
 34 36  0  0  1  0            999 V2000
   52.8560  153.5215   24.5598 C   0  0  0  0  0  0
   52.5055  152.3406   25.2116 C   0  0  0  0  0  0
   51.8510  152.3819   26.4319 C   0  0  0  0  0  0
   52.6345  154.7540   25.1840 C   0  0  0  0  0  0
   52.0560  154.8041   26.4621 C   0  0  0  0  0  0
   51.6560  153.6025   27.0549 C   0  0  0  0  0  0
   51.1413  153.5489   28.3171 O   0  0  0  0  0  0
   50.9074  154.7197   28.9381 C   0  0  0  0  0  0
   51.2711  155.9532   28.5288 C   0  0  0  0  0  0
   52.0560  156.0560   27.2820 C   0  0  0  0  0  0
   52.6722  157.0440   26.9039 O   0  0  0  0  0  0
   50.8560  157.1000   29.3040 C   0  0  0  0  0  0
   51.0914  158.3456   29.1545 N   0  0  0  0  0  0
   50.3808  159.2229   30.0075 C   0  0  0  0  0  0
   48.9871  159.0904   30.2258 C   0  0  0  0  0  0
   48.3073  159.8644   31.1594 C   0  0  0  0  0  0
   48.9972  160.8289   31.8776 C   0  0  0  0  0  0
   50.3453  161.0440   31.6100 C   0  0  0  0  0  0
   51.0275  160.2889   30.6608 C   0  0  0  0  0  0
   52.3381  160.6209   30.4189 O   0  0  0  0  0  0
   46.9865  159.6696   31.3731 F   0  0  0  0  0  0
   53.4857  153.4440   23.1873 C   0  0  0  0  0  0
   52.6883  151.3855   24.7404 H   0  0  0  0  0  0
   51.5346  151.4655   26.9041 H   0  0  0  0  0  0
   52.9685  155.6626   24.7012 H   0  0  0  0  0  0
   50.3702  154.5347   29.8584 H   0  0  0  0  0  0
   50.2016  156.7713   30.1040 H   0  0  0  0  0  0
   48.4209  158.3350   29.7040 H   0  0  0  0  0  0
   48.4811  161.4367   32.6058 H   0  0  0  0  0  0
   50.8560  161.8526   32.1040 H   0  0  0  0  0  0
   52.6861  161.2489   31.0559 H   0  0  0  0  0  0
   54.1802  154.2649   23.0138 H   0  0  0  0  0  0
   54.0541  152.5278   23.0648 H   0  0  0  0  0  0
   52.7053  153.4440   22.4300 H   0  0  0  0  0  0
  1  2  2  0  0  0
  1  4  1  0  0  0
  1 22  1  0  0  0
  2  3  1  0  0  0
  2 23  1  0  0  0
  3  6  2  0  0  0
  3 24  1  0  0  0
  4  5  2  0  0  0
  4 25  1  0  0  0
  5  6  1  0  0  0
  5 10  1  0  0  0
  6  7  1  0  0  0
  7  8  1  0  0  0
  8  9  2  0  0  0
  8 26  1  0  0  0
  9 10  1  0  0  0
  9 12  1  0  0  0
 10 11  2  0  0  0
 12 13  2  0  0  0
 12 27  1  0  0  0
 13 14  1  0  0  0
 14 15  2  0  0  0
 14 19  1  0  0  0
 15 16  1  0  0  0
 15 28  1  0  0  0
 16 17  2  0  0  0
 16 21  1  0  0  0
 17 18  1  0  0  0
 17 29  1  0  0  0
 18 19  2  0  0  0
 18 30  1  0  0  0
 19 20  1  0  0  0
 20 31  1  0  0  0
 22 32  1  0  0  0
 22 33  1  0  0  0
 22 34  1  0  0  0
M  END
> <s_m_entry_id>
10057

> <s_m_entry_name>
dock_pv.93

> <s_m_Source_Path>
/home/csk/Desktop/cluster/DUD-E-result/aofb

> <s_m_Source_File>
dock_pv.maegz

> <i_m_Source_File_Index>
93

> <chembl_id>
CHEMBL4090445

> <chembl_pref_name>
None

> <i_lp_mmshare_version>
53161

> <i_f3d_flags>
0

> <r_lp_tautomer_probability>
1

> <s_lp_Force_Field>
OPLS_2005

> <r_lp_Energy>
19.633286

> <b_lp_Chiralities_Consistent>
1

> <s_lp_Variant>
CHEMBL2039_lig2021-1

> <s_i_glide_gridfile>
glide-grid_1s3b

> <i_i_glide_lignum>
2356

> <i_i_glide_rotatable_bonds>
3

> <r_i_docking_score>
-7.99575791468398

> <r_i_glide_ligand_efficiency>
-0.363443541576545

> <r_i_glide_ligand_efficiency_sa>
-1.01838309692088

> <r_i_glide_ligand_efficiency_ln>
-1.95445488670505

> <r_i_glide_gscore>
-7.99575791468398

> <r_i_glide_lipo>
-4.13832445519293

> <r_i_glide_hbond>
0

> <r_i_glide_metal>
0

> <r_i_glide_rewards>
-2.99742613981721

> <r_i_glide_evdw>
-23.9437160491943

> <r_i_glide_ecoul>
-0.518073499202728

> <r_i_glide_erotb>
0.414889507666285

> <r_i_glide_esite>
0

> <r_i_glide_emodel>
-25.3215115132262

> <r_i_glide_energy>
-24.4617895483971

> <r_i_glide_einternal>
1.82845067977905

> <i_i_glide_confnum>
1

> <i_i_glide_posenum>
4

> <r_i_glide_eff_state_penalty>
0

> <s_user_duplicate_titles>
CHEMBL2039_lig2021

> <s_m_subgroup_title>
dock_pv

> <s_m_subgroupid>
dock_pv

> <b_m_subgroup_collapsed>
1

$$$$
CHEMBL2039_lig2783
                    3D
 Schrodinger Suite 2021-1.
 32 34  0  0  1  0            999 V2000
   51.3618  154.6955   28.3112 C   0  0  0  0  0  0
   51.8982  155.8022   27.7490 C   0  0  0  0  0  0
   52.3976  155.7247   26.3543 C   0  0  0  0  0  0
   52.4170  154.3523   25.7768 C   0  0  0  0  0  0
   53.0576  154.0799   24.5610 C   0  0  0  0  0  0
   53.2577  152.7651   24.1552 C   0  0  0  0  0  0
   52.8560  151.7094   24.9668 C   0  0  0  0  0  0
   52.0876  151.9763   26.1040 C   0  0  0  0  0  0
   51.8977  153.2881   26.5199 C   0  0  0  0  0  0
   51.2560  153.4772   27.7244 O   0  0  0  0  0  0
   52.8561  156.6440   25.6967 O   0  0  0  0  0  0
   52.0150  157.1544   28.4708 C   0  0  0  0  0  0
   50.8575  157.4886   29.3040 N   0  0  0  0  0  0
   50.6212  158.7450   29.8862 C   0  0  0  0  0  0
   49.3486  158.9770   30.4193 C   0  0  0  0  0  0
   49.1042  160.1015   31.2063 C   0  0  0  0  0  0
   50.1313  161.0095   31.4588 C   0  0  0  0  0  0
   51.3891  160.8174   30.8877 C   0  0  0  0  0  0
   51.6283  159.6964   30.0918 C   0  0  0  0  0  0
   47.5452  160.3385   31.9049 Cl  0  0  0  0  0  0
   50.9659  154.6738   29.3176 H   0  0  0  0  0  0
   53.4796  154.8762   23.9678 H   0  0  0  0  0  0
   53.7721  152.5666   23.2266 H   0  0  0  0  0  0
   53.0323  150.6891   24.6580 H   0  0  0  0  0  0
   51.6560  151.1732   26.6836 H   0  0  0  0  0  0
   52.1438  157.9620   27.7483 H   0  0  0  0  0  0
   52.9208  157.1506   29.0757 H   0  0  0  0  0  0
   50.0307  156.9560   29.0858 H   0  0  0  0  0  0
   48.5596  158.2538   30.2781 H   0  0  0  0  0  0
   49.9592  161.8608   32.1018 H   0  0  0  0  0  0
   52.1838  161.5220   31.0892 H   0  0  0  0  0  0
   52.6206  159.5252   29.7038 H   0  0  0  0  0  0
  1  2  2  0  0  0
  1 10  1  0  0  0
  1 21  1  0  0  0
  2  3  1  0  0  0
  2 12  1  0  0  0
  3  4  1  0  0  0
  3 11  2  0  0  0
  4  5  1  0  0  0
  4  9  2  0  0  0
  5  6  2  0  0  0
  5 22  1  0  0  0
  6  7  1  0  0  0
  6 23  1  0  0  0
  7  8  2  0  0  0
  7 24  1  0  0  0
  8  9  1  0  0  0
  8 25  1  0  0  0
  9 10  1  0  0  0
 12 13  1  0  0  0
 12 26  1  0  0  0
 12 27  1  0  0  0
 13 14  1  0  0  0
 13 28  1  0  0  0
 14 15  1  0  0  0
 14 19  2  0  0  0
 15 16  2  0  0  0
 15 29  1  0  0  0
 16 17  1  0  0  0
 16 20  1  0  0  0
 17 18  2  0  0  0
 17 30  1  0  0  0
 18 19  1  0  0  0
 18 31  1  0  0  0
 19 32  1  0  0  0
M  END
> <s_m_entry_id>
10058

> <s_m_entry_name>
dock_pv.94

> <s_m_Source_Path>
/home/csk/Desktop/cluster/DUD-E-result/aofb

> <s_m_Source_File>
dock_pv.maegz

> <i_m_Source_File_Index>
94

> <chembl_id>
CHEMBL4215788

> <chembl_pref_name>
None

> <i_lp_mmshare_version>
53161

> <i_f3d_flags>
0

> <r_lp_tautomer_probability>
1

> <s_lp_Force_Field>
OPLS_2005

> <r_lp_Energy>
14.333665

> <b_lp_Chiralities_Consistent>
1

> <s_lp_Variant>
CHEMBL2039_lig2783-1

> <s_i_glide_gridfile>
glide-grid_1s3b

> <i_i_glide_lignum>
3250

> <i_i_glide_rotatable_bonds>
3

> <r_i_docking_score>
-7.99570919669726

> <r_i_glide_ligand_efficiency>
-0.399785459834863

> <r_i_glide_ligand_efficiency_sa>
-1.08518469395061

> <r_i_glide_ligand_efficiency_ln>
-2.00106229579428

> <r_i_glide_gscore>
-7.99570919669726

> <r_i_glide_lipo>
-4.4745027320921

> <r_i_glide_hbond>
0

> <r_i_glide_metal>
0

> <r_i_glide_rewards>
-2.35899515552208

> <r_i_glide_evdw>
-27.7569122314453

> <r_i_glide_ecoul>
-2.94178605079651

> <r_i_glide_erotb>
0.666902210108669

> <r_i_glide_esite>
0

> <r_i_glide_emodel>
-36.1399914945146

> <r_i_glide_energy>
-30.6986982822418

> <r_i_glide_einternal>
4.98807334899902

> <i_i_glide_confnum>
12

> <i_i_glide_posenum>
165

> <r_i_glide_eff_state_penalty>
0

> <s_user_duplicate_titles>
CHEMBL2039_lig2783

> <s_m_subgroup_title>
dock_pv

> <s_m_subgroupid>
dock_pv

> <b_m_subgroup_collapsed>
1

$$$$
CHEMBL2039_lig1716
                    3D
 Schrodinger Suite 2021-1.
 34 37  0  0  1  0            999 V2000
   53.4836  153.5571   24.2334 C   0  0  0  0  0  0
   52.7874  152.6281   25.0017 C   0  0  0  0  0  0
   52.0561  153.0419   26.1187 C   0  0  0  0  0  0
   53.4559  154.9022   24.5866 C   0  0  0  0  0  0
   52.7293  155.3082   25.7040 C   0  0  0  0  0  0
   52.0560  154.3907   26.5122 C   0  0  0  0  0  0
   51.4489  154.8178   27.8082 C   0  0  0  0  0  0
   51.6325  156.2439   28.1684 C   0  0  0  0  0  0
   52.6758  157.0128   27.3652 C   0  0  0  0  0  0
   52.7373  156.6440   25.9818 O   0  0  0  0  0  0
   50.8560  154.0016   28.5043 O   0  0  0  0  0  0
   50.8313  156.7781   29.1295 C   0  0  0  0  0  0
   50.7118  158.1455   29.6609 C   0  0  0  0  0  0
   51.1997  160.2295   30.4293 N   0  0  0  0  0  0
   51.6559  159.1565   29.7040 C   0  0  0  0  0  0
   49.9072  159.9909   30.8329 C   0  0  0  0  0  0
   49.5436  158.7182   30.2940 C   0  0  0  0  0  0
   48.2304  158.2632   30.5041 C   0  0  0  0  0  0
   47.3452  159.0408   31.2487 C   0  0  0  0  0  0
   47.7482  160.2485   31.8083 C   0  0  0  0  0  0
   49.0363  160.7491   31.6222 C   0  0  0  0  0  0
   54.0558  153.2327   23.3766 H   0  0  0  0  0  0
   52.8155  151.5825   24.7321 H   0  0  0  0  0  0
   51.5464  152.2941   26.7110 H   0  0  0  0  0  0
   54.0322  155.6254   24.0308 H   0  0  0  0  0  0
   53.6560  156.9237   27.8288 H   0  0  0  0  0  0
   52.4270  158.0653   27.3924 H   0  0  0  0  0  0
   50.1169  156.1248   29.6150 H   0  0  0  0  0  0
   51.7727  161.0326   30.6451 H   0  0  0  0  0  0
   52.6710  159.1603   29.3311 H   0  0  0  0  0  0
   47.9131  157.3156   30.1025 H   0  0  0  0  0  0
   46.3353  158.6942   31.4108 H   0  0  0  0  0  0
   47.0418  160.8125   32.4002 H   0  0  0  0  0  0
   49.3391  161.6872   32.0649 H   0  0  0  0  0  0
  1  2  2  0  0  0
  1  4  1  0  0  0
  1 22  1  0  0  0
  2  3  1  0  0  0
  2 23  1  0  0  0
  3  6  2  0  0  0
  3 24  1  0  0  0
  4  5  2  0  0  0
  4 25  1  0  0  0
  5  6  1  0  0  0
  5 10  1  0  0  0
  6  7  1  0  0  0
  7  8  1  0  0  0
  7 11  2  0  0  0
  8  9  1  0  0  0
  8 12  2  0  0  0
  9 10  1  0  0  0
  9 26  1  0  0  0
  9 27  1  0  0  0
 12 13  1  0  0  0
 12 28  1  0  0  0
 13 17  1  0  0  0
 13 15  2  0  0  0
 14 16  1  0  0  0
 14 15  1  0  0  0
 14 29  1  0  0  0
 15 30  1  0  0  0
 16 17  2  0  0  0
 16 21  1  0  0  0
 17 18  1  0  0  0
 18 19  2  0  0  0
 18 31  1  0  0  0
 19 20  1  0  0  0
 19 32  1  0  0  0
 20 21  2  0  0  0
 20 33  1  0  0  0
 21 34  1  0  0  0
M  END
> <s_m_entry_id>
10059

> <s_m_entry_name>
dock_pv.95

> <s_m_Source_Path>
/home/csk/Desktop/cluster/DUD-E-result/aofb

> <s_m_Source_File>
dock_pv.maegz

> <i_m_Source_File_Index>
95

> <chembl_id>
CHEMBL3806317

> <chembl_pref_name>
None

> <i_lp_mmshare_version>
53161

> <i_f3d_flags>
0

> <r_lp_tautomer_probability>
1

> <s_lp_Force_Field>
OPLS_2005

> <r_lp_Energy>
19.805325

> <b_lp_Chiralities_Consistent>
1

> <s_lp_Variant>
CHEMBL2039_lig1716-1

> <s_i_glide_gridfile>
glide-grid_1s3b

> <i_i_glide_lignum>
2004

> <i_i_glide_rotatable_bonds>
1

> <r_i_docking_score>
-7.99137948336602

> <r_i_glide_ligand_efficiency>
-0.380541880160287

> <r_i_glide_ligand_efficiency_sa>
-1.04988619223427

> <r_i_glide_ligand_efficiency_ln>
-1.97585242915952

> <r_i_glide_gscore>
-7.99137948336602

> <r_i_glide_lipo>
-4.1795762737018

> <r_i_glide_hbond>
0

> <r_i_glide_metal>
0

> <r_i_glide_rewards>
-2.29786459195792

> <r_i_glide_evdw>
-28.5732192993164

> <r_i_glide_ecoul>
-0.568517684936523

> <r_i_glide_erotb>
0

> <r_i_glide_esite>
0

> <r_i_glide_emodel>
-37.7727346363373

> <r_i_glide_energy>
-29.1417369842529

> <r_i_glide_einternal>
0.0408679507672787

> <i_i_glide_confnum>
1

> <i_i_glide_posenum>
85

> <r_i_glide_eff_state_penalty>
0

> <s_user_duplicate_titles>
CHEMBL2039_lig1716

> <s_m_subgroup_title>
dock_pv

> <s_m_subgroupid>
dock_pv

> <b_m_subgroup_collapsed>
1

$$$$
CHEMBL2039_lig1730
                    3D
 Schrodinger Suite 2021-1.
 30 32  0  0  1  0            999 V2000
   52.4476  156.3250   27.0684 C   0  0  0  0  0  0
   51.6653  156.6680   28.2596 C   0  0  0  0  0  0
   50.9681  155.3979   28.7326 C   0  0  0  0  0  0
   51.4016  154.3743   27.7193 C   0  0  0  0  0  0
   51.2560  152.9961   27.6925 C   0  0  0  0  0  0
   51.5794  152.2795   26.5434 C   0  0  0  0  0  0
   52.1774  152.9171   25.4581 C   0  0  0  0  0  0
   52.4421  154.2801   25.5248 C   0  0  0  0  0  0
   52.0560  154.9817   26.6693 C   0  0  0  0  0  0
   53.2560  157.0440   26.5040 O   0  0  0  0  0  0
   51.6560  157.9558   28.6958 C   0  0  0  0  0  0
   50.8477  158.6718   29.7040 C   0  0  0  0  0  0
   51.3486  159.8766   30.2117 C   0  0  0  0  0  0
   50.5980  160.6438   31.0999 C   0  0  0  0  0  0
   49.3242  160.2192   31.4683 C   0  0  0  0  0  0
   48.8122  159.0232   30.9705 C   0  0  0  0  0  0
   49.5798  158.2454   30.1040 C   0  0  0  0  0  0
   51.2560  150.9527   26.5040 O   0  0  0  0  0  0
   48.3845  161.1680   32.5630 Cl  0  0  0  0  0  0
   51.2560  155.0624   29.7230 H   0  0  0  0  0  0
   49.8832  155.4909   28.7310 H   0  0  0  0  0  0
   50.8151  152.4774   28.5258 H   0  0  0  0  0  0
   52.4560  152.3531   24.5800 H   0  0  0  0  0  0
   52.9795  154.7604   24.7196 H   0  0  0  0  0  0
   52.3108  158.6377   28.1739 H   0  0  0  0  0  0
   52.3342  160.2181   29.9308 H   0  0  0  0  0  0
   51.0065  161.5572   31.5072 H   0  0  0  0  0  0
   47.8289  158.6895   31.2676 H   0  0  0  0  0  0
   49.1736  157.3146   29.7466 H   0  0  0  0  0  0
   51.4621  150.5301   27.3467 H   0  0  0  0  0  0
  1  2  1  0  0  0
  1  9  1  0  0  0
  1 10  2  0  0  0
  2  3  1  0  0  0
  2 11  2  0  0  0
  3  4  1  0  0  0
  3 20  1  0  0  0
  3 21  1  0  0  0
  4  5  1  0  0  0
  4  9  2  0  0  0
  5  6  2  0  0  0
  5 22  1  0  0  0
  6  7  1  0  0  0
  6 18  1  0  0  0
  7  8  2  0  0  0
  7 23  1  0  0  0
  8  9  1  0  0  0
  8 24  1  0  0  0
 11 12  1  0  0  0
 11 25  1  0  0  0
 12 13  1  0  0  0
 12 17  2  0  0  0
 13 14  2  0  0  0
 13 26  1  0  0  0
 14 15  1  0  0  0
 14 27  1  0  0  0
 15 16  2  0  0  0
 15 19  1  0  0  0
 16 17  1  0  0  0
 16 28  1  0  0  0
 17 29  1  0  0  0
 18 30  1  0  0  0
M  END
> <s_m_entry_id>
10060

> <s_m_entry_name>
dock_pv.96

> <s_m_Source_Path>
/home/csk/Desktop/cluster/DUD-E-result/aofb

> <s_m_Source_File>
dock_pv.maegz

> <i_m_Source_File_Index>
96

> <chembl_id>
CHEMBL3907033

> <chembl_pref_name>
None

> <i_lp_mmshare_version>
53161

> <i_f3d_flags>
0

> <r_lp_tautomer_probability>
1

> <s_lp_Force_Field>
OPLS_2005

> <r_lp_Energy>
24.320825

> <b_lp_Chiralities_Consistent>
1

> <s_lp_Variant>
CHEMBL2039_lig1730-1

> <s_i_glide_gridfile>
glide-grid_1s3b

> <i_i_glide_lignum>
2018

> <i_i_glide_rotatable_bonds>
2

> <r_i_docking_score>
-7.9864822289873

> <r_i_glide_ligand_efficiency>
-0.4203411699467

> <r_i_glide_ligand_efficiency_sa>
-1.12163906981062

> <r_i_glide_ligand_efficiency_ln>
-2.02474477895841

> <r_i_glide_gscore>
-7.9864822289873

> <r_i_glide_lipo>
-3.75149535678731

> <r_i_glide_hbond>
-0.194236589668304

> <r_i_glide_metal>
0

> <r_i_glide_rewards>
-2.47558552575679

> <r_i_glide_evdw>
-18.0203151702881

> <r_i_glide_ecoul>
-4.42765998840332

> <r_i_glide_erotb>
0

> <r_i_glide_esite>
0

> <r_i_glide_emodel>
-24.5418880227658

> <r_i_glide_energy>
-22.4479751586914

> <r_i_glide_einternal>
3.24088048934937

> <i_i_glide_confnum>
1

> <i_i_glide_posenum>
159

> <r_i_glide_eff_state_penalty>
0

> <s_user_duplicate_titles>
CHEMBL2039_lig1730

> <s_m_subgroup_title>
dock_pv

> <s_m_subgroupid>
dock_pv

> <b_m_subgroup_collapsed>
1

$$$$
CHEMBL2039_lig1476
                    3D
 Schrodinger Suite 2021-1.
 34 35  0  0  1  0            999 V2000
   50.0486  159.1425   30.3324 C   0  0  0  0  0  0
   51.1971  159.9393   30.4637 C   0  0  0  0  0  0
   51.2076  161.0440   31.3040 C   0  0  0  0  0  0
   50.0560  161.3975   31.9975 C   0  0  0  0  0  0
   48.8819  160.6897   31.8006 C   0  0  0  0  0  0
   48.8511  159.5662   30.9685 C   0  0  0  0  0  0
   50.1868  157.8027   29.7040 C   0  0  0  0  0  0
   51.2345  157.3249   28.9865 C   0  0  0  0  0  0
   51.2560  155.9632   28.5040 C   0  0  0  0  0  0
   51.8751  155.8646   27.3126 N   0  0  0  0  0  0
   50.7034  155.0445   29.1082 O   0  0  0  0  0  0
   52.0560  154.7474   26.4858 C   0  0  0  0  0  0
   52.7692  154.9799   25.3040 C   0  0  0  0  0  0
   53.1732  153.9097   24.5125 C   0  0  0  0  0  0
   52.8496  152.6149   24.9040 C   0  0  0  0  0  0
   52.0749  152.3794   26.0374 C   0  0  0  0  0  0
   51.6589  153.4439   26.8246 C   0  0  0  0  0  0
   47.5038  158.8472   30.8398 C   0  0  0  0  0  0
   47.2716  158.3749   29.6196 F   0  0  0  0  0  0
   47.5158  157.8443   31.7040 F   0  0  0  0  0  0
   46.4701  159.6368   31.1435 F   0  0  0  0  0  0
   53.2560  151.5596   24.1418 O   0  0  0  0  0  0
   52.1322  159.6571   30.0050 H   0  0  0  0  0  0
   52.1165  161.6108   31.4465 H   0  0  0  0  0  0
   50.0560  162.2440   32.6630 H   0  0  0  0  0  0
   47.9973  161.0143   32.3295 H   0  0  0  0  0  0
   49.3647  157.1271   29.8973 H   0  0  0  0  0  0
   52.0923  157.9336   28.7396 H   0  0  0  0  0  0
   52.2810  156.7173   26.9613 H   0  0  0  0  0  0
   53.0700  155.9799   25.0272 H   0  0  0  0  0  0
   53.7562  154.0865   23.6212 H   0  0  0  0  0  0
   51.8023  151.3697   26.3075 H   0  0  0  0  0  0
   51.0956  153.2155   27.7145 H   0  0  0  0  0  0
   53.8523  151.8440   23.4434 H   0  0  0  0  0  0
  1  2  2  0  0  0
  1  6  1  0  0  0
  1  7  1  0  0  0
  2  3  1  0  0  0
  2 23  1  0  0  0
  3  4  2  0  0  0
  3 24  1  0  0  0
  4  5  1  0  0  0
  4 25  1  0  0  0
  5  6  2  0  0  0
  5 26  1  0  0  0
  6 18  1  0  0  0
  7  8  2  0  0  0
  7 27  1  0  0  0
  8  9  1  0  0  0
  8 28  1  0  0  0
  9 10  1  0  0  0
  9 11  2  0  0  0
 10 12  1  0  0  0
 10 29  1  0  0  0
 12 13  2  0  0  0
 12 17  1  0  0  0
 13 14  1  0  0  0
 13 30  1  0  0  0
 14 15  2  0  0  0
 14 31  1  0  0  0
 15 16  1  0  0  0
 15 22  1  0  0  0
 16 17  2  0  0  0
 16 32  1  0  0  0
 17 33  1  0  0  0
 18 19  1  0  0  0
 18 20  1  0  0  0
 18 21  1  0  0  0
 22 34  1  0  0  0
M  END
> <s_m_entry_id>
10061

> <s_m_entry_name>
dock_pv.97

> <s_m_Source_Path>
/home/csk/Desktop/cluster/DUD-E-result/aofb

> <s_m_Source_File>
dock_pv.maegz

> <i_m_Source_File_Index>
97

> <chembl_id>
CHEMBL3613266

> <chembl_pref_name>
None

> <i_lp_mmshare_version>
53161

> <i_f3d_flags>
0

> <r_lp_tautomer_probability>
0.999999999997365

> <s_lp_Force_Field>
OPLS_2005

> <r_lp_Energy>
21.358997

> <b_lp_Chiralities_Consistent>
1

> <s_lp_Variant>
CHEMBL2039_lig1476-1

> <s_i_glide_gridfile>
glide-grid_1s3b

> <i_i_glide_lignum>
1700

> <i_i_glide_rotatable_bonds>
6

> <r_i_docking_score>
-7.98306910621288

> <r_i_glide_ligand_efficiency>
-0.362866777555131

> <r_i_glide_ligand_efficiency_sa>
-1.01676698145003

> <r_i_glide_ligand_efficiency_ln>
-1.95135327907918

> <r_i_glide_gscore>
-7.98306910621288

> <r_i_glide_lipo>
-3.55152419064994

> <r_i_glide_hbond>
-0.14161204006867

> <r_i_glide_metal>
0

> <r_i_glide_rewards>
-3.28059017111863

> <r_i_glide_evdw>
-29.1851787567139

> <r_i_glide_ecoul>
-2.22138428688049

> <r_i_glide_erotb>
0.783123876492129

> <r_i_glide_esite>
0

> <r_i_glide_emodel>
-44.1743629197903

> <r_i_glide_energy>
-31.4065630435944

> <r_i_glide_einternal>
3.81181311607361

> <i_i_glide_confnum>
18

> <i_i_glide_posenum>
220

> <r_i_glide_eff_state_penalty>
0

> <s_user_duplicate_titles>
CHEMBL2039_lig1476

> <s_m_subgroup_title>
dock_pv

> <s_m_subgroupid>
dock_pv

> <b_m_subgroup_collapsed>
1

$$$$
CHEMBL2039_lig1940
                    3D
 Schrodinger Suite 2021-1.
 36 38  0  0  1  0            999 V2000
   52.7210  151.5738   25.2160 C   0  0  0  0  0  0
   53.2560  152.3289   24.1638 C   0  0  0  0  0  0
   53.2450  153.7251   24.2078 C   0  0  0  0  0  0
   52.0560  152.2440   26.2289 C   0  0  0  0  0  0
   52.0674  153.6322   26.3203 C   0  0  0  0  0  0
   52.6796  154.3738   25.3040 C   0  0  0  0  0  0
   52.8358  155.7406   25.4052 O   0  0  0  0  0  0
   52.4285  156.3418   26.5563 C   0  0  0  0  0  0
   51.8418  155.7393   27.6213 C   0  0  0  0  0  0
   51.6560  154.2748   27.5860 C   0  0  0  0  0  0
   51.2560  156.4974   28.7157 C   0  0  0  0  0  0
   51.6560  157.7816   28.9040 N   0  0  0  0  0  0
   50.3263  156.0109   29.3541 O   0  0  0  0  0  0
   51.0348  158.7738   29.7002 C   0  0  0  0  0  0
   51.8348  159.8440   30.1040 C   0  0  0  0  0  0
   51.3606  160.7643   31.0284 C   0  0  0  0  0  0
   50.0594  160.6440   31.5032 C   0  0  0  0  0  0
   49.2033  159.6683   31.0097 C   0  0  0  0  0  0
   49.6883  158.7324   30.1040 C   0  0  0  0  0  0
   52.6986  150.1968   25.3040 O   0  0  0  0  0  0
   53.4523  149.4070   24.3979 C   0  0  0  0  0  0
   49.6365  161.4643   32.5042 O   0  0  0  0  0  0
   51.2560  153.5730   28.5125 O   0  0  0  0  0  0
   53.6708  151.8440   23.2996 H   0  0  0  0  0  0
   53.7130  154.2884   23.4176 H   0  0  0  0  0  0
   51.5975  151.6447   27.0025 H   0  0  0  0  0  0
   52.5644  157.4107   26.4844 H   0  0  0  0  0  0
   52.5493  158.0420   28.5157 H   0  0  0  0  0  0
   52.8656  159.8982   29.7882 H   0  0  0  0  0  0
   52.0170  161.5344   31.4074 H   0  0  0  0  0  0
   48.1881  159.6001   31.3716 H   0  0  0  0  0  0
   49.0163  157.9572   29.7787 H   0  0  0  0  0  0
   53.2005  148.3567   24.5472 H   0  0  0  0  0  0
   53.2557  149.6442   23.3527 H   0  0  0  0  0  0
   54.5153  149.5121   24.5952 H   0  0  0  0  0  0
   50.3807  161.8893   32.9484 H   0  0  0  0  0  0
  1  2  2  0  0  0
  1  4  1  0  0  0
  1 20  1  0  0  0
  2  3  1  0  0  0
  2 24  1  0  0  0
  3  6  2  0  0  0
  3 25  1  0  0  0
  4  5  2  0  0  0
  4 26  1  0  0  0
  5  6  1  0  0  0
  5 10  1  0  0  0
  6  7  1  0  0  0
  7  8  1  0  0  0
  8  9  2  0  0  0
  8 27  1  0  0  0
  9 10  1  0  0  0
  9 11  1  0  0  0
 10 23  2  0  0  0
 11 12  1  0  0  0
 11 13  2  0  0  0
 12 14  1  0  0  0
 12 28  1  0  0  0
 14 15  2  0  0  0
 14 19  1  0  0  0
 15 16  1  0  0  0
 15 29  1  0  0  0
 16 17  2  0  0  0
 16 30  1  0  0  0
 17 18  1  0  0  0
 17 22  1  0  0  0
 18 19  2  0  0  0
 18 31  1  0  0  0
 19 32  1  0  0  0
 20 21  1  0  0  0
 21 33  1  0  0  0
 21 34  1  0  0  0
 21 35  1  0  0  0
 22 36  1  0  0  0
M  END
> <s_m_entry_id>
10062

> <s_m_entry_name>
dock_pv.98

> <s_m_Source_Path>
/home/csk/Desktop/cluster/DUD-E-result/aofb

> <s_m_Source_File>
dock_pv.maegz

> <i_m_Source_File_Index>
98

> <chembl_id>
CHEMBL4102366

> <chembl_pref_name>
None

> <i_lp_mmshare_version>
53161

> <i_f3d_flags>
0

> <r_lp_tautomer_probability>
0.999999999997365

> <s_lp_Force_Field>
OPLS_2005

> <r_lp_Energy>
27.280236

> <b_lp_Chiralities_Consistent>
1

> <s_lp_Variant>
CHEMBL2039_lig1940-1

> <s_i_glide_gridfile>
glide-grid_1s3b

> <i_i_glide_lignum>
2275

> <i_i_glide_rotatable_bonds>
5

> <r_i_docking_score>
-7.98299561054567

> <r_i_glide_ligand_efficiency>
-0.347086765675899

> <r_i_glide_ligand_efficiency_sa>
-0.987068591017517

> <r_i_glide_ligand_efficiency_ln>
-1.93036072443208

> <r_i_glide_gscore>
-7.98299561054567

> <r_i_glide_lipo>
-3.84333916513964

> <r_i_glide_hbond>
-0.32

> <r_i_glide_metal>
0

> <r_i_glide_rewards>
-2.16850184614252

> <r_i_glide_evdw>
-28.2775135040283

> <r_i_glide_ecoul>
-5.40909910202026

> <r_i_glide_erotb>
0.574085941240945

> <r_i_glide_esite>
0

> <r_i_glide_emodel>
-34.8094862155556

> <r_i_glide_energy>
-33.6866126060486

> <r_i_glide_einternal>
4.78719615936279

> <i_i_glide_confnum>
2

> <i_i_glide_posenum>
397

> <r_i_glide_eff_state_penalty>
0

> <s_user_duplicate_titles>
CHEMBL2039_lig1940

> <s_m_subgroup_title>
dock_pv

> <s_m_subgroupid>
dock_pv

> <b_m_subgroup_collapsed>
1

$$$$
CHEMBL2039_lig2292
                    3D
 Schrodinger Suite 2021-1.
 31 33  0  0  1  0            999 V2000
   52.2964  157.1835   28.5040 S   0  0  0  0  0  0
   51.6570  151.3189   26.1040 F   0  0  0  0  0  0
   52.0470  161.4546   30.8706 O   0  0  0  0  0  0
   50.0560  158.1327   29.7040 N   0  0  0  0  0  0
   51.8216  159.5667   29.7040 N   0  0  0  0  0  0
   49.9320  160.2122   30.9860 C   0  0  0  0  0  0
   49.3341  159.0480   30.4928 C   0  0  0  0  0  0
   51.3423  160.5092   30.5402 C   0  0  0  0  0  0
   51.2560  158.3876   29.3384 C   0  0  0  0  0  0
   49.2505  161.0439   31.8775 C   0  0  0  0  0  0
   48.0218  158.7399   30.8440 C   0  0  0  0  0  0
   51.6560  154.8204   27.1732 C   0  0  0  0  0  0
   47.9364  160.7255   32.2288 C   0  0  0  0  0  0
   51.2935  155.6548   28.4037 C   0  0  0  0  0  0
   47.3176  159.5869   31.7040 C   0  0  0  0  0  0
   51.4825  153.4315   27.1982 C   0  0  0  0  0  0
   51.8688  152.6533   26.1040 C   0  0  0  0  0  0
   52.1793  155.4127   26.0126 C   0  0  0  0  0  0
   52.4560  153.2487   24.9906 C   0  0  0  0  0  0
   52.6055  154.6296   24.9463 C   0  0  0  0  0  0
   52.8040  159.6613   29.5080 H   0  0  0  0  0  0
   49.7283  161.9222   32.2913 H   0  0  0  0  0  0
   47.5622  157.8440   30.4579 H   0  0  0  0  0  0
   47.3933  161.3662   32.9086 H   0  0  0  0  0  0
   50.2225  155.8440   28.4105 H   0  0  0  0  0  0
   51.5020  155.0691   29.3007 H   0  0  0  0  0  0
   46.2980  159.3553   31.9769 H   0  0  0  0  0  0
   51.0556  152.9487   28.0654 H   0  0  0  0  0  0
   52.3086  156.4815   25.9347 H   0  0  0  0  0  0
   52.7758  152.6409   24.1569 H   0  0  0  0  0  0
   53.0740  155.1006   24.1040 H   0  0  0  0  0  0
  1 14  1  0  0  0
  1  9  1  0  0  0
  2 17  1  0  0  0
  3  8  2  0  0  0
  4  7  1  0  0  0
  4  9  2  0  0  0
  5  9  1  0  0  0
  5 21  1  0  0  0
  5  8  1  0  0  0
  6  8  1  0  0  0
  6 10  1  0  0  0
  6  7  2  0  0  0
  7 11  1  0  0  0
 10 22  1  0  0  0
 10 13  2  0  0  0
 11 15  2  0  0  0
 11 23  1  0  0  0
 12 14  1  0  0  0
 12 16  1  0  0  0
 12 18  2  0  0  0
 13 24  1  0  0  0
 13 15  1  0  0  0
 14 25  1  0  0  0
 14 26  1  0  0  0
 15 27  1  0  0  0
 16 17  2  0  0  0
 16 28  1  0  0  0
 17 19  1  0  0  0
 18 20  1  0  0  0
 18 29  1  0  0  0
 19 20  2  0  0  0
 19 30  1  0  0  0
 20 31  1  0  0  0
M  END
> <s_m_entry_id>
10063

> <s_m_entry_name>
dock_pv.99

> <s_m_Source_Path>
/home/csk/Desktop/cluster/DUD-E-result/aofb

> <s_m_Source_File>
dock_pv.maegz

> <i_m_Source_File_Index>
99

> <chembl_id>
CHEMBL1711342

> <chembl_pref_name>
None

> <i_lp_mmshare_version>
53161

> <i_f3d_flags>
0

> <r_lp_tautomer_probability>
0.883938

> <s_lp_Force_Field>
OPLS_2005

> <r_lp_Energy>
16.639788

> <b_lp_Chiralities_Consistent>
1

> <s_lp_Variant>
CHEMBL2039_lig2292-1

> <s_i_glide_gridfile>
glide-grid_1s3b

> <i_i_glide_lignum>
2657

> <i_i_glide_rotatable_bonds>
3

> <r_i_docking_score>
-7.96616506317789

> <r_i_glide_ligand_efficiency>
-0.398308253158895

> <r_i_glide_ligand_efficiency_sa>
-1.08117493813001

> <r_i_glide_ligand_efficiency_ln>
-1.99366837360512

> <r_i_glide_gscore>
-7.96616506317789

> <r_i_glide_lipo>
-4.03034564628789

> <r_i_glide_hbond>
-0.0854491222527758

> <r_i_glide_metal>
0

> <r_i_glide_rewards>
-2.72598778781379

> <r_i_glide_evdw>
-34.4433708190918

> <r_i_glide_ecoul>
-0.335773378610611

> <r_i_glide_erotb>
0.664469640447413

> <r_i_glide_esite>
-0.0163175995246701

> <r_i_glide_emodel>
-45.490253790824

> <r_i_glide_energy>
-34.7791441977024

> <r_i_glide_einternal>
4.50686407089233

> <i_i_glide_confnum>
7

> <i_i_glide_posenum>
42

> <r_i_glide_eff_state_penalty>
0

> <s_user_duplicate_titles>
CHEMBL2039_lig2292,CHEMBL2039_lig2292

> <s_m_subgroup_title>
dock_pv

> <s_m_subgroupid>
dock_pv

> <b_m_subgroup_collapsed>
1

$$$$
CHEMBL2039_lig1920
                    3D
 Schrodinger Suite 2021-1.
 37 39  0  0  1  0            999 V2000
   52.8560  151.3996   25.0427 C   0  0  0  0  0  0
   53.2560  152.2496   24.0159 C   0  0  0  0  0  0
   53.1216  153.6248   24.1306 C   0  0  0  0  0  0
   52.1031  151.9315   26.1040 C   0  0  0  0  0  0
   51.9440  153.3115   26.2282 C   0  0  0  0  0  0
   52.5139  154.1486   25.2645 C   0  0  0  0  0  0
   52.5324  155.5165   25.4280 O   0  0  0  0  0  0
   52.4560  156.0287   26.7016 C   0  0  0  0  0  0
   51.6069  155.2918   27.6840 C   0  0  0  0  0  0
   51.3708  153.9783   27.4124 C   0  0  0  0  0  0
   53.1032  157.0440   26.9040 O   0  0  0  0  0  0
   50.9285  155.9651   28.7975 C   0  0  0  0  0  0
   51.2560  157.2761   28.9580 N   0  0  0  0  0  0
   50.0561  155.4130   29.4609 O   0  0  0  0  0  0
   50.6326  158.3016   29.7040 C   0  0  0  0  0  0
   49.3287  158.2440   30.2264 C   0  0  0  0  0  0
   48.7910  159.3246   30.9320 C   0  0  0  0  0  0
   49.5585  160.4757   31.1174 C   0  0  0  0  0  0
   50.8448  160.5522   30.5858 C   0  0  0  0  0  0
   51.3699  159.4744   29.8733 C   0  0  0  0  0  0
   53.0824  149.9043   24.9040 C   0  0  0  0  0  0
   47.3888  159.2478   31.5093 C   0  0  0  0  0  0
   53.6867  151.8440   23.1185 H   0  0  0  0  0  0
   53.5193  154.2580   23.3557 H   0  0  0  0  0  0
   51.6560  151.2850   26.8458 H   0  0  0  0  0  0
   50.7233  153.4016   28.0599 H   0  0  0  0  0  0
   52.0825  157.5722   28.4536 H   0  0  0  0  0  0
   48.7264  157.3577   30.1040 H   0  0  0  0  0  0
   49.1618  161.3120   31.6747 H   0  0  0  0  0  0
   51.4387  161.4419   30.7350 H   0  0  0  0  0  0
   52.3742  159.5415   29.4799 H   0  0  0  0  0  0
   52.4559  149.3285   25.5857 H   0  0  0  0  0  0
   52.8560  149.5739   23.8909 H   0  0  0  0  0  0
   54.1266  149.6575   25.0769 H   0  0  0  0  0  0
   46.7503  160.0057   31.0535 H   0  0  0  0  0  0
   47.4148  159.4443   32.5819 H   0  0  0  0  0  0
   46.9314  158.2693   31.3558 H   0  0  0  0  0  0
  1  2  2  0  0  0
  1  4  1  0  0  0
  1 21  1  0  0  0
  2  3  1  0  0  0
  2 23  1  0  0  0
  3  6  2  0  0  0
  3 24  1  0  0  0
  4  5  2  0  0  0
  4 25  1  0  0  0
  5  6  1  0  0  0
  5 10  1  0  0  0
  6  7  1  0  0  0
  7  8  1  0  0  0
  8 11  2  0  0  0
  8  9  1  0  0  0
  9 12  1  0  0  0
  9 10  2  0  0  0
 10 26  1  0  0  0
 12 13  1  0  0  0
 12 14  2  0  0  0
 13 15  1  0  0  0
 13 27  1  0  0  0
 15 16  2  0  0  0
 15 20  1  0  0  0
 16 17  1  0  0  0
 16 28  1  0  0  0
 17 18  2  0  0  0
 17 22  1  0  0  0
 18 19  1  0  0  0
 18 29  1  0  0  0
 19 20  2  0  0  0
 19 30  1  0  0  0
 20 31  1  0  0  0
 21 32  1  0  0  0
 21 33  1  0  0  0
 21 34  1  0  0  0
 22 35  1  0  0  0
 22 36  1  0  0  0
 22 37  1  0  0  0
M  END
> <s_m_entry_id>
10064

> <s_m_entry_name>
dock_pv.100

> <s_m_Source_Path>
/home/csk/Desktop/cluster/DUD-E-result/aofb

> <s_m_Source_File>
dock_pv.maegz

> <i_m_Source_File_Index>
100

> <chembl_id>
CHEMBL494808

> <chembl_pref_name>
None

> <i_lp_mmshare_version>
53161

> <i_f3d_flags>
0

> <r_lp_tautomer_probability>
1

> <s_lp_Force_Field>
OPLS_2005

> <r_lp_Energy>
30.281699

> <b_lp_Chiralities_Consistent>
1

> <s_lp_Variant>
CHEMBL2039_lig1920-1

> <s_i_glide_gridfile>
glide-grid_1s3b

> <i_i_glide_lignum>
2255

> <i_i_glide_rotatable_bonds>
3

> <r_i_docking_score>
-7.9650352709387

> <r_i_glide_ligand_efficiency>
-0.362047057769941

> <r_i_glide_ligand_efficiency_sa>
-1.01447009437418

> <r_i_glide_ligand_efficiency_ln>
-1.94694515193805

> <r_i_glide_gscore>
-7.9650352709387

> <r_i_glide_lipo>
-4.59063306132874

> <r_i_glide_hbond>
0

> <r_i_glide_metal>
0

> <r_i_glide_rewards>
-2.5618388132301

> <r_i_glide_evdw>
-24.648416519165

> <r_i_glide_ecoul>
-1.44829177856445

> <r_i_glide_erotb>
0.637101196363056

> <r_i_glide_esite>
0

> <r_i_glide_emodel>
-25.944556418124

> <r_i_glide_energy>
-26.0967082977295

> <r_i_glide_einternal>
4.34127807617188

> <i_i_glide_confnum>
1

> <i_i_glide_posenum>
390

> <r_i_glide_eff_state_penalty>
0

> <s_user_duplicate_titles>
CHEMBL2039_lig1920

> <s_m_subgroup_title>
dock_pv

> <s_m_subgroupid>
dock_pv

> <b_m_subgroup_collapsed>
1

$$$$
CHEMBL2039_lig1698
                    3D
 Schrodinger Suite 2021-1.
 40 42  0  0  1  0            999 V2000
   49.8410  158.0732   29.7680 O   0  0  0  0  0  0
   51.0552  158.6480   29.6993 C   0  0  0  0  0  0
   51.0528  159.8995   30.4715 C   0  0  0  0  0  0
   49.6970  159.9572   31.0219 C   0  0  0  0  0  0
   49.0319  158.8787   30.4970 C   0  0  0  0  0  0
   49.0181  160.8230   31.8763 C   0  0  0  0  0  0
   47.6561  160.6436   32.1031 C   0  0  0  0  0  0
   46.9919  159.5846   31.4888 C   0  0  0  0  0  0
   47.6775  158.6679   30.6994 C   0  0  0  0  0  0
   51.9936  160.6819   30.6010 O   0  0  0  0  0  0
   45.6560  159.4440   31.6552 O   0  0  0  0  0  0
   49.6560  161.8440   32.5040 O   0  0  0  0  0  0
   52.0596  158.1225   28.9742 C   0  0  0  0  0  0
   52.0610  156.8754   28.1852 C   0  0  0  0  0  0
   51.3103  155.7308   28.4746 C   0  0  0  0  0  0
   51.3402  154.6439   27.5953 C   0  0  0  0  0  0
   52.0560  154.7137   26.3843 C   0  0  0  0  0  0
   52.7804  155.8809   26.1040 C   0  0  0  0  0  0
   52.8401  156.9055   27.0390 C   0  0  0  0  0  0
   52.0868  153.6183   25.4800 N   0  0  0  0  0  0
   52.5326  153.8597   24.1040 C   0  0  0  0  0  0
   52.1046  152.2586   26.0421 C   0  0  0  0  0  0
   53.0045  151.2403   25.3041 C   0  0  0  0  0  0
   47.1290  161.3285   32.7499 H   0  0  0  0  0  0
   47.1586  157.8440   30.2409 H   0  0  0  0  0  0
   45.2433  160.1838   32.1041 H   0  0  0  0  0  0
   50.6165  161.8166   32.4271 H   0  0  0  0  0  0
   52.9989  158.6534   28.9433 H   0  0  0  0  0  0
   50.7076  155.6765   29.3687 H   0  0  0  0  0  0
   50.7647  153.7639   27.8392 H   0  0  0  0  0  0
   53.3860  155.9730   25.2168 H   0  0  0  0  0  0
   53.4834  157.7574   26.8837 H   0  0  0  0  0  0
   53.6126  154.0097   24.0732 H   0  0  0  0  0  0
   52.2951  153.0439   23.4285 H   0  0  0  0  0  0
   52.0561  154.7543   23.7041 H   0  0  0  0  0  0
   51.0822  151.8871   26.1040 H   0  0  0  0  0  0
   52.4491  152.3055   27.0743 H   0  0  0  0  0  0
   52.8669  150.2378   25.7040 H   0  0  0  0  0  0
   54.0561  151.5044   25.4154 H   0  0  0  0  0  0
   52.8035  151.1604   24.2385 H   0  0  0  0  0  0
  1  2  1  0  0  0
  1  5  1  0  0  0
  2  3  1  0  0  0
  2 13  2  0  0  0
  3  4  1  0  0  0
  3 10  2  0  0  0
  4  5  1  0  0  0
  4  6  2  0  0  0
  5  9  2  0  0  0
  6  7  1  0  0  0
  6 12  1  0  0  0
  7  8  2  0  0  0
  7 24  1  0  0  0
  8  9  1  0  0  0
  8 11  1  0  0  0
  9 25  1  0  0  0
 11 26  1  0  0  0
 12 27  1  0  0  0
 13 14  1  0  0  0
 13 28  1  0  0  0
 14 15  1  0  0  0
 14 19  2  0  0  0
 15 16  2  0  0  0
 15 29  1  0  0  0
 16 17  1  0  0  0
 16 30  1  0  0  0
 17 18  2  0  0  0
 17 20  1  0  0  0
 18 19  1  0  0  0
 18 31  1  0  0  0
 19 32  1  0  0  0
 20 21  1  0  0  0
 20 22  1  0  0  0
 21 33  1  0  0  0
 21 34  1  0  0  0
 21 35  1  0  0  0
 22 23  1  0  0  0
 22 36  1  0  0  0
 22 37  1  0  0  0
 23 38  1  0  0  0
 23 39  1  0  0  0
 23 40  1  0  0  0
M  END
> <s_m_entry_id>
10065

> <s_m_entry_name>
dock_pv.101

> <s_m_Source_Path>
/home/csk/Desktop/cluster/DUD-E-result/aofb

> <s_m_Source_File>
dock_pv.maegz

> <i_m_Source_File_Index>
101

> <chembl_id>
CHEMBL3786785

> <chembl_pref_name>
None

> <i_lp_mmshare_version>
53161

> <i_f3d_flags>
0

> <r_lp_tautomer_probability>
1

> <s_lp_Force_Field>
OPLS_2005

> <r_lp_Energy>
34.456772

> <b_lp_Chiralities_Consistent>
1

> <s_lp_Variant>
CHEMBL2039_lig1698-1

> <s_i_glide_gridfile>
glide-grid_1s3b

> <i_i_glide_lignum>
1986

> <i_i_glide_rotatable_bonds>
5

> <r_i_docking_score>
-7.96007627545492

> <r_i_glide_ligand_efficiency>
-0.346090272845866

> <r_i_glide_ligand_efficiency_sa>
-0.98423469796549

> <r_i_glide_ligand_efficiency_ln>
-1.9248186213861

> <r_i_glide_gscore>
-7.96007627545492

> <r_i_glide_lipo>
-4.26202255309009

> <r_i_glide_hbond>
0

> <r_i_glide_metal>
0

> <r_i_glide_rewards>
-1.97955761321813

> <r_i_glide_evdw>
-32.0650215148926

> <r_i_glide_ecoul>
-3.31917333602905

> <r_i_glide_erotb>
0.382630967002288

> <r_i_glide_esite>
0

> <r_i_glide_emodel>
-41.9676455631709

> <r_i_glide_energy>
-35.3841948509216

> <r_i_glide_einternal>
6.06410503387451

> <i_i_glide_confnum>
2

> <i_i_glide_posenum>
4

> <r_i_glide_eff_state_penalty>
0

> <s_user_duplicate_titles>
CHEMBL2039_lig1698

> <s_m_subgroup_title>
dock_pv

> <s_m_subgroupid>
dock_pv

> <b_m_subgroup_collapsed>
1

$$$$
CHEMBL2039_lig917
                    3D
 Schrodinger Suite 2021-1.
 34 35  0  0  1  0            999 V2000
   52.8560  151.8501   24.8685 C   0  0  0  0  0  0
   53.1246  153.0450   24.2139 C   0  0  0  0  0  0
   52.8008  154.2485   24.8229 C   0  0  0  0  0  0
   52.2069  154.2857   26.0970 C   0  0  0  0  0  0
   51.8612  153.0662   26.7105 C   0  0  0  0  0  0
   52.1667  151.8662   26.0767 C   0  0  0  0  0  0
   51.2560  152.9687   27.9317 O   0  0  0  0  0  0
   52.0560  155.6373   26.7121 C   0  0  0  0  0  0
   52.0560  156.6440   26.0253 O   0  0  0  0  0  0
   52.1941  155.8439   28.2227 C   0  0  0  0  0  0
   50.8560  156.0731   28.9040 C   0  0  0  0  0  0
   50.5825  157.3661   29.5519 C   0  0  0  0  0  0
   49.3761  157.6426   30.1040 C   0  0  0  0  0  0
   48.9355  158.8684   30.8036 C   0  0  0  0  0  0
   49.8061  159.9272   31.0869 C   0  0  0  0  0  0
   49.3723  161.0040   31.8558 C   0  0  0  0  0  0
   48.0561  161.0440   32.3086 C   0  0  0  0  0  0
   47.1675  160.0214   31.9932 C   0  0  0  0  0  0
   47.6087  158.9353   31.2446 C   0  0  0  0  0  0
   50.0495  155.1496   28.9086 O   0  0  0  0  0  0
   53.6560  153.0440   22.9727 F   0  0  0  0  0  0
   53.0908  150.9122   24.3882 H   0  0  0  0  0  0
   53.0617  155.1552   24.2971 H   0  0  0  0  0  0
   51.8609  150.9252   26.5040 H   0  0  0  0  0  0
   50.9007  153.7969   28.2815 H   0  0  0  0  0  0
   52.8521  156.6938   28.4065 H   0  0  0  0  0  0
   51.3912  158.0818   29.5644 H   0  0  0  0  0  0
   48.6154  156.8753   30.0568 H   0  0  0  0  0  0
   50.8353  159.9030   30.7605 H   0  0  0  0  0  0
   50.0574  161.8025   32.1041 H   0  0  0  0  0  0
   47.7196  161.8799   32.9036 H   0  0  0  0  0  0
   46.1449  160.0627   32.3397 H   0  0  0  0  0  0
   46.9142  158.1360   31.0300 H   0  0  0  0  0  0
   52.6788  154.9777   28.6706 H   0  0  0  0  0  0
  1  2  2  0  0  0
  1  6  1  0  0  0
  1 22  1  0  0  0
  2  3  1  0  0  0
  2 21  1  0  0  0
  3  4  2  0  0  0
  3 23  1  0  0  0
  4  5  1  0  0  0
  4  8  1  0  0  0
  5  6  2  0  0  0
  5  7  1  0  0  0
  6 24  1  0  0  0
  7 25  1  0  0  0
  8 10  1  0  0  0
  8  9  2  0  0  0
 10 11  1  0  0  0
 10 26  1  0  0  0
 10 34  1  0  0  0
 11 12  1  0  0  0
 11 20  2  0  0  0
 12 13  2  0  0  0
 12 27  1  0  0  0
 13 14  1  0  0  0
 13 28  1  0  0  0
 14 15  2  0  0  0
 14 19  1  0  0  0
 15 16  1  0  0  0
 15 29  1  0  0  0
 16 17  2  0  0  0
 16 30  1  0  0  0
 17 18  1  0  0  0
 17 31  1  0  0  0
 18 19  2  0  0  0
 18 32  1  0  0  0
 19 33  1  0  0  0
M  END
> <s_m_entry_id>
10066

> <s_m_entry_name>
dock_pv.102

> <s_m_Source_Path>
/home/csk/Desktop/cluster/DUD-E-result/aofb

> <s_m_Source_File>
dock_pv.maegz

> <i_m_Source_File_Index>
102

> <chembl_id>
CHEMBL2332166

> <chembl_pref_name>
None

> <i_lp_mmshare_version>
53161

> <i_f3d_flags>
0

> <r_lp_tautomer_probability>
0.692307692307692

> <s_lp_Force_Field>
OPLS_2005

> <r_lp_Energy>
27.120082

> <b_lp_Chiralities_Consistent>
1

> <s_lp_Variant>
CHEMBL2039_lig917-1

> <s_i_glide_gridfile>
glide-grid_1s3b

> <i_i_glide_lignum>
1060

> <i_i_glide_rotatable_bonds>
6

> <r_i_docking_score>
-7.95783780128448

> <r_i_glide_ligand_efficiency>
-0.378944657204023

> <r_i_glide_ligand_efficiency_sa>
-1.04547957520964

> <r_i_glide_ligand_efficiency_ln>
-1.96755931604221

> <r_i_glide_gscore>
-7.95783780128448

> <r_i_glide_lipo>
-4.18572329187339

> <r_i_glide_hbond>
-0.000157022088555528

> <r_i_glide_metal>
0

> <r_i_glide_rewards>
-3.35148652752918

> <r_i_glide_evdw>
-24.6337966918945

> <r_i_glide_ecoul>
-0.572355628013611

> <r_i_glide_erotb>
0.89707221900341

> <r_i_glide_esite>
0

> <r_i_glide_emodel>
-27.0498367844893

> <r_i_glide_energy>
-25.2061523199081

> <r_i_glide_einternal>
11.2308521270752

> <i_i_glide_confnum>
12

> <i_i_glide_posenum>
150

> <r_i_glide_eff_state_penalty>
0

> <s_user_duplicate_titles>
CHEMBL2039_lig917

> <s_m_subgroup_title>
dock_pv

> <s_m_subgroupid>
dock_pv

> <b_m_subgroup_collapsed>
1

$$$$
CHEMBL2039_lig1531
                    3D
 Schrodinger Suite 2021-1.
 42 44  0  0  1  0            999 V2000
   48.3385  160.8986   34.0977 C   0  0  0  0  0  0
   48.5021  161.4429   32.7957 O   0  0  0  0  0  0
   49.0345  160.5774   31.8743 C   0  0  0  0  0  0
   50.3268  160.7805   31.4033 C   0  0  0  0  0  0
   50.8891  159.8814   30.5036 C   0  0  0  0  0  0
   50.1685  158.7701   30.0470 C   0  0  0  0  0  0
   51.0029  157.7316   29.2784 C   0  0  0  0  0  0
   50.4559  156.3739   29.3040 N   0  0  2  0  0  0
   51.4087  155.4128   28.7809 C   0  0  1  0  0  0
   51.2554  153.9789   29.2342 C   0  0  0  0  0  0
   50.8451  154.3558   27.8512 C   0  0  2  0  0  0
   51.6424  153.9584   26.6288 C   0  0  0  0  0  0
   52.0716  154.9637   25.7663 C   0  0  0  0  0  0
   52.9126  154.6447   24.7093 C   0  0  0  0  0  0
   53.2682  153.3196   24.4760 C   0  0  0  0  0  0
   52.8110  152.3065   25.3142 C   0  0  0  0  0  0
   51.9857  152.6289   26.3914 C   0  0  0  0  0  0
   48.8024  158.6531   30.4114 C   0  0  0  0  0  0
   47.6560  157.5381   29.7210 Cl  0  0  0  0  0  0
   48.2789  159.5151   31.3691 C   0  0  0  0  0  0
   47.0065  159.2846   31.8128 O   0  0  0  0  0  0
   46.0563  160.2216   31.3716 C   0  0  0  0  0  0
   47.5544  161.4441   34.6198 H   0  0  0  0  0  0
   49.2650  161.0142   34.6546 H   0  0  0  0  0  0
   48.0575  159.8436   34.1112 H   0  0  0  0  0  0
   50.9111  161.6079   31.7787 H   0  0  0  0  0  0
   51.9251  160.0110   30.2225 H   0  0  0  0  0  0
   51.2560  158.0874   28.2790 H   0  0  0  0  0  0
   51.9893  157.7076   29.7349 H   0  0  0  0  0  0
   49.6772  156.3848   28.6610 H   0  0  0  0  0  0
   52.4376  155.7556   28.6404 H   0  0  0  0  0  0
   52.0589  153.2646   29.2946 H   0  0  0  0  0  0
   50.5453  153.8443   30.0462 H   0  0  0  0  0  0
   49.7709  154.2441   27.7097 H   0  0  0  0  0  0
   51.8155  155.9958   25.9565 H   0  0  0  0  0  0
   53.3165  155.4364   24.1040 H   0  0  0  0  0  0
   53.9235  153.0810   23.6514 H   0  0  0  0  0  0
   53.0943  151.2799   25.1336 H   0  0  0  0  0  0
   51.6317  151.8512   27.0515 H   0  0  0  0  0  0
   45.2559  159.7150   30.8347 H   0  0  0  0  0  0
   45.6561  160.6440   32.2833 H   0  0  0  0  0  0
   46.4471  161.0270   30.7430 H   0  0  0  0  0  0
  1  2  1  0  0  0
  1 23  1  0  0  0
  1 24  1  0  0  0
  1 25  1  0  0  0
  2  3  1  0  0  0
  3  4  2  0  0  0
  3 20  1  0  0  0
  4  5  1  0  0  0
  4 26  1  0  0  0
  5  6  2  0  0  0
  5 27  1  0  0  0
  6  7  1  0  0  0
  6 18  1  0  0  0
  7  8  1  0  0  0
  7 28  1  0  0  0
  7 29  1  0  0  0
  8  9  1  0  0  0
  8 30  1  0  0  0
  9 10  1  0  0  0
  9 11  1  0  0  0
  9 31  1  0  0  0
 10 11  1  0  0  0
 10 32  1  0  0  0
 10 33  1  0  0  0
 11 12  1  0  0  0
 11 34  1  0  0  0
 12 13  2  0  0  0
 12 17  1  0  0  0
 13 14  1  0  0  0
 13 35  1  0  0  0
 14 15  2  0  0  0
 14 36  1  0  0  0
 15 16  1  0  0  0
 15 37  1  0  0  0
 16 17  2  0  0  0
 16 38  1  0  0  0
 17 39  1  0  0  0
 18 19  1  0  0  0
 18 20  2  0  0  0
 20 21  1  0  0  0
 21 22  1  0  0  0
 22 40  1  0  0  0
 22 41  1  0  0  0
 22 42  1  0  0  0
M  END
> <s_m_entry_id>
10067

> <s_m_entry_name>
dock_pv.103

> <s_m_Source_Path>
/home/csk/Desktop/cluster/DUD-E-result/aofb

> <s_m_Source_File>
dock_pv.maegz

> <i_m_Source_File_Index>
103

> <chembl_id>
CHEMBL3651145

> <chembl_pref_name>
None

> <i_lp_mmshare_version>
53161

> <i_f3d_flags>
0

> <r_lp_tautomer_probability>
1

> <s_lp_Force_Field>
OPLS_2005

> <r_lp_Energy>
33.56997

> <b_lp_Chiralities_Consistent>
1

> <s_lp_Variant>
CHEMBL2039_lig1531-2

> <s_i_glide_gridfile>
glide-grid_1s3b

> <i_i_glide_lignum>
1777

> <i_i_glide_rotatable_bonds>
6

> <r_i_docking_score>
-7.94944349344758

> <r_i_glide_ligand_efficiency>
-0.361338340611254

> <r_i_glide_ligand_efficiency_sa>
-1.01248424102328

> <r_i_glide_ligand_efficiency_ln>
-1.94313395279531

> <r_i_glide_gscore>
-7.94944349344758

> <r_i_glide_lipo>
-4.97812268123228

> <r_i_glide_hbond>
0

> <r_i_glide_metal>
0

> <r_i_glide_rewards>
-2.14220727272727

> <r_i_glide_evdw>
-26.311616897583

> <r_i_glide_ecoul>
-1.67715978622437

> <r_i_glide_erotb>
0.738041273324774

> <r_i_glide_esite>
0

> <r_i_glide_emodel>
-17.1062326236754

> <r_i_glide_energy>
-27.9887766838074

> <r_i_glide_einternal>
24.4583206176758

> <i_i_glide_confnum>
48

> <i_i_glide_posenum>
159

> <r_i_glide_eff_state_penalty>
0

> <s_user_duplicate_titles>
CHEMBL2039_lig1531

> <s_m_subgroup_title>
dock_pv

> <s_m_subgroupid>
dock_pv

> <b_m_subgroup_collapsed>
1

$$$$
CHEMBL2039_lig1219
                    3D
 Schrodinger Suite 2021-1.
 45 47  0  0  1  0            999 V2000
   50.5332  159.6902   30.1041 C   0  0  0  0  0  0
   50.5040  158.5157   29.6155 N   0  0  0  0  0  0
   51.6641  157.9573   29.0761 N   0  0  0  0  0  0
   51.7177  156.7729   28.3810 C   0  0  0  0  0  0
   52.3237  156.6398   27.2344 N   0  0  0  0  0  0
   52.1351  155.4443   26.6878 C   0  0  0  0  0  0
   51.4693  154.5263   27.5218 C   0  0  0  0  0  0
   50.8558  155.3819   28.9039 S   0  0  0  0  0  0
   52.7917  155.1111   25.3689 C   0  0  0  0  0  0
   53.8310  155.9189   24.9020 C   0  0  0  0  0  0
   54.7216  155.4536   23.9442 C   0  0  0  0  0  0
   52.5019  153.9314   24.6726 C   0  0  0  0  0  0
   53.3338  153.4921   23.6528 C   0  0  0  0  0  0
   54.4558  154.2441   23.3137 C   0  0  0  0  0  0
   49.2437  160.4989   30.3159 C   0  0  0  0  0  0
   47.9824  159.9958   29.5789 C   0  0  0  0  0  0
   47.4067  158.6974   30.1824 C   0  0  0  0  0  0
   47.1962  158.8344   31.7043 C   0  0  0  0  0  0
   48.3997  159.4438   32.4571 C   0  0  0  0  0  0
   48.8497  160.7475   31.7914 C   0  0  0  0  0  0
   51.7980  160.4641   30.5046 C   0  0  0  0  0  0
   51.2558  153.0475   27.3796 C   0  0  0  0  0  0
   52.4140  158.6276   28.9747 H   0  0  0  0  0  0
   54.0515  156.8732   25.3526 H   0  0  0  0  0  0
   55.5761  156.0520   23.6640 H   0  0  0  0  0  0
   51.6596  153.3146   24.9252 H   0  0  0  0  0  0
   53.1218  152.5682   23.1341 H   0  0  0  0  0  0
   55.0871  153.8853   22.5205 H   0  0  0  0  0  0
   49.4774  161.4439   29.8656 H   0  0  0  0  0  0
   48.2379  159.7933   28.5377 H   0  0  0  0  0  0
   47.2580  160.8040   29.4948 H   0  0  0  0  0  0
   48.0562  157.8464   29.9877 H   0  0  0  0  0  0
   46.4589  158.4641   29.6989 H   0  0  0  0  0  0
   46.9831  157.8459   32.1032 H   0  0  0  0  0  0
   46.3096  159.4422   31.8914 H   0  0  0  0  0  0
   49.2298  158.7458   32.4342 H   0  0  0  0  0  0
   48.1509  159.6092   33.5065 H   0  0  0  0  0  0
   48.1255  161.5572   31.8808 H   0  0  0  0  0  0
   49.7121  161.1196   32.3454 H   0  0  0  0  0  0
   51.8229  160.6347   31.5797 H   0  0  0  0  0  0
   52.7214  159.9471   30.2526 H   0  0  0  0  0  0
   51.8371  161.4381   30.0192 H   0  0  0  0  0  0
   52.1529  152.5294   27.0431 H   0  0  0  0  0  0
   50.9431  152.5690   28.3082 H   0  0  0  0  0  0
   50.4688  152.8905   26.6416 H   0  0  0  0  0  0
  1  2  2  0  0  0
  1 15  1  0  0  0
  1 21  1  0  0  0
  2  3  1  0  0  0
  3  4  1  0  0  0
  3 23  1  0  0  0
  4  5  2  0  0  0
  4  8  1  0  0  0
  5  6  1  0  0  0
  6  7  2  0  0  0
  6  9  1  0  0  0
  7  8  1  0  0  0
  7 22  1  0  0  0
  9 10  2  0  0  0
  9 12  1  0  0  0
 10 11  1  0  0  0
 10 24  1  0  0  0
 11 14  2  0  0  0
 11 25  1  0  0  0
 12 13  2  0  0  0
 12 26  1  0  0  0
 13 14  1  0  0  0
 13 27  1  0  0  0
 14 28  1  0  0  0
 15 16  1  0  0  0
 15 20  1  0  0  0
 15 29  1  0  0  0
 16 17  1  0  0  0
 16 30  1  0  0  0
 16 31  1  0  0  0
 17 18  1  0  0  0
 17 32  1  0  0  0
 17 33  1  0  0  0
 18 19  1  0  0  0
 18 34  1  0  0  0
 18 35  1  0  0  0
 19 20  1  0  0  0
 19 36  1  0  0  0
 19 37  1  0  0  0
 20 38  1  0  0  0
 20 39  1  0  0  0
 21 40  1  0  0  0
 21 41  1  0  0  0
 21 42  1  0  0  0
 22 43  1  0  0  0
 22 44  1  0  0  0
 22 45  1  0  0  0
M  END
> <s_m_entry_id>
10069

> <s_m_entry_name>
dock_pv.105

> <s_m_Source_Path>
/home/csk/Desktop/cluster/DUD-E-result/aofb

> <s_m_Source_File>
dock_pv.maegz

> <i_m_Source_File_Index>
105

> <chembl_id>
CHEMBL3219201

> <chembl_pref_name>
None

> <i_lp_mmshare_version>
53161

> <i_f3d_flags>
0

> <r_lp_tautomer_probability>
1

> <s_lp_Force_Field>
OPLS_2005

> <r_lp_Energy>
22.222933

> <b_lp_Chiralities_Consistent>
1

> <s_lp_Variant>
CHEMBL2039_lig1219-1

> <s_i_glide_gridfile>
glide-grid_1s3b

> <i_i_glide_lignum>
1402

> <i_i_glide_rotatable_bonds>
4

> <r_i_docking_score>
-7.93921099406672

> <r_i_glide_ligand_efficiency>
-0.360873227003033

> <r_i_glide_ligand_efficiency_sa>
-1.01118097440116

> <r_i_glide_ligand_efficiency_ln>
-1.94063275670715

> <r_i_glide_gscore>
-7.93921099406672

> <r_i_glide_lipo>
-4.52662845311058

> <r_i_glide_hbond>
0

> <r_i_glide_metal>
0

> <r_i_glide_rewards>
-2.62185463636364

> <r_i_glide_evdw>
-26.927417755127

> <r_i_glide_ecoul>
-0.0764571279287338

> <r_i_glide_erotb>
0.567111552353158

> <r_i_glide_esite>
0

> <r_i_glide_emodel>
-24.0792882145462

> <r_i_glide_energy>
-27.0038748830557

> <r_i_glide_einternal>
6.82115364074707

> <i_i_glide_confnum>
14

> <i_i_glide_posenum>
391

> <r_i_glide_eff_state_penalty>
0

> <s_user_duplicate_titles>
CHEMBL2039_lig1219

> <s_m_subgroup_title>
dock_pv

> <s_m_subgroupid>
dock_pv

> <b_m_subgroup_collapsed>
1

$$$$
CHEMBL2039_lig654
                    3D
 Schrodinger Suite 2021-1.
 31 33  0  0  1  0            999 V2000
   51.4229  155.8438   28.1456 C   0  0  0  0  0  0
   51.0388  154.5528   28.5022 C   0  0  0  0  0  0
   51.3306  153.4658   27.6797 C   0  0  0  0  0  0
   52.1045  156.0428   26.9359 C   0  0  0  0  0  0
   52.4202  154.9617   26.1040 C   0  0  0  0  0  0
   52.0257  153.6700   26.4922 C   0  0  0  0  0  0
   52.3452  152.5464   25.7568 O   0  0  0  0  0  0
   53.1272  152.7110   24.6619 C   0  0  0  0  0  0
   53.5732  153.8951   24.2063 C   0  0  0  0  0  0
   53.2559  155.1429   24.8876 C   0  0  0  0  0  0
   53.6577  156.2424   24.5057 O   0  0  0  0  0  0
   51.0607  156.8511   29.0129 O   0  0  0  0  0  0
   51.6561  158.1428   28.9040 C   0  0  0  0  0  0
   50.9358  159.1361   29.8023 C   0  0  0  0  0  0
   49.5796  158.9866   30.1221 C   0  0  0  0  0  0
   48.9683  159.8433   31.0367 C   0  0  0  0  0  0
   49.7061  160.8660   31.6283 C   0  0  0  0  0  0
   51.0459  161.0439   31.2825 C   0  0  0  0  0  0
   51.6560  160.1899   30.3708 C   0  0  0  0  0  0
   47.6660  159.6730   31.3589 F   0  0  0  0  0  0
   50.5157  154.3935   29.4334 H   0  0  0  0  0  0
   51.0455  152.4673   27.9756 H   0  0  0  0  0  0
   52.4253  157.0315   26.6432 H   0  0  0  0  0  0
   53.3467  151.7679   24.1803 H   0  0  0  0  0  0
   54.1928  153.9133   23.3237 H   0  0  0  0  0  0
   51.6559  158.5443   27.8965 H   0  0  0  0  0  0
   52.7026  158.0583   29.1802 H   0  0  0  0  0  0
   49.0017  158.1795   29.7040 H   0  0  0  0  0  0
   49.2382  161.5273   32.3419 H   0  0  0  0  0  0
   51.6206  161.8530   31.7040 H   0  0  0  0  0  0
   52.7038  160.3192   30.1404 H   0  0  0  0  0  0
  1 12  1  0  0  0
  1  2  2  0  0  0
  1  4  1  0  0  0
  2  3  1  0  0  0
  2 21  1  0  0  0
  3  6  2  0  0  0
  3 22  1  0  0  0
  4  5  2  0  0  0
  4 23  1  0  0  0
  5  6  1  0  0  0
  5 10  1  0  0  0
  6  7  1  0  0  0
  7  8  1  0  0  0
  8  9  2  0  0  0
  8 24  1  0  0  0
  9 10  1  0  0  0
  9 25  1  0  0  0
 10 11  2  0  0  0
 12 13  1  0  0  0
 13 14  1  0  0  0
 13 26  1  0  0  0
 13 27  1  0  0  0
 14 15  2  0  0  0
 14 19  1  0  0  0
 15 16  1  0  0  0
 15 28  1  0  0  0
 16 17  2  0  0  0
 16 20  1  0  0  0
 17 18  1  0  0  0
 17 29  1  0  0  0
 18 19  2  0  0  0
 18 30  1  0  0  0
 19 31  1  0  0  0
M  END
> <s_m_entry_id>
10070

> <s_m_entry_name>
dock_pv.106

> <s_m_Source_Path>
/home/csk/Desktop/cluster/DUD-E-result/aofb

> <s_m_Source_File>
dock_pv.maegz

> <i_m_Source_File_Index>
106

> <chembl_id>
CHEMBL1945156

> <chembl_pref_name>
None

> <i_lp_mmshare_version>
53161

> <i_f3d_flags>
0

> <r_lp_tautomer_probability>
1

> <s_lp_Force_Field>
OPLS_2005

> <r_lp_Energy>
15.570891

> <b_lp_Chiralities_Consistent>
1

> <s_lp_Variant>
CHEMBL2039_lig654-1

> <s_i_glide_gridfile>
glide-grid_1s3b

> <i_i_glide_lignum>
763

> <i_i_glide_rotatable_bonds>
3

> <r_i_docking_score>
-7.92319431995828

> <r_i_glide_ligand_efficiency>
-0.396159715997914

> <r_i_glide_ligand_efficiency_sa>
-1.07534291101616

> <r_i_glide_ligand_efficiency_ln>
-1.98291421384722

> <r_i_glide_gscore>
-7.92319431995828

> <r_i_glide_lipo>
-3.74886117827985

> <r_i_glide_hbond>
0

> <r_i_glide_metal>
0

> <r_i_glide_rewards>
-2.90610159726565

> <r_i_glide_evdw>
-28.4059352874756

> <r_i_glide_ecoul>
-3.88312935829163

> <r_i_glide_erotb>
0.734534623704745

> <r_i_glide_esite>
0

> <r_i_glide_emodel>
-42.4291737945201

> <r_i_glide_energy>
-32.2890646457672

> <r_i_glide_einternal>
4.50527095794678

> <i_i_glide_confnum>
30

> <i_i_glide_posenum>
97

> <r_i_glide_eff_state_penalty>
0

> <s_user_duplicate_titles>
CHEMBL2039_lig654

> <s_m_subgroup_title>
dock_pv

> <s_m_subgroupid>
dock_pv

> <b_m_subgroup_collapsed>
1

$$$$
CHEMBL2039_lig202
                    3D
 Schrodinger Suite 2021-1.
 34 37  0  0  1  0            999 V2000
   51.5927  154.8445   27.7849 C   0  0  0  0  0  0
   52.1856  155.3896   26.6688 C   0  0  0  0  0  0
   51.5734  153.3841   27.6405 C   0  0  0  0  0  0
   52.6707  156.6440   26.6445 N   0  0  0  0  0  0
   52.1216  153.1308   26.2952 C   0  0  0  0  0  0
   52.4560  154.3415   25.7040 C   0  0  0  0  0  0
   52.4560  157.4440   27.7040 N   0  0  0  0  0  0
   51.2380  155.6946   28.8276 C   0  0  0  0  0  0
   51.1132  158.1081   29.5815 C   0  0  0  0  0  0
   49.8675  158.0987   30.1040 C   0  0  0  0  0  0
   51.2560  152.5584   28.4776 O   0  0  0  0  0  0
   51.6560  157.0336   28.7283 C   0  0  0  0  0  0
   49.2079  159.1441   30.9099 C   0  0  0  0  0  0
   52.4560  151.9294   25.6729 C   0  0  0  0  0  0
   53.1350  154.3795   24.4988 C   0  0  0  0  0  0
   49.9031  160.2440   31.4272 C   0  0  0  0  0  0
   47.8421  159.0038   31.1847 C   0  0  0  0  0  0
   53.4595  153.1870   23.8608 C   0  0  0  0  0  0
   53.1563  151.9654   24.4658 C   0  0  0  0  0  0
   47.1872  159.9248   31.9970 C   0  0  0  0  0  0
   49.2560  161.1400   32.2696 C   0  0  0  0  0  0
   47.9018  160.9835   32.5489 C   0  0  0  0  0  0
   50.6855  155.3360   29.6841 H   0  0  0  0  0  0
   51.7706  158.9480   29.7549 H   0  0  0  0  0  0
   49.2572  157.2273   29.9177 H   0  0  0  0  0  0
   52.2155  150.9697   26.1040 H   0  0  0  0  0  0
   53.4670  155.3246   24.1040 H   0  0  0  0  0  0
   50.9569  160.3810   31.2353 H   0  0  0  0  0  0
   47.2823  158.1722   30.7819 H   0  0  0  0  0  0
   53.9988  153.2027   22.9250 H   0  0  0  0  0  0
   53.4312  151.0429   23.9775 H   0  0  0  0  0  0
   46.1338  159.8112   32.2090 H   0  0  0  0  0  0
   49.8135  161.9578   32.6995 H   0  0  0  0  0  0
   47.4014  161.6895   33.1952 H   0  0  0  0  0  0
  1  2  2  0  0  0
  1  3  1  0  0  0
  1  8  1  0  0  0
  2  4  1  0  0  0
  2  6  1  0  0  0
  3  5  1  0  0  0
  3 11  2  0  0  0
  4  7  2  0  0  0
  5 14  1  0  0  0
  5  6  2  0  0  0
  6 15  1  0  0  0
  7 12  1  0  0  0
  8 12  2  0  0  0
  8 23  1  0  0  0
  9 12  1  0  0  0
  9 10  2  0  0  0
  9 24  1  0  0  0
 10 13  1  0  0  0
 10 25  1  0  0  0
 13 16  2  0  0  0
 13 17  1  0  0  0
 14 19  2  0  0  0
 14 26  1  0  0  0
 15 18  2  0  0  0
 15 27  1  0  0  0
 16 21  1  0  0  0
 16 28  1  0  0  0
 17 20  2  0  0  0
 17 29  1  0  0  0
 18 19  1  0  0  0
 18 30  1  0  0  0
 19 31  1  0  0  0
 20 22  1  0  0  0
 20 32  1  0  0  0
 21 22  2  0  0  0
 21 33  1  0  0  0
 22 34  1  0  0  0
M  END
> <s_m_entry_id>
10072

> <s_m_entry_name>
dock_pv.108

> <s_m_Source_Path>
/home/csk/Desktop/cluster/DUD-E-result/aofb

> <s_m_Source_File>
dock_pv.maegz

> <i_m_Source_File_Index>
108

> <chembl_id>
CHEMBL125843

> <chembl_pref_name>
None

> <i_lp_mmshare_version>
53161

> <i_f3d_flags>
0

> <r_lp_tautomer_probability>
1

> <s_lp_Force_Field>
OPLS_2005

> <r_lp_Energy>
42.798144

> <b_lp_Chiralities_Consistent>
1

> <s_lp_Variant>
CHEMBL2039_lig202-1

> <s_i_glide_gridfile>
glide-grid_1s3b

> <i_i_glide_lignum>
243

> <i_i_glide_rotatable_bonds>
2

> <r_i_docking_score>
-7.91477067168476

> <r_i_glide_ligand_efficiency>
-0.359762303258398

> <r_i_glide_ligand_efficiency_sa>
-1.00806812237854

> <r_i_glide_ligand_efficiency_ln>
-1.93465865043458

> <r_i_glide_gscore>
-7.91477067168476

> <r_i_glide_lipo>
-4.49428764641074

> <r_i_glide_hbond>
0

> <r_i_glide_metal>
0

> <r_i_glide_rewards>
-2.62857824058651

> <r_i_glide_evdw>
-28.3311004638672

> <r_i_glide_ecoul>
1.17463684082031

> <r_i_glide_erotb>
0.448454712382793

> <r_i_glide_esite>
0

> <r_i_glide_emodel>
-29.5689155876851

> <r_i_glide_energy>
-27.1564636230469

> <r_i_glide_einternal>
3.60299897193909

> <i_i_glide_confnum>
5

> <i_i_glide_posenum>
176

> <r_i_glide_eff_state_penalty>
0

> <s_user_duplicate_titles>
CHEMBL2039_lig202

> <s_m_subgroup_title>
dock_pv

> <s_m_subgroupid>
dock_pv

> <b_m_subgroup_collapsed>
1

$$$$
CHEMBL2039_lig2016
                    3D
 Schrodinger Suite 2021-1.
 31 33  0  0  1  0            999 V2000
   53.0503  153.7496   24.4969 C   0  0  0  0  0  0
   52.6914  152.5158   25.0270 C   0  0  0  0  0  0
   51.9541  152.4600   26.2076 C   0  0  0  0  0  0
   52.7232  154.9256   25.1571 C   0  0  0  0  0  0
   52.0655  154.8743   26.3899 C   0  0  0  0  0  0
   51.6592  153.6360   26.8901 C   0  0  0  0  0  0
   51.0840  153.5173   28.1272 O   0  0  0  0  0  0
   50.8835  154.6534   28.8386 C   0  0  0  0  0  0
   51.2653  155.9065   28.5040 C   0  0  0  0  0  0
   52.0560  156.0635   27.2771 C   0  0  0  0  0  0
   52.7153  157.0440   26.9679 O   0  0  0  0  0  0
   50.8560  157.0377   29.3040 C   0  0  0  0  0  0
   51.1212  158.2845   29.2014 N   0  0  0  0  0  0
   50.3965  159.1686   30.0399 C   0  0  0  0  0  0
   48.9976  159.0553   30.2245 C   0  0  0  0  0  0
   48.3041  159.8600   31.1224 C   0  0  0  0  0  0
   48.9857  160.8365   31.8321 C   0  0  0  0  0  0
   50.3399  161.0440   31.5905 C   0  0  0  0  0  0
   51.0358  160.2440   30.6870 C   0  0  0  0  0  0
   52.3726  160.4841   30.5038 O   0  0  0  0  0  0
   48.3249  161.5943   32.7341 F   0  0  0  0  0  0
   54.0580  153.8439   22.9040 Br  0  0  0  0  0  0
   52.9614  151.6067   24.5093 H   0  0  0  0  0  0
   51.6555  151.5081   26.6206 H   0  0  0  0  0  0
   53.0813  155.8646   24.7561 H   0  0  0  0  0  0
   50.3410  154.4282   29.7453 H   0  0  0  0  0  0
   50.1904  156.6968   30.0920 H   0  0  0  0  0  0
   48.4372  158.2941   29.7040 H   0  0  0  0  0  0
   47.2448  159.7191   31.2788 H   0  0  0  0  0  0
   50.8561  161.8393   32.1040 H   0  0  0  0  0  0
   52.7953  159.7266   30.0810 H   0  0  0  0  0  0
  1  2  2  0  0  0
  1  4  1  0  0  0
  1 22  1  0  0  0
  2  3  1  0  0  0
  2 23  1  0  0  0
  3  6  2  0  0  0
  3 24  1  0  0  0
  4  5  2  0  0  0
  4 25  1  0  0  0
  5  6  1  0  0  0
  5 10  1  0  0  0
  6  7  1  0  0  0
  7  8  1  0  0  0
  8  9  2  0  0  0
  8 26  1  0  0  0
  9 10  1  0  0  0
  9 12  1  0  0  0
 10 11  2  0  0  0
 12 13  2  0  0  0
 12 27  1  0  0  0
 13 14  1  0  0  0
 14 15  2  0  0  0
 14 19  1  0  0  0
 15 16  1  0  0  0
 15 28  1  0  0  0
 16 17  2  0  0  0
 16 29  1  0  0  0
 17 18  1  0  0  0
 17 21  1  0  0  0
 18 19  2  0  0  0
 18 30  1  0  0  0
 19 20  1  0  0  0
 20 31  1  0  0  0
M  END
> <s_m_entry_id>
10073

> <s_m_entry_name>
dock_pv.109

> <s_m_Source_Path>
/home/csk/Desktop/cluster/DUD-E-result/aofb

> <s_m_Source_File>
dock_pv.maegz

> <i_m_Source_File_Index>
109

> <chembl_id>
CHEMBL4077182

> <chembl_pref_name>
None

> <i_lp_mmshare_version>
53161

> <i_f3d_flags>
0

> <r_lp_tautomer_probability>
1

> <s_lp_Force_Field>
OPLS_2005

> <r_lp_Energy>
17.788894

> <b_lp_Chiralities_Consistent>
1

> <s_lp_Variant>
CHEMBL2039_lig2016-1

> <s_i_glide_gridfile>
glide-grid_1s3b

> <i_i_glide_lignum>
2351

> <i_i_glide_rotatable_bonds>
3

> <r_i_docking_score>
-7.90484494028302

> <r_i_glide_ligand_efficiency>
-0.359311133649228

> <r_i_glide_ligand_efficiency_sa>
-1.00680392739015

> <r_i_glide_ligand_efficiency_ln>
-1.93223243963014

> <r_i_glide_gscore>
-7.90484494028302

> <r_i_glide_lipo>
-4.26932125431119

> <r_i_glide_hbond>
-0.151345628672464

> <r_i_glide_metal>
0

> <r_i_glide_rewards>
-2.28145908929951

> <r_i_glide_evdw>
-24.174280166626

> <r_i_glide_ecoul>
-1.91182470321655

> <r_i_glide_erotb>
0.292768745813921

> <r_i_glide_esite>
0

> <r_i_glide_emodel>
-25.6048471855532

> <r_i_glide_energy>
-26.0861048698425

> <r_i_glide_einternal>
4.84220933914185

> <i_i_glide_confnum>
1

> <i_i_glide_posenum>
257

> <r_i_glide_eff_state_penalty>
0

> <s_user_duplicate_titles>
CHEMBL2039_lig2016

> <s_m_subgroup_title>
dock_pv

> <s_m_subgroupid>
dock_pv

> <b_m_subgroup_collapsed>
1

$$$$
CHEMBL2039_lig1333
                    3D
 Schrodinger Suite 2021-1.
 35 37  0  0  1  0            999 V2000
   51.1253  153.4472   27.3525 O   0  0  0  0  0  0
   51.6505  152.6068   26.4106 C   0  0  0  0  0  0
   51.2560  151.4456   26.5040 O   0  0  0  0  0  0
   52.5391  153.1929   25.3864 C   0  0  0  0  0  0
   52.8560  154.5121   25.4100 C   0  0  0  0  0  0
   52.3750  155.3660   26.5300 C   0  0  0  0  0  0
   52.8559  156.6440   26.8307 C   0  0  0  0  0  0
   52.4223  157.3125   27.9745 C   0  0  0  0  0  0
   51.3658  156.8015   28.7489 C   0  0  0  0  0  0
   51.0092  155.4690   28.5400 C   0  0  0  0  0  0
   51.5251  154.7598   27.4621 C   0  0  0  0  0  0
   53.8810  155.1197   24.4655 C   0  0  0  0  0  0
   53.2559  152.0627   24.2209 Cl  0  0  0  0  0  0
   50.6361  157.5243   29.7040 N   0  0  0  0  0  0
   50.5326  158.7948   29.7040 C   0  0  0  0  0  0
   49.6560  159.4799   30.6466 C   0  0  0  0  0  0
   50.1245  160.5442   31.4337 C   0  0  0  0  0  0
   49.3085  161.0798   32.4263 C   0  0  0  0  0  0
   48.0167  160.6128   32.6106 C   0  0  0  0  0  0
   47.5152  159.6031   31.7956 C   0  0  0  0  0  0
   48.3372  159.0320   30.8261 C   0  0  0  0  0  0
   47.2560  161.1487   33.6059 O   0  0  0  0  0  0
   51.3979  161.0436   31.3041 O   0  0  0  0  0  0
   53.6179  157.0922   26.2166 H   0  0  0  0  0  0
   52.8355  158.2803   28.1894 H   0  0  0  0  0  0
   50.2791  155.0022   29.1847 H   0  0  0  0  0  0
   54.0495  154.5006   23.5855 H   0  0  0  0  0  0
   53.5491  156.0919   24.1042 H   0  0  0  0  0  0
   54.8558  155.2474   24.9267 H   0  0  0  0  0  0
   51.0577  159.4374   29.0021 H   0  0  0  0  0  0
   49.6883  161.8440   33.0823 H   0  0  0  0  0  0
   46.5077  159.2376   31.9269 H   0  0  0  0  0  0
   47.9505  158.2176   30.2286 H   0  0  0  0  0  0
   46.3614  160.8059   33.5999 H   0  0  0  0  0  0
   51.6396  161.6221   32.0365 H   0  0  0  0  0  0
  1  2  1  0  0  0
  1 11  1  0  0  0
  2  3  2  0  0  0
  2  4  1  0  0  0
  4  5  2  0  0  0
  4 13  1  0  0  0
  5  6  1  0  0  0
  5 12  1  0  0  0
  6  7  1  0  0  0
  6 11  2  0  0  0
  7  8  2  0  0  0
  7 24  1  0  0  0
  8  9  1  0  0  0
  8 25  1  0  0  0
  9 10  2  0  0  0
  9 14  1  0  0  0
 10 11  1  0  0  0
 10 26  1  0  0  0
 12 27  1  0  0  0
 12 28  1  0  0  0
 12 29  1  0  0  0
 14 15  2  0  0  0
 15 16  1  0  0  0
 15 30  1  0  0  0
 16 17  1  0  0  0
 16 21  2  0  0  0
 17 18  2  0  0  0
 17 23  1  0  0  0
 18 19  1  0  0  0
 18 31  1  0  0  0
 19 20  2  0  0  0
 19 22  1  0  0  0
 20 21  1  0  0  0
 20 32  1  0  0  0
 21 33  1  0  0  0
 22 34  1  0  0  0
 23 35  1  0  0  0
M  END
> <s_m_entry_id>
10074

> <s_m_entry_name>
dock_pv.110

> <s_m_Source_Path>
/home/csk/Desktop/cluster/DUD-E-result/aofb

> <s_m_Source_File>
dock_pv.maegz

> <i_m_Source_File_Index>
110

> <chembl_id>
CHEMBL3394535

> <chembl_pref_name>
None

> <i_lp_mmshare_version>
53161

> <i_f3d_flags>
0

> <r_lp_tautomer_probability>
1

> <s_lp_Force_Field>
OPLS_2005

> <r_lp_Energy>
25.43577

> <b_lp_Chiralities_Consistent>
1

> <s_lp_Variant>
CHEMBL2039_lig1333-1

> <s_i_glide_gridfile>
glide-grid_1s3b

> <i_i_glide_lignum>
1554

> <i_i_glide_rotatable_bonds>
4

> <r_i_docking_score>
-7.89998501523097

> <r_i_glide_ligand_efficiency>
-0.343477609357868

> <r_i_glide_ligand_efficiency_sa>
-0.976804630550275

> <r_i_glide_ligand_efficiency_ln>
-1.91028800978652

> <r_i_glide_gscore>
-7.89998501523097

> <r_i_glide_lipo>
-4.05914913387159

> <r_i_glide_hbond>
-0.32

> <r_i_glide_metal>
0

> <r_i_glide_rewards>
-2.28856988514458

> <r_i_glide_evdw>
-26.6230010986328

> <r_i_glide_ecoul>
-1.64614462852478

> <r_i_glide_erotb>
0.345805752995559

> <r_i_glide_esite>
0

> <r_i_glide_emodel>
-30.2908210681805

> <r_i_glide_energy>
-28.2691457271576

> <r_i_glide_einternal>
2.57985663414001

> <i_i_glide_confnum>
3

> <i_i_glide_posenum>
197

> <r_i_glide_eff_state_penalty>
0

> <s_user_duplicate_titles>
CHEMBL2039_lig1333

> <s_m_subgroup_title>
dock_pv

> <s_m_subgroupid>
dock_pv

> <b_m_subgroup_collapsed>
1

$$$$
CHEMBL2039_lig63
                    3D
 Schrodinger Suite 2021-1.
 37 39  0  0  1  0            999 V2000
   53.2560  156.5972   25.8880 O   0  0  0  0  0  0
   53.6066  155.6987   24.9040 C   0  0  0  0  0  0
   54.4560  156.1086   24.1040 O   0  0  0  0  0  0
   52.9352  154.3708   24.9175 C   0  0  0  0  0  0
   52.1303  154.0242   25.9580 C   0  0  0  0  0  0
   51.8413  154.9946   27.0381 C   0  0  0  0  0  0
   51.0143  154.7303   28.1308 C   0  0  0  0  0  0
   50.7054  155.7509   29.0242 C   0  0  0  0  0  0
   51.2560  157.0464   28.9040 C   0  0  0  0  0  0
   52.2443  157.2204   27.9348 C   0  0  0  0  0  0
   52.4560  156.2465   26.9576 C   0  0  0  0  0  0
   51.5429  152.6337   26.1371 C   0  0  0  0  0  0
   53.3224  153.4445   23.7613 C   0  0  0  0  0  0
   50.8804  158.1534   29.7040 N   0  0  0  0  0  0
   49.6731  158.3095   30.1040 C   0  0  0  0  0  0
   49.1281  159.3547   30.9868 C   0  0  0  0  0  0
   49.8644  160.4067   31.5746 C   0  0  0  0  0  0
   49.2560  161.2505   32.5040 C   0  0  0  0  0  0
   47.9113  161.1033   32.8293 C   0  0  0  0  0  0
   47.1596  160.1105   32.2146 C   0  0  0  0  0  0
   47.7640  159.2444   31.3084 C   0  0  0  0  0  0
   51.1891  160.6440   31.3040 O   0  0  0  0  0  0
   50.5384  153.7711   28.2610 H   0  0  0  0  0  0
   49.9875  155.5316   29.7973 H   0  0  0  0  0  0
   52.7300  158.1808   27.8463 H   0  0  0  0  0  0
   51.9097  151.9170   25.4075 H   0  0  0  0  0  0
   51.8295  152.2440   27.1126 H   0  0  0  0  0  0
   50.4560  152.6756   26.1040 H   0  0  0  0  0  0
   53.5709  152.4445   24.1144 H   0  0  0  0  0  0
   52.4916  153.3666   23.0605 H   0  0  0  0  0  0
   54.1922  153.7844   23.1970 H   0  0  0  0  0  0
   48.9180  157.5880   29.8099 H   0  0  0  0  0  0
   49.8379  162.0291   32.9686 H   0  0  0  0  0  0
   47.4471  161.7656   33.5442 H   0  0  0  0  0  0
   46.1115  159.9995   32.4529 H   0  0  0  0  0  0
   47.1493  158.4658   30.8769 H   0  0  0  0  0  0
   51.5804  161.2808   31.9095 H   0  0  0  0  0  0
  1  2  1  0  0  0
  1 11  1  0  0  0
  2  3  2  0  0  0
  2  4  1  0  0  0
  4  5  2  0  0  0
  4 13  1  0  0  0
  5  6  1  0  0  0
  5 12  1  0  0  0
  6  7  1  0  0  0
  6 11  2  0  0  0
  7  8  2  0  0  0
  7 23  1  0  0  0
  8  9  1  0  0  0
  8 24  1  0  0  0
  9 10  2  0  0  0
  9 14  1  0  0  0
 10 11  1  0  0  0
 10 25  1  0  0  0
 12 26  1  0  0  0
 12 27  1  0  0  0
 12 28  1  0  0  0
 13 29  1  0  0  0
 13 30  1  0  0  0
 13 31  1  0  0  0
 14 15  2  0  0  0
 15 16  1  0  0  0
 15 32  1  0  0  0
 16 17  1  0  0  0
 16 21  2  0  0  0
 17 18  2  0  0  0
 17 22  1  0  0  0
 18 19  1  0  0  0
 18 33  1  0  0  0
 19 20  2  0  0  0
 19 34  1  0  0  0
 20 21  1  0  0  0
 20 35  1  0  0  0
 21 36  1  0  0  0
 22 37  1  0  0  0
M  END
> <s_m_entry_id>
10075

> <s_m_entry_name>
dock_pv.111

> <s_m_Source_Path>
/home/csk/Desktop/cluster/DUD-E-result/aofb

> <s_m_Source_File>
dock_pv.maegz

> <i_m_Source_File_Index>
111

> <chembl_id>
CHEMBL3394530

> <chembl_pref_name>
None

> <i_lp_mmshare_version>
53161

> <i_f3d_flags>
0

> <r_lp_tautomer_probability>
1

> <s_lp_Force_Field>
OPLS_2005

> <r_lp_Energy>
26.051387

> <b_lp_Chiralities_Consistent>
1

> <s_lp_Variant>
CHEMBL2039_lig63-1

> <s_i_glide_gridfile>
glide-grid_1s3b

> <i_i_glide_lignum>
86

> <i_i_glide_rotatable_bonds>
3

> <r_i_docking_score>
-7.89842704063822

> <r_i_glide_ligand_efficiency>
-0.359019410938101

> <r_i_glide_ligand_efficiency_sa>
-1.00598650888077

> <r_i_glide_ligand_efficiency_ln>
-1.93066367085838

> <r_i_glide_gscore>
-7.89842704063822

> <r_i_glide_lipo>
-4.27706857301614

> <r_i_glide_hbond>
-0.122573528256356

> <r_i_glide_metal>
0

> <r_i_glide_rewards>
-2.4031623615094

> <r_i_glide_evdw>
-25.1510677337646

> <r_i_glide_ecoul>
-1.75202214717865

> <r_i_glide_erotb>
0.424734130908704

> <r_i_glide_esite>
0

> <r_i_glide_emodel>
-30.5360607988577

> <r_i_glide_energy>
-26.9030898809433

> <r_i_glide_einternal>
1.33860778808594

> <i_i_glide_confnum>
5

> <i_i_glide_posenum>
236

> <r_i_glide_eff_state_penalty>
0

> <s_user_duplicate_titles>
CHEMBL2039_lig63

> <s_m_subgroup_title>
dock_pv

> <s_m_subgroupid>
dock_pv

> <b_m_subgroup_collapsed>
1

$$$$
CHEMBL2039_lig1595
                    3D
 Schrodinger Suite 2021-1.
 33 35  0  0  1  0            999 V2000
   53.9647  154.8101   24.5040 C   0  0  0  0  0  0
   53.0688  153.6116   24.1384 C   0  0  0  0  0  0
   52.4853  153.0440   25.4326 C   0  0  0  0  0  0
   52.0044  154.0814   26.3812 C   0  0  0  0  0  0
   51.3222  153.7341   27.5548 C   0  0  0  0  0  0
   51.0052  154.7042   28.5040 C   0  0  0  0  0  0
   51.3817  156.0332   28.3294 C   0  0  0  0  0  0
   52.1200  156.3722   27.1818 C   0  0  0  0  0  0
   52.4226  155.4139   26.2141 C   0  0  0  0  0  0
   53.1700  155.8363   25.1255 O   0  0  0  0  0  0
   52.4560  151.8440   25.7029 O   0  0  0  0  0  0
   50.9354  156.9389   29.2804 O   0  0  0  0  0  0
   51.2560  158.3252   29.1438 C   0  0  0  0  0  0
   50.4317  159.1739   30.1040 C   0  0  0  0  0  0
   49.1336  158.8208   30.5254 C   0  0  0  0  0  0
   48.4587  159.5944   31.4689 C   0  0  0  0  0  0
   49.0767  160.7031   32.0360 C   0  0  0  0  0  0
   50.3684  161.0440   31.6456 C   0  0  0  0  0  0
   51.0345  160.3012   30.6719 C   0  0  0  0  0  0
   48.5245  157.6940   30.1040 F   0  0  0  0  0  0
   54.4560  155.2157   23.6189 H   0  0  0  0  0  0
   54.7700  154.4882   25.1658 H   0  0  0  0  0  0
   52.2631  153.9921   23.5120 H   0  0  0  0  0  0
   53.6560  152.8485   23.6277 H   0  0  0  0  0  0
   51.0368  152.7086   27.7461 H   0  0  0  0  0  0
   50.4568  154.4239   29.3908 H   0  0  0  0  0  0
   52.4560  157.3829   27.0152 H   0  0  0  0  0  0
   51.0795  158.7180   28.1475 H   0  0  0  0  0  0
   52.3258  158.4616   29.3040 H   0  0  0  0  0  0
   47.4677  159.3069   31.7870 H   0  0  0  0  0  0
   48.5656  161.2869   32.7874 H   0  0  0  0  0  0
   50.8560  161.8911   32.1039 H   0  0  0  0  0  0
   52.0426  160.5784   30.3984 H   0  0  0  0  0  0
  1  2  1  0  0  0
  1 10  1  0  0  0
  1 21  1  0  0  0
  1 22  1  0  0  0
  2  3  1  0  0  0
  2 23  1  0  0  0
  2 24  1  0  0  0
  3  4  1  0  0  0
  3 11  2  0  0  0
  4  5  1  0  0  0
  4  9  2  0  0  0
  5  6  2  0  0  0
  5 25  1  0  0  0
  6  7  1  0  0  0
  6 26  1  0  0  0
  7  8  2  0  0  0
  7 12  1  0  0  0
  8  9  1  0  0  0
  8 27  1  0  0  0
  9 10  1  0  0  0
 12 13  1  0  0  0
 13 14  1  0  0  0
 13 28  1  0  0  0
 13 29  1  0  0  0
 14 15  1  0  0  0
 14 19  2  0  0  0
 15 16  2  0  0  0
 15 20  1  0  0  0
 16 17  1  0  0  0
 16 30  1  0  0  0
 17 18  2  0  0  0
 17 31  1  0  0  0
 18 19  1  0  0  0
 18 32  1  0  0  0
 19 33  1  0  0  0
M  END
> <s_m_entry_id>
10076

> <s_m_entry_name>
dock_pv.112

> <s_m_Source_Path>
/home/csk/Desktop/cluster/DUD-E-result/aofb

> <s_m_Source_File>
dock_pv.maegz

> <i_m_Source_File_Index>
112

> <chembl_id>
CHEMBL3742068

> <chembl_pref_name>
None

> <i_lp_mmshare_version>
53161

> <i_f3d_flags>
0

> <r_lp_tautomer_probability>
0.99995

> <s_lp_Force_Field>
OPLS_2005

> <r_lp_Energy>
23.464927

> <b_lp_Chiralities_Consistent>
1

> <s_lp_Variant>
CHEMBL2039_lig1595-1

> <s_i_glide_gridfile>
glide-grid_1s3b

> <i_i_glide_lignum>
1856

> <i_i_glide_rotatable_bonds>
3

> <r_i_docking_score>
-7.89730944304066

> <r_i_glide_ligand_efficiency>
-0.394865472152033

> <r_i_glide_ligand_efficiency_sa>
-1.07182979272424

> <r_i_glide_ligand_efficiency_ln>
-1.97643608289512

> <r_i_glide_gscore>
-7.89730944304066

> <r_i_glide_lipo>
-3.77029818459981

> <r_i_glide_hbond>
0

> <r_i_glide_metal>
0

> <r_i_glide_rewards>
-3.00273475517797

> <r_i_glide_evdw>
-28.3129024505615

> <r_i_glide_ecoul>
-2.8918628692627

> <r_i_glide_erotb>
0.725148049654601

> <r_i_glide_esite>
0

> <r_i_glide_emodel>
-41.9711620312221

> <r_i_glide_energy>
-31.2047653198242

> <r_i_glide_einternal>
1.22344720363617

> <i_i_glide_confnum>
14

> <i_i_glide_posenum>
46

> <r_i_glide_eff_state_penalty>
0

> <s_user_duplicate_titles>
CHEMBL2039_lig1595

> <s_m_subgroup_title>
dock_pv

> <s_m_subgroupid>
dock_pv

> <b_m_subgroup_collapsed>
1

$$$$
CHEMBL2039_lig193
                    3D
 Schrodinger Suite 2021-1.
 30 33  0  0  1  0            999 V2000
   51.4335  155.1593   27.8956 C   0  0  0  0  0  0
   52.1571  155.7902   26.9070 C   0  0  0  0  0  0
   51.5180  153.7012   27.6534 C   0  0  0  0  0  0
   52.6385  157.0440   27.0503 N   0  0  0  0  0  0
   52.0913  153.5825   26.3007 C   0  0  0  0  0  0
   52.4560  154.8423   25.8417 C   0  0  0  0  0  0
   52.2406  157.7738   28.1040 N   0  0  0  0  0  0
   50.8879  155.9578   28.9040 C   0  0  0  0  0  0
   51.2560  157.3234   28.9199 C   0  0  0  0  0  0
   50.5876  158.3961   29.7365 C   0  0  0  0  0  0
   48.6657  159.2107   31.0193 C   0  0  0  0  0  0
   49.2769  158.2440   30.2230 C   0  0  0  0  0  0
   51.2560  152.7795   28.4108 O   0  0  0  0  0  0
   49.3611  160.3665   31.3627 C   0  0  0  0  0  0
   51.2560  159.5875   30.0844 C   0  0  0  0  0  0
   50.6574  160.5574   30.8911 C   0  0  0  0  0  0
   47.4085  159.0073   31.4766 F   0  0  0  0  0  0
   48.7890  161.2902   32.1685 F   0  0  0  0  0  0
   52.4560  152.4400   25.5876 C   0  0  0  0  0  0
   53.1828  154.9814   24.6631 C   0  0  0  0  0  0
   53.1853  152.5773   24.4047 C   0  0  0  0  0  0
   53.5428  153.8440   23.9405 C   0  0  0  0  0  0
   50.2209  155.5464   29.6470 H   0  0  0  0  0  0
   48.7188  157.3422   30.0254 H   0  0  0  0  0  0
   52.2738  159.7508   29.7603 H   0  0  0  0  0  0
   51.2069  161.4440   31.1713 H   0  0  0  0  0  0
   52.2177  151.4520   25.9558 H   0  0  0  0  0  0
   53.5284  155.9540   24.3468 H   0  0  0  0  0  0
   53.4828  151.7002   23.8494 H   0  0  0  0  0  0
   54.1276  153.9354   23.0373 H   0  0  0  0  0  0
  1  2  2  0  0  0
  1  3  1  0  0  0
  1  8  1  0  0  0
  2  4  1  0  0  0
  2  6  1  0  0  0
  3  5  1  0  0  0
  3 13  2  0  0  0
  4  7  2  0  0  0
  5 19  1  0  0  0
  5  6  2  0  0  0
  6 20  1  0  0  0
  7  9  1  0  0  0
  8  9  2  0  0  0
  8 23  1  0  0  0
  9 10  1  0  0  0
 10 12  1  0  0  0
 10 15  2  0  0  0
 11 12  2  0  0  0
 11 17  1  0  0  0
 11 14  1  0  0  0
 12 24  1  0  0  0
 14 16  2  0  0  0
 14 18  1  0  0  0
 15 16  1  0  0  0
 15 25  1  0  0  0
 16 26  1  0  0  0
 19 21  2  0  0  0
 19 27  1  0  0  0
 20 22  2  0  0  0
 20 28  1  0  0  0
 21 22  1  0  0  0
 21 29  1  0  0  0
 22 30  1  0  0  0
M  END
> <s_m_entry_id>
10077

> <s_m_entry_name>
dock_pv.113

> <s_m_Source_Path>
/home/csk/Desktop/cluster/DUD-E-result/aofb

> <s_m_Source_File>
dock_pv.maegz

> <i_m_Source_File_Index>
113

> <chembl_id>
CHEMBL125921

> <chembl_pref_name>
None

> <i_lp_mmshare_version>
53161

> <i_f3d_flags>
0

> <r_lp_tautomer_probability>
1

> <s_lp_Force_Field>
OPLS_2005

> <r_lp_Energy>
43.052379

> <b_lp_Chiralities_Consistent>
1

> <s_lp_Variant>
CHEMBL2039_lig193-1

> <s_i_glide_gridfile>
glide-grid_1s3b

> <i_i_glide_lignum>
234

> <i_i_glide_rotatable_bonds>
1

> <r_i_docking_score>
-7.89280876602489

> <r_i_glide_ligand_efficiency>
-0.358764034819313

> <r_i_glide_ligand_efficiency_sa>
-1.00527093495256

> <r_i_glide_ligand_efficiency_ln>
-1.92929035961133

> <r_i_glide_gscore>
-7.89280876602489

> <r_i_glide_lipo>
-3.89128788461801

> <r_i_glide_hbond>
0

> <r_i_glide_metal>
0

> <r_i_glide_rewards>
-3.2738956435311

> <r_i_glide_evdw>
-21.5385799407959

> <r_i_glide_ecoul>
0.92078560590744

> <r_i_glide_erotb>
0.2111859182779

> <r_i_glide_esite>
0

> <r_i_glide_emodel>
-31.7664381728618

> <r_i_glide_energy>
-20.6177943348885

> <r_i_glide_einternal>
0.462333232164383

> <i_i_glide_confnum>
1

> <i_i_glide_posenum>
117

> <r_i_glide_eff_state_penalty>
0

> <s_user_duplicate_titles>
CHEMBL2039_lig193,209572

> <s_m_subgroup_title>
dock_pv

> <s_m_subgroupid>
dock_pv

> <b_m_subgroup_collapsed>
1

$$$$
CHEMBL2039_lig273
                    3D
 Schrodinger Suite 2021-1.
 34 36  0  0  1  0            999 V2000
   52.8560  151.3328   25.0570 C   0  0  0  0  0  0
   53.2560  152.1551   24.0074 C   0  0  0  0  0  0
   53.1382  153.5364   24.0914 C   0  0  0  0  0  0
   52.1103  151.8858   26.1040 C   0  0  0  0  0  0
   51.9677  153.2659   26.1916 C   0  0  0  0  0  0
   52.5357  154.0854   25.2130 C   0  0  0  0  0  0
   52.5508  155.4571   25.3460 O   0  0  0  0  0  0
   52.4560  156.0000   26.6058 C   0  0  0  0  0  0
   51.6560  155.2537   27.6143 C   0  0  0  0  0  0
   51.4206  153.9387   27.3675 C   0  0  0  0  0  0
   53.0613  157.0440   26.7834 O   0  0  0  0  0  0
   51.0699  155.8854   28.7882 C   0  0  0  0  0  0
   51.2560  157.2335   28.9040 N   0  0  0  0  0  0
   50.4008  155.2341   29.5898 O   0  0  0  0  0  0
   50.5192  158.1455   29.7040 C   0  0  0  0  0  0
   51.0876  159.3788   30.0419 C   0  0  0  0  0  0
   50.4110  160.2440   30.9053 C   0  0  0  0  0  0
   49.1430  159.8956   31.4027 C   0  0  0  0  0  0
   48.5178  158.7419   30.9318 C   0  0  0  0  0  0
   49.2064  157.8743   30.1040 C   0  0  0  0  0  0
   48.4360  160.7082   32.4525 C   0  0  0  0  0  0
   49.2560  161.4440   33.2456 O   0  0  0  0  0  0
   47.2214  160.6441   32.6263 O   0  0  0  0  0  0
   52.9748  150.2615   24.9863 H   0  0  0  0  0  0
   53.6560  151.7213   23.1121 H   0  0  0  0  0  0
   53.5248  154.1654   23.3042 H   0  0  0  0  0  0
   51.6560  151.2533   26.8536 H   0  0  0  0  0  0
   50.8235  153.3505   28.0530 H   0  0  0  0  0  0
   52.0223  157.6267   28.3725 H   0  0  0  0  0  0
   52.0831  159.6288   29.7039 H   0  0  0  0  0  0
   50.9050  161.1571   31.2064 H   0  0  0  0  0  0
   47.5263  158.4642   31.2641 H   0  0  0  0  0  0
   48.7077  156.9578   29.8266 H   0  0  0  0  0  0
   50.1873  161.3330   33.0401 H   0  0  0  0  0  0
  1  2  2  0  0  0
  1  4  1  0  0  0
  1 24  1  0  0  0
  2  3  1  0  0  0
  2 25  1  0  0  0
  3  6  2  0  0  0
  3 26  1  0  0  0
  4  5  2  0  0  0
  4 27  1  0  0  0
  5 10  1  0  0  0
  5  6  1  0  0  0
  6  7  1  0  0  0
  7  8  1  0  0  0
  8 11  2  0  0  0
  8  9  1  0  0  0
  9 12  1  0  0  0
  9 10  2  0  0  0
 10 28  1  0  0  0
 12 13  1  0  0  0
 12 14  2  0  0  0
 13 15  1  0  0  0
 13 29  1  0  0  0
 15 16  2  0  0  0
 15 20  1  0  0  0
 16 17  1  0  0  0
 16 30  1  0  0  0
 17 18  2  0  0  0
 17 31  1  0  0  0
 18 19  1  0  0  0
 18 21  1  0  0  0
 19 20  2  0  0  0
 19 32  1  0  0  0
 20 33  1  0  0  0
 21 22  1  0  0  0
 21 23  2  0  0  0
 22 34  1  0  0  0
M  END
> <s_m_entry_id>
10078

> <s_m_entry_name>
dock_pv.114

> <s_m_Source_Path>
/home/csk/Desktop/cluster/DUD-E-result/aofb

> <s_m_Source_File>
dock_pv.maegz

> <i_m_Source_File_Index>
114

> <chembl_id>
CHEMBL513209

> <chembl_pref_name>
None

> <i_lp_mmshare_version>
53161

> <i_f3d_flags>
0

> <r_lp_tautomer_probability>
1

> <s_lp_Force_Field>
OPLS_2005

> <r_lp_Energy>
31.566304

> <b_lp_Chiralities_Consistent>
1

> <s_lp_Variant>
CHEMBL2039_lig273-1

> <s_i_glide_gridfile>
glide-grid_1s3b

> <i_i_glide_lignum>
322

> <i_i_glide_rotatable_bonds>
5

> <r_i_docking_score>
-7.88725234243075

> <r_i_glide_ligand_efficiency>
-0.342924014888293

> <r_i_glide_ligand_efficiency_sa>
-0.975230281519668

> <r_i_glide_ligand_efficiency_ln>
-1.90720913404994

> <r_i_glide_gscore>
-7.88725234243075

> <r_i_glide_lipo>
-3.86069787182505

> <r_i_glide_hbond>
0

> <r_i_glide_metal>
0

> <r_i_glide_rewards>
-3.00723560549228

> <r_i_glide_evdw>
-22.0940017700195

> <r_i_glide_ecoul>
-4.59233856201172

> <r_i_glide_erotb>
0.774232007689316

> <r_i_glide_esite>
0

> <r_i_glide_emodel>
-23.2013170035441

> <r_i_glide_energy>
-26.6863403320312

> <r_i_glide_einternal>
6.7743878364563

> <i_i_glide_confnum>
15

> <i_i_glide_posenum>
169

> <r_i_glide_eff_state_penalty>
0

> <s_user_duplicate_titles>
CHEMBL2039_lig273

> <s_m_subgroup_title>
dock_pv

> <s_m_subgroupid>
dock_pv

> <b_m_subgroup_collapsed>
1

$$$$
CHEMBL2039_lig739
                    3D
 Schrodinger Suite 2021-1.
 38 40  0  0  1  0            999 V2000
   52.8183  153.1766   25.1565 N   0  0  0  0  0  0
   53.4805  154.1318   24.4001 C   0  0  0  0  0  0
   53.4108  155.4173   24.8895 N   0  0  0  0  0  0
   51.9471  153.3537   26.2159 C   0  0  0  0  0  0
   52.9761  151.7854   24.6653 C   0  0  0  0  0  0
   54.1376  156.4974   24.1981 C   0  0  0  0  0  0
   54.0560  153.8679   23.3391 O   0  0  0  0  0  0
   51.2561  152.4589   26.7004 O   0  0  0  0  0  0
   52.0549  154.7084   26.7147 C   0  0  0  0  0  0
   52.7386  155.7103   26.0630 C   0  0  0  0  0  0
   52.7566  156.8286   26.7548 N   0  0  0  0  0  0
   52.0560  156.5907   27.8338 C   0  0  0  0  0  0
   51.5871  155.2886   27.8751 N   0  0  0  0  0  0
   50.8006  154.6539   28.9215 C   0  0  0  0  0  0
   51.8128  157.6665   28.8814 C   0  0  0  0  0  0
   50.4644  157.6703   29.3382 O   0  0  0  0  0  0
   49.9749  158.7191   30.0973 C   0  0  0  0  0  0
   50.7162  159.8440   30.5040 C   0  0  0  0  0  0
   50.1441  160.7878   31.3552 C   0  0  0  0  0  0
   48.8186  160.6494   31.7667 C   0  0  0  0  0  0
   48.0622  159.5674   31.3271 C   0  0  0  0  0  0
   48.6432  158.6078   30.5040 C   0  0  0  0  0  0
   46.7701  159.4427   31.7040 F   0  0  0  0  0  0
   52.2747  151.0688   25.0955 H   0  0  0  0  0  0
   52.8562  151.7226   23.5815 H   0  0  0  0  0  0
   53.9802  151.4288   24.8999 H   0  0  0  0  0  0
   54.8133  156.1453   23.4155 H   0  0  0  0  0  0
   53.4418  157.2122   23.7581 H   0  0  0  0  0  0
   54.7508  157.0440   24.9039 H   0  0  0  0  0  0
   50.9705  153.5786   28.9305 H   0  0  0  0  0  0
   51.0602  155.0440   29.8989 H   0  0  0  0  0  0
   49.7472  154.8508   28.7261 H   0  0  0  0  0  0
   52.0914  158.6440   28.4938 H   0  0  0  0  0  0
   52.4560  157.4440   29.7040 H   0  0  0  0  0  0
   51.7513  159.9636   30.2227 H   0  0  0  0  0  0
   50.7324  161.6246   31.7043 H   0  0  0  0  0  0
   48.3749  161.3851   32.4207 H   0  0  0  0  0  0
   48.0581  157.7589   30.1857 H   0  0  0  0  0  0
  1  2  1  0  0  0
  1  4  1  0  0  0
  1  5  1  0  0  0
  2  7  2  0  0  0
  2  3  1  0  0  0
  3  6  1  0  0  0
  3 10  1  0  0  0
  4  8  2  0  0  0
  4  9  1  0  0  0
  5 24  1  0  0  0
  5 25  1  0  0  0
  5 26  1  0  0  0
  6 27  1  0  0  0
  6 28  1  0  0  0
  6 29  1  0  0  0
  9 13  1  0  0  0
  9 10  2  0  0  0
 10 11  1  0  0  0
 11 12  2  0  0  0
 12 13  1  0  0  0
 12 15  1  0  0  0
 13 14  1  0  0  0
 14 30  1  0  0  0
 14 31  1  0  0  0
 14 32  1  0  0  0
 15 16  1  0  0  0
 15 33  1  0  0  0
 15 34  1  0  0  0
 16 17  1  0  0  0
 17 18  2  0  0  0
 17 22  1  0  0  0
 18 19  1  0  0  0
 18 35  1  0  0  0
 19 20  2  0  0  0
 19 36  1  0  0  0
 20 21  1  0  0  0
 20 37  1  0  0  0
 21 22  2  0  0  0
 21 23  1  0  0  0
 22 38  1  0  0  0
M  END
> <s_m_entry_id>
10079

> <s_m_entry_name>
dock_pv.115

> <s_m_Source_Path>
/home/csk/Desktop/cluster/DUD-E-result/aofb

> <s_m_Source_File>
dock_pv.maegz

> <i_m_Source_File_Index>
115

> <chembl_id>
CHEMBL2088302

> <chembl_pref_name>
None

> <i_lp_mmshare_version>
53161

> <i_f3d_flags>
0

> <r_lp_tautomer_probability>
1

> <s_lp_Force_Field>
OPLS_2005

> <r_lp_Energy>
37.933226

> <b_lp_Chiralities_Consistent>
1

> <s_lp_Variant>
CHEMBL2039_lig739-1

> <s_i_glide_gridfile>
glide-grid_1s3b

> <i_i_glide_lignum>
869

> <i_i_glide_rotatable_bonds>
3

> <r_i_docking_score>
-7.88490897854605

> <r_i_glide_ligand_efficiency>
-0.342822129502002

> <r_i_glide_ligand_efficiency_sa>
-0.974940533034167

> <r_i_glide_ligand_efficiency_ln>
-1.90664248741416

> <r_i_glide_gscore>
-7.88490897854605

> <r_i_glide_lipo>
-2.98016878434401

> <r_i_glide_hbond>
0

> <r_i_glide_metal>
0

> <r_i_glide_rewards>
-3.79579508714194

> <r_i_glide_evdw>
-31.3920059204102

> <r_i_glide_ecoul>
-0.609105587005615

> <r_i_glide_erotb>
0.552021027011253

> <r_i_glide_esite>
0

> <r_i_glide_emodel>
-33.8441716601902

> <r_i_glide_energy>
-32.0011115074158

> <r_i_glide_einternal>
7.41199541091919

> <i_i_glide_confnum>
28

> <i_i_glide_posenum>
36

> <r_i_glide_eff_state_penalty>
0

> <s_user_duplicate_titles>
CHEMBL2039_lig739

> <s_m_subgroup_title>
dock_pv

> <s_m_subgroupid>
dock_pv

> <b_m_subgroup_collapsed>
1

$$$$
CHEMBL2039_lig2290
                    3D
 Schrodinger Suite 2021-1.
 31 33  0  0  1  0            999 V2000
   53.2559  152.2880   24.1481 C   0  0  0  0  0  0
   52.7408  151.5588   25.2170 C   0  0  0  0  0  0
   52.0553  152.2231   26.2275 C   0  0  0  0  0  0
   53.2589  153.6813   24.1644 C   0  0  0  0  0  0
   52.6941  154.3432   25.2587 C   0  0  0  0  0  0
   52.0557  153.6021   26.2622 C   0  0  0  0  0  0
   51.5135  154.2674   27.3516 N   0  0  0  0  0  0
   51.6713  155.6253   27.4495 C   0  0  0  0  0  0
   52.2836  156.3649   26.6076 N   0  0  0  0  0  0
   52.8473  155.8463   25.4329 C   0  0  0  0  0  0
   50.8562  156.2443   28.9041 S   0  0  0  0  0  0
   53.4449  156.5053   24.5836 O   0  0  0  0  0  0
   51.4210  158.0008   28.9629 C   0  0  0  0  0  0
   50.5459  158.9100   29.8377 C   0  0  0  0  0  0
   49.2055  158.6103   30.1169 C   0  0  0  0  0  0
   48.4695  159.3831   31.0010 C   0  0  0  0  0  0
   49.0673  160.4680   31.6243 C   0  0  0  0  0  0
   50.3884  160.8073   31.3333 C   0  0  0  0  0  0
   51.1240  160.0386   30.4315 C   0  0  0  0  0  0
   48.0571  161.4416   32.9039 Br  0  0  0  0  0  0
   53.6658  151.7624   23.3034 H   0  0  0  0  0  0
   52.7706  150.4791   25.1997 H   0  0  0  0  0  0
   51.5695  151.6570   27.0054 H   0  0  0  0  0  0
   53.7347  154.2220   23.3571 H   0  0  0  0  0  0
   51.0787  153.7558   28.1004 H   0  0  0  0  0  0
   51.5190  158.4747   27.9935 H   0  0  0  0  0  0
   52.4553  157.9935   29.3043 H   0  0  0  0  0  0
   48.7173  157.7396   29.7139 H   0  0  0  0  0  0
   47.4473  159.1183   31.2303 H   0  0  0  0  0  0
   50.8528  161.6492   31.8277 H   0  0  0  0  0  0
   52.1597  160.2836   30.2400 H   0  0  0  0  0  0
  1  4  2  0  0  0
  1 21  1  0  0  0
  1  2  1  0  0  0
  2 22  1  0  0  0
  2  3  2  0  0  0
  3 23  1  0  0  0
  3  6  1  0  0  0
  4  5  1  0  0  0
  4 24  1  0  0  0
  5 10  1  0  0  0
  5  6  2  0  0  0
  6  7  1  0  0  0
  7 25  1  0  0  0
  7  8  1  0  0  0
  8 11  1  0  0  0
  8  9  2  0  0  0
  9 10  1  0  0  0
 10 12  2  0  0  0
 11 13  1  0  0  0
 13 14  1  0  0  0
 13 26  1  0  0  0
 13 27  1  0  0  0
 14 15  2  0  0  0
 14 19  1  0  0  0
 15 16  1  0  0  0
 15 28  1  0  0  0
 16 17  2  0  0  0
 16 29  1  0  0  0
 17 18  1  0  0  0
 17 20  1  0  0  0
 18 19  2  0  0  0
 18 30  1  0  0  0
 19 31  1  0  0  0
M  END
> <s_m_entry_id>
10080

> <s_m_entry_name>
dock_pv.116

> <s_m_Source_Path>
/home/csk/Desktop/cluster/DUD-E-result/aofb

> <s_m_Source_File>
dock_pv.maegz

> <i_m_Source_File_Index>
116

> <chembl_id>
CHEMBL4293091

> <chembl_pref_name>
None

> <i_lp_mmshare_version>
53161

> <i_f3d_flags>
0

> <r_lp_tautomer_probability>
0.116051

> <s_lp_Force_Field>
OPLS_2005

> <r_lp_Energy>
11.734924

> <b_lp_Chiralities_Consistent>
1

> <s_lp_Variant>
CHEMBL2039_lig2290-2

> <s_i_glide_gridfile>
glide-grid_1s3b

> <i_i_glide_lignum>
2654

> <i_i_glide_rotatable_bonds>
3

> <r_i_docking_score>
-7.88134565656829

> <r_i_glide_ligand_efficiency>
-0.394067282828414

> <r_i_glide_ligand_efficiency_sa>
-1.06966317356499

> <r_i_glide_ligand_efficiency_ln>
-1.972440873662

> <r_i_glide_gscore>
-7.88134565656829

> <r_i_glide_lipo>
-4.28672130097476

> <r_i_glide_hbond>
0

> <r_i_glide_metal>
0

> <r_i_glide_rewards>
-2.24783744419357

> <r_i_glide_evdw>
-25.6359405517578

> <r_i_glide_ecoul>
-3.5886082649231

> <r_i_glide_erotb>
0.473301355926401

> <r_i_glide_esite>
0

> <r_i_glide_emodel>
-34.6808212735043

> <r_i_glide_energy>
-29.2245488166809

> <r_i_glide_einternal>
5.6392388343811

> <i_i_glide_confnum>
4

> <i_i_glide_posenum>
25

> <r_i_glide_eff_state_penalty>
0

> <s_user_duplicate_titles>
CHEMBL2039_lig2290

> <s_m_subgroup_title>
dock_pv

> <s_m_subgroupid>
dock_pv

> <b_m_subgroup_collapsed>
1

$$$$
CHEMBL2039_lig122
                    3D
 Schrodinger Suite 2021-1.
 31 33  0  0  1  0            999 V2000
   51.2552  156.7773   28.9040 C   0  0  0  0  0  0
   51.3870  158.0508   28.9052 N   0  0  0  0  0  0
   52.7938  153.2090   24.8905 N   0  0  0  0  0  0
   52.4560  152.0324   25.4457 N   0  0  0  0  0  0
   51.7319  152.3104   26.5040 C   0  0  0  0  0  0
   51.7829  153.7004   26.8100 C   0  0  0  0  0  0
   51.3779  154.5255   27.8693 C   0  0  0  0  0  0
   51.7106  155.8873   27.8303 C   0  0  0  0  0  0
   52.4006  156.4002   26.7229 C   0  0  0  0  0  0
   52.7361  155.6333   25.6129 C   0  0  0  0  0  0
   52.4560  154.2707   25.7026 C   0  0  0  0  0  0
   50.6726  158.8532   29.8057 C   0  0  0  0  0  0
   49.3190  158.6444   30.1347 C   0  0  0  0  0  0
   48.6540  159.4401   31.0632 C   0  0  0  0  0  0
   49.3342  160.4955   31.6730 C   0  0  0  0  0  0
   50.6511  160.7704   31.3038 C   0  0  0  0  0  0
   51.2988  159.9737   30.3595 C   0  0  0  0  0  0
   48.5797  161.4437   32.9030 Cl  0  0  0  0  0  0
   47.0083  159.0711   31.4527 Cl  0  0  0  0  0  0
   53.4946  153.2421   23.6208 C   0  0  0  0  0  0
   50.6993  156.2739   29.6923 H   0  0  0  0  0  0
   51.2675  151.5248   27.0846 H   0  0  0  0  0  0
   50.8552  154.1001   28.7144 H   0  0  0  0  0  0
   52.6632  157.4440   26.7062 H   0  0  0  0  0  0
   53.2690  156.0584   24.7761 H   0  0  0  0  0  0
   48.7745  157.8204   29.7054 H   0  0  0  0  0  0
   51.1820  161.5940   31.7582 H   0  0  0  0  0  0
   52.3273  160.1856   30.1049 H   0  0  0  0  0  0
   52.8885  153.7934   22.9040 H   0  0  0  0  0  0
   54.4528  153.7474   23.7510 H   0  0  0  0  0  0
   53.6560  152.2333   23.2402 H   0  0  0  0  0  0
  1  2  2  0  0  0
  1  8  1  0  0  0
  1 21  1  0  0  0
  2 12  1  0  0  0
  3  4  1  0  0  0
  3 11  1  0  0  0
  3 20  1  0  0  0
  4  5  2  0  0  0
  5  6  1  0  0  0
  5 22  1  0  0  0
  6  7  1  0  0  0
  6 11  2  0  0  0
  7  8  2  0  0  0
  7 23  1  0  0  0
  8  9  1  0  0  0
  9 10  2  0  0  0
  9 24  1  0  0  0
 10 11  1  0  0  0
 10 25  1  0  0  0
 12 13  1  0  0  0
 12 17  2  0  0  0
 13 14  2  0  0  0
 13 26  1  0  0  0
 14 15  1  0  0  0
 14 19  1  0  0  0
 15 16  2  0  0  0
 15 18  1  0  0  0
 16 17  1  0  0  0
 16 27  1  0  0  0
 17 28  1  0  0  0
 20 29  1  0  0  0
 20 30  1  0  0  0
 20 31  1  0  0  0
M  END
> <s_m_entry_id>
10081

> <s_m_entry_name>
dock_pv.117

> <s_m_Source_Path>
/home/csk/Desktop/cluster/DUD-E-result/aofb

> <s_m_Source_File>
dock_pv.maegz

> <i_m_Source_File_Index>
117

> <chembl_id>
CHEMBL3319273

> <chembl_pref_name>
None

> <i_lp_mmshare_version>
53161

> <i_f3d_flags>
0

> <r_lp_tautomer_probability>
1

> <s_lp_Force_Field>
OPLS_2005

> <r_lp_Energy>
15.938023

> <b_lp_Chiralities_Consistent>
1

> <s_lp_Variant>
CHEMBL2039_lig122-1

> <s_i_glide_gridfile>
glide-grid_1s3b

> <i_i_glide_lignum>
148

> <i_i_glide_rotatable_bonds>
2

> <r_i_docking_score>
-7.88067007023631

> <r_i_glide_ligand_efficiency>
-0.394033503511815

> <r_i_glide_ligand_efficiency_sa>
-1.06957148239303

> <r_i_glide_ligand_efficiency_ln>
-1.97227179668544

> <r_i_glide_gscore>
-7.88067007023631

> <r_i_glide_lipo>
-3.80784051613925

> <r_i_glide_hbond>
0

> <r_i_glide_metal>
0

> <r_i_glide_rewards>
-2.94714272032797

> <r_i_glide_evdw>
-27.5101413726807

> <r_i_glide_ecoul>
-0.991681396961212

> <r_i_glide_erotb>
0.398572444409127

> <r_i_glide_esite>
0

> <r_i_glide_emodel>
-28.9991506915985

> <r_i_glide_energy>
-28.5018227696419

> <r_i_glide_einternal>
1.72924542427063

> <i_i_glide_confnum>
6

> <i_i_glide_posenum>
205

> <r_i_glide_eff_state_penalty>
0

> <s_user_duplicate_titles>
CHEMBL2039_lig122

> <s_m_subgroup_title>
dock_pv

> <s_m_subgroupid>
dock_pv

> <b_m_subgroup_collapsed>
1

$$$$
CHEMBL2039_lig615
                    3D
 Schrodinger Suite 2021-1.
 31 32  0  0  1  0            999 V2000
   51.2560  155.0495   28.2215 C   0  0  0  0  0  0
   50.7447  156.1636   28.9863 C   0  0  0  0  0  0
   51.2560  157.4204   28.9572 C   0  0  0  0  0  0
   51.2560  153.9084   28.6718 O   0  0  0  0  0  0
   51.6621  155.3879   26.9854 N   0  0  0  0  0  0
   50.7228  158.5818   29.7040 C   0  0  0  0  0  0
   49.3923  158.6440   30.1453 C   0  0  0  0  0  0
   48.9488  159.7047   30.9373 C   0  0  0  0  0  0
   49.8478  160.7003   31.3189 C   0  0  0  0  0  0
   51.1640  160.6662   30.8645 C   0  0  0  0  0  0
   51.5891  159.6267   30.0416 C   0  0  0  0  0  0
   47.5605  159.7660   31.3665 C   0  0  0  0  0  0
   46.4560  159.8156   31.7040 N   0  0  0  0  0  0
   52.2517  154.5988   25.9925 C   0  0  0  0  0  0
   52.2369  153.1880   25.9395 C   0  0  0  0  0  0
   52.9685  152.5372   24.9390 C   0  0  0  0  0  0
   53.6217  153.2762   23.9707 C   0  0  0  0  0  0
   53.7545  154.6440   24.1040 C   0  0  0  0  0  0
   53.0224  155.3168   25.0742 C   0  0  0  0  0  0
   53.2560  150.6570   24.9040 Br  0  0  0  0  0  0
   49.9062  155.9129   29.6184 H   0  0  0  0  0  0
   52.1174  157.6347   28.3371 H   0  0  0  0  0  0
   51.6172  156.3694   26.7663 H   0  0  0  0  0  0
   48.7010  157.8516   29.8984 H   0  0  0  0  0  0
   49.5364  161.5141   31.9590 H   0  0  0  0  0  0
   51.8551  161.4438   31.1577 H   0  0  0  0  0  0
   52.6157  159.6044   29.7040 H   0  0  0  0  0  0
   51.7211  152.5977   26.6808 H   0  0  0  0  0  0
   54.0560  152.7594   23.1353 H   0  0  0  0  0  0
   54.4029  155.1785   23.4229 H   0  0  0  0  0  0
   53.1057  156.3923   25.1396 H   0  0  0  0  0  0
  1  2  1  0  0  0
  1  4  2  0  0  0
  1  5  1  0  0  0
  2  3  2  0  0  0
  2 21  1  0  0  0
  3  6  1  0  0  0
  3 22  1  0  0  0
  5 14  1  0  0  0
  5 23  1  0  0  0
  6  7  1  0  0  0
  6 11  2  0  0  0
  7  8  2  0  0  0
  7 24  1  0  0  0
  8  9  1  0  0  0
  8 12  1  0  0  0
  9 10  2  0  0  0
  9 25  1  0  0  0
 10 11  1  0  0  0
 10 26  1  0  0  0
 11 27  1  0  0  0
 12 13  3  0  0  0
 14 15  1  0  0  0
 14 19  2  0  0  0
 15 16  2  0  0  0
 15 28  1  0  0  0
 16 17  1  0  0  0
 16 20  1  0  0  0
 17 18  2  0  0  0
 17 29  1  0  0  0
 18 19  1  0  0  0
 18 30  1  0  0  0
 19 31  1  0  0  0
M  END
> <s_m_entry_id>
10082

> <s_m_entry_name>
dock_pv.118

> <s_m_Source_Path>
/home/csk/Desktop/cluster/DUD-E-result/aofb

> <s_m_Source_File>
dock_pv.maegz

> <i_m_Source_File_Index>
118

> <chembl_id>
CHEMBL1830146

> <chembl_pref_name>
None

> <i_lp_mmshare_version>
53161

> <i_f3d_flags>
0

> <r_lp_tautomer_probability>
1

> <s_lp_Force_Field>
OPLS_2005

> <r_lp_Energy>
17.726932

> <b_lp_Chiralities_Consistent>
1

> <s_lp_Variant>
CHEMBL2039_lig615-1

> <s_i_glide_gridfile>
glide-grid_1s3b

> <i_i_glide_lignum>
724

> <i_i_glide_rotatable_bonds>
4

> <r_i_docking_score>
-7.87955644096896

> <r_i_glide_ligand_efficiency>
-0.393977822048448

> <r_i_glide_ligand_efficiency_sa>
-1.0694203396481

> <r_i_glide_ligand_efficiency_ln>
-1.97199309200977

> <r_i_glide_gscore>
-7.87955644096896

> <r_i_glide_lipo>
-3.76933039420819

> <r_i_glide_hbond>
0

> <r_i_glide_metal>
0

> <r_i_glide_rewards>
-2.97170149581549

> <r_i_glide_evdw>
-33.9405632019043

> <r_i_glide_ecoul>
0.217378124594688

> <r_i_glide_erotb>
0.525896890460735

> <r_i_glide_esite>
0

> <r_i_glide_emodel>
-42.3945958937081

> <r_i_glide_energy>
-33.7231850773096

> <r_i_glide_einternal>
2.71392631530762

> <i_i_glide_confnum>
4

> <i_i_glide_posenum>
258

> <r_i_glide_eff_state_penalty>
0

> <s_user_duplicate_titles>
CHEMBL2039_lig615

> <s_m_subgroup_title>
dock_pv

> <s_m_subgroupid>
dock_pv

> <b_m_subgroup_collapsed>
1

$$$$
CHEMBL2039_lig340
                    3D
 Schrodinger Suite 2021-1.
 29 31  0  0  1  0            999 V2000
   47.1199  159.6113   31.7076 C   0  0  0  0  0  0
   47.8739  160.7391   32.0207 C   0  0  0  0  0  0
   49.1823  160.8521   31.5535 C   0  0  0  0  0  0
   47.7040  158.5537   31.0167 C   0  0  0  0  0  0
   49.0234  158.6511   30.5788 C   0  0  0  0  0  0
   49.7229  159.8557   30.7325 C   0  0  0  0  0  0
   51.0486  159.9988   30.1010 C   0  0  0  0  0  0
   51.2564  159.0136   28.9502 C   0  0  0  0  0  0
   50.8823  157.6004   29.3944 C   0  0  1  0  0  0
   49.6138  157.4895   30.1038 O   0  0  0  0  0  0
   51.2606  156.3869   28.5040 C   0  0  0  0  0  0
   50.8266  155.1085   28.8690 C   0  0  0  0  0  0
   51.7139  154.2035   26.8207 C   0  0  0  0  0  0
   52.2194  155.4546   26.4815 C   0  0  0  0  0  0
   51.0693  154.0183   28.0359 C   0  0  0  0  0  0
   52.0559  156.5279   27.3546 C   0  0  0  0  0  0
   51.8584  160.8669   30.4232 O   0  0  0  0  0  0
   45.8325  159.5296   32.1046 F   0  0  0  0  0  0
   51.8890  153.1549   25.9854 F   0  0  0  0  0  0
   47.4358  161.5354   32.6033 H   0  0  0  0  0  0
   49.7474  161.7468   31.7788 H   0  0  0  0  0  0
   47.1354  157.6570   30.8410 H   0  0  0  0  0  0
   52.2997  159.0451   28.6469 H   0  0  0  0  0  0
   50.5689  159.2849   28.1510 H   0  0  0  0  0  0
   51.6552  157.4534   30.1029 H   0  0  0  0  0  0
   50.2729  154.9619   29.7846 H   0  0  0  0  0  0
   52.7661  155.5806   25.5593 H   0  0  0  0  0  0
   50.7318  153.0312   28.3106 H   0  0  0  0  0  0
   52.4598  157.4870   27.0765 H   0  0  0  0  0  0
  1  2  2  0  0  0
  1  4  1  0  0  0
  1 18  1  0  0  0
  2  3  1  0  0  0
  2 20  1  0  0  0
  3  6  2  0  0  0
  3 21  1  0  0  0
  4  5  2  0  0  0
  4 22  1  0  0  0
  5  6  1  0  0  0
  5 10  1  0  0  0
  6  7  1  0  0  0
  7  8  1  0  0  0
  7 17  2  0  0  0
  8  9  1  0  0  0
  8 23  1  0  0  0
  8 24  1  0  0  0
  9 10  1  0  0  0
  9 11  1  0  0  0
  9 25  1  0  0  0
 11 12  2  0  0  0
 11 16  1  0  0  0
 12 15  1  0  0  0
 12 26  1  0  0  0
 13 14  1  0  0  0
 13 15  2  0  0  0
 13 19  1  0  0  0
 14 16  2  0  0  0
 14 27  1  0  0  0
 15 28  1  0  0  0
 16 29  1  0  0  0
M  END
> <s_m_entry_id>
10083

> <s_m_entry_name>
dock_pv.119

> <s_m_Source_Path>
/home/csk/Desktop/cluster/DUD-E-result/aofb

> <s_m_Source_File>
dock_pv.maegz

> <i_m_Source_File_Index>
119

> <chembl_id>
CHEMBL599762

> <chembl_pref_name>
None

> <i_lp_mmshare_version>
53161

> <i_f3d_flags>
0

> <r_lp_tautomer_probability>
0.99995

> <s_lp_Force_Field>
OPLS_2005

> <r_lp_Energy>
18.401689

> <b_lp_Chiralities_Consistent>
1

> <s_lp_Variant>
CHEMBL2039_lig340-1

> <s_i_glide_gridfile>
glide-grid_1s3b

> <i_i_glide_lignum>
392

> <i_i_glide_rotatable_bonds>
1

> <r_i_docking_score>
-7.879106292256

> <r_i_glide_ligand_efficiency>
-0.414689804855579

> <r_i_glide_ligand_efficiency_sa>
-1.10655895789874

> <r_i_glide_ligand_efficiency_ln>
-1.99752267277337

> <r_i_glide_gscore>
-7.879106292256

> <r_i_glide_lipo>
-3.80224217658141

> <r_i_glide_hbond>
0

> <r_i_glide_metal>
0

> <r_i_glide_rewards>
-3.55019827750538

> <r_i_glide_evdw>
-12.8692560195923

> <r_i_glide_ecoul>
-0.963648855686188

> <r_i_glide_erotb>
0.261344291163335

> <r_i_glide_esite>
0

> <r_i_glide_emodel>
-15.9234570322756

> <r_i_glide_energy>
-13.8329048752785

> <r_i_glide_einternal>
1.60485363006592

> <i_i_glide_confnum>
2

> <i_i_glide_posenum>
243

> <r_i_glide_eff_state_penalty>
0

> <s_user_duplicate_titles>
CHEMBL2039_lig340,CHEMBL2039_lig363,601326,601782

> <s_m_subgroup_title>
dock_pv

> <s_m_subgroupid>
dock_pv

> <b_m_subgroup_collapsed>
1

$$$$
CHEMBL2039_lig2070
                    3D
 Schrodinger Suite 2021-1.
 28 29  0  0  1  0            999 V2000
   51.5299  160.6908   30.6703 C   0  0  0  0  0  0
   51.6535  159.5513   29.8666 C   0  0  0  0  0  0
   50.6168  158.6115   29.7949 C   0  0  0  0  0  0
   49.4007  158.8987   30.4210 C   0  0  0  0  0  0
   49.2471  160.0611   31.1750 C   0  0  0  0  0  0
   50.3190  160.9389   31.3242 C   0  0  0  0  0  0
   50.7758  157.3331   29.3039 O   0  0  0  0  0  0
   51.9150  157.0135   28.5039 C   0  0  0  0  0  0
   51.7139  155.6546   27.8364 C   0  0  0  0  0  0
   52.0717  155.4578   26.4949 C   0  0  0  0  0  0
   52.0714  154.1714   25.9447 C   0  0  0  0  0  0
   51.6559  153.0863   26.7085 C   0  0  0  0  0  0
   51.2561  153.2846   28.0253 C   0  0  0  0  0  0
   51.2621  154.5629   28.5828 C   0  0  0  0  0  0
   52.6663  161.6338   30.8378 C   0  0  0  0  0  0
   53.6554  161.6560   30.1047 O   0  0  0  0  0  0
   52.8557  153.8447   24.2411 Br  0  0  0  0  0  0
   52.6005  159.3412   29.3925 H   0  0  0  0  0  0
   48.5951  158.1813   30.3746 H   0  0  0  0  0  0
   48.3134  160.2563   31.6813 H   0  0  0  0  0  0
   50.1987  161.8096   31.9560 H   0  0  0  0  0  0
   52.0571  157.7741   27.7332 H   0  0  0  0  0  0
   52.8258  156.9825   29.1025 H   0  0  0  0  0  0
   52.4540  156.2805   25.9087 H   0  0  0  0  0  0
   51.6810  152.0886   26.2956 H   0  0  0  0  0  0
   50.9459  152.4377   28.6187 H   0  0  0  0  0  0
   50.9821  154.6876   29.6191 H   0  0  0  0  0  0
   52.5768  162.3143   31.6881 H   0  0  0  0  0  0
  1  2  1  0  0  0
  1  6  2  0  0  0
  1 15  1  0  0  0
  2  3  2  0  0  0
  2 18  1  0  0  0
  3  4  1  0  0  0
  3  7  1  0  0  0
  4  5  2  0  0  0
  4 19  1  0  0  0
  5  6  1  0  0  0
  5 20  1  0  0  0
  6 21  1  0  0  0
  7  8  1  0  0  0
  8  9  1  0  0  0
  8 22  1  0  0  0
  8 23  1  0  0  0
  9 10  1  0  0  0
  9 14  2  0  0  0
 10 11  2  0  0  0
 10 24  1  0  0  0
 11 12  1  0  0  0
 11 17  1  0  0  0
 12 13  2  0  0  0
 12 25  1  0  0  0
 13 14  1  0  0  0
 13 26  1  0  0  0
 14 27  1  0  0  0
 15 16  2  0  0  0
 15 28  1  0  0  0
M  END
> <s_m_entry_id>
10085

> <s_m_entry_name>
dock_pv.121

> <s_m_Source_Path>
/home/csk/Desktop/cluster/DUD-E-result/aofb

> <s_m_Source_File>
dock_pv.maegz

> <i_m_Source_File_Index>
121

> <chembl_id>
CHEMBL4165641

> <chembl_pref_name>
None

> <i_lp_mmshare_version>
53161

> <i_f3d_flags>
0

> <r_lp_tautomer_probability>
1

> <s_lp_Force_Field>
OPLS_2005

> <r_lp_Energy>
15.310436

> <b_lp_Chiralities_Consistent>
1

> <s_lp_Variant>
CHEMBL2039_lig2070-1

> <s_i_glide_gridfile>
glide-grid_1s3b

> <i_i_glide_lignum>
2408

> <i_i_glide_rotatable_bonds>
4

> <r_i_docking_score>
-7.87754838334185

> <r_i_glide_ligand_efficiency>
-0.463385199020109

> <r_i_glide_ligand_efficiency_sa>
-1.19149383049866

> <r_i_glide_ligand_efficiency_ln>
-2.05507694883636

> <r_i_glide_gscore>
-7.87754838334185

> <r_i_glide_lipo>
-3.64670167534135

> <r_i_glide_hbond>
-0.32

> <r_i_glide_metal>
0

> <r_i_glide_rewards>
-2.3672912217508

> <r_i_glide_evdw>
-31.7462787628174

> <r_i_glide_ecoul>
-4.01118564605713

> <r_i_glide_erotb>
0.645436298799742

> <r_i_glide_esite>
0

> <r_i_glide_emodel>
-47.7006678844018

> <r_i_glide_energy>
-35.7574644088745

> <r_i_glide_einternal>
1.18732631206512

> <i_i_glide_confnum>
25

> <i_i_glide_posenum>
271

> <r_i_glide_eff_state_penalty>
0

> <s_user_duplicate_titles>
CHEMBL2039_lig2070

> <s_m_subgroup_title>
dock_pv

> <s_m_subgroupid>
dock_pv

> <b_m_subgroup_collapsed>
1

$$$$
CHEMBL2039_lig915
                    3D
 Schrodinger Suite 2021-1.
 36 37  0  0  1  0            999 V2000
   46.8654  160.6439   32.7109 C   0  0  0  0  0  0
   48.1650  161.0548   32.9695 C   0  0  0  0  0  0
   49.1945  160.6611   32.1248 C   0  0  0  0  0  0
   48.9482  159.8118   31.0356 C   0  0  0  0  0  0
   47.6190  159.4099   30.7794 C   0  0  0  0  0  0
   46.5908  159.8257   31.6213 C   0  0  0  0  0  0
   47.2560  158.6440   29.7040 O   0  0  0  0  0  0
   50.1244  159.4440   30.1915 C   0  0  0  0  0  0
   51.0528  160.2442   30.0598 O   0  0  0  0  0  0
   50.2280  158.0590   29.7041 C   0  0  0  0  0  0
   51.2560  157.5503   28.9912 C   0  0  0  0  0  0
   51.1860  156.2095   28.4771 C   0  0  0  0  0  0
   51.6800  155.9222   27.2521 C   0  0  0  0  0  0
   51.7662  154.6076   26.6241 C   0  0  0  0  0  0
   52.4867  154.4540   25.4330 C   0  0  0  0  0  0
   52.8318  153.1780   24.9864 C   0  0  0  0  0  0
   52.3981  152.0568   25.7040 C   0  0  0  0  0  0
   51.5714  152.2440   26.8105 C   0  0  0  0  0  0
   51.2560  153.4955   27.2777 C   0  0  0  0  0  0
   52.3781  158.2440   28.7149 O   0  0  0  0  0  0
   52.7394  150.6790   25.2903 N   0  3  0  0  0  0
   52.0560  149.7471   25.7040 O   0  0  0  0  0  0
   53.6560  150.5155   24.5040 O   0  5  0  0  0  0
   46.0560  160.9951   33.3264 H   0  0  0  0  0  0
   48.3767  161.6970   33.8097 H   0  0  0  0  0  0
   50.1928  161.0189   32.3454 H   0  0  0  0  0  0
   45.5705  159.5312   31.4180 H   0  0  0  0  0  0
   47.9917  158.4452   29.1216 H   0  0  0  0  0  0
   49.4013  157.4112   29.9482 H   0  0  0  0  0  0
   50.7470  155.4484   29.1030 H   0  0  0  0  0  0
   52.0819  156.7334   26.6589 H   0  0  0  0  0  0
   52.8779  155.3159   24.9125 H   0  0  0  0  0  0
   53.4481  153.0653   24.1049 H   0  0  0  0  0  0
   51.1928  151.3911   27.3545 H   0  0  0  0  0  0
   50.6705  153.5685   28.1799 H   0  0  0  0  0  0
   53.1450  157.6729   28.7998 H   0  0  0  0  0  0
  1  2  2  0  0  0
  1  6  1  0  0  0
  1 24  1  0  0  0
  2  3  1  0  0  0
  2 25  1  0  0  0
  3  4  2  0  0  0
  3 26  1  0  0  0
  4  5  1  0  0  0
  4  8  1  0  0  0
  5  6  2  0  0  0
  5  7  1  0  0  0
  6 27  1  0  0  0
  7 28  1  0  0  0
  8  9  2  0  0  0
  8 10  1  0  0  0
 10 11  2  0  0  0
 10 29  1  0  0  0
 11 12  1  0  0  0
 11 20  1  0  0  0
 12 13  2  0  0  0
 12 30  1  0  0  0
 13 14  1  0  0  0
 13 31  1  0  0  0
 14 15  2  0  0  0
 14 19  1  0  0  0
 15 16  1  0  0  0
 15 32  1  0  0  0
 16 17  2  0  0  0
 16 33  1  0  0  0
 17 18  1  0  0  0
 17 21  1  0  0  0
 18 19  2  0  0  0
 18 34  1  0  0  0
 19 35  1  0  0  0
 20 36  1  0  0  0
 21 22  2  0  0  0
 21 23  1  0  0  0
M  CHG  2  21   1  23  -1
M  END
> <s_m_entry_id>
10086

> <s_m_entry_name>
dock_pv.122

> <s_m_Source_Path>
/home/csk/Desktop/cluster/DUD-E-result/aofb

> <s_m_Source_File>
dock_pv.maegz

> <i_m_Source_File_Index>
122

> <chembl_id>
CHEMBL2332171

> <chembl_pref_name>
None

> <i_lp_mmshare_version>
53161

> <i_f3d_flags>
0

> <r_lp_tautomer_probability>
0.0769230769230769

> <s_lp_Force_Field>
OPLS_2005

> <r_lp_Energy>
29.190301

> <b_lp_Chiralities_Consistent>
1

> <s_lp_Variant>
CHEMBL2039_lig915-2

> <s_i_glide_gridfile>
glide-grid_1s3b

> <i_i_glide_lignum>
1055

> <i_i_glide_rotatable_bonds>
7

> <r_i_docking_score>
-7.87179634529396

> <r_i_glide_ligand_efficiency>
-0.342252015012781

> <r_i_glide_ligand_efficiency_sa>
-0.973319203265231

> <r_i_glide_ligand_efficiency_ln>
-1.90347173379503

> <r_i_glide_gscore>
-7.87179634529396

> <r_i_glide_lipo>
-4.10389359085397

> <r_i_glide_hbond>
0

> <r_i_glide_metal>
0

> <r_i_glide_rewards>
-2.86160291556683

> <r_i_glide_evdw>
-29.3490467071533

> <r_i_glide_ecoul>
-2.50652074813843

> <r_i_glide_erotb>
0.956809902068242

> <r_i_glide_esite>
-0.0196792933629683

> <r_i_glide_emodel>
-28.3793316972937

> <r_i_glide_energy>
-31.8555674552917

> <r_i_glide_einternal>
12.0077934265137

> <i_i_glide_confnum>
48

> <i_i_glide_posenum>
272

> <r_i_glide_eff_state_penalty>
0

> <s_user_duplicate_titles>
CHEMBL2039_lig915

> <s_m_subgroup_title>
dock_pv

> <s_m_subgroupid>
dock_pv

> <b_m_subgroup_collapsed>
1

$$$$
CHEMBL2039_lig1739
                    3D
 Schrodinger Suite 2021-1.
 31 33  0  0  1  0            999 V2000
   51.4075  154.8150   27.8541 C   0  0  0  0  0  0
   51.4774  156.2302   28.2173 C   0  0  0  0  0  0
   52.4560  156.9044   27.2748 C   0  0  0  0  0  0
   52.6805  155.8695   26.1929 C   0  0  0  0  0  0
   53.5019  155.8889   25.0618 C   0  0  0  0  0  0
   53.7791  154.6914   24.3970 C   0  0  0  0  0  0
   53.0770  153.5268   24.7020 C   0  0  0  0  0  0
   52.1830  153.5246   25.7693 C   0  0  0  0  0  0
   52.0553  154.6796   26.5454 C   0  0  0  0  0  0
   50.8560  153.9378   28.5039 O   0  0  0  0  0  0
   50.6755  156.7258   29.1928 C   0  0  0  0  0  0
   50.4828  158.1048   29.7045 C   0  0  0  0  0  0
   49.2583  158.3857   30.3292 C   0  0  0  0  0  0
   49.0946  159.5458   31.0730 C   0  0  0  0  0  0
   50.1586  160.4284   31.1978 C   0  0  0  0  0  0
   51.3332  160.2383   30.4721 C   0  0  0  0  0  0
   51.4863  159.0798   29.7040 C   0  0  0  0  0  0
   54.7889  154.6439   23.4794 O   0  0  0  0  0  0
   50.0559  161.4434   32.1042 O   0  0  0  0  0  0
   52.0608  157.8437   26.9034 H   0  0  0  0  0  0
   53.3903  157.1383   27.7872 H   0  0  0  0  0  0
   54.0565  156.7770   24.7999 H   0  0  0  0  0  0
   53.2659  152.6117   24.1594 H   0  0  0  0  0  0
   51.6926  152.6032   26.0502 H   0  0  0  0  0  0
   50.0472  156.0071   29.7038 H   0  0  0  0  0  0
   48.4558  157.6626   30.3109 H   0  0  0  0  0  0
   48.1793  159.7153   31.6208 H   0  0  0  0  0  0
   52.1531  160.9352   30.5618 H   0  0  0  0  0  0
   52.4366  158.8905   29.2274 H   0  0  0  0  0  0
   55.0501  153.7317   23.3044 H   0  0  0  0  0  0
   50.8999  161.8199   32.3833 H   0  0  0  0  0  0
  1  2  1  0  0  0
  1  9  1  0  0  0
  1 10  2  0  0  0
  2  3  1  0  0  0
  2 11  2  0  0  0
  3  4  1  0  0  0
  3 20  1  0  0  0
  3 21  1  0  0  0
  4  5  1  0  0  0
  4  9  2  0  0  0
  5  6  2  0  0  0
  5 22  1  0  0  0
  6  7  1  0  0  0
  6 18  1  0  0  0
  7  8  2  0  0  0
  7 23  1  0  0  0
  8  9  1  0  0  0
  8 24  1  0  0  0
 11 12  1  0  0  0
 11 25  1  0  0  0
 12 13  1  0  0  0
 12 17  2  0  0  0
 13 14  2  0  0  0
 13 26  1  0  0  0
 14 15  1  0  0  0
 14 27  1  0  0  0
 15 16  2  0  0  0
 15 19  1  0  0  0
 16 17  1  0  0  0
 16 28  1  0  0  0
 17 29  1  0  0  0
 18 30  1  0  0  0
 19 31  1  0  0  0
M  END
> <s_m_entry_id>
10087

> <s_m_entry_name>
dock_pv.123

> <s_m_Source_Path>
/home/csk/Desktop/cluster/DUD-E-result/aofb

> <s_m_Source_File>
dock_pv.maegz

> <i_m_Source_File_Index>
123

> <chembl_id>
CHEMBL3890408

> <chembl_pref_name>
None

> <i_lp_mmshare_version>
53161

> <i_f3d_flags>
0

> <r_lp_tautomer_probability>
1

> <s_lp_Force_Field>
OPLS_2005

> <r_lp_Energy>
24.407971

> <b_lp_Chiralities_Consistent>
1

> <s_lp_Variant>
CHEMBL2039_lig1739-1

> <s_i_glide_gridfile>
glide-grid_1s3b

> <i_i_glide_lignum>
2027

> <i_i_glide_rotatable_bonds>
3

> <r_i_docking_score>
-7.87100559314825

> <r_i_glide_ligand_efficiency>
-0.414263452270961

> <r_i_glide_ligand_efficiency_sa>
-1.10542127796013

> <r_i_glide_ligand_efficiency_ln>
-1.99546897156249

> <r_i_glide_gscore>
-7.87100559314825

> <r_i_glide_lipo>
-3.00291504853135

> <r_i_glide_hbond>
-0.585764011065999

> <r_i_glide_metal>
0

> <r_i_glide_rewards>
-2.7315999168837

> <r_i_glide_evdw>
-19.1466083526611

> <r_i_glide_ecoul>
-5.79399061203003

> <r_i_glide_erotb>
0.27570239277036

> <r_i_glide_esite>
0

> <r_i_glide_emodel>
-25.8316090591683

> <r_i_glide_energy>
-24.9405989646912

> <r_i_glide_einternal>
1.36412262916565

> <i_i_glide_confnum>
2

> <i_i_glide_posenum>
367

> <r_i_glide_eff_state_penalty>
0

> <s_user_duplicate_titles>
CHEMBL2039_lig1739

> <s_m_subgroup_title>
dock_pv

> <s_m_subgroupid>
dock_pv

> <b_m_subgroup_collapsed>
1

$$$$
CHEMBL2039_lig731
                    3D
 Schrodinger Suite 2021-1.
 34 36  0  0  1  0            999 V2000
   50.9006  156.9374   29.2610 O   0  0  0  0  0  0
   51.3347  158.2937   29.1206 C   0  0  0  0  0  0
   50.5042  159.1973   30.0247 C   0  0  0  0  0  0
   49.1349  158.9678   30.2110 C   0  0  0  0  0  0
   48.3913  159.7654   31.0781 C   0  0  0  0  0  0
   49.0151  160.7965   31.7759 C   0  0  0  0  0  0
   50.3739  161.0440   31.5806 C   0  0  0  0  0  0
   51.1160  160.2540   30.7031 C   0  0  0  0  0  0
   51.3373  155.9815   28.3568 C   0  0  0  0  0  0
   50.9870  154.6614   28.6267 C   0  0  0  0  0  0
   51.3332  153.6340   27.7535 C   0  0  0  0  0  0
   52.0560  156.2575   27.1762 C   0  0  0  0  0  0
   52.4185  155.2423   26.2826 C   0  0  0  0  0  0
   52.0471  153.9221   26.5939 C   0  0  0  0  0  0
   52.4408  152.8289   25.8464 O   0  0  0  0  0  0
   52.7061  153.1137   24.5039 C   0  0  1  0  0  0
   53.7230  154.2395   24.3727 C   0  0  0  0  0  0
   53.2315  155.5097   25.0617 C   0  0  0  0  0  0
   53.5299  156.6435   24.6886 O   0  0  0  0  0  0
   53.2560  152.0214   23.9033 O   0  0  0  0  0  0
   46.5292  159.4440   31.3040 Br  0  0  0  0  0  0
   51.2560  158.6686   28.1040 H   0  0  0  0  0  0
   52.3989  158.3609   29.3382 H   0  0  0  0  0  0
   48.6409  158.1557   29.7040 H   0  0  0  0  0  0
   48.4450  161.4143   32.4540 H   0  0  0  0  0  0
   50.8560  161.8537   32.1040 H   0  0  0  0  0  0
   52.1721  160.4465   30.5775 H   0  0  0  0  0  0
   50.4560  154.4314   29.5372 H   0  0  0  0  0  0
   51.0768  152.6130   27.9952 H   0  0  0  0  0  0
   52.3594  157.2675   26.9469 H   0  0  0  0  0  0
   51.7237  153.3692   24.1040 H   0  0  0  0  0  0
   54.6558  153.9285   24.8446 H   0  0  0  0  0  0
   53.9204  154.4330   23.3195 H   0  0  0  0  0  0
   52.5793  151.3419   23.8582 H   0  0  0  0  0  0
  1  2  1  0  0  0
  1  9  1  0  0  0
  2  3  1  0  0  0
  2 22  1  0  0  0
  2 23  1  0  0  0
  3  4  2  0  0  0
  3  8  1  0  0  0
  4  5  1  0  0  0
  4 24  1  0  0  0
  5  6  2  0  0  0
  5 21  1  0  0  0
  6  7  1  0  0  0
  6 25  1  0  0  0
  7  8  2  0  0  0
  7 26  1  0  0  0
  8 27  1  0  0  0
  9 12  1  0  0  0
  9 10  2  0  0  0
 10 11  1  0  0  0
 10 28  1  0  0  0
 11 14  2  0  0  0
 11 29  1  0  0  0
 12 13  2  0  0  0
 12 30  1  0  0  0
 13 14  1  0  0  0
 13 18  1  0  0  0
 14 15  1  0  0  0
 15 16  1  0  0  0
 16 17  1  0  0  0
 16 20  1  0  0  0
 16 31  1  0  0  0
 17 18  1  0  0  0
 17 32  1  0  0  0
 17 33  1  0  0  0
 18 19  2  0  0  0
 20 34  1  0  0  0
M  END
> <s_m_entry_id>
10088

> <s_m_entry_name>
dock_pv.124

> <s_m_Source_Path>
/home/csk/Desktop/cluster/DUD-E-result/aofb

> <s_m_Source_File>
dock_pv.maegz

> <i_m_Source_File_Index>
124

> <chembl_id>
CHEMBL2062882

> <chembl_pref_name>
None

> <i_lp_mmshare_version>
53161

> <i_f3d_flags>
0

> <r_lp_tautomer_probability>
0.99995

> <s_lp_Force_Field>
OPLS_2005

> <r_lp_Energy>
19.772258

> <b_lp_Chiralities_Consistent>
1

> <s_lp_Variant>
CHEMBL2039_lig731-2

> <s_i_glide_gridfile>
glide-grid_1s3b

> <i_i_glide_lignum>
861

> <i_i_glide_rotatable_bonds>
4

> <r_i_docking_score>
-7.86489093272493

> <r_i_glide_ligand_efficiency>
-0.374518615844044

> <r_i_glide_ligand_efficiency_sa>
-1.03326846270832

> <r_i_glide_ligand_efficiency_ln>
-1.9445783906077

> <r_i_glide_gscore>
-7.86489093272493

> <r_i_glide_lipo>
-3.68439450693556

> <r_i_glide_hbond>
0

> <r_i_glide_metal>
0

> <r_i_glide_rewards>
-2.69234436095978

> <r_i_glide_evdw>
-31.1949119567871

> <r_i_glide_ecoul>
-2.64688301086426

> <r_i_glide_erotb>
0.468625984639414

> <r_i_glide_esite>
0

> <r_i_glide_emodel>
-45.9026748322478

> <r_i_glide_energy>
-33.8417949676514

> <r_i_glide_einternal>
1.02534759044647

> <i_i_glide_confnum>
20

> <i_i_glide_posenum>
167

> <r_i_glide_eff_state_penalty>
0

> <s_user_duplicate_titles>
CHEMBL2039_lig731

> <s_m_subgroup_title>
dock_pv

> <s_m_subgroupid>
dock_pv

> <b_m_subgroup_collapsed>
1

$$$$
CHEMBL2039_lig186
                    3D
 Schrodinger Suite 2021-1.
 31 34  0  0  1  0            999 V2000
   52.2401  156.0319   26.9704 C   0  0  0  0  0  0
   51.6484  154.8569   27.3866 C   0  0  0  0  0  0
   52.8560  155.8308   25.6313 C   0  0  0  0  0  0
   50.8823  154.7626   28.5040 N   0  0  0  0  0  0
   52.7020  154.3791   25.3907 C   0  0  0  0  0  0
   51.9946  153.7988   26.4432 C   0  0  0  0  0  0
   50.6336  155.8792   29.2134 N   0  0  0  0  0  0
   52.1427  157.1360   27.8157 C   0  0  0  0  0  0
   51.2560  157.0650   28.9040 C   0  0  0  0  0  0
   46.6234  159.7112   31.7040 N   0  0  0  0  0  0
   47.7138  159.6408   31.3249 C   0  0  0  0  0  0
   50.8145  158.3022   29.6429 C   0  0  0  0  0  0
   53.4204  156.6440   24.9040 O   0  0  0  0  0  0
   49.5156  158.4051   30.1708 C   0  0  0  0  0  0
   49.0832  159.5529   30.8399 C   0  0  0  0  0  0
   53.2575  153.5841   24.3889 C   0  0  0  0  0  0
   51.8206  152.4215   26.5040 C   0  0  0  0  0  0
   51.6560  159.4178   29.7869 C   0  0  0  0  0  0
   51.2544  160.5463   30.5037 C   0  0  0  0  0  0
   49.9677  160.6141   31.0302 C   0  0  0  0  0  0
   53.1724  152.1968   24.5040 C   0  0  0  0  0  0
   52.4561  151.6192   25.5569 C   0  0  0  0  0  0
   52.6109  158.0700   27.5536 H   0  0  0  0  0  0
   48.8328  157.5717   30.0815 H   0  0  0  0  0  0
   53.8302  154.0147   23.5801 H   0  0  0  0  0  0
   51.2734  151.9644   27.3165 H   0  0  0  0  0  0
   52.6593  159.3913   29.3909 H   0  0  0  0  0  0
   51.9392  161.3696   30.6467 H   0  0  0  0  0  0
   49.6665  161.4930   31.5811 H   0  0  0  0  0  0
   53.6450  151.5696   23.7630 H   0  0  0  0  0  0
   52.3781  150.5442   25.6287 H   0  0  0  0  0  0
  1  2  2  0  0  0
  1  3  1  0  0  0
  1  8  1  0  0  0
  2  4  1  0  0  0
  2  6  1  0  0  0
  3  5  1  0  0  0
  3 13  2  0  0  0
  4  7  2  0  0  0
  5 16  1  0  0  0
  5  6  2  0  0  0
  6 17  1  0  0  0
  7  9  1  0  0  0
  8  9  2  0  0  0
  8 23  1  0  0  0
  9 12  1  0  0  0
 10 11  3  0  0  0
 11 15  1  0  0  0
 12 14  1  0  0  0
 12 18  2  0  0  0
 14 15  2  0  0  0
 14 24  1  0  0  0
 15 20  1  0  0  0
 16 21  2  0  0  0
 16 25  1  0  0  0
 17 22  2  0  0  0
 17 26  1  0  0  0
 18 19  1  0  0  0
 18 27  1  0  0  0
 19 20  2  0  0  0
 19 28  1  0  0  0
 20 29  1  0  0  0
 21 22  1  0  0  0
 21 30  1  0  0  0
 22 31  1  0  0  0
M  END
> <s_m_entry_id>
10089

> <s_m_entry_name>
dock_pv.125

> <s_m_Source_Path>
/home/csk/Desktop/cluster/DUD-E-result/aofb

> <s_m_Source_File>
dock_pv.maegz

> <i_m_Source_File_Index>
125

> <chembl_id>
CHEMBL339027

> <chembl_pref_name>
None

> <i_lp_mmshare_version>
53161

> <i_f3d_flags>
0

> <r_lp_tautomer_probability>
1

> <s_lp_Force_Field>
OPLS_2005

> <r_lp_Energy>
43.33366

> <b_lp_Chiralities_Consistent>
1

> <s_lp_Variant>
CHEMBL2039_lig186-1

> <s_i_glide_gridfile>
glide-grid_1s3b

> <i_i_glide_lignum>
227

> <i_i_glide_rotatable_bonds>
1

> <r_i_docking_score>
-7.86373826538467

> <r_i_glide_ligand_efficiency>
-0.357442648426576

> <r_i_glide_ligand_efficiency_sa>
-1.00156835831293

> <r_i_glide_ligand_efficiency_ln>
-1.92218446888259

> <r_i_glide_gscore>
-7.86373826538467

> <r_i_glide_lipo>
-3.58369047519557

> <r_i_glide_hbond>
0

> <r_i_glide_metal>
0

> <r_i_glide_rewards>
-2.9138666133896

> <r_i_glide_evdw>
-24.3716602325439

> <r_i_glide_ecoul>
-2.48828363418579

> <r_i_glide_erotb>
0.225644379955558

> <r_i_glide_esite>
0

> <r_i_glide_emodel>
-27.3267433620798

> <r_i_glide_energy>
-26.8599438667297

> <r_i_glide_einternal>
0.318838357925415

> <i_i_glide_confnum>
4

> <i_i_glide_posenum>
16

> <r_i_glide_eff_state_penalty>
0

> <s_user_duplicate_titles>
CHEMBL2039_lig186

> <s_m_subgroup_title>
dock_pv

> <s_m_subgroupid>
dock_pv

> <b_m_subgroup_collapsed>
1

$$$$
CHEMBL2039_lig212
                    3D
 Schrodinger Suite 2021-1.
 37 39  0  0  1  0            999 V2000
   51.5959  152.6440   26.4766 C   0  0  0  0  0  0
   52.6785  154.6270   25.5100 C   0  0  0  0  0  0
   52.4184  153.3025   25.4376 C   0  0  0  0  0  0
   51.0737  153.4335   27.4852 O   0  0  0  0  0  0
   51.4257  154.7592   27.6267 C   0  0  0  0  0  0
   52.2409  155.4015   26.6886 C   0  0  0  0  0  0
   50.9053  155.4575   28.7152 C   0  0  0  0  0  0
   52.7179  156.6740   26.9848 C   0  0  0  0  0  0
   51.2560  151.4634   26.5040 O   0  0  0  0  0  0
   51.2560  156.7968   28.9040 C   0  0  0  0  0  0
   50.4977  157.5335   29.7851 O   0  0  0  0  0  0
   52.2599  157.3537   28.1040 C   0  0  0  0  0  0
   47.7301  160.5691   32.5040 C   0  0  0  0  0  0
   53.5628  155.3427   24.5040 C   0  0  0  0  0  0
   49.5612  159.5590   30.6840 C   0  0  0  0  0  0
   50.5884  158.9585   29.7416 C   0  0  0  0  0  0
   52.9791  152.3779   24.3581 C   0  0  0  0  0  0
   46.8560  161.0440   33.4118 F   0  0  0  0  0  0
   49.0349  161.0476   32.5040 C   0  0  0  0  0  0
   47.3217  159.6055   31.5855 C   0  0  0  0  0  0
   49.9506  160.5545   31.5832 C   0  0  0  0  0  0
   48.2414  159.0956   30.6734 C   0  0  0  0  0  0
   50.1856  154.9888   29.3690 H   0  0  0  0  0  0
   53.4444  157.1578   26.3555 H   0  0  0  0  0  0
   52.6217  158.3517   28.2762 H   0  0  0  0  0  0
   53.8411  154.7001   23.6725 H   0  0  0  0  0  0
   53.0435  156.2174   24.1158 H   0  0  0  0  0  0
   54.4951  155.6756   24.9420 H   0  0  0  0  0  0
   50.3985  159.3381   28.7361 H   0  0  0  0  0  0
   51.5919  159.2708   30.0388 H   0  0  0  0  0  0
   54.0560  152.5115   24.2979 H   0  0  0  0  0  0
   52.8136  151.3142   24.5356 H   0  0  0  0  0  0
   52.5562  152.6342   23.3870 H   0  0  0  0  0  0
   49.3419  161.7934   33.2219 H   0  0  0  0  0  0
   46.3026  159.2478   31.5941 H   0  0  0  0  0  0
   50.9679  160.9203   31.6022 H   0  0  0  0  0  0
   47.9362  158.3292   29.9756 H   0  0  0  0  0  0
  1  3  1  0  0  0
  1  4  1  0  0  0
  1  9  2  0  0  0
  2  3  2  0  0  0
  2 14  1  0  0  0
  2  6  1  0  0  0
  3 17  1  0  0  0
  4  5  1  0  0  0
  5  6  1  0  0  0
  5  7  2  0  0  0
  6  8  2  0  0  0
  7 10  1  0  0  0
  7 23  1  0  0  0
  8 12  1  0  0  0
  8 24  1  0  0  0
 10 11  1  0  0  0
 10 12  2  0  0  0
 11 16  1  0  0  0
 12 25  1  0  0  0
 13 20  2  0  0  0
 13 18  1  0  0  0
 13 19  1  0  0  0
 14 26  1  0  0  0
 14 27  1  0  0  0
 14 28  1  0  0  0
 15 16  1  0  0  0
 15 21  1  0  0  0
 15 22  2  0  0  0
 16 29  1  0  0  0
 16 30  1  0  0  0
 17 31  1  0  0  0
 17 32  1  0  0  0
 17 33  1  0  0  0
 19 21  2  0  0  0
 19 34  1  0  0  0
 20 22  1  0  0  0
 20 35  1  0  0  0
 21 36  1  0  0  0
 22 37  1  0  0  0
M  END
> <s_m_entry_id>
10090

> <s_m_entry_name>
dock_pv.126

> <s_m_Source_Path>
/home/csk/Desktop/cluster/DUD-E-result/aofb

> <s_m_Source_File>
dock_pv.maegz

> <i_m_Source_File_Index>
126

> <chembl_id>
CHEMBL276076

> <chembl_pref_name>
None

> <i_lp_mmshare_version>
53161

> <i_f3d_flags>
0

> <r_lp_tautomer_probability>
1

> <s_lp_Force_Field>
OPLS_2005

> <r_lp_Energy>
28.831718

> <b_lp_Chiralities_Consistent>
1

> <s_lp_Variant>
CHEMBL2039_lig212-1

> <s_i_glide_gridfile>
glide-grid_1s3b

> <i_i_glide_lignum>
253

> <i_i_glide_rotatable_bonds>
3

> <r_i_docking_score>
-7.86288683730398

> <r_i_glide_ligand_efficiency>
-0.357403947150181

> <r_i_glide_ligand_efficiency_sa>
-1.00145991581443

> <r_i_glide_ligand_efficiency_ln>
-1.92197634880307

> <r_i_glide_gscore>
-7.86288683730398

> <r_i_glide_lipo>
-4.5163032249438

> <r_i_glide_hbond>
0

> <r_i_glide_metal>
0

> <r_i_glide_rewards>
-2.56201282907716

> <r_i_glide_evdw>
-27.2873439788818

> <r_i_glide_ecoul>
-0.258621454238892

> <r_i_glide_erotb>
0.618589633796913

> <r_i_glide_esite>
0

> <r_i_glide_emodel>
-30.9184082592072

> <r_i_glide_energy>
-27.5459654331207

> <r_i_glide_einternal>
1.47756814956665

> <i_i_glide_confnum>
1

> <i_i_glide_posenum>
379

> <r_i_glide_eff_state_penalty>
0

> <s_user_duplicate_titles>
CHEMBL2039_lig212,20358

> <s_m_subgroup_title>
dock_pv

> <s_m_subgroupid>
dock_pv

> <b_m_subgroup_collapsed>
1

$$$$
CHEMBL2039_lig44
                    3D
 Schrodinger Suite 2021-1.
 41 43  0  0  1  0            999 V2000
   52.7395  153.2362   25.1380 N   0  0  0  0  0  0
   53.4601  154.1349   24.3645 C   0  0  0  0  0  0
   53.5114  155.4166   24.8454 N   0  0  0  0  0  0
   51.9224  153.4688   26.2313 C   0  0  0  0  0  0
   52.8576  151.8313   24.6889 C   0  0  0  0  0  0
   54.4588  156.3662   24.2209 C   0  0  0  0  0  0
   54.0135  153.8440   23.3034 O   0  0  0  0  0  0
   51.2592  152.6051   26.8016 O   0  0  0  0  0  0
   52.0561  154.8434   26.6552 C   0  0  0  0  0  0
   52.8041  155.7821   25.9726 C   0  0  0  0  0  0
   52.8732  156.9151   26.6179 N   0  0  0  0  0  0
   52.2207  156.7359   27.7254 C   0  0  0  0  0  0
   51.6555  155.4781   27.8119 N   0  0  0  0  0  0
   50.8562  154.9243   28.8943 C   0  0  0  0  0  0
   52.1741  157.8298   28.7581 C   0  0  0  0  0  0
   50.8560  158.2595   28.9040 O   0  0  0  0  0  0
   50.5284  159.2187   29.8164 C   0  0  0  0  0  0
   51.4255  160.1434   30.3563 C   0  0  0  0  0  0
   50.9819  161.0434   31.3146 C   0  0  0  0  0  0
   49.6577  161.0156   31.7591 C   0  0  0  0  0  0
   48.7552  160.0933   31.2166 C   0  0  0  0  0  0
   49.2010  159.2199   30.2266 C   0  0  0  0  0  0
   47.3121  159.9922   31.6911 C   0  0  0  0  0  0
   46.5297  160.6442   30.8418 F   0  0  0  0  0  0
   47.1529  160.5090   32.9094 F   0  0  0  0  0  0
   46.9175  158.7187   31.7042 F   0  0  0  0  0  0
   52.3121  151.1104   25.3014 H   0  0  0  0  0  0
   52.4967  151.7349   23.6648 H   0  0  0  0  0  0
   53.9028  151.5188   24.6942 H   0  0  0  0  0  0
   54.4669  156.3388   23.1361 H   0  0  0  0  0  0
   54.2707  157.3996   24.5042 H   0  0  0  0  0  0
   55.4805  156.1196   24.5039 H   0  0  0  0  0  0
   51.3576  154.0472   29.3035 H   0  0  0  0  0  0
   50.7138  155.6587   29.6850 H   0  0  0  0  0  0
   49.8794  154.6446   28.5032 H   0  0  0  0  0  0
   52.8488  158.6420   28.5039 H   0  0  0  0  0  0
   52.4590  157.4409   29.7039 H   0  0  0  0  0  0
   52.4620  160.1653   30.0585 H   0  0  0  0  0  0
   51.6751  161.7718   31.7050 H   0  0  0  0  0  0
   49.3434  161.7146   32.5211 H   0  0  0  0  0  0
   48.5222  158.4993   29.7952 H   0  0  0  0  0  0
  1  4  1  0  0  0
  1  5  1  0  0  0
  1  2  1  0  0  0
  2  7  2  0  0  0
  2  3  1  0  0  0
  3  6  1  0  0  0
  3 10  1  0  0  0
  4  8  2  0  0  0
  4  9  1  0  0  0
  5 27  1  0  0  0
  5 28  1  0  0  0
  5 29  1  0  0  0
  6 30  1  0  0  0
  6 31  1  0  0  0
  6 32  1  0  0  0
  9 13  1  0  0  0
  9 10  2  0  0  0
 10 11  1  0  0  0
 11 12  2  0  0  0
 12 13  1  0  0  0
 12 15  1  0  0  0
 13 14  1  0  0  0
 14 33  1  0  0  0
 14 34  1  0  0  0
 14 35  1  0  0  0
 15 16  1  0  0  0
 15 36  1  0  0  0
 15 37  1  0  0  0
 16 17  1  0  0  0
 17 18  2  0  0  0
 17 22  1  0  0  0
 18 19  1  0  0  0
 18 38  1  0  0  0
 19 20  2  0  0  0
 19 39  1  0  0  0
 20 21  1  0  0  0
 20 40  1  0  0  0
 21 22  2  0  0  0
 21 23  1  0  0  0
 22 41  1  0  0  0
 23 24  1  0  0  0
 23 25  1  0  0  0
 23 26  1  0  0  0
M  END
> <s_m_entry_id>
10091

> <s_m_entry_name>
dock_pv.127

> <s_m_Source_Path>
/home/csk/Desktop/cluster/DUD-E-result/aofb

> <s_m_Source_File>
dock_pv.maegz

> <i_m_Source_File_Index>
127

> <chembl_id>
CHEMBL2088303

> <chembl_pref_name>
None

> <i_lp_mmshare_version>
53161

> <i_f3d_flags>
0

> <r_lp_tautomer_probability>
1

> <s_lp_Force_Field>
OPLS_2005

> <r_lp_Energy>
39.164798

> <b_lp_Chiralities_Consistent>
1

> <s_lp_Variant>
CHEMBL2039_lig44-1

> <s_i_glide_gridfile>
glide-grid_1s3b

> <i_i_glide_lignum>
66

> <i_i_glide_rotatable_bonds>
4

> <r_i_docking_score>
-7.86152871221256

> <r_i_glide_ligand_efficiency>
-0.302366488931252

> <r_i_glide_ligand_efficiency_sa>
-0.895759533704152

> <r_i_glide_ligand_efficiency_ln>
-1.84625422228342

> <r_i_glide_gscore>
-7.86152871221256

> <r_i_glide_lipo>
-2.91661063556808

> <r_i_glide_hbond>
0

> <r_i_glide_metal>
0

> <r_i_glide_rewards>
-3.55502467616619

> <r_i_glide_evdw>
-30.9171104431152

> <r_i_glide_ecoul>
-1.80110096931458

> <r_i_glide_erotb>
0.426127267074668

> <r_i_glide_esite>
0

> <r_i_glide_emodel>
-36.0498086376137

> <r_i_glide_energy>
-32.7182114124298

> <r_i_glide_einternal>
4.64798069000244

> <i_i_glide_confnum>
21

> <i_i_glide_posenum>
136

> <r_i_glide_eff_state_penalty>
0

> <s_user_duplicate_titles>
CHEMBL2039_lig44

> <s_m_subgroup_title>
dock_pv

> <s_m_subgroupid>
dock_pv

> <b_m_subgroup_collapsed>
1

$$$$
CHEMBL2039_lig1061
                    3D
 Schrodinger Suite 2021-1.
 37 39  0  0  1  0            999 V2000
   48.9472  161.0326   32.1040 N   0  0  0  0  0  0
   46.7629  159.9969   31.7972 C   0  0  0  0  0  0
   47.6629  161.0419   32.4949 C   0  0  0  0  0  0
   47.5192  158.6788   31.5160 C   0  0  0  0  0  0
   48.8834  158.9549   30.9050 C   0  0  0  0  0  0
   49.5489  160.1420   31.2288 C   0  0  0  0  0  0
   50.8230  160.4092   30.7252 C   0  0  0  0  0  0
   51.4537  159.4675   29.9117 C   0  0  0  0  0  0
   49.5341  158.0338   30.1040 C   0  0  0  0  0  0
   50.8147  158.2555   29.6191 C   0  0  0  0  0  0
   47.2560  161.8440   33.3086 O   0  0  0  0  0  0
   51.3206  157.1985   28.9040 O   0  0  0  0  0  0
   52.5830  157.2469   28.2568 C   0  0  0  0  0  0
   52.4549  156.6440   26.8414 C   0  0  0  0  0  0
   52.0560  155.1757   26.7334 C   0  0  0  0  0  0
   51.6552  154.4152   27.8405 C   0  0  0  0  0  0
   51.4453  153.0490   27.7040 C   0  0  0  0  0  0
   51.6560  152.4402   26.4737 C   0  0  0  0  0  0
   52.0560  153.1873   25.3688 C   0  0  0  0  0  0
   52.2257  154.5593   25.4913 C   0  0  0  0  0  0
   49.5066  161.7675   32.5100 H   0  0  0  0  0  0
   45.8839  159.8212   32.4178 H   0  0  0  0  0  0
   46.4169  160.4467   30.8661 H   0  0  0  0  0  0
   46.9246  158.0352   30.8666 H   0  0  0  0  0  0
   47.6560  158.1308   32.4493 H   0  0  0  0  0  0
   51.3394  161.3211   30.9892 H   0  0  0  0  0  0
   52.4561  159.6722   29.5786 H   0  0  0  0  0  0
   49.0576  157.0858   29.9043 H   0  0  0  0  0  0
   53.2950  156.6830   28.8570 H   0  0  0  0  0  0
   52.9896  158.2440   28.1530 H   0  0  0  0  0  0
   53.4219  156.7551   26.3523 H   0  0  0  0  0  0
   51.7572  157.2121   26.2310 H   0  0  0  0  0  0
   51.5397  154.8474   28.8216 H   0  0  0  0  0  0
   51.1444  152.4563   28.5540 H   0  0  0  0  0  0
   51.5142  151.3734   26.3772 H   0  0  0  0  0  0
   52.2337  152.7052   24.4192 H   0  0  0  0  0  0
   52.5523  155.1312   24.6351 H   0  0  0  0  0  0
  1  3  1  0  0  0
  1  6  1  0  0  0
  1 21  1  0  0  0
  2  3  1  0  0  0
  2  4  1  0  0  0
  2 22  1  0  0  0
  2 23  1  0  0  0
  3 11  2  0  0  0
  4  5  1  0  0  0
  4 24  1  0  0  0
  4 25  1  0  0  0
  5  6  2  0  0  0
  5  9  1  0  0  0
  6  7  1  0  0  0
  7  8  2  0  0  0
  7 26  1  0  0  0
  8 10  1  0  0  0
  8 27  1  0  0  0
  9 10  2  0  0  0
  9 28  1  0  0  0
 10 12  1  0  0  0
 12 13  1  0  0  0
 13 14  1  0  0  0
 13 29  1  0  0  0
 13 30  1  0  0  0
 14 15  1  0  0  0
 14 31  1  0  0  0
 14 32  1  0  0  0
 15 16  2  0  0  0
 15 20  1  0  0  0
 16 17  1  0  0  0
 16 33  1  0  0  0
 17 18  2  0  0  0
 17 34  1  0  0  0
 18 19  1  0  0  0
 18 35  1  0  0  0
 19 20  2  0  0  0
 19 36  1  0  0  0
 20 37  1  0  0  0
M  END
> <s_m_entry_id>
10092

> <s_m_entry_name>
dock_pv.128

> <s_m_Source_Path>
/home/csk/Desktop/cluster/DUD-E-result/aofb

> <s_m_Source_File>
dock_pv.maegz

> <i_m_Source_File_Index>
128

> <chembl_id>
CHEMBL2430704

> <chembl_pref_name>
None

> <i_lp_mmshare_version>
53161

> <i_f3d_flags>
0

> <r_lp_tautomer_probability>
1

> <s_lp_Force_Field>
OPLS_2005

> <r_lp_Energy>
22.420752

> <b_lp_Chiralities_Consistent>
1

> <s_lp_Variant>
CHEMBL2039_lig1061-1

> <s_i_glide_gridfile>
glide-grid_1s3b

> <i_i_glide_lignum>
1235

> <i_i_glide_rotatable_bonds>
4

> <r_i_docking_score>
-7.86009498184257

> <r_i_glide_ligand_efficiency>
-0.393004749092128

> <r_i_glide_ligand_efficiency_sa>
-1.06677901327587

> <r_i_glide_ligand_efficiency_ln>
-1.96712253067231

> <r_i_glide_gscore>
-7.86009498184257

> <r_i_glide_lipo>
-3.7786117449548

> <r_i_glide_hbond>
0

> <r_i_glide_metal>
0

> <r_i_glide_rewards>
-2.87327157222776

> <r_i_glide_evdw>
-28.6108207702637

> <r_i_glide_ecoul>
-1.8445690870285

> <r_i_glide_erotb>
0.499014736907453

> <r_i_glide_esite>
0

> <r_i_glide_emodel>
-39.6857677389906

> <r_i_glide_energy>
-30.4553898572922

> <r_i_glide_einternal>
1.93299746513367

> <i_i_glide_confnum>
2

> <i_i_glide_posenum>
275

> <r_i_glide_eff_state_penalty>
0

> <s_user_duplicate_titles>
CHEMBL2039_lig1061

> <s_m_subgroup_title>
dock_pv

> <s_m_subgroupid>
dock_pv

> <b_m_subgroup_collapsed>
1

$$$$
CHEMBL2039_lig1338
                    3D
 Schrodinger Suite 2021-1.
 37 39  0  0  1  0            999 V2000
   51.3510  153.0002   27.0017 O   0  0  0  0  0  0
   51.9776  152.1605   26.1040 C   0  0  0  0  0  0
   51.6560  150.9767   26.1040 O   0  0  0  0  0  0
   52.8560  152.7597   25.1010 C   0  0  0  0  0  0
   53.0609  154.0850   25.0272 C   0  0  0  0  0  0
   52.4560  154.9598   26.0648 C   0  0  0  0  0  0
   52.8560  156.2775   26.2636 C   0  0  0  0  0  0
   52.4560  156.9690   27.4006 C   0  0  0  0  0  0
   51.5627  156.4090   28.3285 C   0  0  0  0  0  0
   51.2379  155.0591   28.1709 C   0  0  0  0  0  0
   51.6649  154.3462   27.0521 C   0  0  0  0  0  0
   54.1147  154.6234   24.0660 C   0  0  0  0  0  0
   50.8560  157.1436   29.3040 N   0  0  0  0  0  0
   50.8638  158.4214   29.3754 C   0  0  0  0  0  0
   50.0056  159.1764   30.2921 C   0  0  0  0  0  0
   50.4696  160.3372   30.9377 C   0  0  0  0  0  0
   49.6560  161.0027   31.8558 C   0  0  0  0  0  0
   48.3755  160.5300   32.1462 C   0  0  0  0  0  0
   47.8971  159.3962   31.4911 C   0  0  0  0  0  0
   48.7059  158.7263   30.5754 C   0  0  0  0  0  0
   47.5242  161.2341   33.1834 C   0  0  0  0  0  0
   51.7436  160.8164   30.7452 O   0  0  0  0  0  0
   53.3711  152.1119   24.4071 H   0  0  0  0  0  0
   53.5333  156.7726   25.5883 H   0  0  0  0  0  0
   52.8090  157.9786   27.5136 H   0  0  0  0  0  0
   50.5932  154.5772   28.8913 H   0  0  0  0  0  0
   54.0867  154.0889   23.1156 H   0  0  0  0  0  0
   54.0560  155.6883   23.8667 H   0  0  0  0  0  0
   55.0987  154.4522   24.5040 H   0  0  0  0  0  0
   51.4867  159.0440   28.7421 H   0  0  0  0  0  0
   50.0421  161.8710   32.3705 H   0  0  0  0  0  0
   46.9076  159.0179   31.7032 H   0  0  0  0  0  0
   48.3198  157.8336   30.1040 H   0  0  0  0  0  0
   48.0231  161.2154   34.1526 H   0  0  0  0  0  0
   47.3861  162.2769   32.9040 H   0  0  0  0  0  0
   46.5399  160.7773   33.2898 H   0  0  0  0  0  0
   52.3672  160.1252   30.5050 H   0  0  0  0  0  0
  1  2  1  0  0  0
  1 11  1  0  0  0
  2  3  2  0  0  0
  2  4  1  0  0  0
  4  5  2  0  0  0
  4 23  1  0  0  0
  5  6  1  0  0  0
  5 12  1  0  0  0
  6  7  1  0  0  0
  6 11  2  0  0  0
  7  8  2  0  0  0
  7 24  1  0  0  0
  8  9  1  0  0  0
  8 25  1  0  0  0
  9 10  2  0  0  0
  9 13  1  0  0  0
 10 11  1  0  0  0
 10 26  1  0  0  0
 12 27  1  0  0  0
 12 28  1  0  0  0
 12 29  1  0  0  0
 13 14  2  0  0  0
 14 15  1  0  0  0
 14 30  1  0  0  0
 15 16  1  0  0  0
 15 20  2  0  0  0
 16 17  2  0  0  0
 16 22  1  0  0  0
 17 18  1  0  0  0
 17 31  1  0  0  0
 18 19  2  0  0  0
 18 21  1  0  0  0
 19 20  1  0  0  0
 19 32  1  0  0  0
 20 33  1  0  0  0
 21 34  1  0  0  0
 21 35  1  0  0  0
 21 36  1  0  0  0
 22 37  1  0  0  0
M  END
> <s_m_entry_id>
10093

> <s_m_entry_name>
dock_pv.129

> <s_m_Source_Path>
/home/csk/Desktop/cluster/DUD-E-result/aofb

> <s_m_Source_File>
dock_pv.maegz

> <i_m_Source_File_Index>
129

> <chembl_id>
CHEMBL3394528

> <chembl_pref_name>
None

> <i_lp_mmshare_version>
53161

> <i_f3d_flags>
0

> <r_lp_tautomer_probability>
1

> <s_lp_Force_Field>
OPLS_2005

> <r_lp_Energy>
23.627432

> <b_lp_Chiralities_Consistent>
1

> <s_lp_Variant>
CHEMBL2039_lig1338-1

> <s_i_glide_gridfile>
glide-grid_1s3b

> <i_i_glide_lignum>
1559

> <i_i_glide_rotatable_bonds>
3

> <r_i_docking_score>
-7.8554375727412

> <r_i_glide_ligand_efficiency>
-0.357065344215509

> <r_i_glide_ligand_efficiency_sa>
-1.00051113707499

> <r_i_glide_ligand_efficiency_ln>
-1.9201554768254

> <r_i_glide_gscore>
-7.8554375727412

> <r_i_glide_lipo>
-4.33303147564962

> <r_i_glide_hbond>
0

> <r_i_glide_metal>
0

> <r_i_glide_rewards>
-2.60350587591232

> <r_i_glide_evdw>
-25.9741153717041

> <r_i_glide_ecoul>
-0.299523890018463

> <r_i_glide_erotb>
0.424734130908704

> <r_i_glide_esite>
0

> <r_i_glide_emodel>
-27.3670947566785

> <r_i_glide_energy>
-26.2736392617226

> <r_i_glide_einternal>
9.86616516113281

> <i_i_glide_confnum>
6

> <i_i_glide_posenum>
286

> <r_i_glide_eff_state_penalty>
0

> <s_user_duplicate_titles>
CHEMBL2039_lig1338

> <s_m_subgroup_title>
dock_pv

> <s_m_subgroupid>
dock_pv

> <b_m_subgroup_collapsed>
1

$$$$
CHEMBL2039_lig133
                    3D
 Schrodinger Suite 2021-1.
 38 40  0  0  1  0            999 V2000
   52.1779  153.3202   25.4041 N   0  0  0  0  0  0
   53.2906  155.0984   24.6786 N   0  0  0  0  0  0
   52.4562  154.5923   25.5717 C   0  0  0  0  0  0
   53.6871  154.0481   23.9018 N   0  0  0  0  0  0
   52.9842  153.0325   24.3843 N   0  0  3  0  0  0
   53.1148  148.2440   24.5040 N   0  0  0  0  0  0
   52.0566  155.3569   26.7769 C   0  0  0  0  0  0
   53.3315  149.3460   24.7714 C   0  0  0  0  0  0
   52.6007  156.6310   26.9653 C   0  0  0  0  0  0
   51.2561  154.7864   27.7677 C   0  0  0  0  0  0
   50.5791  157.6924   29.7972 O   0  0  0  0  0  0
   53.6042  150.7495   25.1058 C   0  0  0  0  0  0
   51.2562  156.8997   28.9041 C   0  0  0  0  0  0
   53.2561  151.6884   23.9538 C   0  0  0  0  0  0
   50.6914  159.1071   29.6972 C   0  0  0  0  0  0
   50.8441  155.5712   28.8332 C   0  0  0  0  0  0
   52.2530  157.3804   28.0677 C   0  0  0  0  0  0
   49.6951  159.7264   30.6544 C   0  0  0  0  0  0
   50.1258  160.6487   31.6059 C   0  0  0  0  0  0
   48.3593  159.3220   30.6231 C   0  0  0  0  0  0
   47.4624  159.8252   31.5566 C   0  0  0  0  0  0
   49.2239  161.1522   32.5359 C   0  0  0  0  0  0
   47.8955  160.7412   32.5109 C   0  0  0  0  0  0
   53.3013  157.0451   26.2595 H   0  0  0  0  0  0
   50.8889  153.7740   27.6787 H   0  0  0  0  0  0
   53.0581  150.9800   26.0226 H   0  0  0  0  0  0
   54.6692  150.8457   25.3043 H   0  0  0  0  0  0
   54.0559  151.7501   23.2555 H   0  0  0  0  0  0
   52.4625  151.3254   23.3406 H   0  0  0  0  0  0
   51.7068  159.4259   29.9408 H   0  0  0  0  0  0
   50.4614  159.4440   28.6859 H   0  0  0  0  0  0
   50.1295  155.1834   29.5447 H   0  0  0  0  0  0
   52.6622  158.3668   28.1775 H   0  0  0  0  0  0
   51.1604  160.9590   31.6491 H   0  0  0  0  0  0
   48.0235  158.5941   29.8988 H   0  0  0  0  0  0
   46.4466  159.4784   31.5498 H   0  0  0  0  0  0
   49.5691  161.8411   33.2900 H   0  0  0  0  0  0
   47.2027  161.1234   33.2453 H   0  0  0  0  0  0
  1  3  2  0  0  0
  1  5  1  0  0  0
  2  3  1  0  0  0
  2  4  2  0  0  0
  3  7  1  0  0  0
  4  5  1  0  0  0
  5 14  1  0  0  0
  6  8  3  0  0  0
  7  9  1  0  0  0
  7 10  2  0  0  0
  8 12  1  0  0  0
  9 17  2  0  0  0
  9 24  1  0  0  0
 10 16  1  0  0  0
 10 25  1  0  0  0
 11 13  1  0  0  0
 11 15  1  0  0  0
 12 14  1  0  0  0
 12 26  1  0  0  0
 12 27  1  0  0  0
 13 16  2  0  0  0
 13 17  1  0  0  0
 14 28  1  0  0  0
 14 29  1  0  0  0
 15 18  1  0  0  0
 15 30  1  0  0  0
 15 31  1  0  0  0
 16 32  1  0  0  0
 17 33  1  0  0  0
 18 19  1  0  0  0
 18 20  2  0  0  0
 19 22  2  0  0  0
 19 34  1  0  0  0
 20 21  1  0  0  0
 20 35  1  0  0  0
 21 23  2  0  0  0
 21 36  1  0  0  0
 22 23  1  0  0  0
 22 37  1  0  0  0
 23 38  1  0  0  0
M  END
> <s_m_entry_id>
10094

> <s_m_entry_name>
dock_pv.130

> <s_m_Source_Path>
/home/csk/Desktop/cluster/DUD-E-result/aofb

> <s_m_Source_File>
dock_pv.maegz

> <i_m_Source_File_Index>
130

> <chembl_id>
CHEMBL434261

> <chembl_pref_name>
None

> <i_lp_mmshare_version>
53161

> <i_f3d_flags>
0

> <r_lp_tautomer_probability>
1

> <s_lp_Force_Field>
OPLS_2005

> <r_lp_Energy>
19.662877

> <b_lp_Chiralities_Consistent>
1

> <s_lp_Variant>
CHEMBL2039_lig133-1

> <s_i_glide_gridfile>
glide-grid_1s3b

> <i_i_glide_lignum>
159

> <i_i_glide_rotatable_bonds>
6

> <r_i_docking_score>
-7.85514211974497

> <r_i_glide_ligand_efficiency>
-0.341527918249781

> <r_i_glide_ligand_efficiency_sa>
-0.971259968392872

> <r_i_glide_ligand_efficiency_ln>
-1.89944459104511

> <r_i_glide_gscore>
-7.85514211974497

> <r_i_glide_lipo>
-3.88589809602423

> <r_i_glide_hbond>
0

> <r_i_glide_metal>
0

> <r_i_glide_rewards>
-3.37316783246318

> <r_i_glide_evdw>
-30.759521484375

> <r_i_glide_ecoul>
-0.31934455037117

> <r_i_glide_erotb>
0.989801565516857

> <r_i_glide_esite>
0

> <r_i_glide_emodel>
-34.7873502194246

> <r_i_glide_energy>
-31.0788660347462

> <r_i_glide_einternal>
9.71944236755371

> <i_i_glide_confnum>
179

> <i_i_glide_posenum>
63

> <r_i_glide_eff_state_penalty>
0

> <s_user_duplicate_titles>
CHEMBL2039_lig133,240020

> <s_m_subgroup_title>
dock_pv

> <s_m_subgroupid>
dock_pv

> <b_m_subgroup_collapsed>
1

$$$$
CHEMBL2039_lig2071
                    3D
 Schrodinger Suite 2021-1.
 31 32  0  0  1  0            999 V2000
   51.5370  160.7973   30.7762 C   0  0  0  0  0  0
   51.6560  159.6601   29.9712 C   0  0  0  0  0  0
   50.6132  158.7305   29.8700 C   0  0  0  0  0  0
   49.4002  159.0130   30.5040 C   0  0  0  0  0  0
   49.2579  160.1574   31.2895 C   0  0  0  0  0  0
   50.3328  161.0326   31.4486 C   0  0  0  0  0  0
   50.7601  157.4793   29.3040 O   0  0  0  0  0  0
   51.9092  157.1862   28.5040 C   0  0  0  0  0  0
   51.7428  155.8440   27.7995 C   0  0  0  0  0  0
   52.0562  155.7240   26.4404 C   0  0  0  0  0  0
   51.9912  154.4828   25.7997 C   0  0  0  0  0  0
   51.5945  153.3554   26.5218 C   0  0  0  0  0  0
   51.2560  153.4726   27.8683 C   0  0  0  0  0  0
   51.3227  154.7122   28.5040 C   0  0  0  0  0  0
   52.6692  161.7517   30.9031 C   0  0  0  0  0  0
   53.6604  161.7453   30.1720 O   0  0  0  0  0  0
   52.3820  154.3609   24.3407 C   0  0  0  0  0  0
   52.6019  159.4458   29.4972 H   0  0  0  0  0  0
   48.5871  158.3056   30.4368 H   0  0  0  0  0  0
   48.3270  160.3458   31.8039 H   0  0  0  0  0  0
   50.2181  161.8906   32.0976 H   0  0  0  0  0  0
   52.0569  157.9716   27.7612 H   0  0  0  0  0  0
   52.8113  157.1358   29.1129 H   0  0  0  0  0  0
   52.3841  156.5913   25.8857 H   0  0  0  0  0  0
   51.5522  152.3856   26.0490 H   0  0  0  0  0  0
   50.9521  152.5987   28.4260 H   0  0  0  0  0  0
   51.0791  154.7829   29.5543 H   0  0  0  0  0  0
   52.5674  162.4846   31.7040 H   0  0  0  0  0  0
   52.4560  153.3221   24.0162 H   0  0  0  0  0  0
   51.6560  154.8809   23.7150 H   0  0  0  0  0  0
   53.3564  154.8226   24.1775 H   0  0  0  0  0  0
  1  2  1  0  0  0
  1  6  2  0  0  0
  1 15  1  0  0  0
  2  3  2  0  0  0
  2 18  1  0  0  0
  3  4  1  0  0  0
  3  7  1  0  0  0
  4  5  2  0  0  0
  4 19  1  0  0  0
  5  6  1  0  0  0
  5 20  1  0  0  0
  6 21  1  0  0  0
  7  8  1  0  0  0
  8  9  1  0  0  0
  8 22  1  0  0  0
  8 23  1  0  0  0
  9 10  1  0  0  0
  9 14  2  0  0  0
 10 11  2  0  0  0
 10 24  1  0  0  0
 11 12  1  0  0  0
 11 17  1  0  0  0
 12 13  2  0  0  0
 12 25  1  0  0  0
 13 14  1  0  0  0
 13 26  1  0  0  0
 14 27  1  0  0  0
 15 16  2  0  0  0
 15 28  1  0  0  0
 17 29  1  0  0  0
 17 30  1  0  0  0
 17 31  1  0  0  0
M  END
> <s_m_entry_id>
10095

> <s_m_entry_name>
dock_pv.131

> <s_m_Source_Path>
/home/csk/Desktop/cluster/DUD-E-result/aofb

> <s_m_Source_File>
dock_pv.maegz

> <i_m_Source_File_Index>
131

> <chembl_id>
CHEMBL4169381

> <chembl_pref_name>
None

> <i_lp_mmshare_version>
53161

> <i_f3d_flags>
0

> <r_lp_tautomer_probability>
1

> <s_lp_Force_Field>
OPLS_2005

> <r_lp_Energy>
16.11801

> <b_lp_Chiralities_Consistent>
1

> <s_lp_Variant>
CHEMBL2039_lig2071-1

> <s_i_glide_gridfile>
glide-grid_1s3b

> <i_i_glide_lignum>
2409

> <i_i_glide_rotatable_bonds>
4

> <r_i_docking_score>
-7.85343618487867

> <r_i_glide_ligand_efficiency>
-0.461966834404627

> <r_i_glide_ligand_efficiency_sa>
-1.18784681567747

> <r_i_glide_ligand_efficiency_ln>
-2.04878661320957

> <r_i_glide_gscore>
-7.85343618487867

> <r_i_glide_lipo>
-3.58766783351564

> <r_i_glide_hbond>
-0.32

> <r_i_glide_metal>
0

> <r_i_glide_rewards>
-2.84670942316415

> <r_i_glide_evdw>
-30.3605632781982

> <r_i_glide_ecoul>
-3.84415674209595

> <r_i_glide_erotb>
0.995592747025434

> <r_i_glide_esite>
0

> <r_i_glide_emodel>
-47.1517749031296

> <r_i_glide_energy>
-34.2047200202942

> <r_i_glide_einternal>
1.30964744091034

> <i_i_glide_confnum>
25

> <i_i_glide_posenum>
310

> <r_i_glide_eff_state_penalty>
0

> <s_user_duplicate_titles>
CHEMBL2039_lig2071

> <s_m_subgroup_title>
dock_pv

> <s_m_subgroupid>
dock_pv

> <b_m_subgroup_collapsed>
1

$$$$
CHEMBL2039_lig1728
                    3D
 Schrodinger Suite 2021-1.
 30 32  0  0  1  0            999 V2000
   52.4475  156.3260   27.0693 C   0  0  0  0  0  0
   51.6655  156.6693   28.2603 C   0  0  0  0  0  0
   50.9679  155.3998   28.7341 C   0  0  0  0  0  0
   51.4014  154.3762   27.7213 C   0  0  0  0  0  0
   51.2560  152.9982   27.6958 C   0  0  0  0  0  0
   51.5831  152.2812   26.5481 C   0  0  0  0  0  0
   52.1812  152.9177   25.4625 C   0  0  0  0  0  0
   52.4439  154.2810   25.5276 C   0  0  0  0  0  0
   52.0560  154.9829   26.6711 C   0  0  0  0  0  0
   53.2560  157.0440   26.5040 O   0  0  0  0  0  0
   51.6566  157.9569   28.6963 C   0  0  0  0  0  0
   50.8473  158.6718   29.7040 C   0  0  0  0  0  0
   51.3476  159.8769   30.2119 C   0  0  0  0  0  0
   50.5942  160.6440   31.0978 C   0  0  0  0  0  0
   49.3205  160.2196   31.4631 C   0  0  0  0  0  0
   48.8103  159.0229   30.9678 C   0  0  0  0  0  0
   49.5795  158.2440   30.1040 C   0  0  0  0  0  0
   51.2560  150.9563   26.5040 O   0  0  0  0  0  0
   48.5803  160.9658   32.3140 F   0  0  0  0  0  0
   51.2560  155.0637   29.7242 H   0  0  0  0  0  0
   49.8831  155.4926   28.7322 H   0  0  0  0  0  0
   50.8161  152.4814   28.5306 H   0  0  0  0  0  0
   52.4561  152.3529   24.5840 H   0  0  0  0  0  0
   52.9805  154.7612   24.7218 H   0  0  0  0  0  0
   52.3103  158.6391   28.1733 H   0  0  0  0  0  0
   52.3333  160.2189   29.9321 H   0  0  0  0  0  0
   50.9965  161.5588   31.5072 H   0  0  0  0  0  0
   47.8262  158.6939   31.2663 H   0  0  0  0  0  0
   49.1741  157.3127   29.7472 H   0  0  0  0  0  0
   51.1919  150.5738   27.3834 H   0  0  0  0  0  0
  1  2  1  0  0  0
  1  9  1  0  0  0
  1 10  2  0  0  0
  2  3  1  0  0  0
  2 11  2  0  0  0
  3  4  1  0  0  0
  3 20  1  0  0  0
  3 21  1  0  0  0
  4  5  1  0  0  0
  4  9  2  0  0  0
  5  6  2  0  0  0
  5 22  1  0  0  0
  6  7  1  0  0  0
  6 18  1  0  0  0
  7  8  2  0  0  0
  7 23  1  0  0  0
  8  9  1  0  0  0
  8 24  1  0  0  0
 11 12  1  0  0  0
 11 25  1  0  0  0
 12 13  1  0  0  0
 12 17  2  0  0  0
 13 14  2  0  0  0
 13 26  1  0  0  0
 14 15  1  0  0  0
 14 27  1  0  0  0
 15 16  2  0  0  0
 15 19  1  0  0  0
 16 17  1  0  0  0
 16 28  1  0  0  0
 17 29  1  0  0  0
 18 30  1  0  0  0
M  END
> <s_m_entry_id>
10096

> <s_m_entry_name>
dock_pv.132

> <s_m_Source_Path>
/home/csk/Desktop/cluster/DUD-E-result/aofb

> <s_m_Source_File>
dock_pv.maegz

> <i_m_Source_File_Index>
132

> <chembl_id>
CHEMBL3933900

> <chembl_pref_name>
None

> <i_lp_mmshare_version>
53161

> <i_f3d_flags>
0

> <r_lp_tautomer_probability>
1

> <s_lp_Force_Field>
OPLS_2005

> <r_lp_Energy>
24.503191

> <b_lp_Chiralities_Consistent>
1

> <s_lp_Variant>
CHEMBL2039_lig1728-1

> <s_i_glide_gridfile>
glide-grid_1s3b

> <i_i_glide_lignum>
2016

> <i_i_glide_rotatable_bonds>
2

> <r_i_docking_score>
-7.851697381984

> <r_i_glide_ligand_efficiency>
-0.413247230630737

> <r_i_glide_ligand_efficiency_sa>
-1.10270959046255

> <r_i_glide_ligand_efficiency_ln>
-1.99057392533

> <r_i_glide_gscore>
-7.851697381984

> <r_i_glide_lipo>
-3.46513925711957

> <r_i_glide_hbond>
-0.070357973698767

> <r_i_glide_metal>
0

> <r_i_glide_rewards>
-3.03794877739781

> <r_i_glide_evdw>
-16.6226692199707

> <r_i_glide_ecoul>
-2.98078608512878

> <r_i_glide_erotb>
0

> <r_i_glide_esite>
0

> <r_i_glide_emodel>
-20.0433271967619

> <r_i_glide_energy>
-19.6034553050995

> <r_i_glide_einternal>
0.334978967905045

> <i_i_glide_confnum>
1

> <i_i_glide_posenum>
43

> <r_i_glide_eff_state_penalty>
0

> <s_user_duplicate_titles>
CHEMBL2039_lig1728

> <s_m_subgroup_title>
dock_pv

> <s_m_subgroupid>
dock_pv

> <b_m_subgroup_collapsed>
1

$$$$
CHEMBL2039_lig2009
                    3D
 Schrodinger Suite 2021-1.
 31 33  0  0  1  0            999 V2000
   53.2978  153.9931   24.1122 C   0  0  0  0  0  0
   53.0855  152.6781   24.5091 C   0  0  0  0  0  0
   52.4540  152.4234   25.7207 C   0  0  0  0  0  0
   52.8785  155.0597   24.9047 C   0  0  0  0  0  0
   52.2765  154.8166   26.1476 C   0  0  0  0  0  0
   52.0574  153.4865   26.5322 C   0  0  0  0  0  0
   51.6031  153.1619   27.7860 O   0  0  0  0  0  0
   51.2585  154.1742   28.6152 C   0  0  0  0  0  0
   51.3553  155.5022   28.3942 C   0  0  0  0  0  0
   52.0559  155.9135   27.1476 C   0  0  0  0  0  0
   52.4607  157.0440   26.9049 O   0  0  0  0  0  0
   50.7255  156.4553   29.3039 C   0  0  0  0  0  0
   50.8563  157.7327   29.3039 N   0  0  0  0  0  0
   50.0636  158.5948   30.1037 C   0  0  0  0  0  0
   48.7322  158.3109   30.4843 C   0  0  0  0  0  0
   47.9867  159.1777   31.2820 C   0  0  0  0  0  0
   48.5523  160.3694   31.7205 C   0  0  0  0  0  0
   49.8451  160.6985   31.3284 C   0  0  0  0  0  0
   50.5801  159.8469   30.5043 C   0  0  0  0  0  0
   51.8526  160.2415   30.1736 O   0  0  0  0  0  0
   47.6569  161.4400   32.7377 Cl  0  0  0  0  0  0
   53.8048  154.1846   23.1786 H   0  0  0  0  0  0
   53.4162  151.8622   23.8818 H   0  0  0  0  0  0
   52.3015  151.4082   26.0550 H   0  0  0  0  0  0
   53.0946  156.0708   24.5865 H   0  0  0  0  0  0
   50.8352  153.7616   29.5179 H   0  0  0  0  0  0
   50.0657  155.9481   29.9993 H   0  0  0  0  0  0
   48.2600  157.4012   30.1476 H   0  0  0  0  0  0
   46.9755  158.9216   31.5631 H   0  0  0  0  0  0
   50.2888  161.6202   31.6768 H   0  0  0  0  0  0
   52.3179  159.5210   29.7329 H   0  0  0  0  0  0
  1  2  2  0  0  0
  1  4  1  0  0  0
  1 22  1  0  0  0
  2  3  1  0  0  0
  2 23  1  0  0  0
  3  6  2  0  0  0
  3 24  1  0  0  0
  4  5  2  0  0  0
  4 25  1  0  0  0
  5  6  1  0  0  0
  5 10  1  0  0  0
  6  7  1  0  0  0
  7  8  1  0  0  0
  8  9  2  0  0  0
  8 26  1  0  0  0
  9 10  1  0  0  0
  9 12  1  0  0  0
 10 11  2  0  0  0
 12 13  2  0  0  0
 12 27  1  0  0  0
 13 14  1  0  0  0
 14 15  2  0  0  0
 14 19  1  0  0  0
 15 16  1  0  0  0
 15 28  1  0  0  0
 16 17  2  0  0  0
 16 29  1  0  0  0
 17 18  1  0  0  0
 17 21  1  0  0  0
 18 19  2  0  0  0
 18 30  1  0  0  0
 19 20  1  0  0  0
 20 31  1  0  0  0
M  END
> <s_m_entry_id>
10097

> <s_m_entry_name>
dock_pv.133

> <s_m_Source_Path>
/home/csk/Desktop/cluster/DUD-E-result/aofb

> <s_m_Source_File>
dock_pv.maegz

> <i_m_Source_File_Index>
133

> <chembl_id>
CHEMBL4086270

> <chembl_pref_name>
None

> <i_lp_mmshare_version>
53161

> <i_f3d_flags>
0

> <r_lp_tautomer_probability>
1

> <s_lp_Force_Field>
OPLS_2005

> <r_lp_Energy>
19.880515

> <b_lp_Chiralities_Consistent>
1

> <s_lp_Variant>
CHEMBL2039_lig2009-1

> <s_i_glide_gridfile>
glide-grid_1s3b

> <i_i_glide_lignum>
2344

> <i_i_glide_rotatable_bonds>
3

> <r_i_docking_score>
-7.84401138831636

> <r_i_glide_ligand_efficiency>
-0.373524351824588

> <r_i_glide_ligand_efficiency_sa>
-1.03052536367013

> <r_i_glide_ligand_efficiency_ln>
-1.93941596544377

> <r_i_glide_gscore>
-7.84401138831636

> <r_i_glide_lipo>
-4.28161953181474

> <r_i_glide_hbond>
-0.00776378248744104

> <r_i_glide_metal>
0

> <r_i_glide_rewards>
-2.5316659607471

> <r_i_glide_evdw>
-23.0687656402588

> <r_i_glide_ecoul>
-1.85702073574066

> <r_i_glide_erotb>
0.409029279106968

> <r_i_glide_esite>
0

> <r_i_glide_emodel>
-28.2106970202889

> <r_i_glide_energy>
-24.9257863759995

> <r_i_glide_einternal>
2.3716721534729

> <i_i_glide_confnum>
2

> <i_i_glide_posenum>
92

> <r_i_glide_eff_state_penalty>
0

> <s_user_duplicate_titles>
CHEMBL2039_lig2009

> <s_m_subgroup_title>
dock_pv

> <s_m_subgroupid>
dock_pv

> <b_m_subgroup_collapsed>
1

$$$$
CHEMBL2039_lig233
                    3D
 Schrodinger Suite 2021-1.
 37 39  0  0  1  0            999 V2000
   53.6244  155.6319   24.8824 C   0  0  0  0  0  0
   52.2411  153.8615   25.9047 C   0  0  0  0  0  0
   53.0383  154.2648   24.8811 C   0  0  0  0  0  0
   53.1972  156.5059   25.8449 O   0  0  0  0  0  0
   52.4328  156.0952   26.9145 C   0  0  0  0  0  0
   51.9005  154.8022   26.9943 C   0  0  0  0  0  0
   52.1712  157.0441   27.8963 C   0  0  0  0  0  0
   51.1153  154.4648   28.1011 C   0  0  0  0  0  0
   54.4560  156.1015   24.1040 O   0  0  0  0  0  0
   51.2543  156.7454   28.9040 C   0  0  0  0  0  0
   50.6785  157.6739   29.7350 O   0  0  0  0  0  0
   50.7661  155.4440   29.0194 C   0  0  0  0  0  0
   51.7138  152.4446   26.0693 C   0  0  0  0  0  0
   53.5028  153.3872   23.7161 C   0  0  0  0  0  0
   50.8520  159.0695   29.5286 C   0  0  0  0  0  0
   49.8148  159.7796   30.3858 C   0  0  0  0  0  0
   48.4538  159.6165   30.1054 C   0  0  0  0  0  0
   50.2132  160.5247   31.4967 C   0  0  0  0  0  0
   49.2556  161.0440   32.3620 C   0  0  0  0  0  0
   47.4956  160.1597   30.9579 C   0  0  0  0  0  0
   47.9023  160.8594   32.0918 C   0  0  0  0  0  0
   52.5799  158.0371   27.7954 H   0  0  0  0  0  0
   50.7048  153.4750   28.2263 H   0  0  0  0  0  0
   50.0745  155.1973   29.8102 H   0  0  0  0  0  0
   52.0560  151.7527   25.3038 H   0  0  0  0  0  0
   52.0560  152.0425   27.0159 H   0  0  0  0  0  0
   50.6274  152.4558   26.1040 H   0  0  0  0  0  0
   53.6559  152.3515   24.0141 H   0  0  0  0  0  0
   52.7622  153.4071   22.9168 H   0  0  0  0  0  0
   54.4513  153.7157   23.2868 H   0  0  0  0  0  0
   50.6772  159.3452   28.4925 H   0  0  0  0  0  0
   51.8674  159.3720   29.7919 H   0  0  0  0  0  0
   48.1382  159.0440   29.2461 H   0  0  0  0  0  0
   51.2613  160.6555   31.7270 H   0  0  0  0  0  0
   49.5680  161.5885   33.2414 H   0  0  0  0  0  0
   46.4438  160.0219   30.7526 H   0  0  0  0  0  0
   47.1643  161.2641   32.7681 H   0  0  0  0  0  0
  1  3  1  0  0  0
  1  4  1  0  0  0
  1  9  2  0  0  0
  2  3  2  0  0  0
  2 13  1  0  0  0
  2  6  1  0  0  0
  3 14  1  0  0  0
  4  5  1  0  0  0
  5  6  2  0  0  0
  5  7  1  0  0  0
  6  8  1  0  0  0
  7 10  2  0  0  0
  7 22  1  0  0  0
  8 12  2  0  0  0
  8 23  1  0  0  0
 10 11  1  0  0  0
 10 12  1  0  0  0
 11 15  1  0  0  0
 12 24  1  0  0  0
 13 25  1  0  0  0
 13 26  1  0  0  0
 13 27  1  0  0  0
 14 28  1  0  0  0
 14 29  1  0  0  0
 14 30  1  0  0  0
 15 16  1  0  0  0
 15 31  1  0  0  0
 15 32  1  0  0  0
 16 17  2  0  0  0
 16 18  1  0  0  0
 17 20  1  0  0  0
 17 33  1  0  0  0
 18 19  2  0  0  0
 18 34  1  0  0  0
 19 21  1  0  0  0
 19 35  1  0  0  0
 20 21  2  0  0  0
 20 36  1  0  0  0
 21 37  1  0  0  0
M  END
> <s_m_entry_id>
10098

> <s_m_entry_name>
dock_pv.134

> <s_m_Source_Path>
/home/csk/Desktop/cluster/DUD-E-result/aofb

> <s_m_Source_File>
dock_pv.maegz

> <i_m_Source_File_Index>
134

> <chembl_id>
CHEMBL111309

> <chembl_pref_name>
None

> <i_lp_mmshare_version>
53161

> <i_f3d_flags>
0

> <r_lp_tautomer_probability>
1

> <s_lp_Force_Field>
OPLS_2005

> <r_lp_Energy>
29.110949

> <b_lp_Chiralities_Consistent>
1

> <s_lp_Variant>
CHEMBL2039_lig233-1

> <s_i_glide_gridfile>
glide-grid_1s3b

> <i_i_glide_lignum>
274

> <i_i_glide_rotatable_bonds>
3

> <r_i_docking_score>
-7.83945053500862

> <r_i_glide_ligand_efficiency>
-0.373307168333744

> <r_i_glide_ligand_efficiency_sa>
-1.02992617088713

> <r_i_glide_ligand_efficiency_ln>
-1.9382883036795

> <r_i_glide_gscore>
-7.83945053500862

> <r_i_glide_lipo>
-4.4778564307046

> <r_i_glide_hbond>
0

> <r_i_glide_metal>
0

> <r_i_glide_rewards>
-2.3935617992396

> <r_i_glide_evdw>
-28.2106590270996

> <r_i_glide_ecoul>
-1.64619278907776

> <r_i_glide_erotb>
0.689429564652219

> <r_i_glide_esite>
0

> <r_i_glide_emodel>
-33.6098989239196

> <r_i_glide_energy>
-29.8568518161774

> <r_i_glide_einternal>
6.57022094726562

> <i_i_glide_confnum>
22

> <i_i_glide_posenum>
214

> <r_i_glide_eff_state_penalty>
0

> <s_user_duplicate_titles>
CHEMBL2039_lig233

> <s_m_subgroup_title>
dock_pv

> <s_m_subgroupid>
dock_pv

> <b_m_subgroup_collapsed>
1

$$$$
CHEMBL2039_lig975
                    3D
 Schrodinger Suite 2021-1.
 34 36  0  0  1  0            999 V2000
   50.6690  158.8240   29.7117 C   0  0  0  0  0  0
   51.4795  159.8440   30.2458 C   0  0  0  0  0  0
   50.9735  160.7046   31.2275 C   0  0  0  0  0  0
   49.3290  158.7541   30.1040 C   0  0  0  0  0  0
   48.8327  159.6207   31.0681 C   0  0  0  0  0  0
   49.6481  160.5663   31.6465 C   0  0  0  0  0  0
   48.8401  161.2622   32.6959 C   0  0  0  0  0  0
   47.5483  160.6800   32.6193 O   0  0  0  0  0  0
   47.4899  159.7222   31.6671 C   0  0  0  0  0  0
   46.4666  159.0908   31.4128 O   0  0  0  0  0  0
   51.0865  157.7921   28.9040 O   0  0  0  0  0  0
   52.4384  157.5825   28.5307 C   0  0  0  0  0  0
   52.4690  156.8508   27.1909 C   0  0  0  0  0  0
   51.6674  155.6899   27.2816 O   0  0  0  0  0  0
   51.9775  154.6254   26.4775 C   0  0  0  0  0  0
   52.7506  154.6918   25.3040 C   0  0  0  0  0  0
   53.1561  153.5123   24.6816 C   0  0  0  0  0  0
   52.7549  152.2906   25.2169 C   0  0  0  0  0  0
   51.8982  152.2440   26.3093 C   0  0  0  0  0  0
   51.5105  153.4071   26.9432 C   0  0  0  0  0  0
   53.2560  150.8064   24.5040 Cl  0  0  0  0  0  0
   52.5223  159.9237   29.9857 H   0  0  0  0  0  0
   51.6227  161.4428   31.6777 H   0  0  0  0  0  0
   48.6938  157.9804   29.7040 H   0  0  0  0  0  0
   49.2558  161.1315   33.6958 H   0  0  0  0  0  0
   48.7577  162.3261   32.5040 H   0  0  0  0  0  0
   52.8936  156.9469   29.2878 H   0  0  0  0  0  0
   53.0295  158.4899   28.5040 H   0  0  0  0  0  0
   53.5091  156.6440   26.9424 H   0  0  0  0  0  0
   52.0560  157.4440   26.3849 H   0  0  0  0  0  0
   53.0917  155.6371   24.9119 H   0  0  0  0  0  0
   53.7944  153.5420   23.8105 H   0  0  0  0  0  0
   51.5493  151.2921   26.6806 H   0  0  0  0  0  0
   50.8928  153.3634   27.8287 H   0  0  0  0  0  0
  1  2  2  0  0  0
  1  4  1  0  0  0
  1 11  1  0  0  0
  2  3  1  0  0  0
  2 22  1  0  0  0
  3  6  2  0  0  0
  3 23  1  0  0  0
  4  5  2  0  0  0
  4 24  1  0  0  0
  5  6  1  0  0  0
  5  9  1  0  0  0
  6  7  1  0  0  0
  7  8  1  0  0  0
  7 25  1  0  0  0
  7 26  1  0  0  0
  8  9  1  0  0  0
  9 10  2  0  0  0
 11 12  1  0  0  0
 12 13  1  0  0  0
 12 27  1  0  0  0
 12 28  1  0  0  0
 13 14  1  0  0  0
 13 29  1  0  0  0
 13 30  1  0  0  0
 14 15  1  0  0  0
 15 16  2  0  0  0
 15 20  1  0  0  0
 16 17  1  0  0  0
 16 31  1  0  0  0
 17 18  2  0  0  0
 17 32  1  0  0  0
 18 19  1  0  0  0
 18 21  1  0  0  0
 19 20  2  0  0  0
 19 33  1  0  0  0
 20 34  1  0  0  0
M  END
> <s_m_entry_id>
10099

> <s_m_entry_name>
dock_pv.135

> <s_m_Source_Path>
/home/csk/Desktop/cluster/DUD-E-result/aofb

> <s_m_Source_File>
dock_pv.maegz

> <i_m_Source_File_Index>
135

> <chembl_id>
CHEMBL2391878

> <chembl_pref_name>
None

> <i_lp_mmshare_version>
53161

> <i_f3d_flags>
0

> <r_lp_tautomer_probability>
1

> <s_lp_Force_Field>
OPLS_2005

> <r_lp_Energy>
31.143879

> <b_lp_Chiralities_Consistent>
1

> <s_lp_Variant>
CHEMBL2039_lig975-1

> <s_i_glide_gridfile>
glide-grid_1s3b

> <i_i_glide_lignum>
1122

> <i_i_glide_rotatable_bonds>
5

> <r_i_docking_score>
-7.83745457236092

> <r_i_glide_ligand_efficiency>
-0.373212122493377

> <r_i_glide_ligand_efficiency_sa>
-1.02966394662055

> <r_i_glide_ligand_efficiency_ln>
-1.93779480594808

> <r_i_glide_gscore>
-7.83745457236092

> <r_i_glide_lipo>
-3.74392532865618

> <r_i_glide_hbond>
0

> <r_i_glide_metal>
0

> <r_i_glide_rewards>
-2.64319541793937

> <r_i_glide_evdw>
-31.3432083129883

> <r_i_glide_ecoul>
-3.19424843788147

> <r_i_glide_erotb>
0.595963855566258

> <r_i_glide_esite>
0

> <r_i_glide_emodel>
-42.4811880226335

> <r_i_glide_energy>
-34.5374567508698

> <r_i_glide_einternal>
3.20326590538025

> <i_i_glide_confnum>
18

> <i_i_glide_posenum>
66

> <r_i_glide_eff_state_penalty>
0

> <s_user_duplicate_titles>
CHEMBL2039_lig975

> <s_m_subgroup_title>
dock_pv

> <s_m_subgroupid>
dock_pv

> <b_m_subgroup_collapsed>
1

$$$$
CHEMBL2039_lig2706
                    3D
 Schrodinger Suite 2021-1.
 39 41  0  0  1  0            999 V2000
   53.0249  154.3930   24.5309 S   0  0  0  0  0  0
   51.9257  153.9097   25.9092 C   0  0  1  0  0  0
   52.3230  152.5806   26.5765 C   0  0  0  0  0  0
   52.4560  151.4395   25.7039 N   0  0  1  0  0  0
   53.5224  151.6150   24.7376 C   0  0  0  0  0  0
   53.2560  152.7775   23.7638 C   0  0  0  0  0  0
   51.7646  154.9850   26.9899 C   0  0  0  0  0  0
   52.4560  156.2100   26.9646 C   0  0  0  0  0  0
   52.2429  157.1609   27.9546 C   0  0  0  0  0  0
   51.2560  156.9229   28.9040 C   0  0  0  0  0  0
   50.6292  155.6845   28.9837 C   0  0  0  0  0  0
   50.9007  154.7076   28.0541 C   0  0  0  0  0  0
   50.7886  157.8436   29.8060 O   0  0  0  0  0  0
   50.8365  159.2332   29.5484 C   0  0  0  0  0  0
   49.7505  159.8640   30.4087 C   0  0  0  0  0  0
   50.0874  160.6035   31.5450 C   0  0  0  0  0  0
   49.0867  161.0440   32.4073 C   0  0  0  0  0  0
   47.7515  160.7751   32.1154 C   0  0  0  0  0  0
   47.4049  160.0770   30.9610 C   0  0  0  0  0  0
   48.4062  159.6191   30.1083 C   0  0  0  0  0  0
   50.9398  153.7969   25.4552 H   0  0  0  0  0  0
   53.2560  152.6440   27.1315 H   0  0  0  0  0  0
   51.5752  152.2845   27.3102 H   0  0  0  0  0  0
   52.6366  150.6208   26.2749 H   0  0  0  0  0  0
   54.4599  151.7826   25.2702 H   0  0  0  0  0  0
   53.6419  150.6869   24.1782 H   0  0  0  0  0  0
   54.0560  152.9107   23.0567 H   0  0  0  0  0  0
   52.4560  152.5605   23.0885 H   0  0  0  0  0  0
   53.1716  156.4435   26.1923 H   0  0  0  0  0  0
   52.7693  158.1026   27.9274 H   0  0  0  0  0  0
   49.8809  155.4998   29.7374 H   0  0  0  0  0  0
   50.3536  153.7801   28.1041 H   0  0  0  0  0  0
   50.6203  159.4440   28.5040 H   0  0  0  0  0  0
   51.8249  159.6330   29.7815 H   0  0  0  0  0  0
   51.1226  160.7923   31.7933 H   0  0  0  0  0  0
   49.3526  161.5844   33.3040 H   0  0  0  0  0  0
   46.9783  161.1084   32.7918 H   0  0  0  0  0  0
   46.3670  159.8727   30.7406 H   0  0  0  0  0  0
   48.1387  159.0440   29.2343 H   0  0  0  0  0  0
  1  2  1  0  0  0
  1  6  1  0  0  0
  2  7  1  0  0  0
  2  3  1  0  0  0
  2 21  1  0  0  0
  3  4  1  0  0  0
  3 22  1  0  0  0
  3 23  1  0  0  0
  4  5  1  0  0  0
  4 24  1  0  0  0
  5  6  1  0  0  0
  5 25  1  0  0  0
  5 26  1  0  0  0
  6 27  1  0  0  0
  6 28  1  0  0  0
  7 12  1  0  0  0
  7  8  2  0  0  0
  8  9  1  0  0  0
  8 29  1  0  0  0
  9 10  2  0  0  0
  9 30  1  0  0  0
 10 11  1  0  0  0
 10 13  1  0  0  0
 11 12  2  0  0  0
 11 31  1  0  0  0
 12 32  1  0  0  0
 13 14  1  0  0  0
 14 15  1  0  0  0
 14 33  1  0  0  0
 14 34  1  0  0  0
 15 16  2  0  0  0
 15 20  1  0  0  0
 16 17  1  0  0  0
 16 35  1  0  0  0
 17 18  2  0  0  0
 17 36  1  0  0  0
 18 19  1  0  0  0
 18 37  1  0  0  0
 19 20  2  0  0  0
 19 38  1  0  0  0
 20 39  1  0  0  0
M  END
> <s_m_entry_id>
10100

> <s_m_entry_name>
dock_pv.136

> <s_m_Source_Path>
/home/csk/Desktop/cluster/DUD-E-result/aofb

> <s_m_Source_File>
dock_pv.maegz

> <i_m_Source_File_Index>
136

> <chembl_id>
CHEMBL597373

> <chembl_pref_name>
None

> <i_lp_mmshare_version>
53161

> <i_f3d_flags>
0

> <r_lp_tautomer_probability>
1

> <s_lp_Force_Field>
OPLS_2005

> <r_lp_Energy>
21.155739

> <b_lp_Chiralities_Consistent>
1

> <s_lp_Variant>
CHEMBL2039_lig2706-2

> <s_i_glide_gridfile>
glide-grid_1s3b

> <i_i_glide_lignum>
3138

> <i_i_glide_rotatable_bonds>
4

> <r_i_docking_score>
-7.83733384094653

> <r_i_glide_ligand_efficiency>
-0.391866692047326

> <r_i_glide_ligand_efficiency_sa>
-1.06368985118786

> <r_i_glide_ligand_efficiency_ln>
-1.96142616781871

> <r_i_glide_gscore>
-7.83733384094653

> <r_i_glide_lipo>
-4.69969320695796

> <r_i_glide_hbond>
-0.209203783441767

> <r_i_glide_metal>
0

> <r_i_glide_rewards>
-2.27251607747462

> <r_i_glide_evdw>
-26.4968795776367

> <r_i_glide_ecoul>
-1.48009920120239

> <r_i_glide_erotb>
0.890938085990014

> <r_i_glide_esite>
0

> <r_i_glide_emodel>
-30.1227703938479

> <r_i_glide_energy>
-27.9769787788391

> <r_i_glide_einternal>
13.1561288833618

> <i_i_glide_confnum>
115

> <i_i_glide_posenum>
331

> <r_i_glide_eff_state_penalty>
0

> <s_user_duplicate_titles>
CHEMBL2039_lig2706,603661

> <s_m_subgroup_title>
dock_pv

> <s_m_subgroupid>
dock_pv

> <b_m_subgroup_collapsed>
1

$$$$
CHEMBL2039_lig1179
                    3D
 Schrodinger Suite 2021-1.
 38 40  0  0  1  0            999 V2000
   53.4493  154.2437   24.2466 C   0  0  0  0  0  0
   52.5223  154.5169   25.0753 N   0  0  0  0  0  0
   52.6059  155.6551   25.8887 N   0  0  0  0  0  0
   52.0560  155.7410   27.1502 C   0  0  0  0  0  0
   52.0576  156.8389   27.8609 N   0  0  0  0  0  0
   51.2495  156.7644   28.9040 C   0  0  0  0  0  0
   50.7549  155.4674   29.1416 C   0  0  0  0  0  0
   51.2563  154.3824   27.8915 S   0  0  0  0  0  0
   53.3286  152.9916   23.3944 C   0  0  0  0  0  0
   54.7294  155.0437   23.9990 C   0  0  0  0  0  0
   50.8011  158.0234   29.5924 C   0  0  0  0  0  0
   51.5786  159.1753   29.7112 C   0  0  0  0  0  0
   51.1527  160.2444   30.5060 C   0  0  0  0  0  0
   49.5025  158.0365   30.1041 C   0  0  0  0  0  0
   53.2561  151.7092   24.2529 C   0  0  0  0  0  0
   49.0267  159.0966   30.8997 C   0  0  0  0  0  0
   49.8926  160.1969   31.1614 C   0  0  0  0  0  0
   49.4747  161.1721   32.1002 C   0  0  0  0  0  0
   48.2148  161.0922   32.6904 C   0  0  0  0  0  0
   47.3451  160.0583   32.3709 C   0  0  0  0  0  0
   47.7389  159.0576   31.4902 C   0  0  0  0  0  0
   53.3646  156.2713   25.6431 H   0  0  0  0  0  0
   50.0891  155.1209   29.9171 H   0  0  0  0  0  0
   54.1248  152.9389   22.6593 H   0  0  0  0  0  0
   52.4560  153.0731   22.7631 H   0  0  0  0  0  0
   55.5979  154.4730   24.3279 H   0  0  0  0  0  0
   54.8560  155.2501   22.9367 H   0  0  0  0  0  0
   54.7520  156.0065   24.5044 H   0  0  0  0  0  0
   52.5768  159.1893   29.3040 H   0  0  0  0  0  0
   51.8094  161.0842   30.6815 H   0  0  0  0  0  0
   48.8609  157.1748   29.9955 H   0  0  0  0  0  0
   53.2088  150.8195   23.6254 H   0  0  0  0  0  0
   52.3864  151.7041   24.9081 H   0  0  0  0  0  0
   54.1266  151.6090   24.9030 H   0  0  0  0  0  0
   50.1370  161.9890   32.3462 H   0  0  0  0  0  0
   47.9023  161.8439   33.3970 H   0  0  0  0  0  0
   46.3672  160.0195   32.8281 H   0  0  0  0  0  0
   47.0749  158.2325   31.2773 H   0  0  0  0  0  0
  1  2  2  0  0  0
  1  9  1  0  0  0
  1 10  1  0  0  0
  2  3  1  0  0  0
  3  4  1  0  0  0
  3 22  1  0  0  0
  4  5  2  0  0  0
  4  8  1  0  0  0
  5  6  1  0  0  0
  6  7  2  0  0  0
  6 11  1  0  0  0
  7  8  1  0  0  0
  7 23  1  0  0  0
  9 15  1  0  0  0
  9 24  1  0  0  0
  9 25  1  0  0  0
 10 26  1  0  0  0
 10 27  1  0  0  0
 10 28  1  0  0  0
 11 12  2  0  0  0
 11 14  1  0  0  0
 12 13  1  0  0  0
 12 29  1  0  0  0
 13 17  2  0  0  0
 13 30  1  0  0  0
 14 16  2  0  0  0
 14 31  1  0  0  0
 15 32  1  0  0  0
 15 33  1  0  0  0
 15 34  1  0  0  0
 16 17  1  0  0  0
 16 21  1  0  0  0
 17 18  1  0  0  0
 18 19  2  0  0  0
 18 35  1  0  0  0
 19 20  1  0  0  0
 19 36  1  0  0  0
 20 21  2  0  0  0
 20 37  1  0  0  0
 21 38  1  0  0  0
M  END
> <s_m_entry_id>
10101

> <s_m_entry_name>
dock_pv.137

> <s_m_Source_Path>
/home/csk/Desktop/cluster/DUD-E-result/aofb

> <s_m_Source_File>
dock_pv.maegz

> <i_m_Source_File_Index>
137

> <chembl_id>
CHEMBL3218128

> <chembl_pref_name>
None

> <i_lp_mmshare_version>
53161

> <i_f3d_flags>
0

> <r_lp_tautomer_probability>
1

> <s_lp_Force_Field>
OPLS_2005

> <r_lp_Energy>
16.138881

> <b_lp_Chiralities_Consistent>
1

> <s_lp_Variant>
CHEMBL2039_lig1179-1

> <s_i_glide_gridfile>
glide-grid_1s3b

> <i_i_glide_lignum>
1355

> <i_i_glide_rotatable_bonds>
4

> <r_i_docking_score>
-7.83683603951404

> <r_i_glide_ligand_efficiency>
-0.373182668548288

> <r_i_glide_ligand_efficiency_sa>
-1.02958268541943

> <r_i_glide_ligand_efficiency_ln>
-1.93764187495155

> <r_i_glide_gscore>
-7.83683603951404

> <r_i_glide_lipo>
-4.5744599256907

> <r_i_glide_hbond>
0

> <r_i_glide_metal>
0

> <r_i_glide_rewards>
-2.6223771296931

> <r_i_glide_evdw>
-31.1791038513184

> <r_i_glide_ecoul>
0.532921552658081

> <r_i_glide_erotb>
0.839017975536963

> <r_i_glide_esite>
0

> <r_i_glide_emodel>
-29.6367212685676

> <r_i_glide_energy>
-30.6461822986603

> <r_i_glide_einternal>
5.58382558822632

> <i_i_glide_confnum>
9

> <i_i_glide_posenum>
192

> <r_i_glide_eff_state_penalty>
0

> <s_user_duplicate_titles>
CHEMBL2039_lig1179

> <s_m_subgroup_title>
dock_pv

> <s_m_subgroupid>
dock_pv

> <b_m_subgroup_collapsed>
1

$$$$
CHEMBL2039_lig1932
                    3D
 Schrodinger Suite 2021-1.
 34 36  0  0  1  0            999 V2000
   52.8560  151.6902   24.9044 C   0  0  0  0  0  0
   53.2560  152.5972   23.9281 C   0  0  0  0  0  0
   53.1550  153.9610   24.1565 C   0  0  0  0  0  0
   52.1926  152.1588   26.0434 C   0  0  0  0  0  0
   52.0712  153.5312   26.2854 C   0  0  0  0  0  0
   52.5751  154.4237   25.3310 C   0  0  0  0  0  0
   52.6028  155.7807   25.5448 O   0  0  0  0  0  0
   52.1290  156.2429   26.7256 C   0  0  0  0  0  0
   51.6275  155.5069   27.7525 C   0  0  0  0  0  0
   51.5987  154.0332   27.6057 C   0  0  0  0  0  0
   50.9457  156.1521   28.8740 C   0  0  0  0  0  0
   51.2560  157.4635   29.0786 N   0  0  0  0  0  0
   50.0562  155.5626   29.4850 O   0  0  0  0  0  0
   50.5186  158.4379   29.7942 C   0  0  0  0  0  0
   51.1765  159.6335   30.1040 C   0  0  0  0  0  0
   50.5655  160.5793   30.9281 C   0  0  0  0  0  0
   49.2816  160.3431   31.4197 C   0  0  0  0  0  0
   48.5908  159.1933   31.0682 C   0  0  0  0  0  0
   49.2070  158.2440   30.2675 C   0  0  0  0  0  0
   53.0994  150.2049   24.7024 C   0  0  0  0  0  0
   48.5370  161.4440   32.5136 Cl  0  0  0  0  0  0
   51.2560  153.2319   28.4726 O   0  0  0  0  0  0
   53.7016  152.2442   23.0108 H   0  0  0  0  0  0
   53.5845  154.6440   23.4479 H   0  0  0  0  0  0
   51.8034  151.4462   26.7574 H   0  0  0  0  0  0
   52.1401  157.3237   26.6984 H   0  0  0  0  0  0
   52.1379  157.7818   28.7081 H   0  0  0  0  0  0
   52.1893  159.8031   29.7677 H   0  0  0  0  0  0
   51.1050  161.4669   31.2210 H   0  0  0  0  0  0
   47.5972  159.0137   31.4522 H   0  0  0  0  0  0
   48.6485  157.3427   30.0792 H   0  0  0  0  0  0
   52.4560  149.5964   25.3388 H   0  0  0  0  0  0
   52.8916  149.9230   23.6706 H   0  0  0  0  0  0
   54.1405  149.9566   24.9040 H   0  0  0  0  0  0
  1  2  2  0  0  0
  1  4  1  0  0  0
  1 20  1  0  0  0
  2  3  1  0  0  0
  2 23  1  0  0  0
  3  6  2  0  0  0
  3 24  1  0  0  0
  4  5  2  0  0  0
  4 25  1  0  0  0
  5  6  1  0  0  0
  5 10  1  0  0  0
  6  7  1  0  0  0
  7  8  1  0  0  0
  8  9  2  0  0  0
  8 26  1  0  0  0
  9 10  1  0  0  0
  9 11  1  0  0  0
 10 22  2  0  0  0
 11 12  1  0  0  0
 11 13  2  0  0  0
 12 14  1  0  0  0
 12 27  1  0  0  0
 14 15  2  0  0  0
 14 19  1  0  0  0
 15 16  1  0  0  0
 15 28  1  0  0  0
 16 17  2  0  0  0
 16 29  1  0  0  0
 17 18  1  0  0  0
 17 21  1  0  0  0
 18 19  2  0  0  0
 18 30  1  0  0  0
 19 31  1  0  0  0
 20 32  1  0  0  0
 20 33  1  0  0  0
 20 34  1  0  0  0
M  END
> <s_m_entry_id>
10102

> <s_m_entry_name>
dock_pv.138

> <s_m_Source_Path>
/home/csk/Desktop/cluster/DUD-E-result/aofb

> <s_m_Source_File>
dock_pv.maegz

> <i_m_Source_File_Index>
138

> <chembl_id>
CHEMBL4081233

> <chembl_pref_name>
None

> <i_lp_mmshare_version>
53161

> <i_f3d_flags>
0

> <r_lp_tautomer_probability>
1

> <s_lp_Force_Field>
OPLS_2005

> <r_lp_Energy>
24.203843

> <b_lp_Chiralities_Consistent>
1

> <s_lp_Variant>
CHEMBL2039_lig1932-1

> <s_i_glide_gridfile>
glide-grid_1s3b

> <i_i_glide_lignum>
2267

> <i_i_glide_rotatable_bonds>
3

> <r_i_docking_score>
-7.83143447569867

> <r_i_glide_ligand_efficiency>
-0.355974294349939

> <r_i_glide_ligand_efficiency_sa>
-0.997453972443104

> <r_i_glide_ligand_efficiency_ln>
-1.91428824437397

> <r_i_glide_gscore>
-7.83143447569867

> <r_i_glide_lipo>
-4.44900169149613

> <r_i_glide_hbond>
0

> <r_i_glide_metal>
0

> <r_i_glide_rewards>
-2.34803524478609

> <r_i_glide_evdw>
-25.8279819488525

> <r_i_glide_ecoul>
-2.061607837677

> <r_i_glide_erotb>
0.566242733677729

> <r_i_glide_esite>
0

> <r_i_glide_emodel>
-31.5873075063079

> <r_i_glide_energy>
-27.8895897865295

> <r_i_glide_einternal>
5.79662084579468

> <i_i_glide_confnum>
9

> <i_i_glide_posenum>
70

> <r_i_glide_eff_state_penalty>
0

> <s_user_duplicate_titles>
CHEMBL2039_lig1932

> <s_m_subgroup_title>
dock_pv

> <s_m_subgroupid>
dock_pv

> <b_m_subgroup_collapsed>
1

$$$$
CHEMBL2039_lig1597
                    3D
 Schrodinger Suite 2021-1.
 33 35  0  0  1  0            999 V2000
   50.4241  158.7512   29.7039 C   0  0  0  0  0  0
   49.1998  159.2507   30.4767 C   0  0  0  0  0  0
   49.3589  159.8996   31.7047 C   0  0  0  0  0  0
   48.2479  160.2857   32.4587 C   0  0  0  0  0  0
   46.9636  160.0456   31.9769 C   0  0  0  0  0  0
   46.7905  159.4449   30.7340 C   0  0  0  0  0  0
   47.9015  159.0671   29.9809 C   0  0  0  0  0  0
   52.2950  157.2606   28.1035 C   0  0  0  0  0  0
   51.2565  156.6431   28.8046 C   0  0  0  0  0  0
   50.9515  155.3132   28.5045 C   0  0  0  0  0  0
   52.8103  156.6675   26.9521 C   0  0  0  0  0  0
   52.3543  155.4238   26.5210 C   0  0  0  0  0  0
   51.5278  154.6952   27.3926 C   0  0  0  0  0  0
   51.1579  153.3871   27.1468 O   0  0  0  0  0  0
   52.0439  152.6691   26.2776 C   0  0  0  0  0  0
   52.2117  153.4490   24.9577 C   0  0  0  0  0  0
   52.8558  154.7972   25.2666 C   0  0  0  0  0  0
   53.7322  155.3079   24.5689 O   0  0  0  0  0  0
   50.4558  157.3145   29.7041 O   0  0  0  0  0  0
   48.4562  161.0441   33.9940 Cl  0  0  0  0  0  0
   50.3667  159.1461   28.6880 H   0  0  0  0  0  0
   51.3447  159.1416   30.1408 H   0  0  0  0  0  0
   50.3476  160.0844   32.0982 H   0  0  0  0  0  0
   46.1007  160.3336   32.5599 H   0  0  0  0  0  0
   45.7933  159.2774   30.3531 H   0  0  0  0  0  0
   47.7281  158.6439   29.0060 H   0  0  0  0  0  0
   52.6358  158.2462   28.3711 H   0  0  0  0  0  0
   50.2140  154.7836   29.0875 H   0  0  0  0  0  0
   53.5588  157.2020   26.3890 H   0  0  0  0  0  0
   53.0134  152.5182   26.7555 H   0  0  0  0  0  0
   51.6248  151.6780   26.1020 H   0  0  0  0  0  0
   52.8498  152.8841   24.2776 H   0  0  0  0  0  0
   51.2193  153.6145   24.5455 H   0  0  0  0  0  0
  1  2  1  0  0  0
  1 19  1  0  0  0
  1 21  1  0  0  0
  1 22  1  0  0  0
  2  3  2  0  0  0
  2  7  1  0  0  0
  3  4  1  0  0  0
  3 23  1  0  0  0
  4  5  2  0  0  0
  4 20  1  0  0  0
  5  6  1  0  0  0
  5 24  1  0  0  0
  6  7  2  0  0  0
  6 25  1  0  0  0
  7 26  1  0  0  0
  8  9  2  0  0  0
  8 11  1  0  0  0
  8 27  1  0  0  0
  9 10  1  0  0  0
  9 19  1  0  0  0
 10 13  2  0  0  0
 10 28  1  0  0  0
 11 12  2  0  0  0
 11 29  1  0  0  0
 12 13  1  0  0  0
 12 17  1  0  0  0
 13 14  1  0  0  0
 14 15  1  0  0  0
 15 16  1  0  0  0
 15 30  1  0  0  0
 15 31  1  0  0  0
 16 17  1  0  0  0
 16 32  1  0  0  0
 16 33  1  0  0  0
 17 18  2  0  0  0
M  END
> <s_m_entry_id>
10103

> <s_m_entry_name>
dock_pv.139

> <s_m_Source_Path>
/home/csk/Desktop/cluster/DUD-E-result/aofb

> <s_m_Source_File>
dock_pv.maegz

> <i_m_Source_File_Index>
139

> <chembl_id>
CHEMBL1682815

> <chembl_pref_name>
None

> <i_lp_mmshare_version>
53161

> <i_f3d_flags>
0

> <r_lp_tautomer_probability>
0.99995

> <s_lp_Force_Field>
OPLS_2005

> <r_lp_Energy>
22.312752

> <b_lp_Chiralities_Consistent>
1

> <s_lp_Variant>
CHEMBL2039_lig1597-1

> <s_i_glide_gridfile>
glide-grid_1s3b

> <i_i_glide_lignum>
1858

> <i_i_glide_rotatable_bonds>
3

> <r_i_docking_score>
-7.82946033048171

> <r_i_glide_ligand_efficiency>
-0.391473016524085

> <r_i_glide_ligand_efficiency_sa>
-1.06262125141342

> <r_i_glide_ligand_efficiency_ln>
-1.95945568783512

> <r_i_glide_gscore>
-7.82946033048171

> <r_i_glide_lipo>
-4.32092882019604

> <r_i_glide_hbond>
0

> <r_i_glide_metal>
0

> <r_i_glide_rewards>
-2.52593765843987

> <r_i_glide_evdw>
-30.4910907745361

> <r_i_glide_ecoul>
-0.75277441740036

> <r_i_glide_erotb>
0.654876849491072

> <r_i_glide_esite>
0

> <r_i_glide_emodel>
-37.8455857784742

> <r_i_glide_energy>
-31.2438651919365

> <r_i_glide_einternal>
3.7760021686554

> <i_i_glide_confnum>
36

> <i_i_glide_posenum>
263

> <r_i_glide_eff_state_penalty>
0

> <s_user_duplicate_titles>
CHEMBL2039_lig1597

> <s_m_subgroup_title>
dock_pv

> <s_m_subgroupid>
dock_pv

> <b_m_subgroup_collapsed>
1

$$$$
CHEMBL2039_lig2449
                    3D
 Schrodinger Suite 2021-1.
 29 30  0  0  1  0            999 V2000
   52.5949  152.6133   25.0207 O   0  0  0  0  0  0
   52.1937  153.5464   25.9347 C   0  0  0  0  0  0
   52.3938  154.8981   25.6712 C   0  0  0  0  0  0
   52.0561  155.8425   26.6361 C   0  0  0  0  0  0
   51.4964  155.4442   27.8611 C   0  0  0  0  0  0
   51.0264  156.4359   28.8559 C   0  0  0  0  0  0
   51.3861  157.7353   28.8760 C   0  0  0  0  0  0
   50.8350  158.8026   29.7140 C   0  0  0  0  0  0
   49.5382  158.7851   30.2467 C   0  0  0  0  0  0
   49.1291  159.7787   31.1391 C   0  0  0  0  0  0
   47.8696  159.7403   31.6697 O   0  0  0  0  0  0
   50.0097  160.7953   31.5110 C   0  0  0  0  0  0
   51.2920  160.8290   30.9655 C   0  0  0  0  0  0
   52.1906  161.8030   31.3040 O   0  0  0  0  0  0
   51.6862  159.8440   30.0745 C   0  0  0  0  0  0
   51.2919  154.0833   28.1040 C   0  0  0  0  0  0
   51.6411  153.1356   27.1439 C   0  0  0  0  0  0
   53.0425  152.9998   24.2654 H   0  0  0  0  0  0
   52.8261  155.2190   24.7356 H   0  0  0  0  0  0
   52.2070  156.8843   26.3994 H   0  0  0  0  0  0
   50.2998  156.0843   29.5744 H   0  0  0  0  0  0
   52.1324  158.0737   28.1725 H   0  0  0  0  0  0
   48.8524  157.9861   30.0115 H   0  0  0  0  0  0
   47.7150  160.4625   32.2809 H   0  0  0  0  0  0
   49.7049  161.5573   32.2127 H   0  0  0  0  0  0
   52.0559  162.1419   32.2047 H   0  0  0  0  0  0
   52.7008  159.8562   29.7040 H   0  0  0  0  0  0
   50.8561  153.7545   29.0362 H   0  0  0  0  0  0
   51.4834  152.0854   27.3378 H   0  0  0  0  0  0
  1  2  1  0  0  0
  1 18  1  0  0  0
  2  3  2  0  0  0
  2 17  1  0  0  0
  3  4  1  0  0  0
  3 19  1  0  0  0
  4  5  2  0  0  0
  4 20  1  0  0  0
  5  6  1  0  0  0
  5 16  1  0  0  0
  6  7  2  0  0  0
  6 21  1  0  0  0
  7  8  1  0  0  0
  7 22  1  0  0  0
  8  9  2  0  0  0
  8 15  1  0  0  0
  9 10  1  0  0  0
  9 23  1  0  0  0
 10 11  1  0  0  0
 10 12  2  0  0  0
 11 24  1  0  0  0
 12 13  1  0  0  0
 12 25  1  0  0  0
 13 14  1  0  0  0
 13 15  2  0  0  0
 14 26  1  0  0  0
 15 27  1  0  0  0
 16 17  2  0  0  0
 16 28  1  0  0  0
 17 29  1  0  0  0
M  END
> <s_m_entry_id>
10104

> <s_m_entry_name>
dock_pv.140

> <s_m_Source_Path>
/home/csk/Desktop/cluster/DUD-E-result/aofb

> <s_m_Source_File>
dock_pv.maegz

> <i_m_Source_File_Index>
140

> <chembl_id>
CHEMBL165

> <chembl_pref_name>
RESVERATROL

> <i_lp_mmshare_version>
53161

> <i_f3d_flags>
0

> <r_lp_tautomer_probability>
1

> <s_lp_Force_Field>
OPLS_2005

> <r_lp_Energy>
13.543861

> <b_lp_Chiralities_Consistent>
1

> <s_lp_Variant>
CHEMBL2039_lig2449-1

> <s_i_glide_gridfile>
glide-grid_1s3b

> <i_i_glide_lignum>
2852

> <i_i_glide_rotatable_bonds>
5

> <r_i_docking_score>
-7.82828606782465

> <r_i_glide_ligand_efficiency>
-0.460487415754391

> <r_i_glide_ligand_efficiency_sa>
-1.18404281374084

> <r_i_glide_ligand_efficiency_ln>
-2.04222550773575

> <r_i_glide_gscore>
-7.82828606782465

> <r_i_glide_lipo>
-3.40601479949001

> <r_i_glide_hbond>
-0.32

> <r_i_glide_metal>
0

> <r_i_glide_rewards>
-2.4934320644862

> <r_i_glide_evdw>
-27.7357788085938

> <r_i_glide_ecoul>
-5.84058094024658

> <r_i_glide_erotb>
0.654036877618227

> <r_i_glide_esite>
0

> <r_i_glide_emodel>
-46.0286679343058

> <r_i_glide_energy>
-33.5763597488403

> <r_i_glide_einternal>
2.57662391662598

> <i_i_glide_confnum>
4

> <i_i_glide_posenum>
203

> <r_i_glide_eff_state_penalty>
0

> <s_user_duplicate_titles>
CHEMBL2039_lig2449

> <s_m_subgroup_title>
dock_pv

> <s_m_subgroupid>
dock_pv

> <b_m_subgroup_collapsed>
1

$$$$
CHEMBL2039_lig1050
                    3D
 Schrodinger Suite 2021-1.
 28 29  0  0  1  0            999 V2000
   52.1524  153.5742   25.4018 C   0  0  0  0  0  0
   52.7956  154.5328   24.6280 C   0  0  0  0  0  0
   52.9380  155.8381   25.0939 C   0  0  0  0  0  0
   52.4416  156.1870   26.3462 C   0  0  0  0  0  0
   51.7972  155.2288   27.1424 C   0  0  0  0  0  0
   51.6561  153.9177   26.6534 C   0  0  0  0  0  0
   51.2620  155.5474   28.5039 C   0  0  0  0  0  0
   51.1194  156.9473   28.9445 C   0  0  0  0  0  0
   50.0545  157.2998   29.7040 C   0  0  0  0  0  0
   49.6567  158.6123   30.2590 C   0  0  0  0  0  0
   50.5631  159.6733   30.3728 C   0  0  0  0  0  0
   50.2360  160.7886   31.1395 C   0  0  0  0  0  0
   48.9731  160.8943   31.7239 C   0  0  0  0  0  0
   48.0313  159.8866   31.5325 C   0  0  0  0  0  0
   48.3745  158.7479   30.8076 C   0  0  0  0  0  0
   46.4562  160.0213   32.2240 Cl  0  0  0  0  0  0
   50.8560  154.6451   29.2410 O   0  0  0  0  0  0
   52.0565  152.5621   25.0397 H   0  0  0  0  0  0
   53.1937  154.2509   23.6648 H   0  0  0  0  0  0
   53.4488  156.5782   24.4977 H   0  0  0  0  0  0
   52.5804  157.2027   26.6821 H   0  0  0  0  0  0
   51.1711  153.1513   27.2417 H   0  0  0  0  0  0
   51.8644  157.6641   28.6398 H   0  0  0  0  0  0
   49.3487  156.5163   29.9522 H   0  0  0  0  0  0
   51.5621  159.5870   29.9689 H   0  0  0  0  0  0
   50.9702  161.5637   31.3040 H   0  0  0  0  0  0
   48.7260  161.7607   32.3197 H   0  0  0  0  0  0
   47.6549  157.9471   30.7207 H   0  0  0  0  0  0
  1  2  2  0  0  0
  1  6  1  0  0  0
  1 18  1  0  0  0
  2  3  1  0  0  0
  2 19  1  0  0  0
  3  4  2  0  0  0
  3 20  1  0  0  0
  4  5  1  0  0  0
  4 21  1  0  0  0
  5  6  2  0  0  0
  5  7  1  0  0  0
  6 22  1  0  0  0
  7  8  1  0  0  0
  7 17  2  0  0  0
  8  9  2  0  0  0
  8 23  1  0  0  0
  9 10  1  0  0  0
  9 24  1  0  0  0
 10 11  2  0  0  0
 10 15  1  0  0  0
 11 12  1  0  0  0
 11 25  1  0  0  0
 12 13  2  0  0  0
 12 26  1  0  0  0
 13 14  1  0  0  0
 13 27  1  0  0  0
 14 15  2  0  0  0
 14 16  1  0  0  0
 15 28  1  0  0  0
M  END
> <s_m_entry_id>
10105

> <s_m_entry_name>
dock_pv.141

> <s_m_Source_Path>
/home/csk/Desktop/cluster/DUD-E-result/aofb

> <s_m_Source_File>
dock_pv.maegz

> <i_m_Source_File_Index>
141

> <chembl_id>
CHEMBL2377627

> <chembl_pref_name>
None

> <i_lp_mmshare_version>
53161

> <i_f3d_flags>
0

> <r_lp_tautomer_probability>
1

> <s_lp_Force_Field>
OPLS_2005

> <r_lp_Energy>
15.266878

> <b_lp_Chiralities_Consistent>
1

> <s_lp_Variant>
CHEMBL2039_lig1050-1

> <s_i_glide_gridfile>
glide-grid_1s3b

> <i_i_glide_lignum>
1223

> <i_i_glide_rotatable_bonds>
3

> <r_i_docking_score>
-7.82458817822184

> <r_i_glide_ligand_efficiency>
-0.460269892836579

> <r_i_glide_ligand_efficiency_sa>
-1.18348350106725

> <r_i_glide_ligand_efficiency_ln>
-2.04126081068633

> <r_i_glide_gscore>
-7.82458817822184

> <r_i_glide_lipo>
-3.75837242739083

> <r_i_glide_hbond>
0

> <r_i_glide_metal>
0

> <r_i_glide_rewards>
-3.06588892287691

> <r_i_glide_evdw>
-28.8035678863525

> <r_i_glide_ecoul>
0.968571484088898

> <r_i_glide_erotb>
0.294565843750195

> <r_i_glide_esite>
0

> <r_i_glide_emodel>
-35.8012242844219

> <r_i_glide_energy>
-27.8349964022636

> <r_i_glide_einternal>
3.68236637115479

> <i_i_glide_confnum>
2

> <i_i_glide_posenum>
250

> <r_i_glide_eff_state_penalty>
0

> <s_user_duplicate_titles>
CHEMBL2039_lig1050

> <s_m_subgroup_title>
dock_pv

> <s_m_subgroupid>
dock_pv

> <b_m_subgroup_collapsed>
1

$$$$
CHEMBL2039_lig912
                    3D
 Schrodinger Suite 2021-1.
 36 37  0  0  1  0            999 V2000
   53.0724  151.3656   24.4841 C   0  0  0  0  0  0
   53.2560  152.4593   23.6531 C   0  0  0  0  0  0
   53.0241  153.7404   24.1188 C   0  0  0  0  0  0
   52.4933  153.9632   25.3960 C   0  0  0  0  0  0
   52.1736  152.8355   26.1833 C   0  0  0  0  0  0
   52.4560  151.5570   25.7040 C   0  0  0  0  0  0
   51.6560  152.9116   27.4503 O   0  0  0  0  0  0
   52.4560  155.3855   25.8654 C   0  0  0  0  0  0
   53.0207  156.2703   25.2182 O   0  0  0  0  0  0
   51.7392  155.7582   27.0812 C   0  0  0  0  0  0
   52.0817  156.7767   27.8939 C   0  0  0  0  0  0
   51.1255  157.1807   28.9041 C   0  0  0  0  0  0
   51.0033  158.4581   29.3182 C   0  0  0  0  0  0
   49.9759  159.0029   30.2254 C   0  0  0  0  0  0
   50.2444  160.2049   30.8850 C   0  0  0  0  0  0
   49.3330  160.7193   31.8018 C   0  0  0  0  0  0
   48.1126  160.0786   32.0256 C   0  0  0  0  0  0
   47.8314  158.8835   31.3734 C   0  0  0  0  0  0
   48.7716  158.3345   30.5040 C   0  0  0  0  0  0
   53.2536  157.4440   27.7478 O   0  0  0  0  0  0
   47.2059  160.6070   32.9040 O   0  0  0  0  0  0
   49.6560  161.8440   32.5040 O   0  0  0  0  0  0
   53.2779  150.3674   24.1275 H   0  0  0  0  0  0
   53.6560  152.3211   22.6615 H   0  0  0  0  0  0
   53.3181  154.5543   23.4801 H   0  0  0  0  0  0
   52.1539  150.6898   26.2661 H   0  0  0  0  0  0
   51.6213  153.8113   27.7823 H   0  0  0  0  0  0
   50.8560  155.1973   27.2963 H   0  0  0  0  0  0
   50.4560  156.4338   29.3040 H   0  0  0  0  0  0
   51.6936  159.1862   28.9146 H   0  0  0  0  0  0
   51.1812  160.7177   30.7188 H   0  0  0  0  0  0
   46.9003  158.3702   31.5627 H   0  0  0  0  0  0
   48.5461  157.3817   30.0537 H   0  0  0  0  0  0
   53.6734  157.1534   26.9348 H   0  0  0  0  0  0
   47.5553  161.4173   33.2848 H   0  0  0  0  0  0
   50.6036  161.9843   32.6327 H   0  0  0  0  0  0
  1  2  2  0  0  0
  1  6  1  0  0  0
  1 23  1  0  0  0
  2  3  1  0  0  0
  2 24  1  0  0  0
  3  4  2  0  0  0
  3 25  1  0  0  0
  4  5  1  0  0  0
  4  8  1  0  0  0
  5  6  2  0  0  0
  5  7  1  0  0  0
  6 26  1  0  0  0
  7 27  1  0  0  0
  8  9  2  0  0  0
  8 10  1  0  0  0
 10 11  2  0  0  0
 10 28  1  0  0  0
 11 12  1  0  0  0
 11 20  1  0  0  0
 12 13  2  0  0  0
 12 29  1  0  0  0
 13 14  1  0  0  0
 13 30  1  0  0  0
 14 15  2  0  0  0
 14 19  1  0  0  0
 15 16  1  0  0  0
 15 31  1  0  0  0
 16 17  2  0  0  0
 16 22  1  0  0  0
 17 18  1  0  0  0
 17 21  1  0  0  0
 18 19  2  0  0  0
 18 32  1  0  0  0
 19 33  1  0  0  0
 20 34  1  0  0  0
 21 35  1  0  0  0
 22 36  1  0  0  0
M  END
> <s_m_entry_id>
10106

> <s_m_entry_name>
dock_pv.142

> <s_m_Source_Path>
/home/csk/Desktop/cluster/DUD-E-result/aofb

> <s_m_Source_File>
dock_pv.maegz

> <i_m_Source_File_Index>
142

> <chembl_id>
CHEMBL2331563

> <chembl_pref_name>
None

> <i_lp_mmshare_version>
53161

> <i_f3d_flags>
0

> <r_lp_tautomer_probability>
0.0769230769230769

> <s_lp_Force_Field>
OPLS_2005

> <r_lp_Energy>
28.033467

> <b_lp_Chiralities_Consistent>
1

> <s_lp_Variant>
CHEMBL2039_lig912-2

> <s_i_glide_gridfile>
glide-grid_1s3b

> <i_i_glide_lignum>
1046

> <i_i_glide_rotatable_bonds>
8

> <r_i_docking_score>
-7.82224332612948

> <r_i_glide_ligand_efficiency>
-0.355556514824067

> <r_i_glide_ligand_efficiency_sa>
-0.996283337781274

> <r_i_glide_ligand_efficiency_ln>
-1.91204159216393

> <r_i_glide_gscore>
-7.82224332612948

> <r_i_glide_lipo>
-4.61271016547865

> <r_i_glide_hbond>
0

> <r_i_glide_metal>
0

> <r_i_glide_rewards>
-2.40133467327417

> <r_i_glide_evdw>
-26.4173831939697

> <r_i_glide_ecoul>
-3.45614886283875

> <r_i_glide_erotb>
1.03109300174763

> <r_i_glide_esite>
0

> <r_i_glide_emodel>
-29.2550364518913

> <r_i_glide_energy>
-29.8735320568085

> <r_i_glide_einternal>
12.1868896484375

> <i_i_glide_confnum>
46

> <i_i_glide_posenum>
54

> <r_i_glide_eff_state_penalty>
0

> <s_user_duplicate_titles>
CHEMBL2039_lig912,CHEMBL2039_lig912,CHEMBL2039_lig912

> <s_m_subgroup_title>
dock_pv

> <s_m_subgroupid>
dock_pv

> <b_m_subgroup_collapsed>
1

$$$$
CHEMBL2039_lig1247
                    3D
 Schrodinger Suite 2021-1.
 34 36  0  0  1  0            999 V2000
   52.3972  156.4877   27.6218 C   0  0  0  0  0  0
   51.3751  155.6822   28.3216 C   0  0  0  0  0  0
   51.1365  154.4307   27.8420 C   0  0  0  0  0  0
   51.7628  153.9124   26.6293 C   0  0  0  0  0  0
   51.8865  152.5533   26.3380 C   0  0  0  0  0  0
   52.7136  152.1495   25.2935 C   0  0  0  0  0  0
   53.3887  153.0980   24.5223 C   0  0  0  0  0  0
   53.3041  154.4500   24.8413 C   0  0  0  0  0  0
   52.4554  154.8598   25.8683 C   0  0  0  0  0  0
   52.6037  156.1730   26.2959 O   0  0  0  0  0  0
   50.4560  156.2432   29.3032 C   0  0  0  0  0  0
   49.5022  155.5825   29.7017 O   0  0  0  0  0  0
   50.5988  157.5675   29.6004 N   0  0  0  0  0  0
   49.6894  158.4917   30.1753 C   0  0  0  0  0  0
   50.1962  159.7555   30.5345 C   0  0  0  0  0  0
   48.0432  160.3457   31.4936 C   0  0  0  0  0  0
   48.3375  158.2091   30.4299 C   0  0  0  0  0  0
   49.3746  160.6460   31.2249 C   0  0  0  0  0  0
   47.5208  159.1261   31.0892 C   0  0  0  0  0  0
   51.6435  160.1679   30.2692 C   0  0  0  0  0  0
   53.0354  157.4463   28.0534 O   0  0  0  0  0  0
   54.5799  155.6618   24.1019 Br  0  0  0  0  0  0
   52.9935  150.3106   24.9061 Br  0  0  0  0  0  0
   50.3585  153.8238   28.2920 H   0  0  0  0  0  0
   51.3932  151.8155   26.9534 H   0  0  0  0  0  0
   54.0580  152.7694   23.7427 H   0  0  0  0  0  0
   51.5022  157.9647   29.3815 H   0  0  0  0  0  0
   47.4188  161.0645   32.0075 H   0  0  0  0  0  0
   47.8980  157.2870   30.1017 H   0  0  0  0  0  0
   49.7634  161.6014   31.5447 H   0  0  0  0  0  0
   46.4908  158.8816   31.3026 H   0  0  0  0  0  0
   52.2756  159.8464   31.0981 H   0  0  0  0  0  0
   52.0408  159.7504   29.3421 H   0  0  0  0  0  0
   51.7292  161.2521   30.1698 H   0  0  0  0  0  0
  1  2  1  0  0  0
  1 10  1  0  0  0
  1 21  2  0  0  0
  2  3  2  0  0  0
  2 11  1  0  0  0
  3  4  1  0  0  0
  3 24  1  0  0  0
  4  5  1  0  0  0
  4  9  2  0  0  0
  5  6  2  0  0  0
  5 25  1  0  0  0
  6  7  1  0  0  0
  6 23  1  0  0  0
  7  8  2  0  0  0
  7 26  1  0  0  0
  8  9  1  0  0  0
  8 22  1  0  0  0
  9 10  1  0  0  0
 11 12  2  0  0  0
 11 13  1  0  0  0
 13 14  1  0  0  0
 13 27  1  0  0  0
 14 15  1  0  0  0
 14 17  2  0  0  0
 15 18  2  0  0  0
 15 20  1  0  0  0
 16 18  1  0  0  0
 16 19  2  0  0  0
 16 28  1  0  0  0
 17 19  1  0  0  0
 17 29  1  0  0  0
 18 30  1  0  0  0
 19 31  1  0  0  0
 20 32  1  0  0  0
 20 33  1  0  0  0
 20 34  1  0  0  0
M  END
> <s_m_entry_id>
10107

> <s_m_entry_name>
dock_pv.143

> <s_m_Source_Path>
/home/csk/Desktop/cluster/DUD-E-result/aofb

> <s_m_Source_File>
dock_pv.maegz

> <i_m_Source_File_Index>
143

> <chembl_id>
CHEMBL3261201

> <chembl_pref_name>
None

> <i_lp_mmshare_version>
53161

> <i_f3d_flags>
0

> <r_lp_tautomer_probability>
1

> <s_lp_Force_Field>
OPLS_2005

> <r_lp_Energy>
28.860065

> <b_lp_Chiralities_Consistent>
1

> <s_lp_Variant>
CHEMBL2039_lig1247-1

> <s_i_glide_gridfile>
glide-grid_1s3b

> <i_i_glide_lignum>
1439

> <i_i_glide_rotatable_bonds>
3

> <r_i_docking_score>
-7.82165754394315

> <r_i_glide_ligand_efficiency>
-0.340072067127963

> <r_i_glide_ligand_efficiency_sa>
-0.967119721464279

> <r_i_glide_ligand_efficiency_ln>
-1.89134771699488

> <r_i_glide_gscore>
-7.82165754394315

> <r_i_glide_lipo>
-4.8601466117446

> <r_i_glide_hbond>
-0.0129831107931041

> <r_i_glide_metal>
0

> <r_i_glide_rewards>
-1.58116616125018

> <r_i_glide_evdw>
-28.4638862609863

> <r_i_glide_ecoul>
-1.71511805057526

> <r_i_glide_erotb>
0.313100360480346

> <r_i_glide_esite>
0

> <r_i_glide_emodel>
-31.3012815473378

> <r_i_glide_energy>
-30.1790043115616

> <r_i_glide_einternal>
3.93116664886475

> <i_i_glide_confnum>
11

> <i_i_glide_posenum>
80

> <r_i_glide_eff_state_penalty>
0

> <s_user_duplicate_titles>
CHEMBL2039_lig1247

> <s_m_subgroup_title>
dock_pv

> <s_m_subgroupid>
dock_pv

> <b_m_subgroup_collapsed>
1

$$$$
CHEMBL2039_lig1621
                    3D
 Schrodinger Suite 2021-1.
 34 36  0  0  1  0            999 V2000
   51.2569  154.1567   28.4768 C   0  0  0  0  0  0
   51.5009  155.4621   28.0419 C   0  0  0  0  0  0
   52.0370  155.6624   26.7546 C   0  0  0  0  0  0
   51.5557  153.0552   27.6742 C   0  0  0  0  0  0
   52.1087  153.2708   26.4160 C   0  0  0  0  0  0
   52.2973  154.5602   25.9464 C   0  0  0  0  0  0
   52.8357  154.6761   24.7035 O   0  0  0  0  0  0
   53.1878  153.5117   24.1562 C   0  0  0  0  0  0
   52.8536  152.1315   25.3130 S   0  0  0  0  0  0
   53.6589  153.4416   23.0301 O   0  0  0  0  0  0
   51.1275  156.4764   28.9011 O   0  0  0  0  0  0
   51.8094  157.7279   28.8198 C   0  0  0  0  0  0
   51.1233  158.8587   29.6152 C   0  0  0  0  0  0
   49.6839  158.5778   30.1150 C   0  0  0  0  0  0
   49.0910  159.5266   31.1439 C   0  0  0  0  0  0
   47.7792  159.2910   31.5602 C   0  0  0  0  0  0
   47.1821  160.1299   32.4926 C   0  0  0  0  0  0
   47.9029  161.1938   33.0199 C   0  0  0  0  0  0
   49.2118  161.4339   32.6110 C   0  0  0  0  0  0
   49.8027  160.6117   31.6636 C   0  0  0  0  0  0
   50.8474  153.9977   29.4636 H   0  0  0  0  0  0
   52.2166  156.6476   26.3583 H   0  0  0  0  0  0
   51.3840  152.0605   28.0540 H   0  0  0  0  0  0
   51.9716  158.0786   27.8029 H   0  0  0  0  0  0
   52.8017  157.5523   29.2282 H   0  0  0  0  0  0
   51.0977  159.7394   28.9721 H   0  0  0  0  0  0
   51.7734  159.1021   30.4516 H   0  0  0  0  0  0
   49.6036  157.5598   30.4851 H   0  0  0  0  0  0
   48.9794  158.6435   29.3071 H   0  0  0  0  0  0
   47.2183  158.4595   31.1588 H   0  0  0  0  0  0
   46.1671  159.9467   32.8093 H   0  0  0  0  0  0
   47.4379  161.8397   33.7498 H   0  0  0  0  0  0
   49.7933  162.2354   33.0315 H   0  0  0  0  0  0
   50.8162  160.8268   31.3652 H   0  0  0  0  0  0
  1  2  2  0  0  0
  1  4  1  0  0  0
  1 21  1  0  0  0
  2  3  1  0  0  0
  2 11  1  0  0  0
  3  6  2  0  0  0
  3 22  1  0  0  0
  4  5  2  0  0  0
  4 23  1  0  0  0
  5  6  1  0  0  0
  5  9  1  0  0  0
  6  7  1  0  0  0
  7  8  1  0  0  0
  8  9  1  0  0  0
  8 10  2  0  0  0
 11 12  1  0  0  0
 12 13  1  0  0  0
 12 24  1  0  0  0
 12 25  1  0  0  0
 13 14  1  0  0  0
 13 26  1  0  0  0
 13 27  1  0  0  0
 14 15  1  0  0  0
 14 28  1  0  0  0
 14 29  1  0  0  0
 15 16  2  0  0  0
 15 20  1  0  0  0
 16 17  1  0  0  0
 16 30  1  0  0  0
 17 18  2  0  0  0
 17 31  1  0  0  0
 18 19  1  0  0  0
 18 32  1  0  0  0
 19 20  2  0  0  0
 19 33  1  0  0  0
 20 34  1  0  0  0
M  END
> <s_m_entry_id>
10108

> <s_m_entry_name>
dock_pv.144

> <s_m_Source_Path>
/home/csk/Desktop/cluster/DUD-E-result/aofb

> <s_m_Source_File>
dock_pv.maegz

> <i_m_Source_File_Index>
144

> <chembl_id>
CHEMBL3763862

> <chembl_pref_name>
None

> <i_lp_mmshare_version>
53161

> <i_f3d_flags>
0

> <r_lp_tautomer_probability>
1

> <s_lp_Force_Field>
OPLS_2005

> <r_lp_Energy>
20.553757

> <b_lp_Chiralities_Consistent>
1

> <s_lp_Variant>
CHEMBL2039_lig1621-1

> <s_i_glide_gridfile>
glide-grid_1s3b

> <i_i_glide_lignum>
1882

> <i_i_glide_rotatable_bonds>
5

> <r_i_docking_score>
-7.81626771483438

> <r_i_glide_ligand_efficiency>
-0.390813385741719

> <r_i_glide_ligand_efficiency_sa>
-1.0608307379991

> <r_i_glide_ligand_efficiency_ln>
-1.95615401126017

> <r_i_glide_gscore>
-7.81626771483438

> <r_i_glide_lipo>
-4.32794250300037

> <r_i_glide_hbond>
0

> <r_i_glide_metal>
0

> <r_i_glide_rewards>
-2.25803381357419

> <r_i_glide_evdw>
-34.9913444519043

> <r_i_glide_ecoul>
-0.967379212379456

> <r_i_glide_erotb>
0.664382706192324

> <r_i_glide_esite>
0

> <r_i_glide_emodel>
-39.6631415259427

> <r_i_glide_energy>
-35.9587236642838

> <r_i_glide_einternal>
9.42526054382324

> <i_i_glide_confnum>
2

> <i_i_glide_posenum>
321

> <r_i_glide_eff_state_penalty>
0

> <s_user_duplicate_titles>
CHEMBL2039_lig1621

> <s_m_subgroup_title>
dock_pv

> <s_m_subgroupid>
dock_pv

> <b_m_subgroup_collapsed>
1

$$$$
CHEMBL2039_lig2103
                    3D
 Schrodinger Suite 2021-1.
 40 42  0  0  1  0            999 V2000
   51.6790  153.1037   26.7850 C   0  0  0  0  0  0
   51.2560  153.0617   28.1040 C   0  0  0  0  0  0
   51.1062  154.2440   28.8287 C   0  0  0  0  0  0
   51.4097  155.4738   28.2670 C   0  0  0  0  0  0
   52.0560  154.3229   26.2254 C   0  0  0  0  0  0
   51.9857  155.4944   26.9889 C   0  0  0  0  0  0
   52.5016  156.6440   26.1900 C   0  0  0  0  0  0
   53.0829  156.0511   24.9286 C   0  0  0  0  0  0
   52.5794  154.6153   24.8341 C   0  0  1  0  0  0
   53.6515  153.6910   24.4758 N   0  0  1  0  0  0
   53.2560  152.6978   23.4944 C   0  0  0  0  0  0
   53.2560  151.3555   24.1040 C   0  0  0  0  0  0
   53.2560  150.2158   24.5446 C   0  0  0  0  0  0
   50.9870  156.5846   28.9727 O   0  0  0  0  0  0
   51.6560  157.8440   28.9040 C   0  0  0  0  0  0
   50.9260  158.8829   29.7485 C   0  0  0  0  0  0
   51.6310  159.9729   30.2722 C   0  0  0  0  0  0
   51.0208  160.8386   31.1823 C   0  0  0  0  0  0
   49.6899  160.6420   31.5536 C   0  0  0  0  0  0
   48.9626  159.5908   30.9974 C   0  0  0  0  0  0
   49.5802  158.7179   30.1040 C   0  0  0  0  0  0
   47.6721  159.3895   31.3509 F   0  0  0  0  0  0
   49.1165  161.4440   32.4785 F   0  0  0  0  0  0
   51.7375  152.1871   26.2209 H   0  0  0  0  0  0
   50.9835  152.1140   28.5447 H   0  0  0  0  0  0
   50.7027  154.2126   29.8299 H   0  0  0  0  0  0
   53.2661  157.2144   26.7176 H   0  0  0  0  0  0
   51.6774  157.3000   25.9205 H   0  0  0  0  0  0
   54.1719  156.1117   24.9184 H   0  0  0  0  0  0
   52.7478  156.6638   24.1040 H   0  0  0  0  0  0
   51.7343  154.5891   24.1436 H   0  0  0  0  0  0
   54.4848  154.1767   24.1767 H   0  0  0  0  0  0
   54.0117  152.6771   22.7094 H   0  0  0  0  0  0
   52.3344  152.9429   22.9947 H   0  0  0  0  0  0
   53.2559  149.2125   24.9081 H   0  0  0  0  0  0
   52.6896  157.7175   29.2131 H   0  0  0  0  0  0
   51.6560  158.2586   27.9054 H   0  0  0  0  0  0
   52.6772  160.1049   30.0374 H   0  0  0  0  0  0
   51.5868  161.6441   31.6286 H   0  0  0  0  0  0
   49.0156  157.8792   29.7320 H   0  0  0  0  0  0
  1  2  2  0  0  0
  1  5  1  0  0  0
  1 24  1  0  0  0
  2  3  1  0  0  0
  2 25  1  0  0  0
  3  4  2  0  0  0
  3 26  1  0  0  0
  4  6  1  0  0  0
  4 14  1  0  0  0
  5  6  2  0  0  0
  5  9  1  0  0  0
  6  7  1  0  0  0
  7  8  1  0  0  0
  7 27  1  0  0  0
  7 28  1  0  0  0
  8  9  1  0  0  0
  8 29  1  0  0  0
  8 30  1  0  0  0
  9 10  1  0  0  0
  9 31  1  0  0  0
 10 11  1  0  0  0
 10 32  1  0  0  0
 11 12  1  0  0  0
 11 33  1  0  0  0
 11 34  1  0  0  0
 12 13  3  0  0  0
 13 35  1  0  0  0
 14 15  1  0  0  0
 15 16  1  0  0  0
 15 36  1  0  0  0
 15 37  1  0  0  0
 16 17  2  0  0  0
 16 21  1  0  0  0
 17 18  1  0  0  0
 17 38  1  0  0  0
 18 19  2  0  0  0
 18 39  1  0  0  0
 19 20  1  0  0  0
 19 23  1  0  0  0
 20 21  2  0  0  0
 20 22  1  0  0  0
 21 40  1  0  0  0
M  END
> <s_m_entry_id>
10109

> <s_m_entry_name>
dock_pv.145

> <s_m_Source_Path>
/home/csk/Desktop/cluster/DUD-E-result/aofb

> <s_m_Source_File>
dock_pv.maegz

> <i_m_Source_File_Index>
145

> <chembl_id>
CHEMBL4169976

> <chembl_pref_name>
None

> <i_lp_mmshare_version>
53161

> <i_f3d_flags>
0

> <r_lp_tautomer_probability>
1

> <s_lp_Force_Field>
OPLS_2005

> <r_lp_Energy>
30.331603

> <b_lp_Chiralities_Consistent>
1

> <s_lp_Variant>
CHEMBL2039_lig2103-1

> <s_i_glide_gridfile>
glide-grid_1s3b

> <i_i_glide_lignum>
2449

> <i_i_glide_rotatable_bonds>
6

> <r_i_docking_score>
-7.81476376105036

> <r_i_glide_ligand_efficiency>
-0.339772337436972

> <r_i_glide_ligand_efficiency_sa>
-0.966267330094081

> <r_i_glide_ligand_efficiency_ln>
-1.88968073778204

> <r_i_glide_gscore>
-7.81476376105036

> <r_i_glide_lipo>
-4.37032700408103

> <r_i_glide_hbond>
0

> <r_i_glide_metal>
0

> <r_i_glide_rewards>
-2.78544341035892

> <r_i_glide_evdw>
-29.9674587249756

> <r_i_glide_ecoul>
-1.97072100639343

> <r_i_glide_erotb>
1.13498774059738

> <r_i_glide_esite>
0

> <r_i_glide_emodel>
-30.4216800678115

> <r_i_glide_energy>
-31.938179731369

> <r_i_glide_einternal>
14.1980953216553

> <i_i_glide_confnum>
89

> <i_i_glide_posenum>
158

> <r_i_glide_eff_state_penalty>
0

> <s_user_duplicate_titles>
CHEMBL2039_lig2103

> <s_m_subgroup_title>
dock_pv

> <s_m_subgroupid>
dock_pv

> <b_m_subgroup_collapsed>
1

$$$$
CHEMBL2039_lig1035
                    3D
 Schrodinger Suite 2021-1.
 25 26  0  0  1  0            999 V2000
   47.0520  159.4327   30.5050 C   0  0  0  0  0  0
   46.8563  159.9265   31.7911 C   0  0  0  0  0  0
   47.9313  160.4546   32.5043 C   0  0  0  0  0  0
   49.2063  160.4805   31.9362 C   0  0  0  0  0  0
   49.4286  159.9210   30.6707 C   0  0  0  0  0  0
   48.3274  159.4412   29.9440 C   0  0  0  0  0  0
   50.8158  159.8643   30.1025 C   0  0  0  0  0  0
   51.2558  158.6778   29.3568 C   0  0  0  0  0  0
   51.6380  160.7475   30.3447 O   0  0  0  0  0  0
   50.7337  157.4517   29.5625 C   0  0  0  0  0  0
   51.0687  156.2030   28.9035 C   0  0  0  0  0  0
   50.8555  154.8777   29.2553 C   0  0  0  0  0  0
   51.2587  154.0873   28.1807 C   0  0  0  0  0  0
   51.7160  154.9610   27.2136 C   0  0  0  0  0  0
   51.6563  156.2347   27.6784 O   0  0  0  0  0  0
   47.6862  161.0442   34.1035 Cl  0  0  0  0  0  0
   52.3830  154.6895   25.4518 Br  0  0  0  0  0  0
   46.2158  159.0378   29.9473 H   0  0  0  0  0  0
   45.8692  159.9041   32.2297 H   0  0  0  0  0  0
   50.0288  160.8951   32.5035 H   0  0  0  0  0  0
   48.4512  159.0492   28.9455 H   0  0  0  0  0  0
   52.0564  158.8201   28.6458 H   0  0  0  0  0  0
   49.9644  157.3379   30.3078 H   0  0  0  0  0  0
   50.4344  154.5234   30.1834 H   0  0  0  0  0  0
   51.2105  153.0103   28.1118 H   0  0  0  0  0  0
  1  2  2  0  0  0
  1  6  1  0  0  0
  1 18  1  0  0  0
  2  3  1  0  0  0
  2 19  1  0  0  0
  3  4  2  0  0  0
  3 16  1  0  0  0
  4  5  1  0  0  0
  4 20  1  0  0  0
  5  6  2  0  0  0
  5  7  1  0  0  0
  6 21  1  0  0  0
  7  8  1  0  0  0
  7  9  2  0  0  0
  8 10  2  0  0  0
  8 22  1  0  0  0
 10 11  1  0  0  0
 10 23  1  0  0  0
 11 12  2  0  0  0
 11 15  1  0  0  0
 12 13  1  0  0  0
 12 24  1  0  0  0
 13 14  2  0  0  0
 13 25  1  0  0  0
 14 15  1  0  0  0
 14 17  1  0  0  0
M  END
> <s_m_entry_id>
10110

> <s_m_entry_name>
dock_pv.146

> <s_m_Source_Path>
/home/csk/Desktop/cluster/DUD-E-result/aofb

> <s_m_Source_File>
dock_pv.maegz

> <i_m_Source_File_Index>
146

> <chembl_id>
CHEMBL2420791

> <chembl_pref_name>
None

> <i_lp_mmshare_version>
53161

> <i_f3d_flags>
0

> <r_lp_tautomer_probability>
1

> <s_lp_Force_Field>
OPLS_2005

> <r_lp_Energy>
8.797835

> <b_lp_Chiralities_Consistent>
1

> <s_lp_Variant>
CHEMBL2039_lig1035-1

> <s_i_glide_gridfile>
glide-grid_1s3b

> <i_i_glide_lignum>
1208

> <i_i_glide_rotatable_bonds>
3

> <r_i_docking_score>
-7.81104894539956

> <r_i_glide_ligand_efficiency>
-0.459473467376445

> <r_i_glide_ligand_efficiency_sa>
-1.18143566694521

> <r_i_glide_ligand_efficiency_ln>
-2.03772872634688

> <r_i_glide_gscore>
-7.81104894539956

> <r_i_glide_lipo>
-3.74161176818486

> <r_i_glide_hbond>
0

> <r_i_glide_metal>
0

> <r_i_glide_rewards>
-2.54575928731725

> <r_i_glide_evdw>
-32.894157409668

> <r_i_glide_ecoul>
-0.466943234205246

> <r_i_glide_erotb>
0.191071465716738

> <r_i_glide_esite>
0

> <r_i_glide_emodel>
-46.1485389977961

> <r_i_glide_energy>
-33.3611006438732

> <r_i_glide_einternal>
3.87596845626831

> <i_i_glide_confnum>
1

> <i_i_glide_posenum>
358

> <r_i_glide_eff_state_penalty>
0

> <s_user_duplicate_titles>
CHEMBL2039_lig1035

> <s_m_subgroup_title>
dock_pv

> <s_m_subgroupid>
dock_pv

> <b_m_subgroup_collapsed>
1

$$$$
CHEMBL2039_lig1036
                    3D
 Schrodinger Suite 2021-1.
 25 26  0  0  1  0            999 V2000
   48.9332  161.0921   32.5281 C   0  0  0  0  0  0
   47.6234  160.6972   32.2860 C   0  0  0  0  0  0
   47.3372  159.8613   31.2118 C   0  0  0  0  0  0
   48.3696  159.3827   30.3975 C   0  0  0  0  0  0
   49.7001  159.7623   30.6474 C   0  0  0  0  0  0
   49.9607  160.6442   31.7041 C   0  0  0  0  0  0
   50.8540  159.2851   29.8210 C   0  0  0  0  0  0
   50.8483  157.8987   29.3431 C   0  0  0  0  0  0
   51.8617  159.9833   29.7065 O   0  0  0  0  0  0
   51.7732  157.3861   28.5051 C   0  0  0  0  0  0
   51.7683  156.0334   27.9836 C   0  0  0  0  0  0
   51.3788  154.8058   28.5070 C   0  0  0  0  0  0
   51.5253  153.8550   27.4972 C   0  0  0  0  0  0
   51.9979  154.5338   26.3873 C   0  0  0  0  0  0
   52.1521  155.8488   26.6913 O   0  0  0  0  0  0
   45.6951  159.4438   30.9011 Cl  0  0  0  0  0  0
   52.4017  154.0174   24.7989 Cl  0  0  0  0  0  0
   49.1579  161.7500   33.3544 H   0  0  0  0  0  0
   46.8281  161.0542   32.9213 H   0  0  0  0  0  0
   48.1236  158.7298   29.5727 H   0  0  0  0  0  0
   50.9701  160.9681   31.9256 H   0  0  0  0  0  0
   50.0421  157.2767   29.7036 H   0  0  0  0  0  0
   52.5883  157.9965   28.1370 H   0  0  0  0  0  0
   51.0242  154.6252   29.5114 H   0  0  0  0  0  0
   51.3130  152.7989   27.5646 H   0  0  0  0  0  0
  1  2  2  0  0  0
  1  6  1  0  0  0
  1 18  1  0  0  0
  2  3  1  0  0  0
  2 19  1  0  0  0
  3  4  2  0  0  0
  3 16  1  0  0  0
  4  5  1  0  0  0
  4 20  1  0  0  0
  5  6  2  0  0  0
  5  7  1  0  0  0
  6 21  1  0  0  0
  7  8  1  0  0  0
  7  9  2  0  0  0
  8 10  2  0  0  0
  8 22  1  0  0  0
 10 11  1  0  0  0
 10 23  1  0  0  0
 11 12  2  0  0  0
 11 15  1  0  0  0
 12 13  1  0  0  0
 12 24  1  0  0  0
 13 14  2  0  0  0
 13 25  1  0  0  0
 14 15  1  0  0  0
 14 17  1  0  0  0
M  END
> <s_m_entry_id>
10111

> <s_m_entry_name>
dock_pv.147

> <s_m_Source_Path>
/home/csk/Desktop/cluster/DUD-E-result/aofb

> <s_m_Source_File>
dock_pv.maegz

> <i_m_Source_File_Index>
147

> <chembl_id>
CHEMBL2420790

> <chembl_pref_name>
None

> <i_lp_mmshare_version>
53161

> <i_f3d_flags>
0

> <r_lp_tautomer_probability>
1

> <s_lp_Force_Field>
OPLS_2005

> <r_lp_Energy>
8.871572

> <b_lp_Chiralities_Consistent>
1

> <s_lp_Variant>
CHEMBL2039_lig1036-1

> <s_i_glide_gridfile>
glide-grid_1s3b

> <i_i_glide_lignum>
1209

> <i_i_glide_rotatable_bonds>
3

> <r_i_docking_score>
-7.80952695668844

> <r_i_glide_ligand_efficiency>
-0.459383938628732

> <r_i_glide_ligand_efficiency_sa>
-1.18120546332459

> <r_i_glide_ligand_efficiency_ln>
-2.03733167338518

> <r_i_glide_gscore>
-7.80952695668844

> <r_i_glide_lipo>
-3.56441303954013

> <r_i_glide_hbond>
-0.0121872430100197

> <r_i_glide_metal>
0

> <r_i_glide_rewards>
-2.7393561580348

> <r_i_glide_evdw>
-33.5126190185547

> <r_i_glide_ecoul>
-0.451966106891632

> <r_i_glide_erotb>
0.24985535085799

> <r_i_glide_esite>
0

> <r_i_glide_emodel>
-45.1101051612683

> <r_i_glide_energy>
-33.9645851254463

> <r_i_glide_einternal>
6.66779375076294

> <i_i_glide_confnum>
2

> <i_i_glide_posenum>
80

> <r_i_glide_eff_state_penalty>
0

> <s_user_duplicate_titles>
CHEMBL2039_lig1036

> <s_m_subgroup_title>
dock_pv

> <s_m_subgroupid>
dock_pv

> <b_m_subgroup_collapsed>
1

$$$$
CHEMBL2039_lig560
                    3D
 Schrodinger Suite 2021-1.
 32 34  0  0  1  0            999 V2000
   53.2560  152.2199   24.0776 C   0  0  0  0  0  0
   53.4876  153.5348   23.6874 C   0  0  0  0  0  0
   53.0980  154.5920   24.5040 C   0  0  0  0  0  0
   52.6691  151.9497   25.3040 C   0  0  0  0  0  0
   52.2425  153.0058   26.0947 C   0  0  0  0  0  0
   52.4426  154.3387   25.7099 C   0  0  0  0  0  0
   52.0560  155.4440   26.6368 C   0  0  0  0  0  0
   51.4124  154.9900   27.8912 C   0  0  0  0  0  0
   51.2864  153.6584   28.1044 C   0  0  0  0  0  0
   51.6561  152.6599   27.2811 O   0  0  0  0  0  0
   52.3119  156.6147   26.3509 O   0  0  0  0  0  0
   50.8560  155.8706   28.9040 C   0  0  0  0  0  0
   50.0188  155.4465   29.7016 O   0  0  0  0  0  0
   51.2762  157.1609   28.9040 N   0  0  0  0  0  0
   50.7960  158.2742   29.6305 C   0  0  0  0  0  0
   49.5154  158.3454   30.2013 C   0  0  0  0  0  0
   49.1615  159.4394   30.9875 C   0  0  0  0  0  0
   50.0836  160.4579   31.2030 C   0  0  0  0  0  0
   51.3144  160.4493   30.5532 C   0  0  0  0  0  0
   51.6560  159.3675   29.7457 C   0  0  0  0  0  0
   49.7971  161.4440   32.1040 O   0  0  0  0  0  0
   53.5605  151.4104   23.4336 H   0  0  0  0  0  0
   53.9901  153.7283   22.7525 H   0  0  0  0  0  0
   53.3230  155.6049   24.2026 H   0  0  0  0  0  0
   52.5080  150.9322   25.6281 H   0  0  0  0  0  0
   50.8560  153.2258   28.9961 H   0  0  0  0  0  0
   52.0350  157.3622   28.2661 H   0  0  0  0  0  0
   48.8064  157.5380   30.1040 H   0  0  0  0  0  0
   48.2014  159.4634   31.4812 H   0  0  0  0  0  0
   52.0245  161.2474   30.7115 H   0  0  0  0  0  0
   52.6398  159.3329   29.3040 H   0  0  0  0  0  0
   50.5921  161.8441   32.4762 H   0  0  0  0  0  0
  1  2  2  0  0  0
  1  4  1  0  0  0
  1 22  1  0  0  0
  2  3  1  0  0  0
  2 23  1  0  0  0
  3  6  2  0  0  0
  3 24  1  0  0  0
  4  5  2  0  0  0
  4 25  1  0  0  0
  5 10  1  0  0  0
  5  6  1  0  0  0
  6  7  1  0  0  0
  7 11  2  0  0  0
  7  8  1  0  0  0
  8 12  1  0  0  0
  8  9  2  0  0  0
  9 10  1  0  0  0
  9 26  1  0  0  0
 12 13  2  0  0  0
 12 14  1  0  0  0
 14 15  1  0  0  0
 14 27  1  0  0  0
 15 16  2  0  0  0
 15 20  1  0  0  0
 16 17  1  0  0  0
 16 28  1  0  0  0
 17 18  2  0  0  0
 17 29  1  0  0  0
 18 19  1  0  0  0
 18 21  1  0  0  0
 19 20  2  0  0  0
 19 30  1  0  0  0
 20 31  1  0  0  0
 21 32  1  0  0  0
M  END
> <s_m_entry_id>
10112

> <s_m_entry_name>
dock_pv.148

> <s_m_Source_Path>
/home/csk/Desktop/cluster/DUD-E-result/aofb

> <s_m_Source_File>
dock_pv.maegz

> <i_m_Source_File_Index>
148

> <chembl_id>
CHEMBL1814064

> <chembl_pref_name>
None

> <i_lp_mmshare_version>
53161

> <i_f3d_flags>
0

> <r_lp_tautomer_probability>
0.999999999997365

> <s_lp_Force_Field>
OPLS_2005

> <r_lp_Energy>
23.955285

> <b_lp_Chiralities_Consistent>
1

> <s_lp_Variant>
CHEMBL2039_lig560-1

> <s_i_glide_gridfile>
glide-grid_1s3b

> <i_i_glide_lignum>
663

> <i_i_glide_rotatable_bonds>
4

> <r_i_docking_score>
-7.80165105634201

> <r_i_glide_ligand_efficiency>
-0.371507193159143

> <r_i_glide_ligand_efficiency_sa>
-1.02496017586608

> <r_i_glide_ligand_efficiency_ln>
-1.92894245896022

> <r_i_glide_gscore>
-7.80165105634201

> <r_i_glide_lipo>
-3.56219339245088

> <r_i_glide_hbond>
-0.33321040707986

> <r_i_glide_metal>
0

> <r_i_glide_rewards>
-2.58580532995455

> <r_i_glide_evdw>
-22.8924350738525

> <r_i_glide_ecoul>
-5.74153518676758

> <r_i_glide_erotb>
0.685410104851049

> <r_i_glide_esite>
0

> <r_i_glide_emodel>
-34.7432480978844

> <r_i_glide_energy>
-28.6339702606201

> <r_i_glide_einternal>
1.42745316028595

> <i_i_glide_confnum>
1

> <i_i_glide_posenum>
224

> <r_i_glide_eff_state_penalty>
0

> <s_user_duplicate_titles>
CHEMBL2039_lig560

> <s_m_subgroup_title>
dock_pv

> <s_m_subgroupid>
dock_pv

> <b_m_subgroup_collapsed>
1

$$$$
CHEMBL2039_lig610
                    3D
 Schrodinger Suite 2021-1.
 34 35  0  0  1  0            999 V2000
   52.0126  155.7285   27.4328 C   0  0  0  0  0  0
   51.1947  156.2302   28.5040 C   0  0  0  0  0  0
   51.2560  157.5158   28.9040 C   0  0  0  0  0  0
   50.2735  158.0533   29.8102 C   0  0  0  0  0  0
   50.2253  159.3343   30.2079 C   0  0  0  0  0  0
   51.6560  154.4774   27.0454 N   0  0  0  0  0  0
   49.1693  159.8533   31.0861 C   0  0  0  0  0  0
   49.5165  160.7597   32.0863 C   0  0  0  0  0  0
   48.5630  161.1725   33.0071 C   0  0  0  0  0  0
   47.2560  160.7120   32.9040 C   0  0  0  0  0  0
   46.8844  159.8440   31.8816 C   0  0  0  0  0  0
   47.8458  159.4050   30.9775 C   0  0  0  0  0  0
   52.1679  153.7814   25.9326 C   0  0  0  0  0  0
   52.3299  152.3861   26.0028 C   0  0  0  0  0  0
   52.9050  151.6963   24.9235 C   0  0  0  0  0  0
   53.2560  152.3865   23.7791 C   0  0  0  0  0  0
   53.1444  153.7570   23.7200 C   0  0  0  0  0  0
   52.5725  154.4577   24.7710 C   0  0  0  0  0  0
   52.8560  156.4333   26.8714 O   0  0  0  0  0  0
   53.2560  149.8238   24.9040 Br  0  0  0  0  0  0
   50.4701  155.5501   28.9311 H   0  0  0  0  0  0
   52.0107  158.1823   28.5023 H   0  0  0  0  0  0
   49.5099  157.3827   30.1727 H   0  0  0  0  0  0
   50.9712  160.0381   29.8652 H   0  0  0  0  0  0
   51.0805  153.9460   27.6792 H   0  0  0  0  0  0
   50.5346  161.1109   32.1833 H   0  0  0  0  0  0
   48.8450  161.8440   33.8015 H   0  0  0  0  0  0
   46.5172  161.0440   33.6172 H   0  0  0  0  0  0
   45.8624  159.5015   31.8012 H   0  0  0  0  0  0
   47.5588  158.7124   30.1995 H   0  0  0  0  0  0
   52.0297  151.8448   26.8862 H   0  0  0  0  0  0
   53.6560  151.8556   22.9325 H   0  0  0  0  0  0
   53.5133  154.2440   22.8435 H   0  0  0  0  0  0
   52.4684  155.5274   24.6728 H   0  0  0  0  0  0
  1  2  1  0  0  0
  1  6  1  0  0  0
  1 19  2  0  0  0
  2  3  2  0  0  0
  2 21  1  0  0  0
  3  4  1  0  0  0
  3 22  1  0  0  0
  4  5  2  0  0  0
  4 23  1  0  0  0
  5  7  1  0  0  0
  5 24  1  0  0  0
  6 13  1  0  0  0
  6 25  1  0  0  0
  7  8  1  0  0  0
  7 12  2  0  0  0
  8  9  2  0  0  0
  8 26  1  0  0  0
  9 10  1  0  0  0
  9 27  1  0  0  0
 10 11  2  0  0  0
 10 28  1  0  0  0
 11 12  1  0  0  0
 11 29  1  0  0  0
 12 30  1  0  0  0
 13 14  1  0  0  0
 13 18  2  0  0  0
 14 15  2  0  0  0
 14 31  1  0  0  0
 15 16  1  0  0  0
 15 20  1  0  0  0
 16 17  2  0  0  0
 16 32  1  0  0  0
 17 18  1  0  0  0
 17 33  1  0  0  0
 18 34  1  0  0  0
M  END
> <s_m_entry_id>
10113

> <s_m_entry_name>
dock_pv.149

> <s_m_Source_Path>
/home/csk/Desktop/cluster/DUD-E-result/aofb

> <s_m_Source_File>
dock_pv.maegz

> <i_m_Source_File_Index>
149

> <chembl_id>
CHEMBL1830136

> <chembl_pref_name>
None

> <i_lp_mmshare_version>
53161

> <i_f3d_flags>
0

> <r_lp_tautomer_probability>
1

> <s_lp_Force_Field>
OPLS_2005

> <r_lp_Energy>
17.945591

> <b_lp_Chiralities_Consistent>
1

> <s_lp_Variant>
CHEMBL2039_lig610-1

> <s_i_glide_gridfile>
glide-grid_1s3b

> <i_i_glide_lignum>
719

> <i_i_glide_rotatable_bonds>
5

> <r_i_docking_score>
-7.80090981233947

> <r_i_glide_ligand_efficiency>
-0.390045490616973

> <r_i_glide_ligand_efficiency_sa>
-1.05874634994688

> <r_i_glide_ligand_efficiency_ln>
-1.95231043480322

> <r_i_glide_gscore>
-7.80090981233947

> <r_i_glide_lipo>
-4.78284203253361

> <r_i_glide_hbond>
0

> <r_i_glide_metal>
0

> <r_i_glide_rewards>
-2.081239503214

> <r_i_glide_evdw>
-29.6994934082031

> <r_i_glide_ecoul>
0.245122760534286

> <r_i_glide_erotb>
0.522991599314913

> <r_i_glide_esite>
-0.0116136195767492

> <r_i_glide_emodel>
-33.3067699719357

> <r_i_glide_energy>
-29.4543706476688

> <r_i_glide_einternal>
6.11434078216553

> <i_i_glide_confnum>
3

> <i_i_glide_posenum>
109

> <r_i_glide_eff_state_penalty>
0

> <s_user_duplicate_titles>
CHEMBL2039_lig610

> <s_m_subgroup_title>
dock_pv

> <s_m_subgroupid>
dock_pv

> <b_m_subgroup_collapsed>
1

$$$$
CHEMBL2039_lig229
                    3D
 Schrodinger Suite 2021-1.
 37 40  0  0  1  0            999 V2000
   51.4961  153.1280   26.5300 C   0  0  0  0  0  0
   50.9181  153.8401   27.5502 O   0  0  0  0  0  0
   51.2998  155.1438   27.8079 C   0  0  0  0  0  0
   52.2054  155.8440   26.9918 C   0  0  0  0  0  0
   52.7177  155.1855   25.7547 C   0  0  0  0  0  0
   52.3806  153.8365   25.5539 C   0  0  0  0  0  0
   50.7036  155.7755   28.9040 C   0  0  0  0  0  0
   52.6583  157.0834   27.4297 C   0  0  0  0  0  0
   51.2560  151.9233   26.5040 O   0  0  0  0  0  0
   51.0052  157.1115   29.1923 C   0  0  0  0  0  0
   50.2272  157.7804   30.1040 O   0  0  0  0  0  0
   52.0560  157.7207   28.5040 C   0  0  0  0  0  0
   50.1327  159.2015   30.0234 C   0  0  0  0  0  0
   53.6560  155.7991   24.9124 C   0  0  0  0  0  0
   48.8397  159.5632   30.7120 C   0  0  0  0  0  0
   52.9578  153.1473   24.4846 C   0  0  0  0  0  0
   47.6424  159.1337   30.1381 C   0  0  0  0  0  0
   48.8473  160.2030   31.9533 C   0  0  0  0  0  0
   54.3693  155.0440   23.9943 C   0  0  0  0  0  0
   53.9290  153.7657   23.7033 C   0  0  0  0  0  0
   47.6560  160.3383   32.6577 C   0  0  0  0  0  0
   46.4560  159.2727   30.8403 C   0  0  0  0  0  0
   46.4772  159.8440   32.1040 C   0  0  0  0  0  0
   49.9455  155.2615   29.4755 H   0  0  0  0  0  0
   53.4461  157.6108   26.9184 H   0  0  0  0  0  0
   52.3889  158.7090   28.7749 H   0  0  0  0  0  0
   50.0915  159.5596   28.9920 H   0  0  0  0  0  0
   50.9914  159.6713   30.5060 H   0  0  0  0  0  0
   53.9508  156.8265   25.0460 H   0  0  0  0  0  0
   52.6997  152.1177   24.2814 H   0  0  0  0  0  0
   47.6371  158.6440   29.1764 H   0  0  0  0  0  0
   49.7719  160.5432   32.3962 H   0  0  0  0  0  0
   55.1507  155.5006   23.4050 H   0  0  0  0  0  0
   54.3742  153.2319   22.8790 H   0  0  0  0  0  0
   47.6527  160.7832   33.6419 H   0  0  0  0  0  0
   45.5278  158.9078   30.4247 H   0  0  0  0  0  0
   45.5658  159.8600   32.6712 H   0  0  0  0  0  0
  1  2  1  0  0  0
  1  6  1  0  0  0
  1  9  2  0  0  0
  2  3  1  0  0  0
  3  7  2  0  0  0
  3  4  1  0  0  0
  4  5  1  0  0  0
  4  8  2  0  0  0
  5  6  2  0  0  0
  5 14  1  0  0  0
  6 16  1  0  0  0
  7 10  1  0  0  0
  7 24  1  0  0  0
  8 12  1  0  0  0
  8 25  1  0  0  0
 10 11  1  0  0  0
 10 12  2  0  0  0
 11 13  1  0  0  0
 12 26  1  0  0  0
 13 15  1  0  0  0
 13 27  1  0  0  0
 13 28  1  0  0  0
 14 19  2  0  0  0
 14 29  1  0  0  0
 15 17  2  0  0  0
 15 18  1  0  0  0
 16 20  2  0  0  0
 16 30  1  0  0  0
 17 22  1  0  0  0
 17 31  1  0  0  0
 18 21  2  0  0  0
 18 32  1  0  0  0
 19 20  1  0  0  0
 19 33  1  0  0  0
 20 34  1  0  0  0
 21 23  1  0  0  0
 21 35  1  0  0  0
 22 23  2  0  0  0
 22 36  1  0  0  0
 23 37  1  0  0  0
M  END
> <s_m_entry_id>
10114

> <s_m_entry_name>
dock_pv.150

> <s_m_Source_Path>
/home/csk/Desktop/cluster/DUD-E-result/aofb

> <s_m_Source_File>
dock_pv.maegz

> <i_m_Source_File_Index>
150

> <chembl_id>
CHEMBL145292

> <chembl_pref_name>
None

> <i_lp_mmshare_version>
53161

> <i_f3d_flags>
0

> <r_lp_tautomer_probability>
1

> <s_lp_Force_Field>
OPLS_2005

> <r_lp_Energy>
28.542774

> <b_lp_Chiralities_Consistent>
1

> <s_lp_Variant>
CHEMBL2039_lig229-1

> <s_i_glide_gridfile>
glide-grid_1s3b

> <i_i_glide_lignum>
270

> <i_i_glide_rotatable_bonds>
3

> <r_i_docking_score>
-7.79774302295301

> <r_i_glide_ligand_efficiency>
-0.339032305345783

> <r_i_glide_ligand_efficiency_sa>
-0.964162777268117

> <r_i_glide_ligand_efficiency_ln>
-1.88556496897458

> <r_i_glide_gscore>
-7.79774302295301

> <r_i_glide_lipo>
-5.32409501248013

> <r_i_glide_hbond>
0

> <r_i_glide_metal>
0

> <r_i_glide_rewards>
-1.88624180038076

> <r_i_glide_evdw>
-22.7541618347168

> <r_i_glide_ecoul>
-0.359874188899994

> <r_i_glide_erotb>
0.604283009978718

> <r_i_glide_esite>
0

> <r_i_glide_emodel>
-22.4246671309315

> <r_i_glide_energy>
-23.1140360236168

> <r_i_glide_einternal>
3.74931144714355

> <i_i_glide_confnum>
9

> <i_i_glide_posenum>
45

> <r_i_glide_eff_state_penalty>
0

> <s_user_duplicate_titles>
CHEMBL2039_lig229

> <s_m_subgroup_title>
dock_pv

> <s_m_subgroupid>
dock_pv

> <b_m_subgroup_collapsed>
1

$$$$
CHEMBL2039_lig525
                    3D
 Schrodinger Suite 2021-1.
 35 37  0  0  1  0            999 V2000
   52.2703  153.0439   25.2660 C   0  0  0  0  0  0
   52.9352  154.1523   24.7515 C   0  0  0  0  0  0
   52.8791  155.3652   25.4327 C   0  0  0  0  0  0
   51.4605  153.1674   26.3933 C   0  0  0  0  0  0
   51.4040  154.3848   27.0664 C   0  0  0  0  0  0
   52.1768  155.4687   26.6444 C   0  0  0  0  0  0
   52.3759  156.6443   27.5287 C   0  0  0  0  0  0
   51.3899  156.7777   28.6144 C   0  0  0  0  0  0
   50.8373  155.4357   29.1266 C   0  0  0  0  0  0
   50.5097  154.4908   28.1047 O   0  0  0  0  0  0
   53.2798  157.4440   27.3129 O   0  0  0  0  0  0
   51.1068  158.0567   29.0099 C   0  0  0  0  0  0
   50.1277  158.6432   29.9725 C   0  0  0  0  0  0
   50.4316  159.8448   30.6379 C   0  0  0  0  0  0
   49.5199  160.4196   31.5260 C   0  0  0  0  0  0
   48.2832  159.8067   31.7755 C   0  0  0  0  0  0
   47.9652  158.6432   31.0901 C   0  0  0  0  0  0
   48.8770  158.0652   30.2153 C   0  0  0  0  0  0
   47.3408  160.2489   32.6776 O   0  0  0  0  0  0
   47.6646  161.3488   33.5076 C   0  0  0  0  0  0
   51.6558  160.4479   30.5006 O   0  0  0  0  0  0
   52.3597  152.0938   24.7613 H   0  0  0  0  0  0
   53.5328  154.0583   23.8564 H   0  0  0  0  0  0
   53.4705  156.1918   25.0624 H   0  0  0  0  0  0
   50.8865  152.3247   26.7452 H   0  0  0  0  0  0
   51.6089  154.9382   29.7040 H   0  0  0  0  0  0
   49.9730  155.5482   29.7725 H   0  0  0  0  0  0
   51.6475  158.8467   28.5038 H   0  0  0  0  0  0
   49.8085  161.3237   32.0417 H   0  0  0  0  0  0
   47.0099  158.1703   31.2612 H   0  0  0  0  0  0
   48.5767  157.1591   29.7120 H   0  0  0  0  0  0
   46.8563  161.5094   34.2188 H   0  0  0  0  0  0
   47.7774  162.2462   32.9036 H   0  0  0  0  0  0
   48.5776  161.1751   34.0802 H   0  0  0  0  0  0
   52.3413  159.8231   30.2464 H   0  0  0  0  0  0
  1  2  2  0  0  0
  1  4  1  0  0  0
  1 22  1  0  0  0
  2  3  1  0  0  0
  2 23  1  0  0  0
  3  6  2  0  0  0
  3 24  1  0  0  0
  4  5  2  0  0  0
  4 25  1  0  0  0
  5  6  1  0  0  0
  5 10  1  0  0  0
  6  7  1  0  0  0
  7 11  2  0  0  0
  7  8  1  0  0  0
  8 12  2  0  0  0
  8  9  1  0  0  0
  9 10  1  0  0  0
  9 26  1  0  0  0
  9 27  1  0  0  0
 12 13  1  0  0  0
 12 28  1  0  0  0
 13 14  2  0  0  0
 13 18  1  0  0  0
 14 15  1  0  0  0
 14 21  1  0  0  0
 15 16  2  0  0  0
 15 29  1  0  0  0
 16 17  1  0  0  0
 16 19  1  0  0  0
 17 18  2  0  0  0
 17 30  1  0  0  0
 18 31  1  0  0  0
 19 20  1  0  0  0
 20 32  1  0  0  0
 20 33  1  0  0  0
 20 34  1  0  0  0
 21 35  1  0  0  0
M  END
> <s_m_entry_id>
10115

> <s_m_entry_name>
dock_pv.151

> <s_m_Source_Path>
/home/csk/Desktop/cluster/DUD-E-result/aofb

> <s_m_Source_File>
dock_pv.maegz

> <i_m_Source_File_Index>
151

> <chembl_id>
CHEMBL1766562

> <chembl_pref_name>
None

> <i_lp_mmshare_version>
53161

> <i_f3d_flags>
0

> <r_lp_tautomer_probability>
1

> <s_lp_Force_Field>
OPLS_2005

> <r_lp_Energy>
24.029096

> <b_lp_Chiralities_Consistent>
1

> <s_lp_Variant>
CHEMBL2039_lig525-1

> <s_i_glide_gridfile>
glide-grid_1s3b

> <i_i_glide_lignum>
627

> <i_i_glide_rotatable_bonds>
3

> <r_i_docking_score>
-7.79671743602059

> <r_i_glide_ligand_efficiency>
-0.371272258858123

> <r_i_glide_ligand_efficiency_sa>
-1.02431200994379

> <r_i_glide_ligand_efficiency_ln>
-1.92772263130507

> <r_i_glide_gscore>
-7.79671743602059

> <r_i_glide_lipo>
-4.05326488052837

> <r_i_glide_hbond>
-0.0392480244185193

> <r_i_glide_metal>
0

> <r_i_glide_rewards>
-2.70997429709174

> <r_i_glide_evdw>
-25.4775409698486

> <r_i_glide_ecoul>
0.350804418325424

> <r_i_glide_erotb>
0.227026151761651

> <r_i_glide_esite>
0

> <r_i_glide_emodel>
-32.6744190574476

> <r_i_glide_energy>
-25.1267365515232

> <r_i_glide_einternal>
3.18304467201233

> <i_i_glide_confnum>
3

> <i_i_glide_posenum>
88

> <r_i_glide_eff_state_penalty>
0

> <s_user_duplicate_titles>
CHEMBL2039_lig525

> <s_m_subgroup_title>
dock_pv

> <s_m_subgroupid>
dock_pv

> <b_m_subgroup_collapsed>
1

$$$$
CHEMBL2039_lig563
                    3D
 Schrodinger Suite 2021-1.
 33 35  0  0  1  0            999 V2000
   53.2560  152.2436   24.0908 C   0  0  0  0  0  0
   53.4872  153.5569   23.6952 C   0  0  0  0  0  0
   53.0918  154.6176   24.5040 C   0  0  0  0  0  0
   52.6616  151.9791   25.3151 C   0  0  0  0  0  0
   52.2364  153.0385   26.1031 C   0  0  0  0  0  0
   52.4375  154.3690   25.7127 C   0  0  0  0  0  0
   52.0560  155.4767   26.6393 C   0  0  0  0  0  0
   51.4137  155.0340   27.8960 C   0  0  0  0  0  0
   51.2874  153.7028   28.1148 C   0  0  0  0  0  0
   51.6560  152.6998   27.2950 O   0  0  0  0  0  0
   52.3184  156.6440   26.3510 O   0  0  0  0  0  0
   50.8560  155.9216   28.9040 C   0  0  0  0  0  0
   50.0208  155.4940   29.7018 O   0  0  0  0  0  0
   51.2621  157.2191   28.9040 N   0  0  0  0  0  0
   50.7741  158.3170   29.6575 C   0  0  0  0  0  0
   49.4915  158.3708   30.2287 C   0  0  0  0  0  0
   49.1201  159.4440   31.0386 C   0  0  0  0  0  0
   50.0230  160.4725   31.3012 C   0  0  0  0  0  0
   51.2777  160.4684   30.6710 C   0  0  0  0  0  0
   51.6220  159.4177   29.8181 C   0  0  0  0  0  0
   49.6560  161.4440   32.2006 O   0  0  0  0  0  0
   52.2092  161.4491   30.9040 O   0  0  0  0  0  0
   53.5652  151.4314   23.4524 H   0  0  0  0  0  0
   53.9936  153.7466   22.7617 H   0  0  0  0  0  0
   53.3175  155.6292   24.1993 H   0  0  0  0  0  0
   52.5006  150.9630   25.6434 H   0  0  0  0  0  0
   50.8560  153.2746   29.0084 H   0  0  0  0  0  0
   52.0191  157.4331   28.2684 H   0  0  0  0  0  0
   48.7853  157.5648   30.1040 H   0  0  0  0  0  0
   48.1477  159.4479   31.5089 H   0  0  0  0  0  0
   52.6010  159.4096   29.3628 H   0  0  0  0  0  0
   50.3753  162.0200   32.4740 H   0  0  0  0  0  0
   52.2385  161.7476   31.8191 H   0  0  0  0  0  0
  1  2  2  0  0  0
  1  4  1  0  0  0
  1 23  1  0  0  0
  2  3  1  0  0  0
  2 24  1  0  0  0
  3  6  2  0  0  0
  3 25  1  0  0  0
  4  5  2  0  0  0
  4 26  1  0  0  0
  5  6  1  0  0  0
  5 10  1  0  0  0
  6  7  1  0  0  0
  7 11  2  0  0  0
  7  8  1  0  0  0
  8 12  1  0  0  0
  8  9  2  0  0  0
  9 10  1  0  0  0
  9 27  1  0  0  0
 12 13  2  0  0  0
 12 14  1  0  0  0
 14 15  1  0  0  0
 14 28  1  0  0  0
 15 16  2  0  0  0
 15 20  1  0  0  0
 16 17  1  0  0  0
 16 29  1  0  0  0
 17 18  2  0  0  0
 17 30  1  0  0  0
 18 19  1  0  0  0
 18 21  1  0  0  0
 19 20  2  0  0  0
 19 22  1  0  0  0
 20 31  1  0  0  0
 21 32  1  0  0  0
 22 33  1  0  0  0
M  END
> <s_m_entry_id>
10116

> <s_m_entry_name>
dock_pv.152

> <s_m_Source_Path>
/home/csk/Desktop/cluster/DUD-E-result/aofb

> <s_m_Source_File>
dock_pv.maegz

> <i_m_Source_File_Index>
152

> <chembl_id>
CHEMBL1814066

> <chembl_pref_name>
None

> <i_lp_mmshare_version>
53161

> <i_f3d_flags>
0

> <r_lp_tautomer_probability>
0.999999999999776

> <s_lp_Force_Field>
OPLS_2005

> <r_lp_Energy>
24.096032

> <b_lp_Chiralities_Consistent>
1

> <s_lp_Variant>
CHEMBL2039_lig563-1

> <s_i_glide_gridfile>
glide-grid_1s3b

> <i_i_glide_lignum>
666

> <i_i_glide_rotatable_bonds>
5

> <r_i_docking_score>
-7.79171028078078

> <r_i_glide_ligand_efficiency>
-0.354168649126399

> <r_i_glide_ligand_efficiency_sa>
-0.992394483514746

> <r_i_glide_ligand_efficiency_ln>
-1.90457820216082

> <r_i_glide_gscore>
-7.79171028078078

> <r_i_glide_lipo>
-3.54889226460886

> <r_i_glide_hbond>
-0.0113387880145122

> <r_i_glide_metal>
0

> <r_i_glide_rewards>
-2.47546207948579

> <r_i_glide_evdw>
-24.8443756103516

> <r_i_glide_ecoul>
-7.57466268539429

> <r_i_glide_erotb>
0.622401034655105

> <r_i_glide_esite>
0

> <r_i_glide_emodel>
-37.1378521458107

> <r_i_glide_energy>
-32.4190382957458

> <r_i_glide_einternal>
6.16275310516357

> <i_i_glide_confnum>
2

> <i_i_glide_posenum>
166

> <r_i_glide_eff_state_penalty>
0

> <s_user_duplicate_titles>
CHEMBL2039_lig563

> <s_m_subgroup_title>
dock_pv

> <s_m_subgroupid>
dock_pv

> <b_m_subgroup_collapsed>
1

$$$$
CHEMBL2039_lig209
                    3D
 Schrodinger Suite 2021-1.
 39 41  0  0  1  0            999 V2000
   51.7658  151.8615   26.1040 C   0  0  0  0  0  0
   53.0660  153.6207   24.9686 C   0  0  0  0  0  0
   52.7985  152.3027   25.1443 C   0  0  0  0  0  0
   47.9298  160.8431   32.9870 N   0  3  0  0  0  0
   51.2560  152.7981   26.9656 O   0  0  0  0  0  0
   51.6560  154.1143   26.9293 C   0  0  0  0  0  0
   52.4560  154.6172   25.8908 C   0  0  0  0  0  0
   51.2560  154.9120   28.0027 C   0  0  0  0  0  0
   48.7918  160.3003   31.9276 C   0  0  0  0  0  0
   52.8309  155.9631   25.9424 C   0  0  0  0  0  0
   46.7260  160.6440   32.9040 O   0  5  0  0  0  0
   48.4560  161.4440   33.9120 O   0  0  0  0  0  0
   51.2560  150.7415   26.2126 O   0  0  0  0  0  0
   51.6560  156.2440   28.0593 C   0  0  0  0  0  0
   48.3402  159.2237   31.1635 C   0  0  0  0  0  0
   50.0713  160.8244   31.7040 C   0  0  0  0  0  0
   51.1905  157.0258   29.0964 O   0  0  0  0  0  0
   52.4560  156.7453   27.0280 C   0  0  0  0  0  0
   54.1377  154.0984   23.9925 C   0  0  0  0  0  0
   50.4705  159.1347   30.0377 C   0  0  0  0  0  0
   51.4144  158.4396   29.0739 C   0  0  0  0  0  0
   53.4561  151.1541   24.3917 C   0  0  0  0  0  0
   49.1793  158.6436   30.2305 C   0  0  0  0  0  0
   50.9074  160.2475   30.7546 C   0  0  0  0  0  0
   50.6414  154.5009   28.7895 H   0  0  0  0  0  0
   53.4856  156.4136   25.2156 H   0  0  0  0  0  0
   47.3573  158.8019   31.3209 H   0  0  0  0  0  0
   50.4361  161.6592   32.2865 H   0  0  0  0  0  0
   52.8210  157.7576   27.0644 H   0  0  0  0  0  0
   54.1426  153.5192   23.0708 H   0  0  0  0  0  0
   54.0395  155.1358   23.7040 H   0  0  0  0  0  0
   55.1134  154.0013   24.4697 H   0  0  0  0  0  0
   51.2253  158.8813   28.1040 H   0  0  0  0  0  0
   52.4560  158.6514   29.3040 H   0  0  0  0  0  0
   53.6560  151.4364   23.3613 H   0  0  0  0  0  0
   54.3849  150.8952   24.9040 H   0  0  0  0  0  0
   52.8560  150.2457   24.3378 H   0  0  0  0  0  0
   48.8289  157.7727   29.7040 H   0  0  0  0  0  0
   51.9065  160.6356   30.6164 H   0  0  0  0  0  0
  1  3  1  0  0  0
  1  5  1  0  0  0
  1 13  2  0  0  0
  2  3  2  0  0  0
  2 19  1  0  0  0
  2  7  1  0  0  0
  3 22  1  0  0  0
  4  9  1  0  0  0
  4 11  1  0  0  0
  4 12  2  0  0  0
  5  6  1  0  0  0
  6  7  1  0  0  0
  6  8  2  0  0  0
  7 10  2  0  0  0
  8 14  1  0  0  0
  8 25  1  0  0  0
  9 16  2  0  0  0
  9 15  1  0  0  0
 10 18  1  0  0  0
 10 26  1  0  0  0
 14 17  1  0  0  0
 14 18  2  0  0  0
 15 23  2  0  0  0
 15 27  1  0  0  0
 16 24  1  0  0  0
 16 28  1  0  0  0
 17 21  1  0  0  0
 18 29  1  0  0  0
 19 30  1  0  0  0
 19 31  1  0  0  0
 19 32  1  0  0  0
 20 21  1  0  0  0
 20 23  1  0  0  0
 20 24  2  0  0  0
 21 33  1  0  0  0
 21 34  1  0  0  0
 22 35  1  0  0  0
 22 36  1  0  0  0
 22 37  1  0  0  0
 23 38  1  0  0  0
 24 39  1  0  0  0
M  CHG  2   4   1  11  -1
M  END
> <s_m_entry_id>
10117

> <s_m_entry_name>
dock_pv.153

> <s_m_Source_Path>
/home/csk/Desktop/cluster/DUD-E-result/aofb

> <s_m_Source_File>
dock_pv.maegz

> <i_m_Source_File_Index>
153

> <chembl_id>
CHEMBL142582

> <chembl_pref_name>
None

> <i_lp_mmshare_version>
53161

> <i_f3d_flags>
0

> <r_lp_tautomer_probability>
1

> <s_lp_Force_Field>
OPLS_2005

> <r_lp_Energy>
31.260913

> <b_lp_Chiralities_Consistent>
1

> <s_lp_Variant>
CHEMBL2039_lig209-1

> <s_i_glide_gridfile>
glide-grid_1s3b

> <i_i_glide_lignum>
250

> <i_i_glide_rotatable_bonds>
4

> <r_i_docking_score>
-7.78973879902669

> <r_i_glide_ligand_efficiency>
-0.324572449959445

> <r_i_glide_ligand_efficiency_sa>
-0.93622895198347

> <r_i_glide_ligand_efficiency_ln>
-1.86444194242896

> <r_i_glide_gscore>
-7.78973879902669

> <r_i_glide_lipo>
-4.44566718309022

> <r_i_glide_hbond>
0

> <r_i_glide_metal>
0

> <r_i_glide_rewards>
-2.54012388909188

> <r_i_glide_evdw>
-22.6956367492676

> <r_i_glide_ecoul>
-1.33588302135468

> <r_i_glide_erotb>
0.531216563821993

> <r_i_glide_esite>
0

> <r_i_glide_emodel>
-30.7939264981791

> <r_i_glide_energy>
-24.0315197706223

> <r_i_glide_einternal>
2.14728593826294

> <i_i_glide_confnum>
11

> <i_i_glide_posenum>
231

> <r_i_glide_eff_state_penalty>
0

> <s_user_duplicate_titles>
CHEMBL2039_lig209

> <s_m_subgroup_title>
dock_pv

> <s_m_subgroupid>
dock_pv

> <b_m_subgroup_collapsed>
1

$$$$
CHEMBL2039_lig510
                    3D
 Schrodinger Suite 2021-1.
 28 29  0  0  1  0            999 V2000
   49.2280  159.0447   30.5528 C   0  0  0  0  0  0
   50.4646  158.7524   29.9667 C   0  0  0  0  0  0
   51.5157  159.6648   30.1039 C   0  0  0  0  0  0
   49.0715  160.1885   31.3349 C   0  0  0  0  0  0
   50.1541  161.0440   31.5343 C   0  0  0  0  0  0
   51.3728  160.7910   30.9056 C   0  0  0  0  0  0
   52.4619  161.6326   31.1103 N   0  0  0  0  0  0
   50.6565  157.4517   29.3041 C   0  0  0  0  0  0
   51.6559  157.0838   28.4783 C   0  0  0  0  0  0
   51.6946  155.7812   27.7916 C   0  0  0  0  0  0
   52.0806  155.7520   26.4478 C   0  0  0  0  0  0
   52.0561  154.5569   25.7330 C   0  0  0  0  0  0
   51.6557  153.3855   26.3700 C   0  0  0  0  0  0
   51.2570  153.4048   27.7045 C   0  0  0  0  0  0
   51.2702  154.6024   28.4149 C   0  0  0  0  0  0
   48.3972  158.3613   30.4478 H   0  0  0  0  0  0
   52.4777  159.4484   29.6669 H   0  0  0  0  0  0
   48.1243  160.3940   31.8112 H   0  0  0  0  0  0
   50.0425  161.9089   32.1706 H   0  0  0  0  0  0
   53.3654  161.2340   30.9011 H   0  0  0  0  0  0
   52.3968  162.2222   31.9339 H   0  0  0  0  0  0
   49.8919  156.7173   29.5136 H   0  0  0  0  0  0
   52.4685  157.7628   28.2626 H   0  0  0  0  0  0
   52.3899  156.6587   25.9489 H   0  0  0  0  0  0
   52.3598  154.5357   24.6965 H   0  0  0  0  0  0
   51.6564  152.4535   25.8248 H   0  0  0  0  0  0
   50.9441  152.4925   28.1909 H   0  0  0  0  0  0
   50.9625  154.6040   29.4507 H   0  0  0  0  0  0
  1  2  2  0  0  0
  1  4  1  0  0  0
  1 16  1  0  0  0
  2  8  1  0  0  0
  2  3  1  0  0  0
  3  6  2  0  0  0
  3 17  1  0  0  0
  4  5  2  0  0  0
  4 18  1  0  0  0
  5  6  1  0  0  0
  5 19  1  0  0  0
  6  7  1  0  0  0
  7 20  1  0  0  0
  7 21  1  0  0  0
  8  9  2  0  0  0
  8 22  1  0  0  0
  9 10  1  0  0  0
  9 23  1  0  0  0
 10 11  2  0  0  0
 10 15  1  0  0  0
 11 12  1  0  0  0
 11 24  1  0  0  0
 12 13  2  0  0  0
 12 25  1  0  0  0
 13 14  1  0  0  0
 13 26  1  0  0  0
 14 15  2  0  0  0
 14 27  1  0  0  0
 15 28  1  0  0  0
M  END
> <s_m_entry_id>
10118

> <s_m_entry_name>
dock_pv.154

> <s_m_Source_Path>
/home/csk/Desktop/cluster/DUD-E-result/aofb

> <s_m_Source_File>
dock_pv.maegz

> <i_m_Source_File_Index>
154

> <chembl_id>
CHEMBL1642686

> <chembl_pref_name>
None

> <i_lp_mmshare_version>
53161

> <i_f3d_flags>
0

> <r_lp_tautomer_probability>
1

> <s_lp_Force_Field>
OPLS_2005

> <r_lp_Energy>
15.483832

> <b_lp_Chiralities_Consistent>
1

> <s_lp_Variant>
CHEMBL2039_lig510-1

> <s_i_glide_gridfile>
glide-grid_1s3b

> <i_i_glide_lignum>
609

> <i_i_glide_rotatable_bonds>
2

> <r_i_docking_score>
-7.7849240641052

> <r_i_glide_ligand_efficiency>
-0.518994937607014

> <r_i_glide_ligand_efficiency_sa>
-1.27995158048741

> <r_i_glide_ligand_efficiency_ln>
-2.09946566036003

> <r_i_glide_gscore>
-7.7849240641052

> <r_i_glide_lipo>
-3.68913854687836

> <r_i_glide_hbond>
-0.32

> <r_i_glide_metal>
0

> <r_i_glide_rewards>
-2.95277463636364

> <r_i_glide_evdw>
-25.6600875854492

> <r_i_glide_ecoul>
-2.59952521324158

> <r_i_glide_erotb>
0.849922280395487

> <r_i_glide_esite>
0

> <r_i_glide_emodel>
-37.2415800338742

> <r_i_glide_energy>
-28.2596127986908

> <r_i_glide_einternal>
1.83155846595764

> <i_i_glide_confnum>
2

> <i_i_glide_posenum>
368

> <r_i_glide_eff_state_penalty>
0

> <s_user_duplicate_titles>
CHEMBL2039_lig510

> <s_m_subgroup_title>
dock_pv

> <s_m_subgroupid>
dock_pv

> <b_m_subgroup_collapsed>
1

$$$$
CHEMBL2039_lig69
                    3D
 Schrodinger Suite 2021-1.
 33 35  0  0  1  0            999 V2000
   50.6786  158.8436   29.7040 C   0  0  0  0  0  0
   49.6392  159.4515   30.6360 C   0  0  0  0  0  0
   48.3355  158.9453   30.6841 C   0  0  0  0  0  0
   47.4098  159.4885   31.5743 C   0  0  0  0  0  0
   47.7935  160.5286   32.4187 C   0  0  0  0  0  0
   49.0837  161.0440   32.3637 C   0  0  0  0  0  0
   50.0029  160.5177   31.4625 C   0  0  0  0  0  0
   52.3854  157.2730   28.0533 C   0  0  0  0  0  0
   51.3353  156.7035   28.7867 C   0  0  0  0  0  0
   50.9697  155.3854   28.5046 C   0  0  0  0  0  0
   52.8560  156.6502   26.9027 C   0  0  0  0  0  0
   52.3533  155.4159   26.5040 C   0  0  0  0  0  0
   51.5050  154.7327   27.3923 C   0  0  0  0  0  0
   51.0674  153.4439   27.1589 O   0  0  0  0  0  0
   51.9084  152.6786   26.2855 C   0  0  0  0  0  0
   52.1093  153.4440   24.9624 C   0  0  0  0  0  0
   52.8311  154.7525   25.2585 C   0  0  0  0  0  0
   53.7323  155.2102   24.5542 O   0  0  0  0  0  0
   50.5839  157.4145   29.7040 O   0  0  0  0  0  0
   46.9112  161.0436   33.3030 F   0  0  0  0  0  0
   50.5158  159.2464   28.7022 H   0  0  0  0  0  0
   51.6784  159.1389   30.0298 H   0  0  0  0  0  0
   48.0453  158.1247   30.0449 H   0  0  0  0  0  0
   46.4037  159.1000   31.6220 H   0  0  0  0  0  0
   49.3764  161.8440   33.0264 H   0  0  0  0  0  0
   51.0072  160.9181   31.4382 H   0  0  0  0  0  0
   52.7779  158.2442   28.2961 H   0  0  0  0  0  0
   50.2170  154.8962   29.1040 H   0  0  0  0  0  0
   53.6143  157.1441   26.3159 H   0  0  0  0  0  0
   52.8699  152.4771   26.7608 H   0  0  0  0  0  0
   51.4355  151.7134   26.1043 H   0  0  0  0  0  0
   52.7030  152.8405   24.2752 H   0  0  0  0  0  0
   51.1230  153.6688   24.5664 H   0  0  0  0  0  0
  1  2  1  0  0  0
  1 19  1  0  0  0
  1 21  1  0  0  0
  1 22  1  0  0  0
  2  3  2  0  0  0
  2  7  1  0  0  0
  3  4  1  0  0  0
  3 23  1  0  0  0
  4  5  2  0  0  0
  4 24  1  0  0  0
  5  6  1  0  0  0
  5 20  1  0  0  0
  6  7  2  0  0  0
  6 25  1  0  0  0
  7 26  1  0  0  0
  8  9  2  0  0  0
  8 11  1  0  0  0
  8 27  1  0  0  0
  9 10  1  0  0  0
  9 19  1  0  0  0
 10 13  2  0  0  0
 10 28  1  0  0  0
 11 12  2  0  0  0
 11 29  1  0  0  0
 12 13  1  0  0  0
 12 17  1  0  0  0
 13 14  1  0  0  0
 14 15  1  0  0  0
 15 16  1  0  0  0
 15 30  1  0  0  0
 15 31  1  0  0  0
 16 17  1  0  0  0
 16 32  1  0  0  0
 16 33  1  0  0  0
 17 18  2  0  0  0
M  END
> <s_m_entry_id>
10119

> <s_m_entry_name>
dock_pv.155

> <s_m_Source_Path>
/home/csk/Desktop/cluster/DUD-E-result/aofb

> <s_m_Source_File>
dock_pv.maegz

> <i_m_Source_File_Index>
155

> <chembl_id>
CHEMBL1682819

> <chembl_pref_name>
None

> <i_lp_mmshare_version>
53161

> <i_f3d_flags>
0

> <r_lp_tautomer_probability>
0.99995

> <s_lp_Force_Field>
OPLS_2005

> <r_lp_Energy>
22.569341

> <b_lp_Chiralities_Consistent>
1

> <s_lp_Variant>
CHEMBL2039_lig69-1

> <s_i_glide_gridfile>
glide-grid_1s3b

> <i_i_glide_lignum>
92

> <i_i_glide_rotatable_bonds>
3

> <r_i_docking_score>
-7.78221166245642

> <r_i_glide_ligand_efficiency>
-0.389110583122821

> <r_i_glide_ligand_efficiency_sa>
-1.0562086205774

> <r_i_glide_ligand_efficiency_ln>
-1.94763090459375

> <r_i_glide_gscore>
-7.78221166245642

> <r_i_glide_lipo>
-3.86888659402435

> <r_i_glide_hbond>
0

> <r_i_glide_metal>
0

> <r_i_glide_rewards>
-3.09365631713471

> <r_i_glide_evdw>
-28.2617664337158

> <r_i_glide_ecoul>
-0.878189861774445

> <r_i_glide_erotb>
0.725148049654601

> <r_i_glide_esite>
0

> <r_i_glide_emodel>
-36.4018021470445

> <r_i_glide_energy>
-29.1399562954903

> <r_i_glide_einternal>
2.98986601829529

> <i_i_glide_confnum>
16

> <i_i_glide_posenum>
209

> <r_i_glide_eff_state_penalty>
0

> <s_user_duplicate_titles>
CHEMBL2039_lig69

> <s_m_subgroup_title>
dock_pv

> <s_m_subgroupid>
dock_pv

> <b_m_subgroup_collapsed>
1

$$$$
CHEMBL2039_lig1735
                    3D
 Schrodinger Suite 2021-1.
 31 33  0  0  1  0            999 V2000
   51.3957  154.6862   27.8800 C   0  0  0  0  0  0
   51.5159  156.1112   28.1868 C   0  0  0  0  0  0
   52.4548  156.7169   27.1559 C   0  0  0  0  0  0
   52.5974  155.6343   26.1064 C   0  0  0  0  0  0
   53.3482  155.5854   24.9291 C   0  0  0  0  0  0
   53.5417  154.3515   24.3003 C   0  0  0  0  0  0
   52.8660  153.2104   24.7244 C   0  0  0  0  0  0
   52.0568  153.2743   25.8523 C   0  0  0  0  0  0
   51.9851  154.4734   26.5593 C   0  0  0  0  0  0
   50.8561  153.8468   28.5823 O   0  0  0  0  0  0
   50.7857  156.6535   29.1983 C   0  0  0  0  0  0
   50.6450  158.0456   29.7039 C   0  0  0  0  0  0
   49.4331  158.4072   30.3126 C   0  0  0  0  0  0
   49.2655  159.6651   30.8941 C   0  0  0  0  0  0
   50.3130  160.5862   30.8478 C   0  0  0  0  0  0
   51.4990  160.2613   30.1907 C   0  0  0  0  0  0
   51.6553  159.0059   29.6019 C   0  0  0  0  0  0
   54.4560  154.2438   23.3009 O   0  0  0  0  0  0
   48.0227  159.9897   31.5777 C   0  0  0  0  0  0
   47.0343  160.2437   32.1219 N   0  0  0  0  0  0
   52.0559  157.6401   26.7604 H   0  0  0  0  0  0
   53.4180  156.9643   27.6036 H   0  0  0  0  0  0
   53.8975  156.4492   24.5864 H   0  0  0  0  0  0
   53.0014  152.2682   24.2140 H   0  0  0  0  0  0
   51.5764  152.3765   26.2153 H   0  0  0  0  0  0
   50.1711  155.9581   29.7520 H   0  0  0  0  0  0
   48.6332  157.6811   30.3717 H   0  0  0  0  0  0
   50.2212  161.5477   31.3295 H   0  0  0  0  0  0
   52.3083  160.9747   30.1594 H   0  0  0  0  0  0
   52.5890  158.7579   29.1203 H   0  0  0  0  0  0
   54.7742  153.3365   23.2114 H   0  0  0  0  0  0
  1  2  1  0  0  0
  1  9  1  0  0  0
  1 10  2  0  0  0
  2  3  1  0  0  0
  2 11  2  0  0  0
  3  4  1  0  0  0
  3 21  1  0  0  0
  3 22  1  0  0  0
  4  5  1  0  0  0
  4  9  2  0  0  0
  5  6  2  0  0  0
  5 23  1  0  0  0
  6  7  1  0  0  0
  6 18  1  0  0  0
  7  8  2  0  0  0
  7 24  1  0  0  0
  8  9  1  0  0  0
  8 25  1  0  0  0
 11 12  1  0  0  0
 11 26  1  0  0  0
 12 13  1  0  0  0
 12 17  2  0  0  0
 13 14  2  0  0  0
 13 27  1  0  0  0
 14 15  1  0  0  0
 14 19  1  0  0  0
 15 16  2  0  0  0
 15 28  1  0  0  0
 16 17  1  0  0  0
 16 29  1  0  0  0
 17 30  1  0  0  0
 18 31  1  0  0  0
 19 20  3  0  0  0
M  END
> <s_m_entry_id>
10120

> <s_m_entry_name>
dock_pv.156

> <s_m_Source_Path>
/home/csk/Desktop/cluster/DUD-E-result/aofb

> <s_m_Source_File>
dock_pv.maegz

> <i_m_Source_File_Index>
156

> <chembl_id>
CHEMBL3971638

> <chembl_pref_name>
None

> <i_lp_mmshare_version>
53161

> <i_f3d_flags>
0

> <r_lp_tautomer_probability>
1

> <s_lp_Force_Field>
OPLS_2005

> <r_lp_Energy>
25.051487

> <b_lp_Chiralities_Consistent>
1

> <s_lp_Variant>
CHEMBL2039_lig1735-1

> <s_i_glide_gridfile>
glide-grid_1s3b

> <i_i_glide_lignum>
2023

> <i_i_glide_rotatable_bonds>
2

> <r_i_docking_score>
-7.78054209765753

> <r_i_glide_ligand_efficiency>
-0.389027104882877

> <r_i_glide_ligand_efficiency_sa>
-1.05598202577251

> <r_i_glide_ligand_efficiency_ln>
-1.94721306759053

> <r_i_glide_gscore>
-7.78054209765753

> <r_i_glide_lipo>
-3.19018050841219

> <r_i_glide_hbond>
-0.32

> <r_i_glide_metal>
0

> <r_i_glide_rewards>
-2.79657867907774

> <r_i_glide_evdw>
-24.3215980529785

> <r_i_glide_ecoul>
-3.44839334487915

> <r_i_glide_erotb>
0.259555994213202

> <r_i_glide_esite>
0

> <r_i_glide_emodel>
-30.084275627858

> <r_i_glide_energy>
-27.7699913978577

> <r_i_glide_einternal>
1.82983338832855

> <i_i_glide_confnum>
2

> <i_i_glide_posenum>
167

> <r_i_glide_eff_state_penalty>
0

> <s_user_duplicate_titles>
CHEMBL2039_lig1735

> <s_m_subgroup_title>
dock_pv

> <s_m_subgroupid>
dock_pv

> <b_m_subgroup_collapsed>
1

$$$$
CHEMBL2039_lig217
                    3D
 Schrodinger Suite 2021-1.
 37 39  0  0  1  0            999 V2000
   51.6353  152.6761   26.4818 C   0  0  0  0  0  0
   52.7239  154.6746   25.5211 C   0  0  0  0  0  0
   52.4458  153.3495   25.4349 C   0  0  0  0  0  0
   51.1794  153.4440   27.5298 O   0  0  0  0  0  0
   51.4918  154.7827   27.6476 C   0  0  0  0  0  0
   52.2885  155.4440   26.7068 C   0  0  0  0  0  0
   50.9514  155.4695   28.7300 C   0  0  0  0  0  0
   52.7185  156.7393   26.9979 C   0  0  0  0  0  0
   51.2560  151.5067   26.5040 O   0  0  0  0  0  0
   51.2448  156.8227   28.9040 C   0  0  0  0  0  0
   50.4560  157.5117   29.8011 O   0  0  0  0  0  0
   52.2194  157.4202   28.1040 C   0  0  0  0  0  0
   53.5891  155.4048   24.5040 C   0  0  0  0  0  0
   49.2978  160.0184   31.7451 C   0  0  0  0  0  0
   48.1979  160.3333   32.5441 C   0  0  0  0  0  0
   50.3380  158.9327   29.7040 C   0  0  0  0  0  0
   49.1247  159.3771   30.5158 C   0  0  0  0  0  0
   52.9864  152.4281   24.3424 C   0  0  0  0  0  0
   48.4323  161.0440   34.0979 Cl  0  0  0  0  0  0
   46.7213  159.4440   30.8569 C   0  0  0  0  0  0
   46.9094  160.0460   32.0985 C   0  0  0  0  0  0
   47.8241  159.1115   30.0689 C   0  0  0  0  0  0
   50.2542  154.9779   29.3916 H   0  0  0  0  0  0
   53.4314  157.2424   26.3688 H   0  0  0  0  0  0
   52.5200  158.4387   28.2814 H   0  0  0  0  0  0
   53.8521  154.7602   23.6717 H   0  0  0  0  0  0
   53.0606  156.2803   24.1252 H   0  0  0  0  0  0
   54.5376  155.7425   24.9040 H   0  0  0  0  0  0
   50.2923  160.2406   32.1039 H   0  0  0  0  0  0
   50.2054  159.2612   28.6716 H   0  0  0  0  0  0
   51.2475  159.4063   30.0786 H   0  0  0  0  0  0
   52.5080  152.6528   23.3898 H   0  0  0  0  0  0
   54.0560  152.5881   24.2260 H   0  0  0  0  0  0
   52.8560  151.3637   24.5449 H   0  0  0  0  0  0
   45.7213  159.2271   30.5087 H   0  0  0  0  0  0
   46.0560  160.2852   32.7146 H   0  0  0  0  0  0
   47.6560  158.6440   29.1115 H   0  0  0  0  0  0
  1  3  1  0  0  0
  1  4  1  0  0  0
  1  9  2  0  0  0
  2  3  2  0  0  0
  2 13  1  0  0  0
  2  6  1  0  0  0
  3 18  1  0  0  0
  4  5  1  0  0  0
  5  6  2  0  0  0
  5  7  1  0  0  0
  6  8  1  0  0  0
  7 10  2  0  0  0
  7 23  1  0  0  0
  8 12  2  0  0  0
  8 24  1  0  0  0
 10 11  1  0  0  0
 10 12  1  0  0  0
 11 16  1  0  0  0
 12 25  1  0  0  0
 13 26  1  0  0  0
 13 27  1  0  0  0
 13 28  1  0  0  0
 14 17  1  0  0  0
 14 15  2  0  0  0
 14 29  1  0  0  0
 15 19  1  0  0  0
 15 21  1  0  0  0
 16 17  1  0  0  0
 16 30  1  0  0  0
 16 31  1  0  0  0
 17 22  2  0  0  0
 18 32  1  0  0  0
 18 33  1  0  0  0
 18 34  1  0  0  0
 20 22  1  0  0  0
 20 21  2  0  0  0
 20 35  1  0  0  0
 21 36  1  0  0  0
 22 37  1  0  0  0
M  END
> <s_m_entry_id>
10121

> <s_m_entry_name>
dock_pv.157

> <s_m_Source_Path>
/home/csk/Desktop/cluster/DUD-E-result/aofb

> <s_m_Source_File>
dock_pv.maegz

> <i_m_Source_File_Index>
157

> <chembl_id>
CHEMBL109018

> <chembl_pref_name>
None

> <i_lp_mmshare_version>
53161

> <i_f3d_flags>
0

> <r_lp_tautomer_probability>
1

> <s_lp_Force_Field>
OPLS_2005

> <r_lp_Energy>
28.681289

> <b_lp_Chiralities_Consistent>
1

> <s_lp_Variant>
CHEMBL2039_lig217-1

> <s_i_glide_gridfile>
glide-grid_1s3b

> <i_i_glide_lignum>
258

> <i_i_glide_rotatable_bonds>
3

> <r_i_docking_score>
-7.771095395763

> <r_i_glide_ligand_efficiency>
-0.353231608898318

> <r_i_glide_ligand_efficiency_sa>
-0.989768859943963

> <r_i_glide_ligand_efficiency_ln>
-1.89953917231627

> <r_i_glide_gscore>
-7.771095395763

> <r_i_glide_lipo>
-4.92629197284564

> <r_i_glide_hbond>
0

> <r_i_glide_metal>
0

> <r_i_glide_rewards>
-1.97778283121801

> <r_i_glide_evdw>
-29.2240543365479

> <r_i_glide_ecoul>
0.207913398742676

> <r_i_glide_erotb>
0.562995115316641

> <r_i_glide_esite>
0

> <r_i_glide_emodel>
-33.1024204122878

> <r_i_glide_energy>
-29.0161409378052

> <r_i_glide_einternal>
2.91853713989258

> <i_i_glide_confnum>
15

> <i_i_glide_posenum>
98

> <r_i_glide_eff_state_penalty>
0

> <s_user_duplicate_titles>
CHEMBL2039_lig217,178287

> <s_m_subgroup_title>
dock_pv

> <s_m_subgroupid>
dock_pv

> <b_m_subgroup_collapsed>
1

$$$$
CHEMBL2039_lig2705
                    3D
 Schrodinger Suite 2021-1.
 30 32  0  0  1  0            999 V2000
   51.2937  160.7883   31.0450 C   0  0  0  0  0  0
   51.7936  159.8851   30.1046 C   0  0  0  0  0  0
   51.0296  158.8015   29.6508 C   0  0  0  0  0  0
   49.7040  158.6795   30.1040 C   0  0  0  0  0  0
   49.9953  160.6210   31.5164 C   0  0  0  0  0  0
   49.2049  159.5922   31.0358 C   0  0  0  0  0  0
   47.9108  159.6956   31.7026 C   0  0  0  0  0  0
   48.0834  160.8753   32.7130 C   0  0  0  0  0  0
   49.3261  161.3360   32.4994 N   0  0  0  0  0  0
   46.8780  159.0386   31.5750 O   0  0  0  0  0  0
   47.2562  161.2762   33.5283 O   0  0  0  0  0  0
   51.6558  157.8249   28.7216 C   0  0  0  0  0  0
   51.2561  156.5464   28.5258 C   0  0  0  0  0  0
   51.7221  155.6042   27.4786 C   0  0  0  0  0  0
   51.3483  154.2546   27.5492 C   0  0  0  0  0  0
   51.6470  153.3784   26.5032 C   0  0  0  0  0  0
   52.3282  153.8330   25.3751 C   0  0  0  0  0  0
   52.7359  155.1631   25.3041 C   0  0  0  0  0  0
   52.4456  156.0359   26.3546 C   0  0  0  0  0  0
   51.2565  152.0871   26.5719 F   0  0  0  0  0  0
   51.9271  161.5794   31.4196 H   0  0  0  0  0  0
   52.8176  159.9884   29.7773 H   0  0  0  0  0  0
   49.0822  157.8661   29.7676 H   0  0  0  0  0  0
   49.7574  162.0671   33.0458 H   0  0  0  0  0  0
   52.4668  158.2144   28.1236 H   0  0  0  0  0  0
   50.4662  156.1647   29.1559 H   0  0  0  0  0  0
   50.7962  153.8818   28.3996 H   0  0  0  0  0  0
   52.5533  153.1501   24.5694 H   0  0  0  0  0  0
   53.2886  155.5163   24.4483 H   0  0  0  0  0  0
   52.7630  157.0581   26.2636 H   0  0  0  0  0  0
  1  2  2  0  0  0
  1  5  1  0  0  0
  1 21  1  0  0  0
  2  3  1  0  0  0
  2 22  1  0  0  0
  3 12  1  0  0  0
  3  4  2  0  0  0
  4  6  1  0  0  0
  4 23  1  0  0  0
  5  6  2  0  0  0
  5  9  1  0  0  0
  6  7  1  0  0  0
  7 10  2  0  0  0
  7  8  1  0  0  0
  8 11  2  0  0  0
  8  9  1  0  0  0
  9 24  1  0  0  0
 12 13  2  0  0  0
 12 25  1  0  0  0
 13 14  1  0  0  0
 13 26  1  0  0  0
 14 15  2  0  0  0
 14 19  1  0  0  0
 15 16  1  0  0  0
 15 27  1  0  0  0
 16 17  2  0  0  0
 16 20  1  0  0  0
 17 18  1  0  0  0
 17 28  1  0  0  0
 18 19  2  0  0  0
 18 29  1  0  0  0
 19 30  1  0  0  0
M  END
> <s_m_entry_id>
10122

> <s_m_entry_name>
dock_pv.158

> <s_m_Source_Path>
/home/csk/Desktop/cluster/DUD-E-result/aofb

> <s_m_Source_File>
dock_pv.maegz

> <i_m_Source_File_Index>
158

> <chembl_id>
CHEMBL506301

> <chembl_pref_name>
None

> <i_lp_mmshare_version>
53161

> <i_f3d_flags>
0

> <r_lp_tautomer_probability>
1

> <s_lp_Force_Field>
OPLS_2005

> <r_lp_Energy>
35.446258

> <b_lp_Chiralities_Consistent>
1

> <s_lp_Variant>
CHEMBL2039_lig2705-1

> <s_i_glide_gridfile>
glide-grid_1s3b

> <i_i_glide_lignum>
3136

> <i_i_glide_rotatable_bonds>
2

> <r_i_docking_score>
-7.76500751660371

> <r_i_glide_ligand_efficiency>
-0.388250375830186

> <r_i_glide_ligand_efficiency_sa>
-1.05387365875067

> <r_i_glide_ligand_efficiency_ln>
-1.94332527431753

> <r_i_glide_gscore>
-7.76500751660371

> <r_i_glide_lipo>
-3.06281122835301

> <r_i_glide_hbond>
-0.0519175859326362

> <r_i_glide_metal>
0

> <r_i_glide_rewards>
-2.93255181026825

> <r_i_glide_evdw>
-36.8469200134277

> <r_i_glide_ecoul>
-2.4974308013916

> <r_i_glide_erotb>
0.499233728830315

> <r_i_glide_esite>
0

> <r_i_glide_emodel>
-53.2156093812746

> <r_i_glide_energy>
-39.3443508148193

> <r_i_glide_einternal>
2.72584462165833

> <i_i_glide_confnum>
6

> <i_i_glide_posenum>
58

> <r_i_glide_eff_state_penalty>
0

> <s_user_duplicate_titles>
CHEMBL2039_lig2705,481055

> <s_m_subgroup_title>
dock_pv

> <s_m_subgroupid>
dock_pv

> <b_m_subgroup_collapsed>
1

$$$$
CHEMBL2039_lig127
                    3D
 Schrodinger Suite 2021-1.
 31 33  0  0  1  0            999 V2000
   52.4108  156.3103   26.5303 C   0  0  0  0  0  0
   51.8304  155.6503   27.5610 C   0  0  0  0  0  0
   51.6560  154.1776   27.4612 C   0  0  0  0  0  0
   52.1499  153.5908   26.1875 C   0  0  0  0  0  0
   52.2231  152.2042   26.0204 C   0  0  0  0  0  0
   52.8560  151.6573   24.9040 C   0  0  0  0  0  0
   53.2560  152.4949   23.8725 C   0  0  0  0  0  0
   53.2526  153.8699   24.0504 C   0  0  0  0  0  0
   52.7183  154.4135   25.2090 C   0  0  0  0  0  0
   52.8359  155.7742   25.3638 O   0  0  0  0  0  0
   51.2560  156.3753   28.6787 C   0  0  0  0  0  0
   50.3340  155.8571   29.3040 O   0  0  0  0  0  0
   51.6395  157.6660   28.9040 N   0  0  0  0  0  0
   51.2560  153.4312   28.3521 O   0  0  0  0  0  0
   50.9689  158.6438   29.7040 C   0  0  0  0  0  0
   49.6208  158.5595   30.1040 C   0  0  0  0  0  0
   49.0346  159.5495   30.8923 C   0  0  0  0  0  0
   49.7894  160.6440   31.3040 C   0  0  0  0  0  0
   51.1200  160.7560   30.9095 C   0  0  0  0  0  0
   51.6907  159.7751   30.1017 C   0  0  0  0  0  0
   47.3793  159.4106   31.3643 Cl  0  0  0  0  0  0
   52.5386  157.3828   26.5040 H   0  0  0  0  0  0
   51.8008  151.5377   26.7599 H   0  0  0  0  0  0
   52.9147  150.5848   24.7867 H   0  0  0  0  0  0
   53.6560  152.0787   22.9616 H   0  0  0  0  0  0
   53.6936  154.5064   23.3040 H   0  0  0  0  0  0
   52.5326  157.9524   28.5340 H   0  0  0  0  0  0
   48.9992  157.7270   29.8257 H   0  0  0  0  0  0
   49.3483  161.4057   31.9302 H   0  0  0  0  0  0
   51.7100  161.5996   31.2382 H   0  0  0  0  0  0
   52.7300  159.8672   29.8227 H   0  0  0  0  0  0
  1  2  2  0  0  0
  1 10  1  0  0  0
  1 22  1  0  0  0
  2  3  1  0  0  0
  2 11  1  0  0  0
  3  4  1  0  0  0
  3 14  2  0  0  0
  4  5  1  0  0  0
  4  9  2  0  0  0
  5  6  2  0  0  0
  5 23  1  0  0  0
  6  7  1  0  0  0
  6 24  1  0  0  0
  7  8  2  0  0  0
  7 25  1  0  0  0
  8  9  1  0  0  0
  8 26  1  0  0  0
  9 10  1  0  0  0
 11 12  2  0  0  0
 11 13  1  0  0  0
 13 15  1  0  0  0
 13 27  1  0  0  0
 15 16  1  0  0  0
 15 20  2  0  0  0
 16 17  2  0  0  0
 16 28  1  0  0  0
 17 18  1  0  0  0
 17 21  1  0  0  0
 18 19  2  0  0  0
 18 29  1  0  0  0
 19 20  1  0  0  0
 19 30  1  0  0  0
 20 31  1  0  0  0
M  END
> <s_m_entry_id>
10123

> <s_m_entry_name>
dock_pv.159

> <s_m_Source_Path>
/home/csk/Desktop/cluster/DUD-E-result/aofb

> <s_m_Source_File>
dock_pv.maegz

> <i_m_Source_File_Index>
159

> <chembl_id>
CHEMBL4206812

> <chembl_pref_name>
None

> <i_lp_mmshare_version>
53161

> <i_f3d_flags>
0

> <r_lp_tautomer_probability>
1

> <s_lp_Force_Field>
OPLS_2005

> <r_lp_Energy>
24.908351

> <b_lp_Chiralities_Consistent>
1

> <s_lp_Variant>
CHEMBL2039_lig127-1

> <s_i_glide_gridfile>
glide-grid_1s3b

> <i_i_glide_lignum>
153

> <i_i_glide_rotatable_bonds>
3

> <r_i_docking_score>
-7.76207618350398

> <r_i_glide_ligand_efficiency>
-0.369622675404952

> <r_i_glide_ligand_efficiency_sa>
-1.0197609342785

> <r_i_glide_ligand_efficiency_ln>
-1.91915765161958

> <r_i_glide_gscore>
-7.76207618350398

> <r_i_glide_lipo>
-3.98558208890206

> <r_i_glide_hbond>
0

> <r_i_glide_metal>
0

> <r_i_glide_rewards>
-2.5603578923174

> <r_i_glide_evdw>
-28.1108360290527

> <r_i_glide_ecoul>
-2.8275887966156

> <r_i_glide_erotb>
0.613543918660452

> <r_i_glide_esite>
0

> <r_i_glide_emodel>
-36.4714311181762

> <r_i_glide_energy>
-30.9384248256683

> <r_i_glide_einternal>
6.11248111724854

> <i_i_glide_confnum>
3

> <i_i_glide_posenum>
278

> <r_i_glide_eff_state_penalty>
0

> <s_user_duplicate_titles>
CHEMBL2039_lig127

> <s_m_subgroup_title>
dock_pv

> <s_m_subgroupid>
dock_pv

> <b_m_subgroup_collapsed>
1

$$$$
CHEMBL2039_lig1494
                    3D
 Schrodinger Suite 2021-1.
 32 33  0  0  1  0            999 V2000
   51.8847  155.3739   27.4767 C   0  0  0  0  0  0
   51.0927  157.2693   28.9908 C   0  0  0  0  0  0
   52.1255  156.7179   28.0992 C   0  0  0  0  0  0
   51.0689  158.5645   29.3802 C   0  0  0  0  0  0
   52.2736  155.0676   26.1457 C   0  0  0  0  0  0
   53.0869  157.4126   27.7691 O   0  0  0  0  0  0
   50.0562  159.2109   30.2477 C   0  0  0  0  0  0
   52.8535  156.0337   25.3445 O   0  0  0  0  0  0
   51.3748  154.3452   28.2839 C   0  0  0  0  0  0
   52.1050  153.7547   25.6707 C   0  0  0  0  0  0
   48.7996  158.6427   30.5040 C   0  0  0  0  0  0
   50.4123  160.3921   30.9034 C   0  0  0  0  0  0
   53.9390  155.6211   24.5065 C   0  0  0  0  0  0
   51.2628  153.0443   27.8044 C   0  0  0  0  0  0
   51.6426  152.7459   26.5032 C   0  0  0  0  0  0
   47.9127  159.2557   31.3849 C   0  0  0  0  0  0
   49.5370  160.9934   31.8031 C   0  0  0  0  0  0
   48.2872  160.4263   32.0353 C   0  0  0  0  0  0
   50.3186  156.5910   29.3110 H   0  0  0  0  0  0
   51.8534  159.2212   29.0302 H   0  0  0  0  0  0
   51.1117  154.5182   29.3174 H   0  0  0  0  0  0
   52.3705  153.4899   24.6601 H   0  0  0  0  0  0
   48.5064  157.7156   30.0416 H   0  0  0  0  0  0
   51.3844  160.8358   30.7484 H   0  0  0  0  0  0
   54.4160  156.4960   24.0652 H   0  0  0  0  0  0
   54.6977  155.0811   25.0684 H   0  0  0  0  0  0
   53.6347  154.9555   23.7040 H   0  0  0  0  0  0
   50.8963  152.2615   28.4518 H   0  0  0  0  0  0
   51.5536  151.7322   26.1353 H   0  0  0  0  0  0
   46.9442  158.8142   31.5741 H   0  0  0  0  0  0
   49.8351  161.8906   32.3251 H   0  0  0  0  0  0
   47.6060  160.8975   32.7309 H   0  0  0  0  0  0
  1  3  1  0  0  0
  1  5  1  0  0  0
  1  9  2  0  0  0
  2  3  1  0  0  0
  2  4  2  0  0  0
  2 19  1  0  0  0
  3  6  2  0  0  0
  4  7  1  0  0  0
  4 20  1  0  0  0
  5  8  1  0  0  0
  5 10  2  0  0  0
  7 11  1  0  0  0
  7 12  2  0  0  0
  8 13  1  0  0  0
  9 14  1  0  0  0
  9 21  1  0  0  0
 10 15  1  0  0  0
 10 22  1  0  0  0
 11 16  2  0  0  0
 11 23  1  0  0  0
 12 17  1  0  0  0
 12 24  1  0  0  0
 13 25  1  0  0  0
 13 26  1  0  0  0
 13 27  1  0  0  0
 14 15  2  0  0  0
 14 28  1  0  0  0
 15 29  1  0  0  0
 16 18  1  0  0  0
 16 30  1  0  0  0
 17 18  2  0  0  0
 17 31  1  0  0  0
 18 32  1  0  0  0
M  END
> <s_m_entry_id>
10124

> <s_m_entry_name>
dock_pv.160

> <s_m_Source_Path>
/home/csk/Desktop/cluster/DUD-E-result/aofb

> <s_m_Source_File>
dock_pv.maegz

> <i_m_Source_File_Index>
160

> <chembl_id>
CHEMBL287154

> <chembl_pref_name>
None

> <i_lp_mmshare_version>
53161

> <i_f3d_flags>
0

> <r_lp_tautomer_probability>
1

> <s_lp_Force_Field>
OPLS_2005

> <r_lp_Energy>
23.264926

> <b_lp_Chiralities_Consistent>
1

> <s_lp_Variant>
CHEMBL2039_lig1494-1

> <s_i_glide_gridfile>
glide-grid_1s3b

> <i_i_glide_lignum>
1718

> <i_i_glide_rotatable_bonds>
4

> <r_i_docking_score>
-7.76033623087468

> <r_i_glide_ligand_efficiency>
-0.431129790604149

> <r_i_glide_ligand_efficiency_sa>
-1.12987968742432

> <r_i_glide_ligand_efficiency_ln>
-1.99475441264033

> <r_i_glide_gscore>
-7.76033623087468

> <r_i_glide_lipo>
-3.93166671734169

> <r_i_glide_hbond>
0

> <r_i_glide_metal>
0

> <r_i_glide_rewards>
-2.96807265590315

> <r_i_glide_evdw>
-32.3510246276855

> <r_i_glide_ecoul>
0.99372923374176

> <r_i_glide_erotb>
0.607894988693181

> <r_i_glide_esite>
0

> <r_i_glide_emodel>
-40.5755020758828

> <r_i_glide_energy>
-31.3572953939438

> <r_i_glide_einternal>
7.29355239868164

> <i_i_glide_confnum>
6

> <i_i_glide_posenum>
182

> <r_i_glide_eff_state_penalty>
0

> <s_user_duplicate_titles>
CHEMBL2039_lig1494

> <s_m_subgroup_title>
dock_pv

> <s_m_subgroupid>
dock_pv

> <b_m_subgroup_collapsed>
1

$$$$
CHEMBL2039_lig1645
                    3D
 Schrodinger Suite 2021-1.
 31 32  0  0  1  0            999 V2000
   47.8357  160.2429   31.7694 C   0  0  0  0  0  0
   46.6347  159.4288   31.2920 C   0  0  0  0  0  0
   49.1505  160.0191   31.0894 C   0  0  0  0  0  0
   49.3919  158.8916   30.2876 C   0  0  0  0  0  0
   50.6488  158.6543   29.7213 C   0  0  0  0  0  0
   51.6557  159.6106   29.8981 C   0  0  0  0  0  0
   51.4376  160.7310   30.6939 C   0  0  0  0  0  0
   50.2010  160.9204   31.3046 C   0  0  0  0  0  0
   50.8563  157.4091   29.1712 O   0  0  0  0  0  0
   52.0777  157.1244   28.4990 C   0  0  0  0  0  0
   51.9169  155.8419   27.7003 C   0  0  0  0  0  0
   51.4905  154.6742   28.3392 C   0  0  0  0  0  0
   51.3633  153.4914   27.6177 C   0  0  0  0  0  0
   51.6553  153.4801   26.2562 C   0  0  0  0  0  0
   52.0566  154.6441   25.6044 C   0  0  0  0  0  0
   52.1913  155.8270   26.3285 C   0  0  0  0  0  0
   47.6561  161.0866   32.6486 O   0  0  0  0  0  0
   46.5740  159.4487   30.2039 H   0  0  0  0  0  0
   45.7050  159.8384   31.6875 H   0  0  0  0  0  0
   46.7334  158.3893   31.6080 H   0  0  0  0  0  0
   48.6333  158.1348   30.1519 H   0  0  0  0  0  0
   52.6446  159.4459   29.5012 H   0  0  0  0  0  0
   52.2385  161.4340   30.8720 H   0  0  0  0  0  0
   50.0712  161.7818   31.9466 H   0  0  0  0  0  0
   52.3488  157.9357   27.8222 H   0  0  0  0  0  0
   52.8930  157.0031   29.2099 H   0  0  0  0  0  0
   51.2702  154.6779   29.3974 H   0  0  0  0  0  0
   51.0467  152.5858   28.1149 H   0  0  0  0  0  0
   51.5641  152.5585   25.7032 H   0  0  0  0  0  0
   52.2756  154.6257   24.5471 H   0  0  0  0  0  0
   52.5148  156.7246   25.8231 H   0  0  0  0  0  0
  1  2  1  0  0  0
  1  3  1  0  0  0
  1 17  2  0  0  0
  2 18  1  0  0  0
  2 19  1  0  0  0
  2 20  1  0  0  0
  3  4  1  0  0  0
  3  8  2  0  0  0
  4  5  2  0  0  0
  4 21  1  0  0  0
  5  6  1  0  0  0
  5  9  1  0  0  0
  6  7  2  0  0  0
  6 22  1  0  0  0
  7  8  1  0  0  0
  7 23  1  0  0  0
  8 24  1  0  0  0
  9 10  1  0  0  0
 10 11  1  0  0  0
 10 25  1  0  0  0
 10 26  1  0  0  0
 11 12  1  0  0  0
 11 16  2  0  0  0
 12 13  2  0  0  0
 12 27  1  0  0  0
 13 14  1  0  0  0
 13 28  1  0  0  0
 14 15  2  0  0  0
 14 29  1  0  0  0
 15 16  1  0  0  0
 15 30  1  0  0  0
 16 31  1  0  0  0
M  END
> <s_m_entry_id>
10125

> <s_m_entry_name>
dock_pv.161

> <s_m_Source_Path>
/home/csk/Desktop/cluster/DUD-E-result/aofb

> <s_m_Source_File>
dock_pv.maegz

> <i_m_Source_File_Index>
161

> <chembl_id>
CHEMBL3770608

> <chembl_pref_name>
None

> <i_lp_mmshare_version>
53161

> <i_f3d_flags>
0

> <r_lp_tautomer_probability>
0.99995

> <s_lp_Force_Field>
OPLS_2005

> <r_lp_Energy>
23.370981

> <b_lp_Chiralities_Consistent>
1

> <s_lp_Variant>
CHEMBL2039_lig1645-1

> <s_i_glide_gridfile>
glide-grid_1s3b

> <i_i_glide_lignum>
1913

> <i_i_glide_rotatable_bonds>
4

> <r_i_docking_score>
-7.76011907131041

> <r_i_glide_ligand_efficiency>
-0.456477592430024

> <r_i_glide_ligand_efficiency_sa>
-1.17373242885484

> <r_i_glide_ligand_efficiency_ln>
-2.02444225634956

> <r_i_glide_gscore>
-7.76011907131041

> <r_i_glide_lipo>
-3.77147772456106

> <r_i_glide_hbond>
0

> <r_i_glide_metal>
0

> <r_i_glide_rewards>
-3.14329717670821

> <r_i_glide_evdw>
-32.9740753173828

> <r_i_glide_ecoul>
-1.28155434131622

> <r_i_glide_erotb>
0.995592747025434

> <r_i_glide_esite>
0

> <r_i_glide_emodel>
-46.0995395299551

> <r_i_glide_energy>
-34.255629658699

> <r_i_glide_einternal>
5.31023502349854

> <i_i_glide_confnum>
10

> <i_i_glide_posenum>
356

> <r_i_glide_eff_state_penalty>
0

> <s_user_duplicate_titles>
CHEMBL2039_lig1645

> <s_m_subgroup_title>
dock_pv

> <s_m_subgroupid>
dock_pv

> <b_m_subgroup_collapsed>
1

$$$$
CHEMBL2039_lig1312
                    3D
 Schrodinger Suite 2021-1.
 32 34  0  0  1  0            999 V2000
   51.3026  157.3337   28.9040 C   0  0  0  0  0  0
   52.3524  156.7930   27.9212 C   0  0  0  0  0  0
   50.4560  156.5634   29.3429 O   0  0  0  0  0  0
   51.3484  158.6334   29.2719 N   0  0  0  0  0  0
   47.7165  160.9792   32.7274 N   0  0  0  0  0  0
   46.6112  160.2440   32.5040 N   0  0  0  0  0  0
   46.8947  159.4054   31.5491 C   0  0  0  0  0  0
   48.2488  159.5377   31.1406 C   0  0  0  0  0  0
   49.0818  158.8907   30.2352 C   0  0  0  0  0  0
   50.4209  159.2994   30.1040 C   0  0  0  0  0  0
   50.8865  160.3852   30.8459 C   0  0  0  0  0  0
   50.0753  161.0440   31.7729 C   0  0  0  0  0  0
   48.7612  160.5964   31.9120 C   0  0  0  0  0  0
   52.0560  155.3747   27.3998 C   0  0  0  0  0  0
   52.2376  155.0608   26.0475 C   0  0  0  0  0  0
   52.1278  153.7370   25.6059 C   0  0  0  0  0  0
   51.7613  152.7268   26.5091 C   0  0  0  0  0  0
   51.5255  153.0440   27.8342 C   0  0  0  0  0  0
   51.6964  154.3407   28.2787 C   0  0  0  0  0  0
   51.6560  151.0551   26.1040 Cl  0  0  0  0  0  0
   52.5547  153.3814   23.9743 Cl  0  0  0  0  0  0
   53.3104  156.7732   28.4378 H   0  0  0  0  0  0
   52.4592  157.4807   27.0851 H   0  0  0  0  0  0
   52.1764  159.1488   29.0140 H   0  0  0  0  0  0
   47.7150  161.7015   33.4309 H   0  0  0  0  0  0
   46.1563  158.7105   31.1796 H   0  0  0  0  0  0
   48.6735  158.0541   29.7040 H   0  0  0  0  0  0
   51.9159  160.7005   30.7486 H   0  0  0  0  0  0
   50.4560  161.8593   32.3673 H   0  0  0  0  0  0
   52.5467  155.8275   25.3527 H   0  0  0  0  0  0
   51.2560  152.2664   28.5324 H   0  0  0  0  0  0
   51.5976  154.5121   29.3381 H   0  0  0  0  0  0
  1  2  1  0  0  0
  1  3  2  0  0  0
  1  4  1  0  0  0
  2 14  1  0  0  0
  2 22  1  0  0  0
  2 23  1  0  0  0
  4 10  1  0  0  0
  4 24  1  0  0  0
  5  6  1  0  0  0
  5 13  1  0  0  0
  5 25  1  0  0  0
  6  7  2  0  0  0
  7  8  1  0  0  0
  7 26  1  0  0  0
  8  9  1  0  0  0
  8 13  2  0  0  0
  9 10  2  0  0  0
  9 27  1  0  0  0
 10 11  1  0  0  0
 11 12  2  0  0  0
 11 28  1  0  0  0
 12 13  1  0  0  0
 12 29  1  0  0  0
 14 15  1  0  0  0
 14 19  2  0  0  0
 15 16  2  0  0  0
 15 30  1  0  0  0
 16 17  1  0  0  0
 16 21  1  0  0  0
 17 18  2  0  0  0
 17 20  1  0  0  0
 18 19  1  0  0  0
 18 31  1  0  0  0
 19 32  1  0  0  0
M  END
> <s_m_entry_id>
10126

> <s_m_entry_name>
dock_pv.162

> <s_m_Source_Path>
/home/csk/Desktop/cluster/DUD-E-result/aofb

> <s_m_Source_File>
dock_pv.maegz

> <i_m_Source_File_Index>
162

> <chembl_id>
CHEMBL3319243

> <chembl_pref_name>
None

> <i_lp_mmshare_version>
53161

> <i_f3d_flags>
0

> <r_lp_tautomer_probability>
0.980392156862745

> <s_lp_Force_Field>
OPLS_2005

> <r_lp_Energy>
16.66612

> <b_lp_Chiralities_Consistent>
1

> <s_lp_Variant>
CHEMBL2039_lig1312-1

> <s_i_glide_gridfile>
glide-grid_1s3b

> <i_i_glide_lignum>
1526

> <i_i_glide_rotatable_bonds>
4

> <r_i_docking_score>
-7.75833779351323

> <r_i_glide_ligand_efficiency>
-0.369444656833963

> <r_i_glide_ligand_efficiency_sa>
-1.01926979453965

> <r_i_glide_ligand_efficiency_ln>
-1.91823334224849

> <r_i_glide_gscore>
-7.75833779351323

> <r_i_glide_lipo>
-4.01893823003553

> <r_i_glide_hbond>
-0.0433520005658953

> <r_i_glide_metal>
0

> <r_i_glide_rewards>
-2.27797095411236

> <r_i_glide_evdw>
-29.83376121521

> <r_i_glide_ecoul>
-1.93750250339508

> <r_i_glide_erotb>
0.364236827470319

> <r_i_glide_esite>
0

> <r_i_glide_emodel>
-38.6103034594898

> <r_i_glide_energy>
-31.771263718605

> <r_i_glide_einternal>
8.94931030273438

> <i_i_glide_confnum>
2

> <i_i_glide_posenum>
112

> <r_i_glide_eff_state_penalty>
0

> <s_user_duplicate_titles>
CHEMBL2039_lig1312

> <s_m_subgroup_title>
dock_pv

> <s_m_subgroupid>
dock_pv

> <b_m_subgroup_collapsed>
1

$$$$
CHEMBL2039_lig1944
                    3D
 Schrodinger Suite 2021-1.
 34 36  0  0  1  0            999 V2000
   53.9639  155.0112   24.5040 C   0  0  0  0  0  0
   53.5682  153.6025   24.5403 C   0  0  0  0  0  0
   52.6581  153.1369   25.4206 C   0  0  0  0  0  0
   53.2045  155.8838   25.2392 O   0  0  0  0  0  0
   52.4094  155.4256   26.2714 C   0  0  0  0  0  0
   52.0560  154.0710   26.4099 C   0  0  0  0  0  0
   51.3424  153.6872   27.5520 C   0  0  0  0  0  0
   50.9830  154.6432   28.5053 C   0  0  0  0  0  0
   51.3200  155.9858   28.3531 C   0  0  0  0  0  0
   52.0576  156.3652   27.2299 C   0  0  0  0  0  0
   54.8560  155.5098   23.8223 O   0  0  0  0  0  0
   50.8560  156.8704   29.3040 O   0  0  0  0  0  0
   51.1189  158.2758   29.2030 C   0  0  0  0  0  0
   50.1665  159.0439   30.1087 C   0  0  0  0  0  0
   48.9362  158.4972   30.5030 C   0  0  0  0  0  0
   48.1665  159.1214   31.4753 C   0  0  0  0  0  0
   48.6369  160.2833   32.0742 C   0  0  0  0  0  0
   49.8376  160.8602   31.6682 C   0  0  0  0  0  0
   50.5961  160.2474   30.6740 C   0  0  0  0  0  0
   52.4329  151.6396   25.5390 C   0  0  0  0  0  0
   47.6559  161.0440   33.5070 Br  0  0  0  0  0  0
   54.0560  152.9109   23.8732 H   0  0  0  0  0  0
   51.0956  152.6547   27.7449 H   0  0  0  0  0  0
   50.4560  154.3330   29.3933 H   0  0  0  0  0  0
   52.3760  157.3858   27.0880 H   0  0  0  0  0  0
   51.0398  158.6966   28.2060 H   0  0  0  0  0  0
   52.1427  158.4525   29.5209 H   0  0  0  0  0  0
   48.5981  157.5533   30.1039 H   0  0  0  0  0  0
   47.2376  158.6770   31.8010 H   0  0  0  0  0  0
   50.1983  161.7605   32.1449 H   0  0  0  0  0  0
   51.5507  160.6729   30.3996 H   0  0  0  0  0  0
   52.4560  151.1623   24.5598 H   0  0  0  0  0  0
   53.2549  151.2098   26.1039 H   0  0  0  0  0  0
   51.5047  151.3732   26.0432 H   0  0  0  0  0  0
  1  2  1  0  0  0
  1  4  1  0  0  0
  1 11  2  0  0  0
  2  3  2  0  0  0
  2 22  1  0  0  0
  3  6  1  0  0  0
  3 20  1  0  0  0
  4  5  1  0  0  0
  5  6  2  0  0  0
  5 10  1  0  0  0
  6  7  1  0  0  0
  7  8  2  0  0  0
  7 23  1  0  0  0
  8  9  1  0  0  0
  8 24  1  0  0  0
  9 10  2  0  0  0
  9 12  1  0  0  0
 10 25  1  0  0  0
 12 13  1  0  0  0
 13 14  1  0  0  0
 13 26  1  0  0  0
 13 27  1  0  0  0
 14 15  2  0  0  0
 14 19  1  0  0  0
 15 16  1  0  0  0
 15 28  1  0  0  0
 16 17  2  0  0  0
 16 29  1  0  0  0
 17 18  1  0  0  0
 17 21  1  0  0  0
 18 19  2  0  0  0
 18 30  1  0  0  0
 19 31  1  0  0  0
 20 32  1  0  0  0
 20 33  1  0  0  0
 20 34  1  0  0  0
M  END
> <s_m_entry_id>
10127

> <s_m_entry_name>
dock_pv.163

> <s_m_Source_Path>
/home/csk/Desktop/cluster/DUD-E-result/aofb

> <s_m_Source_File>
dock_pv.maegz

> <i_m_Source_File_Index>
163

> <chembl_id>
CHEMBL4097867

> <chembl_pref_name>
None

> <i_lp_mmshare_version>
53161

> <i_f3d_flags>
0

> <r_lp_tautomer_probability>
1

> <s_lp_Force_Field>
OPLS_2005

> <r_lp_Energy>
27.112362

> <b_lp_Chiralities_Consistent>
1

> <s_lp_Variant>
CHEMBL2039_lig1944-1

> <s_i_glide_gridfile>
glide-grid_1s3b

> <i_i_glide_lignum>
2279

> <i_i_glide_rotatable_bonds>
3

> <r_i_docking_score>
-7.75378711117269

> <r_i_glide_ligand_efficiency>
-0.36922795767489

> <r_i_glide_ligand_efficiency_sa>
-1.01867193799129

> <r_i_glide_ligand_efficiency_ln>
-1.91710819523532

> <r_i_glide_gscore>
-7.75378711117269

> <r_i_glide_lipo>
-4.56601064208112

> <r_i_glide_hbond>
0

> <r_i_glide_metal>
0

> <r_i_glide_rewards>
-1.56594685276628

> <r_i_glide_evdw>
-35.3852348327637

> <r_i_glide_ecoul>
-2.20570755004883

> <r_i_glide_erotb>
0.478288257820212

> <r_i_glide_esite>
0

> <r_i_glide_emodel>
-37.4136292472663

> <r_i_glide_energy>
-37.5909423828125

> <r_i_glide_einternal>
3.89064955711365

> <i_i_glide_confnum>
17

> <i_i_glide_posenum>
346

> <r_i_glide_eff_state_penalty>
0

> <s_user_duplicate_titles>
CHEMBL2039_lig1944

> <s_m_subgroup_title>
dock_pv

> <s_m_subgroupid>
dock_pv

> <b_m_subgroup_collapsed>
1

$$$$
CHEMBL2039_lig576
                    3D
 Schrodinger Suite 2021-1.
 34 36  0  0  1  0            999 V2000
   50.7546  158.2763   29.7039 C   0  0  0  0  0  0
   51.4583  159.4440   30.0640 C   0  0  0  0  0  0
   50.8635  160.3959   30.9040 C   0  0  0  0  0  0
   49.4309  158.1288   30.1040 C   0  0  0  0  0  0
   48.8262  159.1244   30.8368 C   0  0  0  0  0  0
   49.5328  160.1966   31.2748 C   0  0  0  0  0  0
   48.6316  160.9260   32.1848 C   0  0  0  0  0  0
   47.4236  160.3542   32.0668 N   0  0  0  0  0  0
   47.4228  159.2974   31.2469 C   0  0  0  0  0  0
   46.4559  158.6440   30.9039 O   0  0  0  0  0  0
   48.9069  161.8440   32.9194 O   0  0  0  0  0  0
   51.2560  157.2138   28.9878 O   0  0  0  0  0  0
   52.4560  157.3580   28.2550 C   0  0  0  0  0  0
   52.6261  156.2445   27.2617 C   0  0  0  0  0  0
   51.7951  155.2036   27.1128 C   0  0  0  0  0  0
   52.0560  154.0786   26.2187 C   0  0  0  0  0  0
   51.6483  152.8308   26.6756 C   0  0  0  0  0  0
   52.0561  151.6904   26.0107 C   0  0  0  0  0  0
   52.8933  151.7960   24.9040 C   0  0  0  0  0  0
   53.2560  153.0427   24.4009 C   0  0  0  0  0  0
   52.8258  154.1922   25.0532 C   0  0  0  0  0  0
   52.4849  159.5736   29.7615 H   0  0  0  0  0  0
   51.4283  161.2490   31.2546 H   0  0  0  0  0  0
   48.8876  157.2369   29.8319 H   0  0  0  0  0  0
   46.6010  160.6862   32.5433 H   0  0  0  0  0  0
   53.3285  157.3921   28.9041 H   0  0  0  0  0  0
   52.4202  158.2442   27.6586 H   0  0  0  0  0  0
   53.5166  156.3072   26.6573 H   0  0  0  0  0  0
   50.8905  155.1541   27.7034 H   0  0  0  0  0  0
   51.0571  152.7342   27.5756 H   0  0  0  0  0  0
   51.7317  150.7205   26.3592 H   0  0  0  0  0  0
   53.2265  150.9017   24.3985 H   0  0  0  0  0  0
   53.8814  153.1143   23.5230 H   0  0  0  0  0  0
   53.1489  155.1572   24.6932 H   0  0  0  0  0  0
  1 12  1  0  0  0
  1  2  2  0  0  0
  1  4  1  0  0  0
  2  3  1  0  0  0
  2 22  1  0  0  0
  3  6  2  0  0  0
  3 23  1  0  0  0
  4  5  2  0  0  0
  4 24  1  0  0  0
  5  6  1  0  0  0
  5  9  1  0  0  0
  6  7  1  0  0  0
  7 11  2  0  0  0
  7  8  1  0  0  0
  8  9  1  0  0  0
  8 25  1  0  0  0
  9 10  2  0  0  0
 12 13  1  0  0  0
 13 14  1  0  0  0
 13 26  1  0  0  0
 13 27  1  0  0  0
 14 15  2  0  0  0
 14 28  1  0  0  0
 15 16  1  0  0  0
 15 29  1  0  0  0
 16 17  2  0  0  0
 16 21  1  0  0  0
 17 18  1  0  0  0
 17 30  1  0  0  0
 18 19  2  0  0  0
 18 31  1  0  0  0
 19 20  1  0  0  0
 19 32  1  0  0  0
 20 21  2  0  0  0
 20 33  1  0  0  0
 21 34  1  0  0  0
M  END
> <s_m_entry_id>
10128

> <s_m_entry_name>
dock_pv.164

> <s_m_Source_Path>
/home/csk/Desktop/cluster/DUD-E-result/aofb

> <s_m_Source_File>
dock_pv.maegz

> <i_m_Source_File_Index>
164

> <chembl_id>
CHEMBL1813521

> <chembl_pref_name>
None

> <i_lp_mmshare_version>
53161

> <i_f3d_flags>
0

> <r_lp_tautomer_probability>
1

> <s_lp_Force_Field>
OPLS_2005

> <r_lp_Energy>
36.957529

> <b_lp_Chiralities_Consistent>
1

> <s_lp_Variant>
CHEMBL2039_lig576-1

> <s_i_glide_gridfile>
glide-grid_1s3b

> <i_i_glide_lignum>
680

> <i_i_glide_rotatable_bonds>
4

> <r_i_docking_score>
-7.74782870401183

> <r_i_glide_ligand_efficiency>
-0.368944224000563

> <r_i_glide_ligand_efficiency_sa>
-1.01788913829833

> <r_i_glide_ligand_efficiency_ln>
-1.91563499110489

> <r_i_glide_gscore>
-7.74782870401183

> <r_i_glide_lipo>
-3.44613932779597

> <r_i_glide_hbond>
0

> <r_i_glide_metal>
0

> <r_i_glide_rewards>
-3.24256612201819

> <r_i_glide_evdw>
-24.0334529876709

> <r_i_glide_ecoul>
-2.13341236114502

> <r_i_glide_erotb>
0.462561249357624

> <r_i_glide_esite>
0

> <r_i_glide_emodel>
-27.6320216105259

> <r_i_glide_energy>
-26.1668653488159

> <r_i_glide_einternal>
2.6059718132019

> <i_i_glide_confnum>
4

> <i_i_glide_posenum>
19

> <r_i_glide_eff_state_penalty>
0

> <s_user_duplicate_titles>
CHEMBL2039_lig576

> <s_m_subgroup_title>
dock_pv

> <s_m_subgroupid>
dock_pv

> <b_m_subgroup_collapsed>
1

$$$$
CHEMBL2039_lig1360
                    3D
 Schrodinger Suite 2021-1.
 32 34  0  0  1  0            999 V2000
   51.3696  156.0273   28.3588 C   0  0  0  0  0  0
   50.9703  154.6982   28.5042 C   0  0  0  0  0  0
   51.2626  153.7408   27.5318 C   0  0  0  0  0  0
   52.1536  156.3724   27.2368 C   0  0  0  0  0  0
   52.4556  155.4219   26.2565 C   0  0  0  0  0  0
   51.9843  154.1040   26.3968 C   0  0  0  0  0  0
   52.3113  153.1010   25.5039 O   0  0  0  0  0  0
   52.8651  153.5668   24.2673 C   0  0  0  0  0  0
   53.8673  154.7189   24.5041 C   0  0  0  0  0  0
   53.2027  155.8130   25.1597 O   0  0  0  0  0  0
   50.8863  156.9253   29.3039 O   0  0  0  0  0  0
   51.2560  158.3042   29.2113 C   0  0  0  0  0  0
   50.3793  159.1712   30.1039 C   0  0  0  0  0  0
   49.0097  158.9189   30.2647 C   0  0  0  0  0  0
   48.2345  159.7251   31.1015 C   0  0  0  0  0  0
   48.8288  160.7788   31.7924 C   0  0  0  0  0  0
   50.1855  161.0440   31.6177 C   0  0  0  0  0  0
   50.9569  160.2510   30.7745 C   0  0  0  0  0  0
   46.5406  159.4435   31.2714 Cl  0  0  0  0  0  0
   50.4155  154.4141   29.3838 H   0  0  0  0  0  0
   50.9436  152.7186   27.6682 H   0  0  0  0  0  0
   52.5080  157.3803   27.0896 H   0  0  0  0  0  0
   53.3420  152.7365   23.7462 H   0  0  0  0  0  0
   52.0564  153.9381   23.6398 H   0  0  0  0  0  0
   54.6745  154.3530   25.1392 H   0  0  0  0  0  0
   54.3288  155.0441   23.5735 H   0  0  0  0  0  0
   51.1834  158.7013   28.2025 H   0  0  0  0  0  0
   52.3037  158.4152   29.4748 H   0  0  0  0  0  0
   48.5414  158.0979   29.7444 H   0  0  0  0  0  0
   48.2359  161.4094   32.4396 H   0  0  0  0  0  0
   50.6447  161.8882   32.1043 H   0  0  0  0  0  0
   52.0086  160.4710   30.6557 H   0  0  0  0  0  0
  1  2  2  0  0  0
  1  4  1  0  0  0
  1 11  1  0  0  0
  2  3  1  0  0  0
  2 20  1  0  0  0
  3  6  2  0  0  0
  3 21  1  0  0  0
  4  5  2  0  0  0
  4 22  1  0  0  0
  5  6  1  0  0  0
  5 10  1  0  0  0
  6  7  1  0  0  0
  7  8  1  0  0  0
  8  9  1  0  0  0
  8 23  1  0  0  0
  8 24  1  0  0  0
  9 10  1  0  0  0
  9 25  1  0  0  0
  9 26  1  0  0  0
 11 12  1  0  0  0
 12 13  1  0  0  0
 12 27  1  0  0  0
 12 28  1  0  0  0
 13 14  2  0  0  0
 13 18  1  0  0  0
 14 15  1  0  0  0
 14 29  1  0  0  0
 15 16  2  0  0  0
 15 19  1  0  0  0
 16 17  1  0  0  0
 16 30  1  0  0  0
 17 18  2  0  0  0
 17 31  1  0  0  0
 18 32  1  0  0  0
M  END
> <s_m_entry_id>
10129

> <s_m_entry_name>
dock_pv.165

> <s_m_Source_Path>
/home/csk/Desktop/cluster/DUD-E-result/aofb

> <s_m_Source_File>
dock_pv.maegz

> <i_m_Source_File_Index>
165

> <chembl_id>
CHEMBL3402196

> <chembl_pref_name>
None

> <i_lp_mmshare_version>
53161

> <i_f3d_flags>
0

> <r_lp_tautomer_probability>
1

> <s_lp_Force_Field>
OPLS_2005

> <r_lp_Energy>
19.458165

> <b_lp_Chiralities_Consistent>
1

> <s_lp_Variant>
CHEMBL2039_lig1360-1

> <s_i_glide_gridfile>
glide-grid_1s3b

> <i_i_glide_lignum>
1581

> <i_i_glide_rotatable_bonds>
3

> <r_i_docking_score>
-7.74569091745817

> <r_i_glide_ligand_efficiency>
-0.407667943024114

> <r_i_glide_ligand_efficiency_sa>
-1.08782181022896

> <r_i_glide_ligand_efficiency_ln>
-1.96369900976261

> <r_i_glide_gscore>
-7.74569091745817

> <r_i_glide_lipo>
-4.13745357505131

> <r_i_glide_hbond>
0

> <r_i_glide_metal>
0

> <r_i_glide_rewards>
-2.42237628474263

> <r_i_glide_evdw>
-31.1082496643066

> <r_i_glide_ecoul>
-2.23690438270569

> <r_i_glide_erotb>
0.705087082956958

> <r_i_glide_esite>
0

> <r_i_glide_emodel>
-46.0577061974433

> <r_i_glide_energy>
-33.3451540470123

> <r_i_glide_einternal>
0.895760416984558

> <i_i_glide_confnum>
31

> <i_i_glide_posenum>
301

> <r_i_glide_eff_state_penalty>
0

> <s_user_duplicate_titles>
CHEMBL2039_lig1360

> <s_m_subgroup_title>
dock_pv

> <s_m_subgroupid>
dock_pv

> <b_m_subgroup_collapsed>
1

$$$$
CHEMBL2039_lig1058
                    3D
 Schrodinger Suite 2021-1.
 34 36  0  0  1  0            999 V2000
   52.6525  155.9457   26.4039 N   0  0  0  0  0  0
   51.5071  153.8020   26.2464 C   0  0  0  0  0  0
   52.4408  154.8714   25.6224 C   0  0  0  0  0  0
   51.2868  153.9166   27.7880 C   0  0  0  0  0  0
   51.2349  155.3555   28.2737 C   0  0  0  0  0  0
   52.0609  156.2688   27.6248 C   0  0  0  0  0  0
   52.1772  157.5678   28.1074 C   0  0  0  0  0  0
   51.3472  158.0568   29.1214 C   0  0  0  0  0  0
   50.4063  155.8146   29.3038 C   0  0  0  0  0  0
   50.4565  157.1573   29.7065 C   0  0  0  0  0  0
   52.9386  154.7752   24.5043 O   0  0  0  0  0  0
   51.3756  159.4282   29.3217 O   0  0  0  0  0  0
   51.0757  160.1525   30.5161 C   0  0  0  0  0  0
   49.6105  160.2264   30.9426 C   0  0  0  0  0  0
   48.5606  159.6224   30.2432 C   0  0  0  0  0  0
   47.2832  159.5871   30.8023 C   0  0  0  0  0  0
   47.0151  160.2434   32.0010 C   0  0  0  0  0  0
   48.0303  160.9397   32.6471 C   0  0  0  0  0  0
   49.3164  160.9305   32.1150 C   0  0  0  0  0  0
   46.0431  158.6732   30.0504 Cl  0  0  0  0  0  0
   53.2409  156.6349   25.9651 H   0  0  0  0  0  0
   50.5612  153.8501   25.7159 H   0  0  0  0  0  0
   51.9318  152.8281   26.0061 H   0  0  0  0  0  0
   52.1187  153.4261   28.2990 H   0  0  0  0  0  0
   50.3960  153.3765   28.0974 H   0  0  0  0  0  0
   52.8594  158.2412   27.6250 H   0  0  0  0  0  0
   49.7300  155.1302   29.7959 H   0  0  0  0  0  0
   49.7971  157.4742   30.4940 H   0  0  0  0  0  0
   51.3878  161.1779   30.3131 H   0  0  0  0  0  0
   51.7145  159.8353   31.3391 H   0  0  0  0  0  0
   48.7393  159.1194   29.3056 H   0  0  0  0  0  0
   46.0257  160.2094   32.4305 H   0  0  0  0  0  0
   47.8267  161.4558   33.5731 H   0  0  0  0  0  0
   50.0923  161.4495   32.6570 H   0  0  0  0  0  0
  1  3  1  0  0  0
  1  6  1  0  0  0
  1 21  1  0  0  0
  2  3  1  0  0  0
  2  4  1  0  0  0
  2 22  1  0  0  0
  2 23  1  0  0  0
  3 11  2  0  0  0
  4  5  1  0  0  0
  4 24  1  0  0  0
  4 25  1  0  0  0
  5  6  2  0  0  0
  5  9  1  0  0  0
  6  7  1  0  0  0
  7  8  2  0  0  0
  7 26  1  0  0  0
  8 10  1  0  0  0
  8 12  1  0  0  0
  9 10  2  0  0  0
  9 27  1  0  0  0
 10 28  1  0  0  0
 12 13  1  0  0  0
 13 14  1  0  0  0
 13 29  1  0  0  0
 13 30  1  0  0  0
 14 15  2  0  0  0
 14 19  1  0  0  0
 15 16  1  0  0  0
 15 31  1  0  0  0
 16 17  2  0  0  0
 16 20  1  0  0  0
 17 18  1  0  0  0
 17 32  1  0  0  0
 18 19  2  0  0  0
 18 33  1  0  0  0
 19 34  1  0  0  0
M  END
> <s_m_entry_id>
10130

> <s_m_entry_name>
dock_pv.166

> <s_m_Source_Path>
/home/csk/Desktop/cluster/DUD-E-result/aofb

> <s_m_Source_File>
dock_pv.maegz

> <i_m_Source_File_Index>
166

> <chembl_id>
CHEMBL2430706

> <chembl_pref_name>
None

> <i_lp_mmshare_version>
53161

> <i_f3d_flags>
0

> <r_lp_tautomer_probability>
1

> <s_lp_Force_Field>
OPLS_2005

> <r_lp_Energy>
24.965757

> <b_lp_Chiralities_Consistent>
1

> <s_lp_Variant>
CHEMBL2039_lig1058-1

> <s_i_glide_gridfile>
glide-grid_1s3b

> <i_i_glide_lignum>
1232

> <i_i_glide_rotatable_bonds>
3

> <r_i_docking_score>
-7.74375366859416

> <r_i_glide_ligand_efficiency>
-0.387187683429708

> <r_i_glide_ligand_efficiency_sa>
-1.05098906778068

> <r_i_glide_ligand_efficiency_ln>
-1.93800613715956

> <r_i_glide_gscore>
-7.74375366859416

> <r_i_glide_lipo>
-4.51674320192484

> <r_i_glide_hbond>
0

> <r_i_glide_metal>
0

> <r_i_glide_rewards>
-2.5016754777413

> <r_i_glide_evdw>
-24.6655941009521

> <r_i_glide_ecoul>
-1.005615234375

> <r_i_glide_erotb>
0.658787001275844

> <r_i_glide_esite>
0

> <r_i_glide_emodel>
-33.0610993702392

> <r_i_glide_energy>
-25.6712093353271

> <r_i_glide_einternal>
1.32673811912537

> <i_i_glide_confnum>
39

> <i_i_glide_posenum>
172

> <r_i_glide_eff_state_penalty>
0

> <s_user_duplicate_titles>
CHEMBL2039_lig1058

> <s_m_subgroup_title>
dock_pv

> <s_m_subgroupid>
dock_pv

> <b_m_subgroup_collapsed>
1

$$$$
CHEMBL2039_lig1567
                    3D
 Schrodinger Suite 2021-1.
 28 29  0  0  1  0            999 V2000
   51.8898  155.1461   26.9457 C   0  0  0  0  0  0
   51.3437  155.1264   28.3094 C   0  0  0  0  0  0
   50.8555  156.3187   29.0067 C   0  0  0  0  0  0
   51.2557  154.0554   28.9039 O   0  0  0  0  0  0
   51.2566  157.6073   28.9117 C   0  0  0  0  0  0
   50.6456  158.7044   29.7037 C   0  0  0  0  0  0
   51.4409  159.7840   30.1046 C   0  0  0  0  0  0
   50.9596  160.7153   31.0264 C   0  0  0  0  0  0
   49.6604  160.6034   31.5238 C   0  0  0  0  0  0
   48.8274  159.5841   31.0672 C   0  0  0  0  0  0
   49.3209  158.6436   30.1668 C   0  0  0  0  0  0
   51.8717  153.6478   26.0475 S   0  0  0  0  0  0
   52.7863  154.3187   24.7389 C   0  0  0  0  0  0
   52.9765  155.6800   24.9598 C   0  0  0  0  0  0
   52.4573  156.1492   26.1688 C   0  0  0  0  0  0
   47.0383  159.4270   31.7053 Br  0  0  0  0  0  0
   49.2250  161.4550   32.4777 F   0  0  0  0  0  0
   53.2563  153.4444   23.6056 C   0  0  0  0  0  0
   50.0658  156.0811   29.7029 H   0  0  0  0  0  0
   52.0577  157.9062   28.2598 H   0  0  0  0  0  0
   52.4692  159.8466   29.7779 H   0  0  0  0  0  0
   51.6043  161.5028   31.3895 H   0  0  0  0  0  0
   48.6713  157.8312   29.8825 H   0  0  0  0  0  0
   53.5120  156.3213   24.2761 H   0  0  0  0  0  0
   52.5688  157.1770   26.4627 H   0  0  0  0  0  0
   54.0961  153.8880   23.0721 H   0  0  0  0  0  0
   52.4697  153.2781   22.8736 H   0  0  0  0  0  0
   53.5907  152.4664   23.9516 H   0  0  0  0  0  0
  1  2  1  0  0  0
  1 12  1  0  0  0
  1 15  2  0  0  0
  2  3  1  0  0  0
  2  4  2  0  0  0
  3  5  2  0  0  0
  3 19  1  0  0  0
  5  6  1  0  0  0
  5 20  1  0  0  0
  6  7  2  0  0  0
  6 11  1  0  0  0
  7  8  1  0  0  0
  7 21  1  0  0  0
  8  9  2  0  0  0
  8 22  1  0  0  0
  9 10  1  0  0  0
  9 17  1  0  0  0
 10 11  2  0  0  0
 10 16  1  0  0  0
 11 23  1  0  0  0
 12 13  1  0  0  0
 13 14  2  0  0  0
 13 18  1  0  0  0
 14 15  1  0  0  0
 14 24  1  0  0  0
 15 25  1  0  0  0
 18 26  1  0  0  0
 18 27  1  0  0  0
 18 28  1  0  0  0
M  END
> <s_m_entry_id>
10131

> <s_m_entry_name>
dock_pv.167

> <s_m_Source_Path>
/home/csk/Desktop/cluster/DUD-E-result/aofb

> <s_m_Source_File>
dock_pv.maegz

> <i_m_Source_File_Index>
167

> <chembl_id>
CHEMBL3735724

> <chembl_pref_name>
None

> <i_lp_mmshare_version>
53161

> <i_f3d_flags>
0

> <r_lp_tautomer_probability>
1

> <s_lp_Force_Field>
OPLS_2005

> <r_lp_Energy>
7.69491

> <b_lp_Chiralities_Consistent>
1

> <s_lp_Variant>
CHEMBL2039_lig1567-1

> <s_i_glide_gridfile>
glide-grid_1s3b

> <i_i_glide_lignum>
1828

> <i_i_glide_rotatable_bonds>
3

> <r_i_docking_score>
-7.73838411367791

> <r_i_glide_ligand_efficiency>
-0.429910228537662

> <r_i_glide_ligand_efficiency_sa>
-1.12668353063695

> <r_i_glide_ligand_efficiency_ln>
-1.9891117341091

> <r_i_glide_gscore>
-7.73838411367791

> <r_i_glide_lipo>
-3.66662923754117

> <r_i_glide_hbond>
0

> <r_i_glide_metal>
0

> <r_i_glide_rewards>
-2.67155232310613

> <r_i_glide_evdw>
-35.1518478393555

> <r_i_glide_ecoul>
0.0201191920787096

> <r_i_glide_erotb>
0.354371960125352

> <r_i_glide_esite>
0

> <r_i_glide_emodel>
-41.9712179764279

> <r_i_glide_energy>
-35.1317286472768

> <r_i_glide_einternal>
2.89856219291687

> <i_i_glide_confnum>
1

> <i_i_glide_posenum>
71

> <r_i_glide_eff_state_penalty>
0

> <s_user_duplicate_titles>
CHEMBL2039_lig1567

> <s_m_subgroup_title>
dock_pv

> <s_m_subgroupid>
dock_pv

> <b_m_subgroup_collapsed>
1

$$$$
CHEMBL2039_lig506
                    3D
 Schrodinger Suite 2021-1.
 30 32  0  0  1  0            999 V2000
   51.2926  160.8145   31.0464 C   0  0  0  0  0  0
   51.7935  159.9133   30.1041 C   0  0  0  0  0  0
   51.0272  158.8297   29.6589 C   0  0  0  0  0  0
   49.6990  158.7119   30.1041 C   0  0  0  0  0  0
   49.9946  160.6439   31.5210 C   0  0  0  0  0  0
   49.2021  159.6189   31.0392 C   0  0  0  0  0  0
   47.9120  159.7127   31.7138 C   0  0  0  0  0  0
   48.0838  160.8957   32.7210 C   0  0  0  0  0  0
   49.3259  161.3579   32.5037 N   0  0  0  0  0  0
   46.8847  159.0452   31.5952 O   0  0  0  0  0  0
   47.2578  161.2958   33.5387 O   0  0  0  0  0  0
   51.6480  157.8263   28.7615 C   0  0  0  0  0  0
   51.2560  156.5358   28.6721 C   0  0  0  0  0  0
   51.6575  155.5297   27.6693 C   0  0  0  0  0  0
   52.2078  155.9048   26.4364 C   0  0  0  0  0  0
   52.4523  154.9478   25.4538 C   0  0  0  0  0  0
   52.1517  153.6106   25.7037 C   0  0  0  0  0  0
   51.6346  153.2211   26.9369 C   0  0  0  0  0  0
   51.3880  154.1798   27.9174 C   0  0  0  0  0  0
   51.9265  161.6047   31.4230 H   0  0  0  0  0  0
   52.8190  160.0103   29.7811 H   0  0  0  0  0  0
   49.0769  157.8977   29.7695 H   0  0  0  0  0  0
   49.7567  162.0916   33.0473 H   0  0  0  0  0  0
   52.4242  158.1928   28.1053 H   0  0  0  0  0  0
   50.5035  156.1912   29.3661 H   0  0  0  0  0  0
   52.4165  156.9418   26.2174 H   0  0  0  0  0  0
   52.8694  155.2425   24.5033 H   0  0  0  0  0  0
   52.3405  152.8675   24.9424 H   0  0  0  0  0  0
   51.4112  152.1819   27.1282 H   0  0  0  0  0  0
   50.9658  153.8688   28.8627 H   0  0  0  0  0  0
  1  2  2  0  0  0
  1  5  1  0  0  0
  1 20  1  0  0  0
  2  3  1  0  0  0
  2 21  1  0  0  0
  3 12  1  0  0  0
  3  4  2  0  0  0
  4  6  1  0  0  0
  4 22  1  0  0  0
  5  9  1  0  0  0
  5  6  2  0  0  0
  6  7  1  0  0  0
  7 10  2  0  0  0
  7  8  1  0  0  0
  8 11  2  0  0  0
  8  9  1  0  0  0
  9 23  1  0  0  0
 12 13  2  0  0  0
 12 24  1  0  0  0
 13 14  1  0  0  0
 13 25  1  0  0  0
 14 15  2  0  0  0
 14 19  1  0  0  0
 15 16  1  0  0  0
 15 26  1  0  0  0
 16 17  2  0  0  0
 16 27  1  0  0  0
 17 18  1  0  0  0
 17 28  1  0  0  0
 18 19  2  0  0  0
 18 29  1  0  0  0
 19 30  1  0  0  0
M  END
> <s_m_entry_id>
10132

> <s_m_entry_name>
dock_pv.168

> <s_m_Source_Path>
/home/csk/Desktop/cluster/DUD-E-result/aofb

> <s_m_Source_File>
dock_pv.maegz

> <i_m_Source_File_Index>
168

> <chembl_id>
CHEMBL466872

> <chembl_pref_name>
None

> <i_lp_mmshare_version>
53161

> <i_f3d_flags>
0

> <r_lp_tautomer_probability>
1

> <s_lp_Force_Field>
OPLS_2005

> <r_lp_Energy>
35.459425

> <b_lp_Chiralities_Consistent>
1

> <s_lp_Variant>
CHEMBL2039_lig506-1

> <s_i_glide_gridfile>
glide-grid_1s3b

> <i_i_glide_lignum>
605

> <i_i_glide_rotatable_bonds>
2

> <r_i_docking_score>
-7.73667683344752

> <r_i_glide_ligand_efficiency>
-0.40719351754987

> <r_i_glide_ligand_efficiency_sa>
-1.08655585251253

> <r_i_glide_ligand_efficiency_ln>
-1.96141374586114

> <r_i_glide_gscore>
-7.73667683344752

> <r_i_glide_lipo>
-3.22423816167291

> <r_i_glide_hbond>
-0.0530866500672054

> <r_i_glide_metal>
0

> <r_i_glide_rewards>
-2.84166260080846

> <r_i_glide_evdw>
-37.5926475524902

> <r_i_glide_ecoul>
-2.0059597492218

> <r_i_glide_erotb>
0.562836919108841

> <r_i_glide_esite>
0

> <r_i_glide_emodel>
-53.6694298703557

> <r_i_glide_energy>
-39.598607301712

> <r_i_glide_einternal>
2.07448124885559

> <i_i_glide_confnum>
6

> <i_i_glide_posenum>
290

> <r_i_glide_eff_state_penalty>
0

> <s_user_duplicate_titles>
CHEMBL2039_lig506,481053

> <s_m_subgroup_title>
dock_pv

> <s_m_subgroupid>
dock_pv

> <b_m_subgroup_collapsed>
1

$$$$
CHEMBL2039_lig2529 
                    3D
 Schrodinger Suite 2021-1.
 51 53  0  0  1  0            999 V2000
   51.1401  154.9677   28.5173 C   0  0  0  0  0  0
   51.6560  156.2443   28.2875 C   0  0  0  0  0  0
   52.3528  156.4752   27.0956 C   0  0  0  0  0  0
   51.2826  153.9514   27.5669 C   0  0  0  0  0  0
   51.9269  154.2216   26.3550 C   0  0  0  0  0  0
   52.4561  155.4907   26.1315 C   0  0  0  0  0  0
   53.0889  155.6026   24.7749 C   0  0  0  0  0  0
   53.2349  154.1535   24.3419 C   0  0  0  0  0  0
   52.2477  153.3217   25.1780 C   0  0  1  0  0  0
   51.3871  157.2434   29.2102 O   0  0  0  0  0  0
   51.8403  158.5595   28.9045 C   0  0  0  0  0  0
   51.1844  159.6293   29.7736 C   0  0  0  0  0  0
   49.6793  159.6602   29.4715 C   0  0  0  0  0  0
   48.9106  160.6439   30.2395 N   0  0  0  0  0  0
   49.0306  160.4975   31.6965 C   0  0  0  0  0  0
   48.5216  159.1196   32.1487 C   0  0  0  0  0  0
   47.0683  158.8716   31.7319 C   0  0  0  0  0  0
   46.8211  159.2277   30.2601 C   0  0  0  0  0  0
   47.4928  160.5665   29.8614 C   0  0  0  0  0  0
   52.7837  152.0521   25.6614 N   0  0  1  0  0  0
   53.2967  151.2321   24.5708 C   0  0  0  0  0  0
   53.0763  149.8043   24.8299 C   0  0  0  0  0  0
   52.8560  148.6098   24.9473 C   0  0  0  0  0  0
   50.6174  154.7676   29.4401 H   0  0  0  0  0  0
   52.8168  157.4248   26.9040 H   0  0  0  0  0  0
   50.8914  152.9675   27.7756 H   0  0  0  0  0  0
   54.0534  156.1119   24.7846 H   0  0  0  0  0  0
   52.4210  156.1504   24.1115 H   0  0  0  0  0  0
   54.2640  153.8380   24.5271 H   0  0  0  0  0  0
   53.0735  154.0112   23.2745 H   0  0  0  0  0  0
   51.3314  153.1758   24.6129 H   0  0  0  0  0  0
   52.9280  158.6241   28.9055 H   0  0  0  0  0  0
   51.5140  158.7581   27.8951 H   0  0  0  0  0  0
   51.4078  159.4440   30.8195 H   0  0  0  0  0  0
   51.6240  160.5971   29.5362 H   0  0  0  0  0  0
   49.5517  159.8854   28.4122 H   0  0  0  0  0  0
   49.2863  158.6500   29.5787 H   0  0  0  0  0  0
   50.0635  160.6392   32.0149 H   0  0  0  0  0  0
   48.4662  161.2992   32.1745 H   0  0  0  0  0  0
   49.1566  158.3499   31.7040 H   0  0  0  0  0  0
   48.6188  159.0436   33.2316 H   0  0  0  0  0  0
   46.3950  159.4446   32.3714 H   0  0  0  0  0  0
   46.8562  157.8197   31.8902 H   0  0  0  0  0  0
   45.7445  159.2991   30.1043 H   0  0  0  0  0  0
   47.1337  158.4256   29.5913 H   0  0  0  0  0  0
   46.9570  161.4159   30.2883 H   0  0  0  0  0  0
   47.4410  160.6865   28.7808 H   0  0  0  0  0  0
   53.5493  152.3005   26.2737 H   0  0  0  0  0  0
   54.3667  151.3916   24.5043 H   0  0  0  0  0  0
   52.8560  151.4724   23.6021 H   0  0  0  0  0  0
   52.6325  147.5780   25.0897 H   0  0  0  0  0  0
  1  2  2  0  0  0
  1  4  1  0  0  0
  1 24  1  0  0  0
  2  3  1  0  0  0
  2 10  1  0  0  0
  3  6  2  0  0  0
  3 25  1  0  0  0
  4  5  2  0  0  0
  4 26  1  0  0  0
  5  6  1  0  0  0
  5  9  1  0  0  0
  6  7  1  0  0  0
  7  8  1  0  0  0
  7 27  1  0  0  0
  7 28  1  0  0  0
  8  9  1  0  0  0
  8 29  1  0  0  0
  8 30  1  0  0  0
  9 20  1  0  0  0
  9 31  1  0  0  0
 10 11  1  0  0  0
 11 12  1  0  0  0
 11 32  1  0  0  0
 11 33  1  0  0  0
 12 13  1  0  0  0
 12 34  1  0  0  0
 12 35  1  0  0  0
 13 14  1  0  0  0
 13 36  1  0  0  0
 13 37  1  0  0  0
 14 15  1  0  0  0
 14 19  1  0  0  0
 15 16  1  0  0  0
 15 38  1  0  0  0
 15 39  1  0  0  0
 16 17  1  0  0  0
 16 40  1  0  0  0
 16 41  1  0  0  0
 17 18  1  0  0  0
 17 42  1  0  0  0
 17 43  1  0  0  0
 18 19  1  0  0  0
 18 44  1  0  0  0
 18 45  1  0  0  0
 19 46  1  0  0  0
 19 47  1  0  0  0
 20 21  1  0  0  0
 20 48  1  0  0  0
 21 22  1  0  0  0
 21 49  1  0  0  0
 21 50  1  0  0  0
 22 23  3  0  0  0
 23 51  1  0  0  0
M  END
> <s_m_entry_id>
10133

> <s_m_entry_name>
dock_pv.169

> <s_m_Source_Path>
/home/csk/Desktop/cluster/DUD-E-result/aofb

> <s_m_Source_File>
dock_pv.maegz

> <i_m_Source_File_Index>
169

> <chembl_id>
CHEMBL4545912

> <chembl_pref_name>
None

> <i_lp_mmshare_version>
53161

> <i_f3d_flags>
0

> <r_lp_tautomer_probability>
1

> <s_lp_Force_Field>
OPLS_2005

> <r_lp_Energy>
37.598969

> <b_lp_Chiralities_Consistent>
1

> <s_lp_Variant>
CHEMBL2039_lig2529 -1

> <s_i_glide_gridfile>
glide-grid_1s3b

> <i_i_glide_lignum>
2932

> <i_i_glide_rotatable_bonds>
8

> <r_i_docking_score>
-7.73465388954222

> <r_i_glide_ligand_efficiency>
-0.336289299545314

> <r_i_glide_ligand_efficiency_sa>
-0.956362033654774

> <r_i_glide_ligand_efficiency_ln>
-1.87030944445522

> <r_i_glide_gscore>
-7.73465388954222

> <r_i_glide_lipo>
-5.24290006065242

> <r_i_glide_hbond>
-0.0277950908854078

> <r_i_glide_metal>
0

> <r_i_glide_rewards>
-1.96204832113094

> <r_i_glide_evdw>
-33.223274230957

> <r_i_glide_ecoul>
-1.14367830753326

> <r_i_glide_erotb>
1.33080504080439

> <r_i_glide_esite>
0

> <r_i_glide_emodel>
-43.3079713008202

> <r_i_glide_energy>
-34.3669525384903

> <r_i_glide_einternal>
6.34283971786499

> <i_i_glide_confnum>
95

> <i_i_glide_posenum>
367

> <r_i_glide_eff_state_penalty>
0

> <s_user_duplicate_titles>
CHEMBL2039_lig2529 

> <s_m_subgroup_title>
dock_pv

> <s_m_subgroupid>
dock_pv

> <b_m_subgroup_collapsed>
1

$$$$
CHEMBL2039_lig1761
                    3D
 Schrodinger Suite 2021-1.
 31 33  0  0  1  0            999 V2000
   51.6577  152.2622   26.5037 C   0  0  0  0  0  0
   52.3733  152.6321   25.4244 C   0  0  0  0  0  0
   52.7322  154.0117   25.1833 C   0  0  0  0  0  0
   52.3190  154.9249   26.2909 C   0  0  0  0  0  0
   52.7411  156.2506   26.3267 C   0  0  0  0  0  0
   52.4562  157.0442   27.4360 C   0  0  0  0  0  0
   51.6395  156.5844   28.4728 C   0  0  0  0  0  0
   51.2656  155.2425   28.4707 C   0  0  0  0  0  0
   51.6262  154.4194   27.4049 C   0  0  0  0  0  0
   51.2558  153.0957   27.4924 O   0  0  0  0  0  0
   53.3681  154.3842   24.2006 O   0  0  0  0  0  0
   51.0526  157.4044   29.4221 O   0  0  0  0  0  0
   51.1201  158.8212   29.3040 C   0  0  0  0  0  0
   50.1288  159.4683   30.2698 C   0  0  0  0  0  0
   48.8139  158.9972   30.3510 C   0  0  0  0  0  0
   47.9281  159.5367   31.2801 C   0  0  0  0  0  0
   48.3573  160.5500   32.1320 C   0  0  0  0  0  0
   49.6562  161.0439   32.0425 C   0  0  0  0  0  0
   50.5397  160.5118   31.1055 C   0  0  0  0  0  0
   47.5096  161.0537   33.0560 F   0  0  0  0  0  0
   51.3395  151.2443   26.6886 H   0  0  0  0  0  0
   52.6541  151.8873   24.6974 H   0  0  0  0  0  0
   53.3366  156.6586   25.5203 H   0  0  0  0  0  0
   52.8115  158.0604   27.4487 H   0  0  0  0  0  0
   50.6723  154.8444   29.2778 H   0  0  0  0  0  0
   50.8556  159.1228   28.2955 H   0  0  0  0  0  0
   52.1379  159.1606   29.5021 H   0  0  0  0  0  0
   48.4849  158.1964   29.7098 H   0  0  0  0  0  0
   46.9186  159.1617   31.3558 H   0  0  0  0  0  0
   49.9832  161.8320   32.7050 H   0  0  0  0  0  0
   51.5517  160.8899   31.0594 H   0  0  0  0  0  0
  1  2  2  0  0  0
  1 10  1  0  0  0
  1 21  1  0  0  0
  2  3  1  0  0  0
  2 22  1  0  0  0
  3  4  1  0  0  0
  3 11  2  0  0  0
  4  5  1  0  0  0
  4  9  2  0  0  0
  5  6  2  0  0  0
  5 23  1  0  0  0
  6  7  1  0  0  0
  6 24  1  0  0  0
  7  8  2  0  0  0
  7 12  1  0  0  0
  8  9  1  0  0  0
  8 25  1  0  0  0
  9 10  1  0  0  0
 12 13  1  0  0  0
 13 14  1  0  0  0
 13 26  1  0  0  0
 13 27  1  0  0  0
 14 15  1  0  0  0
 14 19  2  0  0  0
 15 16  2  0  0  0
 15 28  1  0  0  0
 16 17  1  0  0  0
 16 29  1  0  0  0
 17 18  2  0  0  0
 17 20  1  0  0  0
 18 19  1  0  0  0
 18 30  1  0  0  0
 19 31  1  0  0  0
M  END
> <s_m_entry_id>
10134

> <s_m_entry_name>
dock_pv.170

> <s_m_Source_Path>
/home/csk/Desktop/cluster/DUD-E-result/aofb

> <s_m_Source_File>
dock_pv.maegz

> <i_m_Source_File_Index>
170

> <chembl_id>
CHEMBL3927065

> <chembl_pref_name>
None

> <i_lp_mmshare_version>
53161

> <i_f3d_flags>
0

> <r_lp_tautomer_probability>
1

> <s_lp_Force_Field>
OPLS_2005

> <r_lp_Energy>
16.333485

> <b_lp_Chiralities_Consistent>
1

> <s_lp_Variant>
CHEMBL2039_lig1761-1

> <s_i_glide_gridfile>
glide-grid_1s3b

> <i_i_glide_lignum>
2049

> <i_i_glide_rotatable_bonds>
3

> <r_i_docking_score>
-7.7301087002911

> <r_i_glide_ligand_efficiency>
-0.386505435014555

> <r_i_glide_ligand_efficiency_sa>
-1.04913716066554

> <r_i_glide_ligand_efficiency_ln>
-1.93459125163448

> <r_i_glide_gscore>
-7.7301087002911

> <r_i_glide_lipo>
-3.81939602066965

> <r_i_glide_hbond>
0

> <r_i_glide_metal>
0

> <r_i_glide_rewards>
-2.91121922620064

> <r_i_glide_evdw>
-27.2235469818115

> <r_i_glide_ecoul>
-2.48567152023315

> <r_i_glide_erotb>
0.734534623704745

> <r_i_glide_esite>
0

> <r_i_glide_emodel>
-38.5919685494085

> <r_i_glide_energy>
-29.7092185020447

> <r_i_glide_einternal>
2.43442225456238

> <i_i_glide_confnum>
11

> <i_i_glide_posenum>
58

> <r_i_glide_eff_state_penalty>
0

> <s_user_duplicate_titles>
CHEMBL2039_lig1761

> <s_m_subgroup_title>
dock_pv

> <s_m_subgroupid>
dock_pv

> <b_m_subgroup_collapsed>
1

$$$$
CHEMBL2039_lig1930
                    3D
 Schrodinger Suite 2021-1.
 35 37  0  0  1  0            999 V2000
   52.8560  151.5527   25.0036 C   0  0  0  0  0  0
   53.2560  152.3976   23.9719 C   0  0  0  0  0  0
   53.1545  153.7755   24.1052 C   0  0  0  0  0  0
   52.1871  152.0967   26.1040 C   0  0  0  0  0  0
   52.0860  153.4796   26.2634 C   0  0  0  0  0  0
   52.5915  154.3107   25.2570 C   0  0  0  0  0  0
   52.6034  155.6790   25.3744 O   0  0  0  0  0  0
   52.1456  156.2096   26.5309 C   0  0  0  0  0  0
   51.6560  155.5316   27.6008 C   0  0  0  0  0  0
   51.6098  154.0571   27.5470 C   0  0  0  0  0  0
   51.0653  156.2440   28.7171 C   0  0  0  0  0  0
   51.4881  157.5238   28.9118 N   0  0  0  0  0  0
   50.1300  155.7474   29.3393 O   0  0  0  0  0  0
   50.8737  158.5455   29.6849 C   0  0  0  0  0  0
   51.6560  159.6541   30.0214 C   0  0  0  0  0  0
   51.1451  160.6823   30.8116 C   0  0  0  0  0  0
   49.8197  160.6420   31.2392 C   0  0  0  0  0  0
   49.0102  159.5680   30.8758 C   0  0  0  0  0  0
   49.5318  158.5305   30.1040 C   0  0  0  0  0  0
   53.0377  150.0503   24.8766 C   0  0  0  0  0  0
   47.7053  159.5211   31.2859 O   0  0  0  0  0  0
   51.2560  153.3140   28.4606 O   0  0  0  0  0  0
   53.6560  151.9852   23.0614 H   0  0  0  0  0  0
   53.5458  154.4107   23.3308 H   0  0  0  0  0  0
   51.7658  151.4440   26.8556 H   0  0  0  0  0  0
   52.1749  157.2875   26.4595 H   0  0  0  0  0  0
   52.3879  157.7663   28.5274 H   0  0  0  0  0  0
   52.6875  159.7020   29.7040 H   0  0  0  0  0  0
   51.7771  161.5113   31.0962 H   0  0  0  0  0  0
   49.4334  161.4438   31.8512 H   0  0  0  0  0  0
   48.8744  157.7105   29.8732 H   0  0  0  0  0  0
   52.3488  149.5020   25.5200 H   0  0  0  0  0  0
   52.8560  149.7230   23.8533 H   0  0  0  0  0  0
   54.0561  149.7636   25.1238 H   0  0  0  0  0  0
   47.4606  160.2764   31.8233 H   0  0  0  0  0  0
  1  2  2  0  0  0
  1  4  1  0  0  0
  1 20  1  0  0  0
  2  3  1  0  0  0
  2 23  1  0  0  0
  3  6  2  0  0  0
  3 24  1  0  0  0
  4  5  2  0  0  0
  4 25  1  0  0  0
  5  6  1  0  0  0
  5 10  1  0  0  0
  6  7  1  0  0  0
  7  8  1  0  0  0
  8  9  2  0  0  0
  8 26  1  0  0  0
  9 10  1  0  0  0
  9 11  1  0  0  0
 10 22  2  0  0  0
 11 12  1  0  0  0
 11 13  2  0  0  0
 12 14  1  0  0  0
 12 27  1  0  0  0
 14 15  2  0  0  0
 14 19  1  0  0  0
 15 16  1  0  0  0
 15 28  1  0  0  0
 16 17  2  0  0  0
 16 29  1  0  0  0
 17 18  1  0  0  0
 17 30  1  0  0  0
 18 19  2  0  0  0
 18 21  1  0  0  0
 19 31  1  0  0  0
 20 32  1  0  0  0
 20 33  1  0  0  0
 20 34  1  0  0  0
 21 35  1  0  0  0
M  END
> <s_m_entry_id>
10135

> <s_m_entry_name>
dock_pv.171

> <s_m_Source_Path>
/home/csk/Desktop/cluster/DUD-E-result/aofb

> <s_m_Source_File>
dock_pv.maegz

> <i_m_Source_File_Index>
171

> <chembl_id>
CHEMBL4089098

> <chembl_pref_name>
None

> <i_lp_mmshare_version>
53161

> <i_f3d_flags>
0

> <r_lp_tautomer_probability>
0.999999999997365

> <s_lp_Force_Field>
OPLS_2005

> <r_lp_Energy>
24.691738

> <b_lp_Chiralities_Consistent>
1

> <s_lp_Variant>
CHEMBL2039_lig1930-1

> <s_i_glide_gridfile>
glide-grid_1s3b

> <i_i_glide_lignum>
2265

> <i_i_glide_rotatable_bonds>
4

> <r_i_docking_score>
-7.7270789781609

> <r_i_glide_ligand_efficiency>
-0.351230862643677

> <r_i_glide_ligand_efficiency_sa>
-0.984162690253575

> <r_i_glide_ligand_efficiency_ln>
-1.88877995431648

> <r_i_glide_gscore>
-7.7270789781609

> <r_i_glide_lipo>
-4.1166408884128

> <r_i_glide_hbond>
0

> <r_i_glide_metal>
0

> <r_i_glide_rewards>
-2.61887808878873

> <r_i_glide_evdw>
-25.2731552124023

> <r_i_glide_ecoul>
-2.38392376899719

> <r_i_glide_erotb>
0.629686325010318

> <r_i_glide_esite>
0

> <r_i_glide_emodel>
-33.4918136097525

> <r_i_glide_energy>
-27.6570789813995

> <r_i_glide_einternal>
3.57996106147766

> <i_i_glide_confnum>
7

> <i_i_glide_posenum>
384

> <r_i_glide_eff_state_penalty>
0

> <s_user_duplicate_titles>
CHEMBL2039_lig1930

> <s_m_subgroup_title>
dock_pv

> <s_m_subgroupid>
dock_pv

> <b_m_subgroup_collapsed>
1

$$$$
CHEMBL2039_lig1666
                    3D
 Schrodinger Suite 2021-1.
 33 34  0  0  1  0            999 V2000
   47.7712  160.2634   32.0368 C   0  0  0  0  0  0
   46.5947  159.4518   31.4985 C   0  0  0  0  0  0
   49.0895  160.1180   31.3437 C   0  0  0  0  0  0
   49.3623  159.0306   30.5019 C   0  0  0  0  0  0
   50.6193  158.8624   29.9153 C   0  0  0  0  0  0
   51.5995  159.8440   30.1047 C   0  0  0  0  0  0
   51.3490  160.9245   30.9474 C   0  0  0  0  0  0
   50.1127  161.0438   31.5833 C   0  0  0  0  0  0
   50.8482  157.6503   29.3012 O   0  0  0  0  0  0
   52.0559  157.4079   28.5795 C   0  0  0  0  0  0
   51.9367  156.0964   27.8124 C   0  0  0  0  0  0
   52.4560  155.9818   26.5174 C   0  0  0  0  0  0
   52.4087  154.7598   25.8245 C   0  0  0  0  0  0
   51.7504  153.6733   26.4150 C   0  0  0  0  0  0
   51.2395  153.7802   27.7059 C   0  0  0  0  0  0
   51.3280  154.9839   28.4024 C   0  0  0  0  0  0
   53.1629  154.5742   24.5687 N   0  3  0  0  0  0
   52.8725  153.6287   23.8427 O   0  0  0  0  0  0
   54.0838  155.3504   24.3386 O   0  5  0  0  0  0
   47.5698  161.0450   32.9664 O   0  0  0  0  0  0
   46.7442  158.3917   31.6994 H   0  0  0  0  0  0
   46.5086  159.5824   30.4209 H   0  0  0  0  0  0
   45.6574  159.7755   31.9540 H   0  0  0  0  0  0
   48.6310  158.2531   30.3403 H   0  0  0  0  0  0
   52.5918  159.7294   29.6987 H   0  0  0  0  0  0
   52.1247  161.6494   31.1448 H   0  0  0  0  0  0
   49.9616  161.8720   32.2611 H   0  0  0  0  0  0
   52.2830  158.2401   27.9111 H   0  0  0  0  0  0
   52.8607  157.2952   29.3000 H   0  0  0  0  0  0
   52.9646  156.8280   26.0786 H   0  0  0  0  0  0
   51.7036  152.7176   25.9122 H   0  0  0  0  0  0
   50.7882  152.9183   28.1763 H   0  0  0  0  0  0
   50.9359  155.0424   29.4071 H   0  0  0  0  0  0
  1  2  1  0  0  0
  1  3  1  0  0  0
  1 20  2  0  0  0
  2 21  1  0  0  0
  2 22  1  0  0  0
  2 23  1  0  0  0
  3  4  1  0  0  0
  3  8  2  0  0  0
  4  5  2  0  0  0
  4 24  1  0  0  0
  5  6  1  0  0  0
  5  9  1  0  0  0
  6  7  2  0  0  0
  6 25  1  0  0  0
  7  8  1  0  0  0
  7 26  1  0  0  0
  8 27  1  0  0  0
  9 10  1  0  0  0
 10 11  1  0  0  0
 10 28  1  0  0  0
 10 29  1  0  0  0
 11 12  1  0  0  0
 11 16  2  0  0  0
 12 13  2  0  0  0
 12 30  1  0  0  0
 13 14  1  0  0  0
 13 17  1  0  0  0
 14 15  2  0  0  0
 14 31  1  0  0  0
 15 16  1  0  0  0
 15 32  1  0  0  0
 16 33  1  0  0  0
 17 18  2  0  0  0
 17 19  1  0  0  0
M  CHG  2  17   1  19  -1
M  END
> <s_m_entry_id>
10136

> <s_m_entry_name>
dock_pv.172

> <s_m_Source_Path>
/home/csk/Desktop/cluster/DUD-E-result/aofb

> <s_m_Source_File>
dock_pv.maegz

> <i_m_Source_File_Index>
172

> <chembl_id>
CHEMBL3769462

> <chembl_pref_name>
None

> <i_lp_mmshare_version>
53161

> <i_f3d_flags>
0

> <r_lp_tautomer_probability>
0.99995

> <s_lp_Force_Field>
OPLS_2005

> <r_lp_Energy>
23.90213

> <b_lp_Chiralities_Consistent>
1

> <s_lp_Variant>
CHEMBL2039_lig1666-1

> <s_i_glide_gridfile>
glide-grid_1s3b

> <i_i_glide_lignum>
1934

> <i_i_glide_rotatable_bonds>
5

> <r_i_docking_score>
-7.72388738566747

> <r_i_glide_ligand_efficiency>
-0.386194369283374

> <r_i_glide_ligand_efficiency_sa>
-1.04829279836575

> <r_i_glide_ligand_efficiency_ln>
-1.93303426177687

> <r_i_glide_gscore>
-7.72388738566747

> <r_i_glide_lipo>
-3.41281778533695

> <r_i_glide_hbond>
0

> <r_i_glide_metal>
0

> <r_i_glide_rewards>
-2.97893880837964

> <r_i_glide_evdw>
-36.7411804199219

> <r_i_glide_ecoul>
-1.49911534786224

> <r_i_glide_erotb>
0.729795531224546

> <r_i_glide_esite>
0

> <r_i_glide_emodel>
-48.7981310311994

> <r_i_glide_energy>
-38.2402957677841

> <r_i_glide_einternal>
5.704026222229

> <i_i_glide_confnum>
32

> <i_i_glide_posenum>
397

> <r_i_glide_eff_state_penalty>
0

> <s_user_duplicate_titles>
CHEMBL2039_lig1666

> <s_m_subgroup_title>
dock_pv

> <s_m_subgroupid>
dock_pv

> <b_m_subgroup_collapsed>
1

$$$$
CHEMBL2039_lig991
                    3D
 Schrodinger Suite 2021-1.
 31 33  0  0  1  0            999 V2000
   52.4562  153.4442   24.6943 C   0  0  0  0  0  0
   53.6227  154.4374   24.5640 C   0  0  0  0  0  0
   53.1250  155.8464   24.9580 C   0  0  0  0  0  0
   51.9235  153.3773   26.1293 C   0  0  0  0  0  0
   51.8136  154.6914   26.8320 C   0  0  0  0  0  0
   52.4542  155.8434   26.3339 C   0  0  0  0  0  0
   52.5999  156.9477   27.1082 N   0  0  0  0  0  0
   51.9728  156.9808   28.3037 C   0  0  0  0  0  0
   51.2561  155.9541   28.8324 N   0  0  0  0  0  0
   51.2556  154.7982   28.1157 C   0  0  0  0  0  0
   52.0066  158.2440   28.9037 N   0  0  0  0  0  0
   51.6306  152.3200   26.6802 O   0  0  0  0  0  0
   51.1559  158.9740   29.7500 C   0  0  0  0  0  0
   49.8562  158.5728   30.0854 C   0  0  0  0  0  0
   49.0578  159.3534   30.9217 C   0  0  0  0  0  0
   49.5743  160.5185   31.4852 C   0  0  0  0  0  0
   50.8820  160.9062   31.1994 C   0  0  0  0  0  0
   51.6558  160.1535   30.3153 C   0  0  0  0  0  0
   47.4419  158.8628   31.2767 Cl  0  0  0  0  0  0
   52.7671  152.4536   24.3615 H   0  0  0  0  0  0
   51.6552  153.8463   24.0903 H   0  0  0  0  0  0
   54.4651  154.1298   25.1848 H   0  0  0  0  0  0
   53.9997  154.4393   23.5408 H   0  0  0  0  0  0
   53.9392  156.5708   24.9091 H   0  0  0  0  0  0
   52.3769  156.1845   24.2418 H   0  0  0  0  0  0
   50.7874  153.9488   28.5941 H   0  0  0  0  0  0
   52.6616  158.8387   28.4125 H   0  0  0  0  0  0
   49.4593  157.6483   29.7040 H   0  0  0  0  0  0
   48.9710  161.1118   32.1566 H   0  0  0  0  0  0
   51.2942  161.7892   31.6673 H   0  0  0  0  0  0
   52.6698  160.4634   30.1097 H   0  0  0  0  0  0
  1  2  1  0  0  0
  1  4  1  0  0  0
  1 20  1  0  0  0
  1 21  1  0  0  0
  2  3  1  0  0  0
  2 22  1  0  0  0
  2 23  1  0  0  0
  3  6  1  0  0  0
  3 24  1  0  0  0
  3 25  1  0  0  0
  4  5  1  0  0  0
  4 12  2  0  0  0
  5  6  2  0  0  0
  5 10  1  0  0  0
  6  7  1  0  0  0
  7  8  2  0  0  0
  8  9  1  0  0  0
  8 11  1  0  0  0
  9 10  2  0  0  0
 10 26  1  0  0  0
 11 13  1  0  0  0
 11 27  1  0  0  0
 13 14  2  0  0  0
 13 18  1  0  0  0
 14 15  1  0  0  0
 14 28  1  0  0  0
 15 16  2  0  0  0
 15 19  1  0  0  0
 16 17  1  0  0  0
 16 29  1  0  0  0
 17 18  2  0  0  0
 17 30  1  0  0  0
 18 31  1  0  0  0
M  END
> <s_m_entry_id>
10137

> <s_m_entry_name>
dock_pv.173

> <s_m_Source_Path>
/home/csk/Desktop/cluster/DUD-E-result/aofb

> <s_m_Source_File>
dock_pv.maegz

> <i_m_Source_File_Index>
173

> <chembl_id>
CHEMBL2408585

> <chembl_pref_name>
None

> <i_lp_mmshare_version>
53161

> <i_f3d_flags>
0

> <r_lp_tautomer_probability>
0.99995

> <s_lp_Force_Field>
OPLS_2005

> <r_lp_Energy>
9.380993

> <b_lp_Chiralities_Consistent>
1

> <s_lp_Variant>
CHEMBL2039_lig991-1

> <s_i_glide_gridfile>
glide-grid_1s3b

> <i_i_glide_lignum>
1138

> <i_i_glide_rotatable_bonds>
2

> <r_i_docking_score>
-7.7227475672622

> <r_i_glide_ligand_efficiency>
-0.406460398276958

> <r_i_glide_ligand_efficiency_sa>
-1.0845995958379

> <r_i_glide_ligand_efficiency_ln>
-1.95788237770995

> <r_i_glide_gscore>
-7.7227475672622

> <r_i_glide_lipo>
-2.96950666507936

> <r_i_glide_hbond>
-0.32

> <r_i_glide_metal>
0

> <r_i_glide_rewards>
-3.14697774570058

> <r_i_glide_evdw>
-30.704460144043

> <r_i_glide_ecoul>
-1.36373448371887

> <r_i_glide_erotb>
0.479016733711352

> <r_i_glide_esite>
-0.0254967104336329

> <r_i_glide_emodel>
-41.8272694423262

> <r_i_glide_energy>
-32.0681946277618

> <r_i_glide_einternal>
4.41432762145996

> <i_i_glide_confnum>
8

> <i_i_glide_posenum>
12

> <r_i_glide_eff_state_penalty>
0

> <s_user_duplicate_titles>
CHEMBL2039_lig991

> <s_m_subgroup_title>
dock_pv

> <s_m_subgroupid>
dock_pv

> <b_m_subgroup_collapsed>
1

$$$$
CHEMBL2039_lig2296
                    3D
 Schrodinger Suite 2021-1.
 37 39  0  0  1  0            999 V2000
   47.6028  160.3629   31.9120 C   0  0  0  0  0  0
   47.1030  159.1856   31.3505 C   0  0  0  0  0  0
   47.9392  158.3598   30.5954 C   0  0  0  0  0  0
   48.9239  160.7488   31.6811 C   0  0  0  0  0  0
   49.7324  159.9419   30.8782 C   0  0  0  0  0  0
   49.2617  158.7287   30.3716 C   0  0  0  0  0  0
   50.1214  157.8306   29.7041 N   0  0  0  0  0  0
   51.2887  158.2038   29.3301 C   0  0  0  0  0  0
   51.7273  159.4413   29.7040 N   0  0  0  0  0  0
   51.1323  160.3497   30.5039 C   0  0  0  0  0  0
   52.4600  157.0883   28.5040 S   0  0  0  0  0  0
   51.7206  161.3719   30.8369 O   0  0  0  0  0  0
   51.9386  155.3429   28.8564 C   0  0  0  0  0  0
   50.7311  154.8955   28.1041 C   0  0  0  0  0  0
   50.9666  153.7502   27.0946 C   0  0  0  0  0  0
   52.0188  153.9645   26.0154 C   0  0  0  0  0  0
   52.5976  152.8334   25.4426 C   0  0  0  0  0  0
   53.6075  152.9763   24.5038 C   0  0  0  0  0  0
   54.0522  154.2439   24.1405 C   0  0  0  0  0  0
   53.4660  155.3780   24.6942 C   0  0  0  0  0  0
   52.4231  155.2393   25.6021 C   0  0  0  0  0  0
   46.9585  160.9854   32.5154 H   0  0  0  0  0  0
   46.0713  158.9125   31.5156 H   0  0  0  0  0  0
   47.5692  157.4443   30.1714 H   0  0  0  0  0  0
   49.3011  161.6714   32.1029 H   0  0  0  0  0  0
   52.6969  159.6370   29.5204 H   0  0  0  0  0  0
   51.6561  155.0440   29.8500 H   0  0  0  0  0  0
   52.7930  154.7174   28.6043 H   0  0  0  0  0  0
   50.4560  155.8395   27.7028 H   0  0  0  0  0  0
   49.9105  154.6440   28.7759 H   0  0  0  0  0  0
   50.0540  153.5004   26.5752 H   0  0  0  0  0  0
   51.2327  152.8601   27.6680 H   0  0  0  0  0  0
   52.2824  151.8427   25.7371 H   0  0  0  0  0  0
   54.0558  152.0952   24.0763 H   0  0  0  0  0  0
   54.8564  154.3437   23.4264 H   0  0  0  0  0  0
   53.8081  156.3624   24.4114 H   0  0  0  0  0  0
   51.9572  156.1279   25.9946 H   0  0  0  0  0  0
  1  2  2  0  0  0
  1  4  1  0  0  0
  1 22  1  0  0  0
  2  3  1  0  0  0
  2 23  1  0  0  0
  3  6  2  0  0  0
  3 24  1  0  0  0
  4  5  2  0  0  0
  4 25  1  0  0  0
  5  6  1  0  0  0
  5 10  1  0  0  0
  6  7  1  0  0  0
  7  8  2  0  0  0
  8  9  1  0  0  0
  8 11  1  0  0  0
  9 10  1  0  0  0
  9 26  1  0  0  0
 10 12  2  0  0  0
 11 13  1  0  0  0
 13 14  1  0  0  0
 13 27  1  0  0  0
 13 28  1  0  0  0
 14 15  1  0  0  0
 14 29  1  0  0  0
 14 30  1  0  0  0
 15 16  1  0  0  0
 15 31  1  0  0  0
 15 32  1  0  0  0
 16 17  2  0  0  0
 16 21  1  0  0  0
 17 18  1  0  0  0
 17 33  1  0  0  0
 18 19  2  0  0  0
 18 34  1  0  0  0
 19 20  1  0  0  0
 19 35  1  0  0  0
 20 21  2  0  0  0
 20 36  1  0  0  0
 21 37  1  0  0  0
M  END
> <s_m_entry_id>
10138

> <s_m_entry_name>
dock_pv.174

> <s_m_Source_Path>
/home/csk/Desktop/cluster/DUD-E-result/aofb

> <s_m_Source_File>
dock_pv.maegz

> <i_m_Source_File_Index>
174

> <chembl_id>
CHEMBL4295095

> <chembl_pref_name>
None

> <i_lp_mmshare_version>
53161

> <i_f3d_flags>
0

> <r_lp_tautomer_probability>
0.883938

> <s_lp_Force_Field>
OPLS_2005

> <r_lp_Energy>
17.598509

> <b_lp_Chiralities_Consistent>
1

> <s_lp_Variant>
CHEMBL2039_lig2296-1

> <s_i_glide_gridfile>
glide-grid_1s3b

> <i_i_glide_lignum>
2665

> <i_i_glide_rotatable_bonds>
5

> <r_i_docking_score>
-7.72245027067996

> <r_i_glide_ligand_efficiency>
-0.367735727175236

> <r_i_glide_ligand_efficiency_sa>
-1.01455498719324

> <r_i_glide_ligand_efficiency_ln>
-1.90936022474554

> <r_i_glide_gscore>
-7.72245027067996

> <r_i_glide_lipo>
-4.41152896163784

> <r_i_glide_hbond>
-0.0668509842742111

> <r_i_glide_metal>
0

> <r_i_glide_rewards>
-2.51187838695795

> <r_i_glide_evdw>
-25.1003513336182

> <r_i_glide_ecoul>
-0.626492381095886

> <r_i_glide_erotb>
0.62561462156025

> <r_i_glide_esite>
-0.00881513552491237

> <r_i_glide_emodel>
-29.7204823106015

> <r_i_glide_energy>
-25.7268437147141

> <r_i_glide_einternal>
4.73292970657349

> <i_i_glide_confnum>
5

> <i_i_glide_posenum>
238

> <r_i_glide_eff_state_penalty>
0

> <s_user_duplicate_titles>
CHEMBL2039_lig2296,CHEMBL2039_lig2296

> <s_m_subgroup_title>
dock_pv

> <s_m_subgroupid>
dock_pv

> <b_m_subgroup_collapsed>
1

$$$$
CHEMBL2039_lig132
                    3D
 Schrodinger Suite 2021-1.
 39 41  0  0  1  0            999 V2000
   52.1593  152.7710   26.3918 O   0  0  0  0  0  0
   52.8248  152.3244   25.2506 C   0  0  0  0  0  0
   52.4053  154.5066   25.0899 N   0  0  0  0  0  0
   52.0560  154.1175   26.2322 C   0  0  0  0  0  0
   52.9570  153.4472   24.5058 N   0  0  0  0  0  0
   54.1296  157.0440   24.1040 N   0  0  0  0  0  0
   53.2560  150.7614   24.9040 S   0  0  0  0  0  0
   51.7220  154.9756   27.3680 C   0  0  0  0  0  0
   54.4560  155.9889   23.7589 C   0  0  0  0  0  0
   52.3092  156.2441   27.4637 C   0  0  0  0  0  0
   50.8560  154.5454   28.3616 C   0  0  0  0  0  0
   50.1937  157.6805   30.1038 O   0  0  0  0  0  0
   53.6622  153.6133   23.2455 C   0  0  0  0  0  0
   54.8258  154.6377   23.3079 C   0  0  0  0  0  0
   50.8560  156.7770   29.3040 C   0  0  0  0  0  0
   50.3153  159.0672   29.8128 C   0  0  0  0  0  0
   51.9238  157.1231   28.4688 C   0  0  0  0  0  0
   50.3930  155.4575   29.3040 C   0  0  0  0  0  0
   49.3626  159.7996   30.7291 C   0  0  0  0  0  0
   49.8765  160.6494   31.7040 C   0  0  0  0  0  0
   47.9874  159.5611   30.6493 C   0  0  0  0  0  0
   49.0220  161.2229   32.6370 C   0  0  0  0  0  0
   47.1306  160.1520   31.5738 C   0  0  0  0  0  0
   47.6560  160.9714   32.5717 C   0  0  0  0  0  0
   53.0463  156.5710   26.7429 H   0  0  0  0  0  0
   50.4560  153.5427   28.3405 H   0  0  0  0  0  0
   52.9076  153.8440   22.5040 H   0  0  0  0  0  0
   54.0560  152.6584   22.9039 H   0  0  0  0  0  0
   55.2560  154.7484   22.3157 H   0  0  0  0  0  0
   55.6040  154.2767   23.9825 H   0  0  0  0  0  0
   51.3399  159.4058   29.9802 H   0  0  0  0  0  0
   50.0562  159.2890   28.7761 H   0  0  0  0  0  0
   52.3652  158.1081   28.4860 H   0  0  0  0  0  0
   49.6195  155.1543   29.9933 H   0  0  0  0  0  0
   50.9395  160.8311   31.7809 H   0  0  0  0  0  0
   47.5903  158.8970   29.8947 H   0  0  0  0  0  0
   49.4291  161.8440   33.4191 H   0  0  0  0  0  0
   46.0677  159.9615   31.5292 H   0  0  0  0  0  0
   46.9958  161.4143   33.3031 H   0  0  0  0  0  0
  1  2  1  0  0  0
  1  4  1  0  0  0
  2  5  1  0  0  0
  2  7  2  0  0  0
  3  4  2  0  0  0
  3  5  1  0  0  0
  4  8  1  0  0  0
  5 13  1  0  0  0
  6  9  3  0  0  0
  8 10  2  0  0  0
  8 11  1  0  0  0
  9 14  1  0  0  0
 10 17  1  0  0  0
 10 25  1  0  0  0
 11 18  2  0  0  0
 11 26  1  0  0  0
 12 15  1  0  0  0
 12 16  1  0  0  0
 13 14  1  0  0  0
 13 27  1  0  0  0
 13 28  1  0  0  0
 14 29  1  0  0  0
 14 30  1  0  0  0
 15 18  1  0  0  0
 15 17  2  0  0  0
 16 19  1  0  0  0
 16 31  1  0  0  0
 16 32  1  0  0  0
 17 33  1  0  0  0
 18 34  1  0  0  0
 19 20  1  0  0  0
 19 21  2  0  0  0
 20 22  2  0  0  0
 20 35  1  0  0  0
 21 23  1  0  0  0
 21 36  1  0  0  0
 22 24  1  0  0  0
 22 37  1  0  0  0
 23 24  2  0  0  0
 23 38  1  0  0  0
 24 39  1  0  0  0
M  END
> <s_m_entry_id>
10139

> <s_m_entry_name>
dock_pv.175

> <s_m_Source_Path>
/home/csk/Desktop/cluster/DUD-E-result/aofb

> <s_m_Source_File>
dock_pv.maegz

> <i_m_Source_File_Index>
175

> <chembl_id>
CHEMBL17079

> <chembl_pref_name>
None

> <i_lp_mmshare_version>
53161

> <i_f3d_flags>
0

> <r_lp_tautomer_probability>
1

> <s_lp_Force_Field>
OPLS_2005

> <r_lp_Energy>
26.095364

> <b_lp_Chiralities_Consistent>
1

> <s_lp_Variant>
CHEMBL2039_lig132-1

> <s_i_glide_gridfile>
glide-grid_1s3b

> <i_i_glide_lignum>
158

> <i_i_glide_rotatable_bonds>
6

> <r_i_docking_score>
-7.72063875358958

> <r_i_glide_ligand_efficiency>
-0.321693281399566

> <r_i_glide_ligand_efficiency_sa>
-0.927923992755611

> <r_i_glide_ligand_efficiency_ln>
-1.84790313076139

> <r_i_glide_gscore>
-7.72063875358958

> <r_i_glide_lipo>
-3.99399440236554

> <r_i_glide_hbond>
0

> <r_i_glide_metal>
0

> <r_i_glide_rewards>
-3.04078283206974

> <r_i_glide_evdw>
-19.1077823638916

> <r_i_glide_ecoul>
-3.73701643943787

> <r_i_glide_erotb>
0.830080064955966

> <r_i_glide_esite>
0

> <r_i_glide_emodel>
-19.8567177983271

> <r_i_glide_energy>
-22.8447988033295

> <r_i_glide_einternal>
8.99020195007324

> <i_i_glide_confnum>
19

> <i_i_glide_posenum>
186

> <r_i_glide_eff_state_penalty>
0

> <s_user_duplicate_titles>
CHEMBL2039_lig132,17971

> <s_m_subgroup_title>
dock_pv

> <s_m_subgroupid>
dock_pv

> <b_m_subgroup_collapsed>
1

$$$$
CHEMBL2039_lig565
                    3D
 Schrodinger Suite 2021-1.
 35 37  0  0  1  0            999 V2000
   53.2560  152.4707   23.8204 C   0  0  0  0  0  0
   52.8560  151.6142   24.8396 C   0  0  0  0  0  0
   52.2334  152.1408   25.9639 C   0  0  0  0  0  0
   53.2554  153.8440   24.0201 C   0  0  0  0  0  0
   52.7142  154.3666   25.1800 C   0  0  0  0  0  0
   52.1583  153.5237   26.1467 C   0  0  0  0  0  0
   51.6562  154.0826   27.4204 C   0  0  0  0  0  0
   51.8114  155.5556   27.5373 C   0  0  0  0  0  0
   52.3734  156.2440   26.5144 C   0  0  0  0  0  0
   52.8070  155.7278   25.3441 O   0  0  0  0  0  0
   51.2560  153.3126   28.2917 O   0  0  0  0  0  0
   51.2560  156.2442   28.6818 C   0  0  0  0  0  0
   50.4160  155.6643   29.3654 O   0  0  0  0  0  0
   51.5851  157.5524   28.9040 N   0  0  0  0  0  0
   50.8551  158.4799   29.7040 C   0  0  0  0  0  0
   51.4536  159.6817   30.1037 C   0  0  0  0  0  0
   50.7528  160.5902   30.9049 C   0  0  0  0  0  0
   49.4447  160.3139   31.3174 C   0  0  0  0  0  0
   48.8413  159.1315   30.8931 C   0  0  0  0  0  0
   49.5326  158.2438   30.1040 C   0  0  0  0  0  0
   48.7946  161.2272   32.1237 O   0  0  0  0  0  0
   47.6856  160.7899   32.9155 C   0  0  0  0  0  0
   48.0560  159.8441   33.7773 F   0  0  0  0  0  0
   46.6455  160.3751   32.1922 F   0  0  0  0  0  0
   47.2560  161.8292   33.6127 F   0  0  0  0  0  0
   53.6562  152.0686   22.9041 H   0  0  0  0  0  0
   52.9142  150.5434   24.7047 H   0  0  0  0  0  0
   51.8147  151.4578   26.6906 H   0  0  0  0  0  0
   53.7079  154.5015   23.3027 H   0  0  0  0  0  0
   52.4935  157.3179   26.5026 H   0  0  0  0  0  0
   52.4437  157.8953   28.5023 H   0  0  0  0  0  0
   52.4741  159.8958   29.8239 H   0  0  0  0  0  0
   51.2374  161.4970   31.2364 H   0  0  0  0  0  0
   47.8398  158.8437   31.1608 H   0  0  0  0  0  0
   48.9853  157.3580   29.8365 H   0  0  0  0  0  0
  1  2  2  0  0  0
  1  4  1  0  0  0
  1 26  1  0  0  0
  2  3  1  0  0  0
  2 27  1  0  0  0
  3  6  2  0  0  0
  3 28  1  0  0  0
  4  5  2  0  0  0
  4 29  1  0  0  0
  5  6  1  0  0  0
  5 10  1  0  0  0
  6  7  1  0  0  0
  7  8  1  0  0  0
  7 11  2  0  0  0
  8 12  1  0  0  0
  8  9  2  0  0  0
  9 10  1  0  0  0
  9 30  1  0  0  0
 12 13  2  0  0  0
 12 14  1  0  0  0
 14 15  1  0  0  0
 14 31  1  0  0  0
 15 16  2  0  0  0
 15 20  1  0  0  0
 16 17  1  0  0  0
 16 32  1  0  0  0
 17 18  2  0  0  0
 17 33  1  0  0  0
 18 19  1  0  0  0
 18 21  1  0  0  0
 19 20  2  0  0  0
 19 34  1  0  0  0
 20 35  1  0  0  0
 21 22  1  0  0  0
 22 23  1  0  0  0
 22 24  1  0  0  0
 22 25  1  0  0  0
M  END
> <s_m_entry_id>
10140

> <s_m_entry_name>
dock_pv.176

> <s_m_Source_Path>
/home/csk/Desktop/cluster/DUD-E-result/aofb

> <s_m_Source_File>
dock_pv.maegz

> <i_m_Source_File_Index>
176

> <chembl_id>
CHEMBL1814069

> <chembl_pref_name>
None

> <i_lp_mmshare_version>
53161

> <i_f3d_flags>
0

> <r_lp_tautomer_probability>
1

> <s_lp_Force_Field>
OPLS_2005

> <r_lp_Energy>
25.294493

> <b_lp_Chiralities_Consistent>
1

> <s_lp_Variant>
CHEMBL2039_lig565-1

> <s_i_glide_gridfile>
glide-grid_1s3b

> <i_i_glide_lignum>
668

> <i_i_glide_rotatable_bonds>
5

> <r_i_docking_score>
-7.71998519951328

> <r_i_glide_ligand_efficiency>
-0.308799407980531

> <r_i_glide_ligand_efficiency_sa>
-0.902934945515893

> <r_i_glide_ligand_efficiency_ln>
-1.82986784157233

> <r_i_glide_gscore>
-7.71998519951328

> <r_i_glide_lipo>
-4.01335734327527

> <r_i_glide_hbond>
0

> <r_i_glide_metal>
0

> <r_i_glide_rewards>
-2.70264429463296

> <r_i_glide_evdw>
-25.9394187927246

> <r_i_glide_ecoul>
-2.21051788330078

> <r_i_glide_erotb>
0.624565060526303

> <r_i_glide_esite>
0

> <r_i_glide_emodel>
-29.2589978064535

> <r_i_glide_energy>
-28.1499366760254

> <r_i_glide_einternal>
11.4144592285156

> <i_i_glide_confnum>
1

> <i_i_glide_posenum>
86

> <r_i_glide_eff_state_penalty>
0

> <s_user_duplicate_titles>
CHEMBL2039_lig565

> <s_m_subgroup_title>
dock_pv

> <s_m_subgroupid>
dock_pv

> <b_m_subgroup_collapsed>
1

$$$$
CHEMBL2039_lig507
                    3D
 Schrodinger Suite 2021-1.
 30 32  0  0  1  0            999 V2000
   52.0047  155.8520   26.8199 C   0  0  0  0  0  0
   51.4448  155.5861   28.0774 C   0  0  0  0  0  0
   51.2480  154.2540   28.4667 C   0  0  0  0  0  0
   51.5543  153.1992   27.6052 C   0  0  0  0  0  0
   52.2940  154.8010   25.9621 C   0  0  0  0  0  0
   52.0887  153.4892   26.3534 C   0  0  0  0  0  0
   52.6833  152.6454   25.3178 C   0  0  0  0  0  0
   53.1468  153.6490   24.2146 C   0  0  0  0  0  0
   52.8793  154.8608   24.7146 N   0  0  0  0  0  0
   52.8561  151.4278   25.2621 O   0  0  0  0  0  0
   53.6548  153.3842   23.1301 O   0  0  0  0  0  0
   50.9876  156.6708   28.9617 C   0  0  0  0  0  0
   51.3530  157.9688   28.9040 C   0  0  0  0  0  0
   50.8007  159.0434   29.7477 C   0  0  0  0  0  0
   49.4719  159.0225   30.1954 C   0  0  0  0  0  0
   49.0197  159.9785   31.1023 C   0  0  0  0  0  0
   49.8990  160.9497   31.5723 C   0  0  0  0  0  0
   51.2119  160.9993   31.1125 C   0  0  0  0  0  0
   51.6559  160.0551   30.1926 C   0  0  0  0  0  0
   52.1666  156.8671   26.4956 H   0  0  0  0  0  0
   50.8543  154.0260   29.4464 H   0  0  0  0  0  0
   51.4101  152.1828   27.9378 H   0  0  0  0  0  0
   53.0971  155.7160   24.2269 H   0  0  0  0  0  0
   50.2597  156.3805   29.7036 H   0  0  0  0  0  0
   52.0873  158.2767   28.1768 H   0  0  0  0  0  0
   48.7919  158.2487   29.8704 H   0  0  0  0  0  0
   47.9998  159.9505   31.4556 H   0  0  0  0  0  0
   49.5621  161.6783   32.2956 H   0  0  0  0  0  0
   51.8888  161.7532   31.4872 H   0  0  0  0  0  0
   52.6903  160.0647   29.8806 H   0  0  0  0  0  0
  1  2  2  0  0  0
  1  5  1  0  0  0
  1 20  1  0  0  0
  2 12  1  0  0  0
  2  3  1  0  0  0
  3  4  2  0  0  0
  3 21  1  0  0  0
  4  6  1  0  0  0
  4 22  1  0  0  0
  5  9  1  0  0  0
  5  6  2  0  0  0
  6  7  1  0  0  0
  7 10  2  0  0  0
  7  8  1  0  0  0
  8 11  2  0  0  0
  8  9  1  0  0  0
  9 23  1  0  0  0
 12 13  2  0  0  0
 12 24  1  0  0  0
 13 14  1  0  0  0
 13 25  1  0  0  0
 14 15  2  0  0  0
 14 19  1  0  0  0
 15 16  1  0  0  0
 15 26  1  0  0  0
 16 17  2  0  0  0
 16 27  1  0  0  0
 17 18  1  0  0  0
 17 28  1  0  0  0
 18 19  2  0  0  0
 18 29  1  0  0  0
 19 30  1  0  0  0
M  END
> <s_m_entry_id>
10141

> <s_m_entry_name>
dock_pv.177

> <s_m_Source_Path>
/home/csk/Desktop/cluster/DUD-E-result/aofb

> <s_m_Source_File>
dock_pv.maegz

> <i_m_Source_File_Index>
177

> <chembl_id>
CHEMBL450239

> <chembl_pref_name>
(E)-6-STYRYLISATIN

> <i_lp_mmshare_version>
53161

> <i_f3d_flags>
0

> <r_lp_tautomer_probability>
1

> <s_lp_Force_Field>
OPLS_2005

> <r_lp_Energy>
36.2363

> <b_lp_Chiralities_Consistent>
1

> <s_lp_Variant>
CHEMBL2039_lig507-1

> <s_i_glide_gridfile>
glide-grid_1s3b

> <i_i_glide_lignum>
606

> <i_i_glide_rotatable_bonds>
2

> <r_i_docking_score>
-7.7198669017158

> <r_i_glide_ligand_efficiency>
-0.406308784300832

> <r_i_glide_ligand_efficiency_sa>
-1.08419502885443

> <r_i_glide_ligand_efficiency_ln>
-1.95715206712292

> <r_i_glide_gscore>
-7.7198669017158

> <r_i_glide_lipo>
-3.35024494448397

> <r_i_glide_hbond>
0

> <r_i_glide_metal>
0

> <r_i_glide_rewards>
-3.39337348219661

> <r_i_glide_evdw>
-33.2189865112305

> <r_i_glide_ecoul>
0.812426209449768

> <r_i_glide_erotb>
0.562836919108841

> <r_i_glide_esite>
0

> <r_i_glide_emodel>
-43.5585635502672

> <r_i_glide_energy>
-32.4065603017807

> <r_i_glide_einternal>
2.49741291999817

> <i_i_glide_confnum>
9

> <i_i_glide_posenum>
237

> <r_i_glide_eff_state_penalty>
0

> <s_user_duplicate_titles>
CHEMBL2039_lig507,479895

> <s_m_subgroup_title>
dock_pv

> <s_m_subgroupid>
dock_pv

> <b_m_subgroup_collapsed>
1

$$$$
CHEMBL2039_lig2110
                    3D
 Schrodinger Suite 2021-1.
 44 46  0  0  1  0            999 V2000
   51.6560  153.1544   26.7766 C   0  0  0  0  0  0
   51.2560  153.1396   28.1039 C   0  0  0  0  0  0
   51.1608  154.3322   28.8201 C   0  0  0  0  0  0
   51.5138  155.5487   28.2457 C   0  0  0  0  0  0
   52.0560  154.3560   26.1968 C   0  0  0  0  0  0
   52.0560  155.5335   26.9540 C   0  0  0  0  0  0
   52.6516  156.6440   26.1514 C   0  0  0  0  0  0
   53.2215  156.0064   24.9126 C   0  0  0  0  0  0
   52.6265  154.6060   24.8145 C   0  0  1  0  0  0
   53.6560  153.6178   24.5040 N   0  0  1  0  0  0
   53.2560  152.6440   23.5088 C   0  0  0  0  0  0
   53.2560  151.2958   24.1040 C   0  0  0  0  0  0
   53.2560  150.1543   24.5401 C   0  0  0  0  0  0
   51.2450  156.6843   28.9897 O   0  0  0  0  0  0
   51.8443  157.9541   28.7392 C   0  0  0  0  0  0
   51.2559  159.0539   29.6419 C   0  0  0  0  0  0
   49.8363  158.9249   29.7040 O   0  0  0  0  0  0
   49.1147  159.5685   30.6863 C   0  0  0  0  0  0
   47.7524  159.2695   30.7429 C   0  0  0  0  0  0
   46.9430  159.8434   31.7190 C   0  0  0  0  0  0
   47.5035  160.7186   32.6462 C   0  0  0  0  0  0
   48.8558  161.0440   32.5883 C   0  0  0  0  0  0
   49.6610  160.4756   31.6059 C   0  0  0  0  0  0
   51.6906  152.2295   26.2225 H   0  0  0  0  0  0
   50.9662  152.2050   28.5610 H   0  0  0  0  0  0
   50.7873  154.3133   29.8333 H   0  0  0  0  0  0
   53.4344  157.1887   26.6785 H   0  0  0  0  0  0
   51.8627  157.3289   25.8522 H   0  0  0  0  0  0
   54.3129  156.0017   24.9060 H   0  0  0  0  0  0
   52.9344  156.6540   24.1040 H   0  0  0  0  0  0
   51.8007  154.6228   24.1012 H   0  0  0  0  0  0
   54.5280  154.0544   24.2408 H   0  0  0  0  0  0
   53.9841  152.6446   22.6982 H   0  0  0  0  0  0
   52.3125  152.8899   23.0532 H   0  0  0  0  0  0
   53.2561  149.1512   24.9043 H   0  0  0  0  0  0
   52.9234  157.8882   28.8770 H   0  0  0  0  0  0
   51.6561  158.2867   27.7287 H   0  0  0  0  0  0
   51.7516  159.0440   30.5981 H   0  0  0  0  0  0
   51.4922  160.0370   29.2420 H   0  0  0  0  0  0
   47.3266  158.5798   30.0289 H   0  0  0  0  0  0
   45.8894  159.6056   31.7613 H   0  0  0  0  0  0
   46.8792  161.1588   33.4097 H   0  0  0  0  0  0
   49.2865  161.7295   33.3031 H   0  0  0  0  0  0
   50.7063  160.7431   31.5830 H   0  0  0  0  0  0
  1  2  2  0  0  0
  1  5  1  0  0  0
  1 24  1  0  0  0
  2  3  1  0  0  0
  2 25  1  0  0  0
  3  4  2  0  0  0
  3 26  1  0  0  0
  4  6  1  0  0  0
  4 14  1  0  0  0
  5  6  2  0  0  0
  5  9  1  0  0  0
  6  7  1  0  0  0
  7  8  1  0  0  0
  7 27  1  0  0  0
  7 28  1  0  0  0
  8  9  1  0  0  0
  8 29  1  0  0  0
  8 30  1  0  0  0
  9 10  1  0  0  0
  9 31  1  0  0  0
 10 11  1  0  0  0
 10 32  1  0  0  0
 11 12  1  0  0  0
 11 33  1  0  0  0
 11 34  1  0  0  0
 12 13  3  0  0  0
 13 35  1  0  0  0
 14 15  1  0  0  0
 15 16  1  0  0  0
 15 36  1  0  0  0
 15 37  1  0  0  0
 16 17  1  0  0  0
 16 38  1  0  0  0
 16 39  1  0  0  0
 17 18  1  0  0  0
 18 19  2  0  0  0
 18 23  1  0  0  0
 19 20  1  0  0  0
 19 40  1  0  0  0
 20 21  2  0  0  0
 20 41  1  0  0  0
 21 22  1  0  0  0
 21 42  1  0  0  0
 22 23  2  0  0  0
 22 43  1  0  0  0
 23 44  1  0  0  0
M  END
> <s_m_entry_id>
10142

> <s_m_entry_name>
dock_pv.178

> <s_m_Source_Path>
/home/csk/Desktop/cluster/DUD-E-result/aofb

> <s_m_Source_File>
dock_pv.maegz

> <i_m_Source_File_Index>
178

> <chembl_id>
CHEMBL4175696

> <chembl_pref_name>
None

> <i_lp_mmshare_version>
53161

> <i_f3d_flags>
0

> <r_lp_tautomer_probability>
1

> <s_lp_Force_Field>
OPLS_2005

> <r_lp_Energy>
31.591588

> <b_lp_Chiralities_Consistent>
1

> <s_lp_Variant>
CHEMBL2039_lig2110-1

> <s_i_glide_gridfile>
glide-grid_1s3b

> <i_i_glide_lignum>
2463

> <i_i_glide_rotatable_bonds>
8

> <r_i_docking_score>
-7.71972571183831

> <r_i_glide_ligand_efficiency>
-0.335640248340796

> <r_i_glide_ligand_efficiency_sa>
-0.954516218367942

> <r_i_glide_ligand_efficiency_ln>
-1.86669967572518

> <r_i_glide_gscore>
-7.71972571183831

> <r_i_glide_lipo>
-4.89223722409689

> <r_i_glide_hbond>
0

> <r_i_glide_metal>
0

> <r_i_glide_rewards>
-2.21298898021717

> <r_i_glide_evdw>
-34.6817016601562

> <r_i_glide_ecoul>
-1.6663339138031

> <r_i_glide_erotb>
1.36953566255403

> <r_i_glide_esite>
0

> <r_i_glide_emodel>
-39.2298042364905

> <r_i_glide_energy>
-36.3480355739594

> <r_i_glide_einternal>
17.1480751037598

> <i_i_glide_confnum>
9

> <i_i_glide_posenum>
130

> <r_i_glide_eff_state_penalty>
0

> <s_user_duplicate_titles>
CHEMBL2039_lig2110

> <s_m_subgroup_title>
dock_pv

> <s_m_subgroupid>
dock_pv

> <b_m_subgroup_collapsed>
1

$$$$
CHEMBL2039_lig231
                    3D
 Schrodinger Suite 2021-1.
 38 41  0  0  1  0            999 V2000
   51.5541  152.6147   26.5164 C   0  0  0  0  0  0
   52.6596  154.5810   25.5939 C   0  0  0  0  0  0
   52.4392  153.2552   25.5575 C   0  0  0  0  0  0
   50.9791  153.4246   27.5009 O   0  0  0  0  0  0
   51.3524  154.7547   27.6518 C   0  0  0  0  0  0
   52.1946  155.3739   26.7249 C   0  0  0  0  0  0
   50.8544  155.4898   28.7275 C   0  0  0  0  0  0
   52.7112  156.6347   26.9837 C   0  0  0  0  0  0
   51.2372  151.4284   26.5119 O   0  0  0  0  0  0
   51.2560  156.8240   28.8938 C   0  0  0  0  0  0
   50.5380  157.5967   29.7774 O   0  0  0  0  0  0
   53.6585  154.9544   24.5316 C   0  0  0  0  0  0
   52.2781  157.3421   28.0951 C   0  0  0  0  0  0
   53.2438  152.5702   24.4836 C   0  0  0  0  0  0
   50.6273  159.0262   29.7110 C   0  0  0  0  0  0
   49.5891  159.6223   30.6509 C   0  0  0  0  0  0
   53.5633  153.7531   23.5957 C   0  0  0  0  0  0
   49.9378  160.6301   31.5578 C   0  0  0  0  0  0
   48.2901  159.1103   30.6463 C   0  0  0  0  0  0
   47.3656  159.5646   31.5788 C   0  0  0  0  0  0
   49.0081  161.0667   32.4996 C   0  0  0  0  0  0
   47.7252  160.5366   32.5061 C   0  0  0  0  0  0
   50.1203  155.0511   29.3867 H   0  0  0  0  0  0
   53.4527  157.0645   26.3302 H   0  0  0  0  0  0
   53.4625  155.9364   24.1176 H   0  0  0  0  0  0
   54.6643  155.0033   24.9456 H   0  0  0  0  0  0
   52.6700  158.3288   28.2614 H   0  0  0  0  0  0
   54.1542  152.1436   24.9029 H   0  0  0  0  0  0
   52.7460  151.7702   23.9423 H   0  0  0  0  0  0
   50.4374  159.3910   28.6991 H   0  0  0  0  0  0
   51.6279  159.3466   30.0068 H   0  0  0  0  0  0
   54.4442  153.6013   22.9817 H   0  0  0  0  0  0
   52.7261  153.8503   22.9048 H   0  0  0  0  0  0
   50.9344  161.0530   31.5693 H   0  0  0  0  0  0
   48.0018  158.3433   29.9443 H   0  0  0  0  0  0
   46.3792  159.1444   31.5961 H   0  0  0  0  0  0
   49.2914  161.8142   33.2274 H   0  0  0  0  0  0
   47.0087  160.8769   33.2381 H   0  0  0  0  0  0
  1  3  1  0  0  0
  1  4  1  0  0  0
  1  9  2  0  0  0
  2  3  2  0  0  0
  2 12  1  0  0  0
  2  6  1  0  0  0
  3 14  1  0  0  0
  4  5  1  0  0  0
  5  6  1  0  0  0
  5  7  2  0  0  0
  6  8  2  0  0  0
  7 10  1  0  0  0
  7 23  1  0  0  0
  8 13  1  0  0  0
  8 24  1  0  0  0
 10 11  1  0  0  0
 10 13  2  0  0  0
 11 15  1  0  0  0
 12 17  1  0  0  0
 12 25  1  0  0  0
 12 26  1  0  0  0
 13 27  1  0  0  0
 14 17  1  0  0  0
 14 28  1  0  0  0
 14 29  1  0  0  0
 15 16  1  0  0  0
 15 30  1  0  0  0
 15 31  1  0  0  0
 16 18  1  0  0  0
 16 19  2  0  0  0
 17 32  1  0  0  0
 17 33  1  0  0  0
 18 21  2  0  0  0
 18 34  1  0  0  0
 19 20  1  0  0  0
 19 35  1  0  0  0
 20 22  2  0  0  0
 20 36  1  0  0  0
 21 22  1  0  0  0
 21 37  1  0  0  0
 22 38  1  0  0  0
M  END
> <s_m_entry_id>
10143

> <s_m_entry_name>
dock_pv.179

> <s_m_Source_Path>
/home/csk/Desktop/cluster/DUD-E-result/aofb

> <s_m_Source_File>
dock_pv.maegz

> <i_m_Source_File_Index>
179

> <chembl_id>
CHEMBL142799

> <chembl_pref_name>
None

> <i_lp_mmshare_version>
53161

> <i_f3d_flags>
0

> <r_lp_tautomer_probability>
1

> <s_lp_Force_Field>
OPLS_2005

> <r_lp_Energy>
35.489026

> <b_lp_Chiralities_Consistent>
1

> <s_lp_Variant>
CHEMBL2039_lig231-1

> <s_i_glide_gridfile>
glide-grid_1s3b

> <i_i_glide_lignum>
272

> <i_i_glide_rotatable_bonds>
3

> <r_i_docking_score>
-7.71605849779259

> <r_i_glide_ligand_efficiency>
-0.350729931717845

> <r_i_glide_ligand_efficiency_sa>
-0.982759062098896

> <r_i_glide_ligand_efficiency_ln>
-1.88608614693268

> <r_i_glide_gscore>
-7.71605849779259

> <r_i_glide_lipo>
-4.72808501235876

> <r_i_glide_hbond>
0

> <r_i_glide_metal>
0

> <r_i_glide_rewards>
-2.30310156173831

> <r_i_glide_evdw>
-28.0958137512207

> <r_i_glide_ecoul>
0.527028381824493

> <r_i_glide_erotb>
0.640864506591846

> <r_i_glide_esite>
0

> <r_i_glide_emodel>
-27.8854550460146

> <r_i_glide_energy>
-27.5687853693962

> <r_i_glide_einternal>
2.58025670051575

> <i_i_glide_confnum>
15

> <i_i_glide_posenum>
126

> <r_i_glide_eff_state_penalty>
0

> <s_user_duplicate_titles>
CHEMBL2039_lig231

> <s_m_subgroup_title>
dock_pv

> <s_m_subgroupid>
dock_pv

> <b_m_subgroup_collapsed>
1

$$$$
CHEMBL2039_lig1057
                    3D
 Schrodinger Suite 2021-1.
 34 36  0  0  1  0            999 V2000
   51.1927  153.4278   27.4566 N   0  0  0  0  0  0
   52.5753  153.2076   25.4458 C   0  0  0  0  0  0
   51.6262  152.5895   26.5040 C   0  0  0  0  0  0
   52.4764  154.7534   25.3169 C   0  0  0  0  0  0
   52.2160  155.4441   26.6516 C   0  0  0  0  0  0
   51.4729  154.7688   27.6204 C   0  0  0  0  0  0
   50.9658  155.4444   28.7281 C   0  0  0  0  0  0
   51.2560  156.7972   28.9040 C   0  0  0  0  0  0
   52.6886  156.7142   26.9675 C   0  0  0  0  0  0
   52.2362  157.3866   28.1040 C   0  0  0  0  0  0
   51.2560  151.4216   26.5040 O   0  0  0  0  0  0
   50.4640  157.4867   29.7990 O   0  0  0  0  0  0
   50.3391  158.9081   29.7040 C   0  0  0  0  0  0
   49.0623  159.3192   30.4304 C   0  0  0  0  0  0
   49.1337  159.9324   31.6821 C   0  0  0  0  0  0
   47.9653  160.2117   32.3913 C   0  0  0  0  0  0
   46.7210  159.8781   31.8639 C   0  0  0  0  0  0
   46.6376  159.3036   30.6028 C   0  0  0  0  0  0
   47.8007  159.0495   29.8825 C   0  0  0  0  0  0
   48.0560  161.0440   34.0872 Br  0  0  0  0  0  0
   50.5975  152.9802   28.1370 H   0  0  0  0  0  0
   53.5926  152.9167   25.7052 H   0  0  0  0  0  0
   52.3654  152.7358   24.4862 H   0  0  0  0  0  0
   51.6560  154.9993   24.6408 H   0  0  0  0  0  0
   53.3791  155.1477   24.8480 H   0  0  0  0  0  0
   50.2836  154.9535   29.4060 H   0  0  0  0  0  0
   53.3672  157.2068   26.2934 H   0  0  0  0  0  0
   52.5510  158.4003   28.2841 H   0  0  0  0  0  0
   50.2721  159.2455   28.6681 H   0  0  0  0  0  0
   51.2150  159.3895   30.1427 H   0  0  0  0  0  0
   50.0957  160.1794   32.1040 H   0  0  0  0  0  0
   45.8203  160.0821   32.4228 H   0  0  0  0  0  0
   45.6727  159.0611   30.1802 H   0  0  0  0  0  0
   47.6897  158.6440   28.8963 H   0  0  0  0  0  0
  1  3  1  0  0  0
  1  6  1  0  0  0
  1 21  1  0  0  0
  2  3  1  0  0  0
  2  4  1  0  0  0
  2 22  1  0  0  0
  2 23  1  0  0  0
  3 11  2  0  0  0
  4  5  1  0  0  0
  4 24  1  0  0  0
  4 25  1  0  0  0
  5  6  2  0  0  0
  5  9  1  0  0  0
  6  7  1  0  0  0
  7  8  2  0  0  0
  7 26  1  0  0  0
  8 10  1  0  0  0
  8 12  1  0  0  0
  9 10  2  0  0  0
  9 27  1  0  0  0
 10 28  1  0  0  0
 12 13  1  0  0  0
 13 14  1  0  0  0
 13 29  1  0  0  0
 13 30  1  0  0  0
 14 15  2  0  0  0
 14 19  1  0  0  0
 15 16  1  0  0  0
 15 31  1  0  0  0
 16 17  2  0  0  0
 16 20  1  0  0  0
 17 18  1  0  0  0
 17 32  1  0  0  0
 18 19  2  0  0  0
 18 33  1  0  0  0
 19 34  1  0  0  0
M  END
> <s_m_entry_id>
10144

> <s_m_entry_name>
dock_pv.180

> <s_m_Source_Path>
/home/csk/Desktop/cluster/DUD-E-result/aofb

> <s_m_Source_File>
dock_pv.maegz

> <i_m_Source_File_Index>
180

> <chembl_id>
CHEMBL2430707

> <chembl_pref_name>
None

> <i_lp_mmshare_version>
53161

> <i_f3d_flags>
0

> <r_lp_tautomer_probability>
1

> <s_lp_Force_Field>
OPLS_2005

> <r_lp_Energy>
24.858976

> <b_lp_Chiralities_Consistent>
1

> <s_lp_Variant>
CHEMBL2039_lig1057-1

> <s_i_glide_gridfile>
glide-grid_1s3b

> <i_i_glide_lignum>
1231

> <i_i_glide_rotatable_bonds>
3

> <r_i_docking_score>
-7.711064187204

> <r_i_glide_ligand_efficiency>
-0.3855532093602

> <r_i_glide_ligand_efficiency_sa>
-1.04655242257697

> <r_i_glide_ligand_efficiency_ln>
-1.92982503813886

> <r_i_glide_gscore>
-7.711064187204

> <r_i_glide_lipo>
-4.39062464603293

> <r_i_glide_hbond>
0

> <r_i_glide_metal>
0

> <r_i_glide_rewards>
-2.20438546030008

> <r_i_glide_evdw>
-30.0411624908447

> <r_i_glide_ecoul>
-0.839594304561615

> <r_i_glide_erotb>
0.511943189355489

> <r_i_glide_esite>
0

> <r_i_glide_emodel>
-38.1524918014845

> <r_i_glide_energy>
-30.8807567954063

> <r_i_glide_einternal>
3.61627960205078

> <i_i_glide_confnum>
26

> <i_i_glide_posenum>
65

> <r_i_glide_eff_state_penalty>
0

> <s_user_duplicate_titles>
CHEMBL2039_lig1057

> <s_m_subgroup_title>
dock_pv

> <s_m_subgroupid>
dock_pv

> <b_m_subgroup_collapsed>
1

$$$$
CHEMBL2039_lig1649
                    3D
 Schrodinger Suite 2021-1.
 34 35  0  0  1  0            999 V2000
   52.9412  152.6432   24.4638 C   0  0  0  0  0  0
   53.2559  151.2142   24.9038 C   0  0  0  0  0  0
   52.3666  153.5668   25.4741 C   0  0  0  0  0  0
   52.4751  154.9402   25.2420 C   0  0  0  0  0  0
   52.1475  155.8350   26.2443 C   0  0  0  0  0  0
   51.6828  155.3637   27.4632 C   0  0  0  0  0  0
   51.4381  154.0044   27.6640 C   0  0  0  0  0  0
   51.7795  153.1020   26.6618 C   0  0  0  0  0  0
   51.5923  156.2939   28.4523 O   0  0  0  0  0  0
   50.4562  156.2966   29.2907 C   0  0  0  0  0  0
   50.2307  157.7689   29.7057 C   0  0  0  0  0  0
   48.9889  158.1751   30.2204 C   0  0  0  0  0  0
   48.7686  159.4876   30.6551 C   0  0  0  0  0  0
   49.8235  160.4020   30.6081 C   0  0  0  0  0  0
   51.0622  160.0210   30.1039 C   0  0  0  0  0  0
   51.2561  158.7218   29.6409 C   0  0  0  0  0  0
   53.2560  152.9909   23.3254 O   0  0  0  0  0  0
   47.4040  159.9417   31.1632 C   0  0  0  0  0  0
   47.4737  160.2116   32.4670 F   0  0  0  0  0  0
   47.0419  161.0441   30.5114 F   0  0  0  0  0  0
   46.4556  159.0257   30.9713 F   0  0  0  0  0  0
   52.3624  150.7117   25.2717 H   0  0  0  0  0  0
   53.9917  151.2342   25.7046 H   0  0  0  0  0  0
   53.6562  150.6349   24.0728 H   0  0  0  0  0  0
   52.9070  155.3231   24.3293 H   0  0  0  0  0  0
   52.3184  156.8923   26.1052 H   0  0  0  0  0  0
   51.0734  153.6433   28.6141 H   0  0  0  0  0  0
   51.6498  152.0481   26.8588 H   0  0  0  0  0  0
   49.5879  155.8440   28.8042 H   0  0  0  0  0  0
   50.6452  155.6141   30.1040 H   0  0  0  0  0  0
   48.1883  157.4518   30.2727 H   0  0  0  0  0  0
   49.6836  161.4138   30.9606 H   0  0  0  0  0  0
   51.8756  160.7306   30.0759 H   0  0  0  0  0  0
   52.2345  158.4543   29.2666 H   0  0  0  0  0  0
  1  2  1  0  0  0
  1  3  1  0  0  0
  1 17  2  0  0  0
  2 22  1  0  0  0
  2 23  1  0  0  0
  2 24  1  0  0  0
  3  4  1  0  0  0
  3  8  2  0  0  0
  4  5  2  0  0  0
  4 25  1  0  0  0
  5  6  1  0  0  0
  5 26  1  0  0  0
  6  7  2  0  0  0
  6  9  1  0  0  0
  7  8  1  0  0  0
  7 27  1  0  0  0
  8 28  1  0  0  0
  9 10  1  0  0  0
 10 11  1  0  0  0
 10 29  1  0  0  0
 10 30  1  0  0  0
 11 12  1  0  0  0
 11 16  2  0  0  0
 12 13  2  0  0  0
 12 31  1  0  0  0
 13 14  1  0  0  0
 13 18  1  0  0  0
 14 15  2  0  0  0
 14 32  1  0  0  0
 15 16  1  0  0  0
 15 33  1  0  0  0
 16 34  1  0  0  0
 18 19  1  0  0  0
 18 20  1  0  0  0
 18 21  1  0  0  0
M  END
> <s_m_entry_id>
10145

> <s_m_entry_name>
dock_pv.181

> <s_m_Source_Path>
/home/csk/Desktop/cluster/DUD-E-result/aofb

> <s_m_Source_File>
dock_pv.maegz

> <i_m_Source_File_Index>
181

> <chembl_id>
CHEMBL3770874

> <chembl_pref_name>
None

> <i_lp_mmshare_version>
53161

> <i_f3d_flags>
0

> <r_lp_tautomer_probability>
0.99995

> <s_lp_Force_Field>
OPLS_2005

> <r_lp_Energy>
24.802026

> <b_lp_Chiralities_Consistent>
1

> <s_lp_Variant>
CHEMBL2039_lig1649-1

> <s_i_glide_gridfile>
glide-grid_1s3b

> <i_i_glide_lignum>
1917

> <i_i_glide_rotatable_bonds>
5

> <r_i_docking_score>
-7.71021304739844

> <r_i_glide_ligand_efficiency>
-0.367153002257069

> <r_i_glide_ligand_efficiency_sa>
-1.01294729332996

> <r_i_glide_ligand_efficiency_ln>
-1.90633459601682

> <r_i_glide_gscore>
-7.71021304739844

> <r_i_glide_lipo>
-3.76153619275714

> <r_i_glide_hbond>
0

> <r_i_glide_metal>
0

> <r_i_glide_rewards>
-3.50153088864605

> <r_i_glide_evdw>
-26.2353076934814

> <r_i_glide_ecoul>
1.54074704647064

> <r_i_glide_erotb>
0.63350736170822

> <r_i_glide_esite>
0

> <r_i_glide_emodel>
-22.1753439162966

> <r_i_glide_energy>
-24.6945606470108

> <r_i_glide_einternal>
8.50324440002441

> <i_i_glide_confnum>
40

> <i_i_glide_posenum>
194

> <r_i_glide_eff_state_penalty>
0

> <s_user_duplicate_titles>
CHEMBL2039_lig1649

> <s_m_subgroup_title>
dock_pv

> <s_m_subgroupid>
dock_pv

> <b_m_subgroup_collapsed>
1

$$$$
CHEMBL2039_lig1931
                    3D
 Schrodinger Suite 2021-1.
 37 39  0  0  1  0            999 V2000
   52.8560  151.6235   24.9040 C   0  0  0  0  0  0
   53.2560  152.4692   23.8744 C   0  0  0  0  0  0
   53.2314  153.8440   24.0460 C   0  0  0  0  0  0
   52.2140  152.1693   26.0185 C   0  0  0  0  0  0
   52.1376  153.5565   26.1848 C   0  0  0  0  0  0
   52.6947  154.3828   25.2032 C   0  0  0  0  0  0
   52.8041  155.7444   25.3528 O   0  0  0  0  0  0
   52.3898  156.2789   26.5228 C   0  0  0  0  0  0
   51.8260  155.6154   27.5592 C   0  0  0  0  0  0
   51.6560  154.1422   27.4621 C   0  0  0  0  0  0
   51.2560  156.3389   28.6781 C   0  0  0  0  0  0
   51.6265  157.6322   28.9040 N   0  0  0  0  0  0
   50.3375  155.8195   29.3062 O   0  0  0  0  0  0
   50.9413  158.5965   29.7038 C   0  0  0  0  0  0
   51.6560  159.7267   30.1040 C   0  0  0  0  0  0
   51.0944  160.6554   30.9730 C   0  0  0  0  0  0
   49.7839  160.4862   31.4197 C   0  0  0  0  0  0
   49.0215  159.4210   30.9546 C   0  0  0  0  0  0
   49.5972  158.4844   30.1040 C   0  0  0  0  0  0
   53.0795  150.1264   24.7750 C   0  0  0  0  0  0
   49.1976  161.4308   32.4469 C   0  0  0  0  0  0
   51.2560  153.3957   28.3534 O   0  0  0  0  0  0
   53.6560  152.0618   22.9608 H   0  0  0  0  0  0
   53.6684  154.4860   23.3040 H   0  0  0  0  0  0
   51.8074  151.5076   26.7709 H   0  0  0  0  0  0
   52.5091  157.3522   26.4944 H   0  0  0  0  0  0
   52.5157  157.9311   28.5346 H   0  0  0  0  0  0
   52.6867  159.8441   29.8039 H   0  0  0  0  0  0
   51.6920  161.4830   31.3282 H   0  0  0  0  0  0
   48.0016  159.2894   31.2854 H   0  0  0  0  0  0
   48.9770  157.6573   29.8088 H   0  0  0  0  0  0
   52.4560  149.5553   25.4636 H   0  0  0  0  0  0
   52.8561  149.7858   23.7649 H   0  0  0  0  0  0
   54.1265  149.8857   24.9496 H   0  0  0  0  0  0
   48.2493  161.8439   32.1040 H   0  0  0  0  0  0
   49.8893  162.2440   32.6467 H   0  0  0  0  0  0
   49.0035  160.9014   33.3802 H   0  0  0  0  0  0
  1  2  2  0  0  0
  1  4  1  0  0  0
  1 20  1  0  0  0
  2  3  1  0  0  0
  2 23  1  0  0  0
  3  6  2  0  0  0
  3 24  1  0  0  0
  4  5  2  0  0  0
  4 25  1  0  0  0
  5  6  1  0  0  0
  5 10  1  0  0  0
  6  7  1  0  0  0
  7  8  1  0  0  0
  8  9  2  0  0  0
  8 26  1  0  0  0
  9 10  1  0  0  0
  9 11  1  0  0  0
 10 22  2  0  0  0
 11 12  1  0  0  0
 11 13  2  0  0  0
 12 14  1  0  0  0
 12 27  1  0  0  0
 14 15  2  0  0  0
 14 19  1  0  0  0
 15 16  1  0  0  0
 15 28  1  0  0  0
 16 17  2  0  0  0
 16 29  1  0  0  0
 17 18  1  0  0  0
 17 21  1  0  0  0
 18 19  2  0  0  0
 18 30  1  0  0  0
 19 31  1  0  0  0
 20 32  1  0  0  0
 20 33  1  0  0  0
 20 34  1  0  0  0
 21 35  1  0  0  0
 21 36  1  0  0  0
 21 37  1  0  0  0
M  END
> <s_m_entry_id>
10146

> <s_m_entry_name>
dock_pv.182

> <s_m_Source_Path>
/home/csk/Desktop/cluster/DUD-E-result/aofb

> <s_m_Source_File>
dock_pv.maegz

> <i_m_Source_File_Index>
182

> <chembl_id>
CHEMBL4099251

> <chembl_pref_name>
None

> <i_lp_mmshare_version>
53161

> <i_f3d_flags>
0

> <r_lp_tautomer_probability>
1

> <s_lp_Force_Field>
OPLS_2005

> <r_lp_Energy>
24.720479

> <b_lp_Chiralities_Consistent>
1

> <s_lp_Variant>
CHEMBL2039_lig1931-1

> <s_i_glide_gridfile>
glide-grid_1s3b

> <i_i_glide_lignum>
2266

> <i_i_glide_rotatable_bonds>
3

> <r_i_docking_score>
-7.70823624559765

> <r_i_glide_ligand_efficiency>
-0.350374374799893

> <r_i_glide_ligand_efficiency_sa>
-0.981762777631536

> <r_i_glide_ligand_efficiency_ln>
-1.88417410317265

> <r_i_glide_gscore>
-7.70823624559765

> <r_i_glide_lipo>
-4.06279575087769

> <r_i_glide_hbond>
0

> <r_i_glide_metal>
0

> <r_i_glide_rewards>
-2.60834154369265

> <r_i_glide_evdw>
-27.7664585113525

> <r_i_glide_ecoul>
-1.90584814548492

> <r_i_glide_erotb>
0.637101196363056

> <r_i_glide_esite>
0

> <r_i_glide_emodel>
-29.3445525449018

> <r_i_glide_energy>
-29.6723066568375

> <r_i_glide_einternal>
2.69572162628174

> <i_i_glide_confnum>
9

> <i_i_glide_posenum>
1

> <r_i_glide_eff_state_penalty>
0

> <s_user_duplicate_titles>
CHEMBL2039_lig1931

> <s_m_subgroup_title>
dock_pv

> <s_m_subgroupid>
dock_pv

> <b_m_subgroup_collapsed>
1

$$$$
CHEMBL2039_lig2015
                    3D
 Schrodinger Suite 2021-1.
 34 36  0  0  1  0            999 V2000
   52.8609  153.5163   24.6122 C   0  0  0  0  0  0
   52.5253  152.3301   25.2546 C   0  0  0  0  0  0
   51.8566  152.3696   26.4681 C   0  0  0  0  0  0
   52.6279  154.7478   25.2181 C   0  0  0  0  0  0
   52.0568  154.7952   26.4938 C   0  0  0  0  0  0
   51.6578  153.5924   27.0892 C   0  0  0  0  0  0
   51.1433  153.5435   28.3505 O   0  0  0  0  0  0
   50.9082  154.7184   28.9616 C   0  0  0  0  0  0
   51.2751  155.9487   28.5424 C   0  0  0  0  0  0
   52.0571  156.0523   27.2975 C   0  0  0  0  0  0
   52.6592  157.0444   26.9035 O   0  0  0  0  0  0
   50.8551  157.0949   29.3040 C   0  0  0  0  0  0
   51.0881  158.3392   29.1634 N   0  0  0  0  0  0
   50.3618  159.2044   30.0168 C   0  0  0  0  0  0
   48.9669  159.0809   30.2303 C   0  0  0  0  0  0
   48.2821  159.8760   31.1493 C   0  0  0  0  0  0
   48.9841  160.8427   31.8601 C   0  0  0  0  0  0
   50.3355  161.0443   31.5980 C   0  0  0  0  0  0
   51.0131  160.2624   30.6668 C   0  0  0  0  0  0
   52.3368  160.5233   30.4236 O   0  0  0  0  0  0
   46.7984  159.6680   31.3976 C   0  0  0  0  0  0
   53.6656  153.4437   22.9087 Br  0  0  0  0  0  0
   52.7251  151.3825   24.7754 H   0  0  0  0  0  0
   51.5370  151.4517   26.9361 H   0  0  0  0  0  0
   52.9605  155.6510   24.7244 H   0  0  0  0  0  0
   50.3657  154.5404   29.8808 H   0  0  0  0  0  0
   50.1919  156.7666   30.0976 H   0  0  0  0  0  0
   48.4085  158.3195   29.7083 H   0  0  0  0  0  0
   48.4819  161.4661   32.5857 H   0  0  0  0  0  0
   50.8555  161.8416   32.1032 H   0  0  0  0  0  0
   52.7352  159.7817   29.9529 H   0  0  0  0  0  0
   46.5523  159.8408   32.4461 H   0  0  0  0  0  0
   46.4977  158.6454   31.1697 H   0  0  0  0  0  0
   46.2076  160.3523   30.7884 H   0  0  0  0  0  0
  1  2  2  0  0  0
  1  4  1  0  0  0
  1 22  1  0  0  0
  2  3  1  0  0  0
  2 23  1  0  0  0
  3  6  2  0  0  0
  3 24  1  0  0  0
  4  5  2  0  0  0
  4 25  1  0  0  0
  5  6  1  0  0  0
  5 10  1  0  0  0
  6  7  1  0  0  0
  7  8  1  0  0  0
  8  9  2  0  0  0
  8 26  1  0  0  0
  9 10  1  0  0  0
  9 12  1  0  0  0
 10 11  2  0  0  0
 12 13  2  0  0  0
 12 27  1  0  0  0
 13 14  1  0  0  0
 14 15  2  0  0  0
 14 19  1  0  0  0
 15 16  1  0  0  0
 15 28  1  0  0  0
 16 17  2  0  0  0
 16 21  1  0  0  0
 17 18  1  0  0  0
 17 29  1  0  0  0
 18 19  2  0  0  0
 18 30  1  0  0  0
 19 20  1  0  0  0
 20 31  1  0  0  0
 21 32  1  0  0  0
 21 33  1  0  0  0
 21 34  1  0  0  0
M  END
> <s_m_entry_id>
10147

> <s_m_entry_name>
dock_pv.183

> <s_m_Source_Path>
/home/csk/Desktop/cluster/DUD-E-result/aofb

> <s_m_Source_File>
dock_pv.maegz

> <i_m_Source_File_Index>
183

> <chembl_id>
CHEMBL4076775

> <chembl_pref_name>
None

> <i_lp_mmshare_version>
53161

> <i_f3d_flags>
0

> <r_lp_tautomer_probability>
1

> <s_lp_Force_Field>
OPLS_2005

> <r_lp_Energy>
18.332664

> <b_lp_Chiralities_Consistent>
1

> <s_lp_Variant>
CHEMBL2039_lig2015-1

> <s_i_glide_gridfile>
glide-grid_1s3b

> <i_i_glide_lignum>
2350

> <i_i_glide_rotatable_bonds>
3

> <r_i_docking_score>
-7.70574999022779

> <r_i_glide_ligand_efficiency>
-0.350261363192172

> <r_i_glide_ligand_efficiency_sa>
-0.981446114662207

> <r_i_glide_ligand_efficiency_ln>
-1.88356637167189

> <r_i_glide_gscore>
-7.70574999022779

> <r_i_glide_lipo>
-4.36825182895017

> <r_i_glide_hbond>
-0.0750350619822199

> <r_i_glide_metal>
0

> <r_i_glide_rewards>
-2.13181006082355

> <r_i_glide_evdw>
-26.3442401885986

> <r_i_glide_ecoul>
-0.746737062931061

> <r_i_glide_erotb>
0.298569530397749

> <r_i_glide_esite>
0

> <r_i_glide_emodel>
-28.4740854266413

> <r_i_glide_energy>
-27.0909772515297

> <r_i_glide_einternal>
3.74122858047485

> <i_i_glide_confnum>
4

> <i_i_glide_posenum>
158

> <r_i_glide_eff_state_penalty>
0

> <s_user_duplicate_titles>
CHEMBL2039_lig2015

> <s_m_subgroup_title>
dock_pv

> <s_m_subgroupid>
dock_pv

> <b_m_subgroup_collapsed>
1

$$$$
CHEMBL2039_lig2701
                    3D
 Schrodinger Suite 2021-1.
 39 41  0  0  1  0            999 V2000
   50.8955  154.9017   28.4943 C   0  0  0  0  0  0
   51.2711  156.2457   28.5035 C   0  0  0  0  0  0
   52.1149  156.6996   27.4802 C   0  0  0  0  0  0
   51.2847  154.0495   27.4494 C   0  0  0  0  0  0
   52.0561  154.5425   26.3806 C   0  0  0  0  0  0
   52.4563  155.8835   26.4082 C   0  0  0  0  0  0
   53.2560  156.4505   25.4144 O   0  0  0  0  0  0
   53.9770  155.6776   24.5101 C   0  0  0  0  0  0
   53.6033  154.2775   24.4635 C   0  0  0  0  0  0
   52.6910  153.7351   25.3019 C   0  0  0  0  0  0
   54.8558  156.2420   23.8579 O   0  0  0  0  0  0
   50.7218  157.0868   29.4617 O   0  0  0  0  0  0
   50.9793  158.5006   29.4072 C   0  0  0  0  0  0
   50.0167  159.2885   30.2942 C   0  0  0  0  0  0
   48.6436  159.0081   30.3165 C   0  0  0  0  0  0
   47.7815  159.7475   31.1303 C   0  0  0  0  0  0
   48.2909  160.7536   31.9496 C   0  0  0  0  0  0
   49.6550  161.0409   31.9319 C   0  0  0  0  0  0
   50.5102  160.3232   31.0961 C   0  0  0  0  0  0
   52.4400  152.2551   25.1973 C   0  0  0  0  0  0
   53.6264  151.4199   25.2505 N   0  0  2  0  0  0
   53.2928  150.0455   24.9006 C   0  0  0  0  0  0
   46.0839  159.4334   31.1180 Cl  0  0  0  0  0  0
   50.2785  154.5307   29.2958 H   0  0  0  0  0  0
   52.4663  157.7185   27.4630 H   0  0  0  0  0  0
   50.9909  153.0132   27.5030 H   0  0  0  0  0  0
   54.0823  153.6419   23.7325 H   0  0  0  0  0  0
   52.0137  158.6830   29.7027 H   0  0  0  0  0  0
   50.8574  158.9171   28.4103 H   0  0  0  0  0  0
   48.2387  158.2172   29.7056 H   0  0  0  0  0  0
   47.6288  161.3206   32.5875 H   0  0  0  0  0  0
   50.0528  161.8266   32.5580 H   0  0  0  0  0  0
   51.5649  160.5603   31.0957 H   0  0  0  0  0  0
   52.0564  152.1926   24.1875 H   0  0  0  0  0  0
   51.6615  151.8961   25.8677 H   0  0  0  0  0  0
   54.0489  151.4745   26.1636 H   0  0  0  0  0  0
   52.8728  149.9898   23.8955 H   0  0  0  0  0  0
   52.5760  149.6176   25.6039 H   0  0  0  0  0  0
   54.1876  149.4225   24.9107 H   0  0  0  0  0  0
  1  2  2  0  0  0
  1  4  1  0  0  0
  1 24  1  0  0  0
  2 12  1  0  0  0
  2  3  1  0  0  0
  3  6  2  0  0  0
  3 25  1  0  0  0
  4  5  2  0  0  0
  4 26  1  0  0  0
  5 10  1  0  0  0
  5  6  1  0  0  0
  6  7  1  0  0  0
  7  8  1  0  0  0
  8 11  2  0  0  0
  8  9  1  0  0  0
  9 10  2  0  0  0
  9 27  1  0  0  0
 10 20  1  0  0  0
 12 13  1  0  0  0
 13 14  1  0  0  0
 13 28  1  0  0  0
 13 29  1  0  0  0
 14 15  2  0  0  0
 14 19  1  0  0  0
 15 16  1  0  0  0
 15 30  1  0  0  0
 16 17  2  0  0  0
 16 23  1  0  0  0
 17 18  1  0  0  0
 17 31  1  0  0  0
 18 19  2  0  0  0
 18 32  1  0  0  0
 19 33  1  0  0  0
 20 21  1  0  0  0
 20 34  1  0  0  0
 20 35  1  0  0  0
 21 22  1  0  0  0
 21 36  1  0  0  0
 22 37  1  0  0  0
 22 38  1  0  0  0
 22 39  1  0  0  0
M  END
> <s_m_entry_id>
10148

> <s_m_entry_name>
dock_pv.184

> <s_m_Source_Path>
/home/csk/Desktop/cluster/DUD-E-result/aofb

> <s_m_Source_File>
dock_pv.maegz

> <i_m_Source_File_Index>
184

> <chembl_id>
CHEMBL239507

> <chembl_pref_name>
None

> <i_lp_mmshare_version>
53161

> <i_f3d_flags>
0

> <r_lp_tautomer_probability>
1

> <s_lp_Force_Field>
OPLS_2005

> <r_lp_Energy>
23.883339

> <b_lp_Chiralities_Consistent>
1

> <s_lp_Variant>
CHEMBL2039_lig2701-1

> <s_i_glide_gridfile>
glide-grid_1s3b

> <i_i_glide_lignum>
3126

> <i_i_glide_rotatable_bonds>
5

> <r_i_docking_score>
-7.70502209801256

> <r_i_glide_ligand_efficiency>
-0.335000960783155

> <r_i_glide_ligand_efficiency_sa>
-0.952698169594036

> <r_i_glide_ligand_efficiency_ln>
-1.86314420857712

> <r_i_glide_gscore>
-7.70502209801256

> <r_i_glide_lipo>
-4.72955048988574

> <r_i_glide_hbond>
0

> <r_i_glide_metal>
0

> <r_i_glide_rewards>
-2.06042317687364

> <r_i_glide_evdw>
-31.0315494537354

> <r_i_glide_ecoul>
-0.366152495145798

> <r_i_glide_erotb>
0.691451915705462

> <r_i_glide_esite>
0

> <r_i_glide_emodel>
-33.0618917260137

> <r_i_glide_energy>
-31.3977019488811

> <r_i_glide_einternal>
8.88838768005371

> <i_i_glide_confnum>
85

> <i_i_glide_posenum>
278

> <r_i_glide_eff_state_penalty>
0

> <s_user_duplicate_titles>
CHEMBL2039_lig2701,573357

> <s_m_subgroup_title>
dock_pv

> <s_m_subgroupid>
dock_pv

> <b_m_subgroup_collapsed>
1

$$$$
CHEMBL2039_lig198
                    3D
 Schrodinger Suite 2021-1.
 31 34  0  0  1  0            999 V2000
   52.2261  155.9573   26.9334 C   0  0  0  0  0  0
   51.6560  154.7648   27.3250 C   0  0  0  0  0  0
   52.8560  155.8024   25.5982 C   0  0  0  0  0  0
   50.9055  154.6440   28.4544 N   0  0  0  0  0  0
   52.7263  154.3639   25.3048 C   0  0  0  0  0  0
   52.0542  153.7347   26.3550 C   0  0  0  0  0  0
   50.6508  155.7472   29.1924 N   0  0  0  0  0  0
   52.1158  157.0440   27.7956 C   0  0  0  0  0  0
   51.2560  156.9480   28.9040 C   0  0  0  0  0  0
   53.4125  156.6440   24.9030 O   0  0  0  0  0  0
   50.8123  158.1857   29.6393 C   0  0  0  0  0  0
   51.6560  159.3008   29.7475 C   0  0  0  0  0  0
   49.5316  158.2783   30.2066 C   0  0  0  0  0  0
   50.0819  160.4002   31.2010 C   0  0  0  0  0  0
   49.1659  159.3770   30.9831 C   0  0  0  0  0  0
   51.3101  160.3892   30.5469 C   0  0  0  0  0  0
   53.2811  153.6253   24.2607 C   0  0  0  0  0  0
   51.9571  152.3476   26.3789 C   0  0  0  0  0  0
   49.7938  161.3893   32.1040 O   0  0  0  0  0  0
   53.2336  152.2348   24.3207 C   0  0  0  0  0  0
   52.5890  151.5984   25.3827 C   0  0  0  0  0  0
   52.5670  157.9846   27.5286 H   0  0  0  0  0  0
   52.6393  159.2828   29.3040 H   0  0  0  0  0  0
   48.8295  157.4640   30.1040 H   0  0  0  0  0  0
   48.2029  159.3989   31.4714 H   0  0  0  0  0  0
   52.0178  161.1913   30.6963 H   0  0  0  0  0  0
   53.8102  154.1033   23.4489 H   0  0  0  0  0  0
   51.4465  151.8441   27.1870 H   0  0  0  0  0  0
   50.5829  161.8440   32.4208 H   0  0  0  0  0  0
   53.6560  151.6467   23.5229 H   0  0  0  0  0  0
   52.5413  150.5197   25.4145 H   0  0  0  0  0  0
  1  2  1  0  0  0
  1  3  1  0  0  0
  1  8  2  0  0  0
  2  4  2  0  0  0
  2  6  1  0  0  0
  3  5  1  0  0  0
  3 10  2  0  0  0
  4  7  1  0  0  0
  5 17  2  0  0  0
  5  6  1  0  0  0
  6 18  2  0  0  0
  7  9  2  0  0  0
  8  9  1  0  0  0
  8 22  1  0  0  0
  9 11  1  0  0  0
 11 12  2  0  0  0
 11 13  1  0  0  0
 12 16  1  0  0  0
 12 23  1  0  0  0
 13 15  2  0  0  0
 13 24  1  0  0  0
 14 15  1  0  0  0
 14 19  1  0  0  0
 14 16  2  0  0  0
 15 25  1  0  0  0
 16 26  1  0  0  0
 17 20  1  0  0  0
 17 27  1  0  0  0
 18 21  1  0  0  0
 18 28  1  0  0  0
 19 29  1  0  0  0
 20 21  2  0  0  0
 20 30  1  0  0  0
 21 31  1  0  0  0
M  END
> <s_m_entry_id>
10149

> <s_m_entry_name>
dock_pv.185

> <s_m_Source_Path>
/home/csk/Desktop/cluster/DUD-E-result/aofb

> <s_m_Source_File>
dock_pv.maegz

> <i_m_Source_File_Index>
185

> <chembl_id>
CHEMBL127757

> <chembl_pref_name>
None

> <i_lp_mmshare_version>
53161

> <i_f3d_flags>
0

> <r_lp_tautomer_probability>
0.999999999997365

> <s_lp_Force_Field>
OPLS_2005

> <r_lp_Energy>
42.74889

> <b_lp_Chiralities_Consistent>
1

> <s_lp_Variant>
CHEMBL2039_lig198-1

> <s_i_glide_gridfile>
glide-grid_1s3b

> <i_i_glide_lignum>
239

> <i_i_glide_rotatable_bonds>
2

> <r_i_docking_score>
-7.70056413252076

> <r_i_glide_ligand_efficiency>
-0.366693530120036

> <r_i_glide_ligand_efficiency_sa>
-1.01167964454401

> <r_i_glide_ligand_efficiency_ln>
-1.90394892131078

> <r_i_glide_gscore>
-7.70056413252076

> <r_i_glide_lipo>
-3.65694611925086

> <r_i_glide_hbond>
-0.30329787655499

> <r_i_glide_metal>
0

> <r_i_glide_rewards>
-2.33966027942259

> <r_i_glide_evdw>
-18.9317417144775

> <r_i_glide_ecoul>
-4.61826801300049

> <r_i_glide_erotb>
0.238667430381626

> <r_i_glide_esite>
0

> <r_i_glide_emodel>
-25.692737127877

> <r_i_glide_energy>
-23.550009727478

> <r_i_glide_einternal>
0.496988743543625

> <i_i_glide_confnum>
2

> <i_i_glide_posenum>
154

> <r_i_glide_eff_state_penalty>
0

> <s_user_duplicate_titles>
CHEMBL2039_lig198

> <s_m_subgroup_title>
dock_pv

> <s_m_subgroupid>
dock_pv

> <b_m_subgroup_collapsed>
1

$$$$
CHEMBL2039_lig226
                    3D
 Schrodinger Suite 2021-1.
 38 40  0  0  1  0            999 V2000
   52.3178  153.9984   25.7709 C   0  0  0  0  0  0
   53.6560  155.8242   24.8397 C   0  0  0  0  0  0
   51.9669  154.8855   26.8956 C   0  0  0  0  0  0
   53.1131  154.4477   24.7761 C   0  0  0  0  0  0
   52.4560  156.1932   26.8774 C   0  0  0  0  0  0
   53.2286  156.6440   25.8391 O   0  0  0  0  0  0
   51.1956  154.4836   27.9755 C   0  0  0  0  0  0
   52.1823  157.0970   27.9022 C   0  0  0  0  0  0
   51.2560  156.7464   28.8843 C   0  0  0  0  0  0
   50.7982  155.4277   28.9040 C   0  0  0  0  0  0
   54.4860  156.3443   24.1040 O   0  0  0  0  0  0
   50.6777  157.6418   29.7546 O   0  0  0  0  0  0
   50.7132  159.0432   29.5202 C   0  0  0  0  0  0
   51.7828  152.5837   25.8489 C   0  0  0  0  0  0
   49.8555  155.0440   29.7808 O   0  0  0  0  0  0
   53.6031  153.5965   23.6052 C   0  0  0  0  0  0
   49.6635  159.6767   30.4238 C   0  0  0  0  0  0
   48.3173  159.3262   30.2713 C   0  0  0  0  0  0
   50.0443  160.5546   31.4416 C   0  0  0  0  0  0
   49.0882  161.0440   32.3282 C   0  0  0  0  0  0
   47.3597  159.8282   31.1487 C   0  0  0  0  0  0
   47.7521  160.6771   32.1808 C   0  0  0  0  0  0
   50.8054  153.4799   28.0480 H   0  0  0  0  0  0
   52.5823  158.0979   27.8524 H   0  0  0  0  0  0
   50.4671  159.2881   28.4895 H   0  0  0  0  0  0
   51.7102  159.4343   29.7313 H   0  0  0  0  0  0
   52.0560  151.9672   24.9967 H   0  0  0  0  0  0
   52.1585  152.0880   26.7414 H   0  0  0  0  0  0
   50.6995  152.6440   25.9251 H   0  0  0  0  0  0
   49.6560  154.1021   29.7376 H   0  0  0  0  0  0
   53.8831  152.6028   23.9498 H   0  0  0  0  0  0
   52.8119  153.4814   22.8650 H   0  0  0  0  0  0
   54.4788  154.0049   23.0995 H   0  0  0  0  0  0
   48.0159  158.6440   29.4903 H   0  0  0  0  0  0
   51.0815  160.8277   31.5773 H   0  0  0  0  0  0
   49.3894  161.7009   33.1312 H   0  0  0  0  0  0
   46.3216  159.5489   31.0394 H   0  0  0  0  0  0
   47.0133  161.0529   32.8733 H   0  0  0  0  0  0
  1  3  1  0  0  0
  1  4  2  0  0  0
  1 14  1  0  0  0
  2  4  1  0  0  0
  2  6  1  0  0  0
  2 11  2  0  0  0
  3  5  1  0  0  0
  3  7  2  0  0  0
  4 16  1  0  0  0
  5  8  2  0  0  0
  5  6  1  0  0  0
  7 10  1  0  0  0
  7 23  1  0  0  0
  8  9  1  0  0  0
  8 24  1  0  0  0
  9 10  2  0  0  0
  9 12  1  0  0  0
 10 15  1  0  0  0
 12 13  1  0  0  0
 13 17  1  0  0  0
 13 25  1  0  0  0
 13 26  1  0  0  0
 14 27  1  0  0  0
 14 28  1  0  0  0
 14 29  1  0  0  0
 15 30  1  0  0  0
 16 31  1  0  0  0
 16 32  1  0  0  0
 16 33  1  0  0  0
 17 18  1  0  0  0
 17 19  2  0  0  0
 18 21  2  0  0  0
 18 34  1  0  0  0
 19 20  1  0  0  0
 19 35  1  0  0  0
 20 22  2  0  0  0
 20 36  1  0  0  0
 21 22  1  0  0  0
 21 37  1  0  0  0
 22 38  1  0  0  0
M  END
> <s_m_entry_id>
10150

> <s_m_entry_name>
dock_pv.186

> <s_m_Source_Path>
/home/csk/Desktop/cluster/DUD-E-result/aofb

> <s_m_Source_File>
dock_pv.maegz

> <i_m_Source_File_Index>
186

> <chembl_id>
CHEMBL142916

> <chembl_pref_name>
None

> <i_lp_mmshare_version>
53161

> <i_f3d_flags>
0

> <r_lp_tautomer_probability>
1

> <s_lp_Force_Field>
OPLS_2005

> <r_lp_Energy>
23.512566

> <b_lp_Chiralities_Consistent>
1

> <s_lp_Variant>
CHEMBL2039_lig226-1

> <s_i_glide_gridfile>
glide-grid_1s3b

> <i_i_glide_lignum>
267

> <i_i_glide_rotatable_bonds>
4

> <r_i_docking_score>
-7.69955179495669

> <r_i_glide_ligand_efficiency>
-0.349979627043486

> <r_i_glide_ligand_efficiency_sa>
-0.980656678893535

> <r_i_glide_ligand_efficiency_ln>
-1.88205130666297

> <r_i_glide_gscore>
-7.69955179495669

> <r_i_glide_lipo>
-4.44867765965055

> <r_i_glide_hbond>
0

> <r_i_glide_metal>
0

> <r_i_glide_rewards>
-2.27075397940375

> <r_i_glide_evdw>
-19.7996845245361

> <r_i_glide_ecoul>
-4.10673809051514

> <r_i_glide_erotb>
0.625874783901683

> <r_i_glide_esite>
0

> <r_i_glide_emodel>
-24.6714061398845

> <r_i_glide_energy>
-23.9064226150513

> <r_i_glide_einternal>
2.64317965507507

> <i_i_glide_confnum>
23

> <i_i_glide_posenum>
143

> <r_i_glide_eff_state_penalty>
0

> <s_user_duplicate_titles>
CHEMBL2039_lig226

> <s_m_subgroup_title>
dock_pv

> <s_m_subgroupid>
dock_pv

> <b_m_subgroup_collapsed>
1

$$$$
CHEMBL2039_lig1138
                    3D
 Schrodinger Suite 2021-1.
 31 32  0  0  1  0            999 V2000
   53.2560  153.8125   23.7235 O   0  0  0  0  0  0
   52.7426  154.2964   24.8959 C   0  0  0  0  0  0
   52.0639  153.4438   25.7603 C   0  0  0  0  0  0
   51.5710  153.9352   26.9648 C   0  0  0  0  0  0
   51.7403  155.2858   27.3117 C   0  0  0  0  0  0
   52.4281  156.1323   26.4245 C   0  0  0  0  0  0
   52.9151  155.6390   25.2180 C   0  0  0  0  0  0
   51.1439  155.7982   28.6054 C   0  0  0  0  0  0
   50.4589  155.0440   29.3040 O   0  0  0  0  0  0
   51.3296  157.1044   28.9040 N   0  0  0  0  0  0
   50.4560  157.7357   29.7040 N   0  0  0  0  0  0
   50.5792  158.9930   29.7921 C   0  0  0  0  0  0
   49.6353  159.7326   30.6342 C   0  0  0  0  0  0
   48.2594  159.4482   30.5626 C   0  0  0  0  0  0
   47.3562  160.0328   31.4491 C   0  0  0  0  0  0
   47.8195  160.8977   32.4356 C   0  0  0  0  0  0
   49.1767  161.2017   32.5051 C   0  0  0  0  0  0
   50.0808  160.6544   31.5962 C   0  0  0  0  0  0
   51.4034  161.0150   31.7039 O   0  0  0  0  0  0
   53.1032  152.8731   23.6036 H   0  0  0  0  0  0
   51.9391  152.3996   25.5189 H   0  0  0  0  0  0
   51.0500  153.2550   27.6249 H   0  0  0  0  0  0
   52.5866  157.1766   26.6460 H   0  0  0  0  0  0
   53.4455  156.2928   24.5420 H   0  0  0  0  0  0
   51.9771  157.6898   28.3981 H   0  0  0  0  0  0
   51.3607  159.5720   29.3040 H   0  0  0  0  0  0
   47.8850  158.7429   29.8332 H   0  0  0  0  0  0
   46.3041  159.7934   31.3886 H   0  0  0  0  0  0
   47.1307  161.3281   33.1477 H   0  0  0  0  0  0
   49.5363  161.8440   33.2913 H   0  0  0  0  0  0
   51.5924  161.5932   32.4567 H   0  0  0  0  0  0
  1  2  1  0  0  0
  1 20  1  0  0  0
  2  3  2  0  0  0
  2  7  1  0  0  0
  3  4  1  0  0  0
  3 21  1  0  0  0
  4  5  2  0  0  0
  4 22  1  0  0  0
  5  6  1  0  0  0
  5  8  1  0  0  0
  6  7  2  0  0  0
  6 23  1  0  0  0
  7 24  1  0  0  0
  8  9  2  0  0  0
  8 10  1  0  0  0
 10 11  1  0  0  0
 10 25  1  0  0  0
 11 12  2  0  0  0
 12 13  1  0  0  0
 12 26  1  0  0  0
 13 14  2  0  0  0
 13 18  1  0  0  0
 14 15  1  0  0  0
 14 27  1  0  0  0
 15 16  2  0  0  0
 15 28  1  0  0  0
 16 17  1  0  0  0
 16 29  1  0  0  0
 17 18  2  0  0  0
 17 30  1  0  0  0
 18 19  1  0  0  0
 19 31  1  0  0  0
M  END
> <s_m_entry_id>
10151

> <s_m_entry_name>
dock_pv.187

> <s_m_Source_Path>
/home/csk/Desktop/cluster/DUD-E-result/aofb

> <s_m_Source_File>
dock_pv.maegz

> <i_m_Source_File_Index>
187

> <chembl_id>
CHEMBL199600

> <chembl_pref_name>
None

> <i_lp_mmshare_version>
53161

> <i_f3d_flags>
0

> <r_lp_tautomer_probability>
0.999999999997365

> <s_lp_Force_Field>
OPLS_2005

> <r_lp_Energy>
16.104609

> <b_lp_Chiralities_Consistent>
1

> <s_lp_Variant>
CHEMBL2039_lig1138-1

> <s_i_glide_gridfile>
glide-grid_1s3b

> <i_i_glide_lignum>
1314

> <i_i_glide_rotatable_bonds>
6

> <r_i_docking_score>
-7.69879042995121

> <r_i_glide_ligand_efficiency>
-0.405199496313221

> <r_i_glide_ligand_efficiency_sa>
-1.08123500296229

> <r_i_glide_ligand_efficiency_ln>
-1.95180872884948

> <r_i_glide_gscore>
-7.69879042995121

> <r_i_glide_lipo>
-3.02497136880188

> <r_i_glide_hbond>
-0.32

> <r_i_glide_metal>
0

> <r_i_glide_rewards>
-2.92936050635184

> <r_i_glide_evdw>
-35.0131797790527

> <r_i_glide_ecoul>
-4.98176336288452

> <r_i_glide_erotb>
1.07346493858783

> <r_i_glide_esite>
0

> <r_i_glide_emodel>
-49.9321364317614

> <r_i_glide_energy>
-39.9949431419373

> <r_i_glide_einternal>
10.681866645813

> <i_i_glide_confnum>
2

> <i_i_glide_posenum>
384

> <r_i_glide_eff_state_penalty>
0

> <s_user_duplicate_titles>
CHEMBL2039_lig1138

> <s_m_subgroup_title>
dock_pv

> <s_m_subgroupid>
dock_pv

> <b_m_subgroup_collapsed>
1

$$$$
CHEMBL2039_lig977
                    3D
 Schrodinger Suite 2021-1.
 36 38  0  0  1  0            999 V2000
   51.6560  155.1257   27.3205 C   0  0  0  0  0  0
   51.2560  153.7877   27.2615 C   0  0  0  0  0  0
   51.6560  152.9641   26.2088 C   0  0  0  0  0  0
   52.4560  155.6471   26.2919 C   0  0  0  0  0  0
   52.9315  154.7862   25.3040 C   0  0  0  0  0  0
   52.5058  153.4767   25.2333 C   0  0  0  0  0  0
   53.1738  152.8454   24.0555 C   0  0  0  0  0  0
   54.0560  153.8440   23.5730 O   0  0  0  0  0  0
   54.0112  154.9645   24.3170 C   0  0  0  0  0  0
   54.7417  155.9307   24.1040 O   0  0  0  0  0  0
   51.2566  155.8310   28.4309 O   0  0  0  0  0  0
   51.6560  157.1865   28.6097 C   0  0  0  0  0  0
   50.5954  157.7720   29.5388 C   0  0  0  0  0  0
   50.4043  159.2994   29.4899 C   0  0  0  0  0  0
   49.3824  159.7973   30.5041 C   0  0  0  0  0  0
   48.0396  159.4230   30.3834 C   0  0  0  0  0  0
   47.1105  159.8436   31.3313 C   0  0  0  0  0  0
   47.5263  160.6440   32.3930 C   0  0  0  0  0  0
   48.8560  161.0429   32.5050 C   0  0  0  0  0  0
   49.7859  160.6191   31.5601 C   0  0  0  0  0  0
   50.6383  153.3853   28.0506 H   0  0  0  0  0  0
   51.3389  151.9318   26.1908 H   0  0  0  0  0  0
   52.8347  156.6558   26.3309 H   0  0  0  0  0  0
   53.7359  151.9529   24.3308 H   0  0  0  0  0  0
   52.4661  152.5695   23.2755 H   0  0  0  0  0  0
   51.6837  157.7747   27.7034 H   0  0  0  0  0  0
   52.6547  157.2345   29.0430 H   0  0  0  0  0  0
   50.8566  157.4440   30.5040 H   0  0  0  0  0  0
   49.6560  157.2466   29.4512 H   0  0  0  0  0  0
   50.0561  159.5969   28.5024 H   0  0  0  0  0  0
   51.3626  159.8002   29.6396 H   0  0  0  0  0  0
   47.7170  158.7978   29.5635 H   0  0  0  0  0  0
   46.0743  159.5488   31.2462 H   0  0  0  0  0  0
   46.8085  160.9672   33.1324 H   0  0  0  0  0  0
   49.1724  161.6660   33.3282 H   0  0  0  0  0  0
   50.8197  160.9178   31.6635 H   0  0  0  0  0  0
  1  2  2  0  0  0
  1  4  1  0  0  0
  1 11  1  0  0  0
  2  3  1  0  0  0
  2 21  1  0  0  0
  3  6  2  0  0  0
  3 22  1  0  0  0
  4  5  2  0  0  0
  4 23  1  0  0  0
  5  6  1  0  0  0
  5  9  1  0  0  0
  6  7  1  0  0  0
  7  8  1  0  0  0
  7 24  1  0  0  0
  7 25  1  0  0  0
  8  9  1  0  0  0
  9 10  2  0  0  0
 11 12  1  0  0  0
 12 13  1  0  0  0
 12 26  1  0  0  0
 12 27  1  0  0  0
 13 14  1  0  0  0
 13 28  1  0  0  0
 13 29  1  0  0  0
 14 15  1  0  0  0
 14 30  1  0  0  0
 14 31  1  0  0  0
 15 16  2  0  0  0
 15 20  1  0  0  0
 16 17  1  0  0  0
 16 32  1  0  0  0
 17 18  2  0  0  0
 17 33  1  0  0  0
 18 19  1  0  0  0
 18 34  1  0  0  0
 19 20  2  0  0  0
 19 35  1  0  0  0
 20 36  1  0  0  0
M  END
> <s_m_entry_id>
10152

> <s_m_entry_name>
dock_pv.188

> <s_m_Source_Path>
/home/csk/Desktop/cluster/DUD-E-result/aofb

> <s_m_Source_File>
dock_pv.maegz

> <i_m_Source_File_Index>
188

> <chembl_id>
CHEMBL2391876

> <chembl_pref_name>
None

> <i_lp_mmshare_version>
53161

> <i_f3d_flags>
0

> <r_lp_tautomer_probability>
1

> <s_lp_Force_Field>
OPLS_2005

> <r_lp_Energy>
29.156023

> <b_lp_Chiralities_Consistent>
1

> <s_lp_Variant>
CHEMBL2039_lig977-1

> <s_i_glide_gridfile>
glide-grid_1s3b

> <i_i_glide_lignum>
1124

> <i_i_glide_rotatable_bonds>
5

> <r_i_docking_score>
-7.69757242412515

> <r_i_glide_ligand_efficiency>
-0.384878621206258

> <r_i_glide_ligand_efficiency_sa>
-1.04472130860979

> <r_i_glide_ligand_efficiency_ln>
-1.92644849482835

> <r_i_glide_gscore>
-7.69757242412515

> <r_i_glide_lipo>
-4.06038336360859

> <r_i_glide_hbond>
0

> <r_i_glide_metal>
0

> <r_i_glide_rewards>
-2.69925129773008

> <r_i_glide_evdw>
-31.0023899078369

> <r_i_glide_ecoul>
-0.87732720375061

> <r_i_glide_erotb>
0.743780813167949

> <r_i_glide_esite>
0

> <r_i_glide_emodel>
-38.2844567139392

> <r_i_glide_energy>
-31.8797171115875

> <r_i_glide_einternal>
4.67478227615356

> <i_i_glide_confnum>
8

> <i_i_glide_posenum>
116

> <r_i_glide_eff_state_penalty>
0

> <s_user_duplicate_titles>
CHEMBL2039_lig977

> <s_m_subgroup_title>
dock_pv

> <s_m_subgroupid>
dock_pv

> <b_m_subgroup_collapsed>
1

$$$$
CHEMBL2039_lig1603
                    3D
 Schrodinger Suite 2021-1.
 36 38  0  0  1  0            999 V2000
   52.3242  152.2170   25.9648 C   0  0  0  0  0  0
   52.5852  152.8931   24.6052 C   0  0  0  0  0  0
   53.1264  154.2851   24.8353 C   0  0  0  0  0  0
   52.4560  155.0032   25.9553 C   0  0  0  0  0  0
   52.8559  156.3030   26.2566 C   0  0  0  0  0  0
   52.4560  156.9106   27.4390 C   0  0  0  0  0  0
   51.5592  156.2693   28.3085 C   0  0  0  0  0  0
   51.2419  154.9306   28.0654 C   0  0  0  0  0  0
   51.6847  154.3006   26.8975 C   0  0  0  0  0  0
   51.3657  152.9665   26.7321 O   0  0  0  0  0  0
   54.0725  154.7550   24.2023 O   0  0  0  0  0  0
   50.8615  156.9474   29.3039 O   0  0  0  0  0  0
   51.0023  158.3796   29.3664 C   0  0  0  0  0  0
   49.9730  159.0443   30.2704 C   0  0  0  0  0  0
   48.7188  158.4715   30.5062 C   0  0  0  0  0  0
   47.8305  159.0792   31.3910 C   0  0  0  0  0  0
   48.1981  160.2553   32.0471 C   0  0  0  0  0  0
   49.4369  160.8419   31.7927 C   0  0  0  0  0  0
   50.3174  160.2439   30.8990 C   0  0  0  0  0  0
   47.2562  160.9106   33.0380 C   0  0  0  0  0  0
   53.2682  152.1260   26.5041 H   0  0  0  0  0  0
   51.9424  151.2063   25.8186 H   0  0  0  0  0  0
   53.2863  152.3059   24.0113 H   0  0  0  0  0  0
   51.6484  153.0439   24.1038 H   0  0  0  0  0  0
   53.5287  156.8395   25.6021 H   0  0  0  0  0  0
   52.7945  157.9159   27.6264 H   0  0  0  0  0  0
   50.5928  154.4003   28.7453 H   0  0  0  0  0  0
   50.8792  158.8595   28.3995 H   0  0  0  0  0  0
   52.0101  158.6186   29.7070 H   0  0  0  0  0  0
   48.4422  157.5339   30.0501 H   0  0  0  0  0  0
   46.8705  158.6216   31.5826 H   0  0  0  0  0  0
   49.7285  161.7516   32.2983 H   0  0  0  0  0  0
   51.2832  160.6982   30.7269 H   0  0  0  0  0  0
   46.2272  160.5811   32.8949 H   0  0  0  0  0  0
   47.5666  160.6917   34.0602 H   0  0  0  0  0  0
   47.2680  161.9931   32.9058 H   0  0  0  0  0  0
  1  2  1  0  0  0
  1 10  1  0  0  0
  1 21  1  0  0  0
  1 22  1  0  0  0
  2  3  1  0  0  0
  2 23  1  0  0  0
  2 24  1  0  0  0
  3  4  1  0  0  0
  3 11  2  0  0  0
  4  5  1  0  0  0
  4  9  2  0  0  0
  5  6  2  0  0  0
  5 25  1  0  0  0
  6  7  1  0  0  0
  6 26  1  0  0  0
  7  8  2  0  0  0
  7 12  1  0  0  0
  8  9  1  0  0  0
  8 27  1  0  0  0
  9 10  1  0  0  0
 12 13  1  0  0  0
 13 14  1  0  0  0
 13 28  1  0  0  0
 13 29  1  0  0  0
 14 15  1  0  0  0
 14 19  2  0  0  0
 15 16  2  0  0  0
 15 30  1  0  0  0
 16 17  1  0  0  0
 16 31  1  0  0  0
 17 18  2  0  0  0
 17 20  1  0  0  0
 18 19  1  0  0  0
 18 32  1  0  0  0
 19 33  1  0  0  0
 20 34  1  0  0  0
 20 35  1  0  0  0
 20 36  1  0  0  0
M  END
> <s_m_entry_id>
10153

> <s_m_entry_name>
dock_pv.189

> <s_m_Source_Path>
/home/csk/Desktop/cluster/DUD-E-result/aofb

> <s_m_Source_File>
dock_pv.maegz

> <i_m_Source_File_Index>
189

> <chembl_id>
CHEMBL3741822

> <chembl_pref_name>
None

> <i_lp_mmshare_version>
53161

> <i_f3d_flags>
0

> <r_lp_tautomer_probability>
0.99995

> <s_lp_Force_Field>
OPLS_2005

> <r_lp_Energy>
22.939354

> <b_lp_Chiralities_Consistent>
1

> <s_lp_Variant>
CHEMBL2039_lig1603-1

> <s_i_glide_gridfile>
glide-grid_1s3b

> <i_i_glide_lignum>
1864

> <i_i_glide_rotatable_bonds>
3

> <r_i_docking_score>
-7.69730235772703

> <r_i_glide_ligand_efficiency>
-0.384865117886351

> <r_i_glide_ligand_efficiency_sa>
-1.04468465496039

> <r_i_glide_ligand_efficiency_ln>
-1.92638090611629

> <r_i_glide_gscore>
-7.69730235772703

> <r_i_glide_lipo>
-4.11764406780314

> <r_i_glide_hbond>
0

> <r_i_glide_metal>
0

> <r_i_glide_rewards>
-2.70588747086632

> <r_i_glide_evdw>
-31.8494052886963

> <r_i_glide_ecoul>
-0.16720911860466

> <r_i_glide_erotb>
0.743780813167949

> <r_i_glide_esite>
0

> <r_i_glide_emodel>
-39.7266941932709

> <r_i_glide_energy>
-32.0166144073009

> <r_i_glide_einternal>
0.950193285942078

> <i_i_glide_confnum>
28

> <i_i_glide_posenum>
126

> <r_i_glide_eff_state_penalty>
0

> <s_user_duplicate_titles>
CHEMBL2039_lig1603

> <s_m_subgroup_title>
dock_pv

> <s_m_subgroupid>
dock_pv

> <b_m_subgroup_collapsed>
1

$$$$
CHEMBL2039_lig935
                    3D
 Schrodinger Suite 2021-1.
 33 34  0  0  1  0            999 V2000
   53.7460  154.6440   24.2455 C   0  0  0  0  0  0
   53.3186  155.7973   24.9040 C   0  0  0  0  0  0
   52.4560  155.7116   25.9914 C   0  0  0  0  0  0
   52.0560  154.4598   26.4884 C   0  0  0  0  0  0
   52.4310  153.3073   25.7497 C   0  0  0  0  0  0
   53.2560  153.4078   24.6339 C   0  0  0  0  0  0
   51.3721  154.3502   27.8320 C   0  0  0  0  0  0
   51.2560  153.2537   28.3744 O   0  0  0  0  0  0
   50.7653  155.5065   28.5040 C   0  0  0  0  0  0
   51.4391  156.6176   28.8853 C   0  0  0  0  0  0
   52.0560  152.0399   26.1040 O   0  0  0  0  0  0
   50.8560  157.7937   29.5296 C   0  0  0  0  0  0
   49.6331  157.8440   30.1040 C   0  0  0  0  0  0
   48.9948  158.9825   30.8022 C   0  0  0  0  0  0
   49.7316  160.0623   31.3040 C   0  0  0  0  0  0
   49.1091  161.0403   32.0755 C   0  0  0  0  0  0
   47.7376  160.9685   32.3042 C   0  0  0  0  0  0
   46.9832  159.9289   31.7652 C   0  0  0  0  0  0
   47.6133  158.9369   31.0194 C   0  0  0  0  0  0
   54.4293  154.7112   23.4112 H   0  0  0  0  0  0
   53.6697  156.7627   24.5712 H   0  0  0  0  0  0
   52.1775  156.6390   26.4652 H   0  0  0  0  0  0
   53.5603  152.5197   24.0988 H   0  0  0  0  0  0
   49.7068  155.4073   28.6867 H   0  0  0  0  0  0
   52.5081  156.6559   28.7143 H   0  0  0  0  0  0
   51.5584  152.0444   26.9293 H   0  0  0  0  0  0
   51.4616  158.6882   29.5334 H   0  0  0  0  0  0
   49.0354  156.9447   30.1036 H   0  0  0  0  0  0
   50.7999  160.1211   31.1562 H   0  0  0  0  0  0
   49.6940  161.8440   32.4988 H   0  0  0  0  0  0
   47.2560  161.7266   32.9040 H   0  0  0  0  0  0
   45.9177  159.8811   31.9401 H   0  0  0  0  0  0
   47.0227  158.1196   30.6322 H   0  0  0  0  0  0
  1  6  1  0  0  0
  1  2  2  0  0  0
  1 20  1  0  0  0
  2  3  1  0  0  0
  2 21  1  0  0  0
  3  4  2  0  0  0
  3 22  1  0  0  0
  4  5  1  0  0  0
  4  7  1  0  0  0
  5 11  1  0  0  0
  5  6  2  0  0  0
  6 23  1  0  0  0
  7  8  2  0  0  0
  7  9  1  0  0  0
  9 10  2  0  0  0
  9 24  1  0  0  0
 10 12  1  0  0  0
 10 25  1  0  0  0
 11 26  1  0  0  0
 12 13  2  0  0  0
 12 27  1  0  0  0
 13 14  1  0  0  0
 13 28  1  0  0  0
 14 15  2  0  0  0
 14 19  1  0  0  0
 15 16  1  0  0  0
 15 29  1  0  0  0
 16 17  2  0  0  0
 16 30  1  0  0  0
 17 18  1  0  0  0
 17 31  1  0  0  0
 18 19  2  0  0  0
 18 32  1  0  0  0
 19 33  1  0  0  0
M  END
> <s_m_entry_id>
10154

> <s_m_entry_name>
dock_pv.190

> <s_m_Source_Path>
/home/csk/Desktop/cluster/DUD-E-result/aofb

> <s_m_Source_File>
dock_pv.maegz

> <i_m_Source_File_Index>
190

> <chembl_id>
CHEMBL244661

> <chembl_pref_name>
None

> <i_lp_mmshare_version>
53161

> <i_f3d_flags>
0

> <r_lp_tautomer_probability>
1

> <s_lp_Force_Field>
OPLS_2005

> <r_lp_Energy>
20.054735

> <b_lp_Chiralities_Consistent>
1

> <s_lp_Variant>
CHEMBL2039_lig935-1

> <s_i_glide_gridfile>
glide-grid_1s3b

> <i_i_glide_lignum>
1082

> <i_i_glide_rotatable_bonds>
5

> <r_i_docking_score>
-7.69415623822728

> <r_i_glide_ligand_efficiency>
-0.404955591485646

> <r_i_glide_ligand_efficiency_sa>
-1.0805841669189

> <r_i_glide_ligand_efficiency_ln>
-1.95063386171416

> <r_i_glide_gscore>
-7.69415623822728

> <r_i_glide_lipo>
-3.88366680551838

> <r_i_glide_hbond>
0

> <r_i_glide_metal>
0

> <r_i_glide_rewards>
-2.93628865217856

> <r_i_glide_evdw>
-35.2092399597168

> <r_i_glide_ecoul>
0.319598585367203

> <r_i_glide_erotb>
0.838321429650419

> <r_i_glide_esite>
0

> <r_i_glide_emodel>
-44.0575900853797

> <r_i_glide_energy>
-34.8896413743496

> <r_i_glide_einternal>
5.04851961135864

> <i_i_glide_confnum>
1

> <i_i_glide_posenum>
100

> <r_i_glide_eff_state_penalty>
0

> <s_user_duplicate_titles>
CHEMBL2039_lig935

> <s_m_subgroup_title>
dock_pv

> <s_m_subgroupid>
dock_pv

> <b_m_subgroup_collapsed>
1

$$$$
CHEMBL2039_lig1594
                    3D
 Schrodinger Suite 2021-1.
 36 38  0  0  1  0            999 V2000
   46.6227  159.3643   31.0464 C   0  0  0  0  0  0
   46.9662  159.8899   32.4499 C   0  0  0  0  0  0
   48.1962  160.7770   32.3271 C   0  0  0  0  0  0
   49.2553  160.2359   31.4431 C   0  0  0  0  0  0
   50.5236  160.8237   31.3134 C   0  0  0  0  0  0
   51.4732  160.2786   30.4421 C   0  0  0  0  0  0
   51.1821  159.1288   29.7041 C   0  0  0  0  0  0
   49.9101  158.5848   29.8245 C   0  0  0  0  0  0
   48.9414  159.1419   30.6331 C   0  0  0  0  0  0
   47.7000  158.5299   30.6080 O   0  0  0  0  0  0
   48.3039  161.8440   32.9040 O   0  0  0  0  0  0
   52.1536  158.5702   28.9040 O   0  0  0  0  0  0
   52.2029  157.1508   28.7238 C   0  0  0  0  0  0
   52.4671  156.7512   27.2632 C   0  0  0  0  0  0
   52.0560  155.3321   26.8674 C   0  0  0  0  0  0
   51.6561  154.3686   27.8079 C   0  0  0  0  0  0
   51.5018  153.0440   27.4239 C   0  0  0  0  0  0
   51.7343  152.6786   26.1040 C   0  0  0  0  0  0
   52.0747  153.6338   25.1502 C   0  0  0  0  0  0
   52.2290  154.9616   25.5311 C   0  0  0  0  0  0
   46.4666  160.1932   30.3531 H   0  0  0  0  0  0
   45.6988  158.7914   31.0494 H   0  0  0  0  0  0
   46.1290  160.4523   32.8615 H   0  0  0  0  0  0
   47.2560  159.0440   33.0673 H   0  0  0  0  0  0
   50.7888  161.6919   31.9022 H   0  0  0  0  0  0
   52.4557  160.7211   30.3747 H   0  0  0  0  0  0
   49.6561  157.6951   29.3040 H   0  0  0  0  0  0
   51.3335  156.6351   29.1125 H   0  0  0  0  0  0
   53.0401  156.7685   29.3039 H   0  0  0  0  0  0
   53.5344  156.8634   27.0750 H   0  0  0  0  0  0
   52.0154  157.4440   26.5681 H   0  0  0  0  0  0
   51.5436  154.5889   28.8572 H   0  0  0  0  0  0
   51.2383  152.2951   28.1570 H   0  0  0  0  0  0
   51.6560  151.6397   25.8197 H   0  0  0  0  0  0
   52.2494  153.3408   24.1250 H   0  0  0  0  0  0
   52.5448  155.6901   24.7988 H   0  0  0  0  0  0
  1  2  1  0  0  0
  1 10  1  0  0  0
  1 21  1  0  0  0
  1 22  1  0  0  0
  2  3  1  0  0  0
  2 23  1  0  0  0
  2 24  1  0  0  0
  3  4  1  0  0  0
  3 11  2  0  0  0
  4  5  1  0  0  0
  4  9  2  0  0  0
  5  6  2  0  0  0
  5 25  1  0  0  0
  6  7  1  0  0  0
  6 26  1  0  0  0
  7  8  2  0  0  0
  7 12  1  0  0  0
  8  9  1  0  0  0
  8 27  1  0  0  0
  9 10  1  0  0  0
 12 13  1  0  0  0
 13 14  1  0  0  0
 13 28  1  0  0  0
 13 29  1  0  0  0
 14 15  1  0  0  0
 14 30  1  0  0  0
 14 31  1  0  0  0
 15 16  1  0  0  0
 15 20  2  0  0  0
 16 17  2  0  0  0
 16 32  1  0  0  0
 17 18  1  0  0  0
 17 33  1  0  0  0
 18 19  2  0  0  0
 18 34  1  0  0  0
 19 20  1  0  0  0
 19 35  1  0  0  0
 20 36  1  0  0  0
M  END
> <s_m_entry_id>
10155

> <s_m_entry_name>
dock_pv.191

> <s_m_Source_Path>
/home/csk/Desktop/cluster/DUD-E-result/aofb

> <s_m_Source_File>
dock_pv.maegz

> <i_m_Source_File_Index>
191

> <chembl_id>
CHEMBL3739905

> <chembl_pref_name>
None

> <i_lp_mmshare_version>
53161

> <i_f3d_flags>
0

> <r_lp_tautomer_probability>
0.99995

> <s_lp_Force_Field>
OPLS_2005

> <r_lp_Energy>
20.161734

> <b_lp_Chiralities_Consistent>
1

> <s_lp_Variant>
CHEMBL2039_lig1594-1

> <s_i_glide_gridfile>
glide-grid_1s3b

> <i_i_glide_lignum>
1855

> <i_i_glide_rotatable_bonds>
4

> <r_i_docking_score>
-7.68490397412851

> <r_i_glide_ligand_efficiency>
-0.384245198706425

> <r_i_glide_ligand_efficiency_sa>
-1.04300193541921

> <r_i_glide_ligand_efficiency_ln>
-1.92327799962764

> <r_i_glide_gscore>
-7.68490397412851

> <r_i_glide_lipo>
-4.01159113194267

> <r_i_glide_hbond>
0

> <r_i_glide_metal>
0

> <r_i_glide_rewards>
-2.74362086909763

> <r_i_glide_evdw>
-28.6705055236816

> <r_i_glide_ecoul>
0.0531961843371391

> <r_i_glide_erotb>
0.4958538754453

> <r_i_glide_esite>
0

> <r_i_glide_emodel>
-35.6182221252747

> <r_i_glide_energy>
-28.6173093393445

> <r_i_glide_einternal>
5.17744970321655

> <i_i_glide_confnum>
16

> <i_i_glide_posenum>
131

> <r_i_glide_eff_state_penalty>
0

> <s_user_duplicate_titles>
CHEMBL2039_lig1594

> <s_m_subgroup_title>
dock_pv

> <s_m_subgroupid>
dock_pv

> <b_m_subgroup_collapsed>
1

$$$$
CHEMBL2039_lig1663
                    3D
 Schrodinger Suite 2021-1.
 34 35  0  0  1  0            999 V2000
   52.4559  153.4069   25.4961 C   0  0  0  0  0  0
   52.8328  153.9080   24.1043 C   0  0  0  0  0  0
   52.0200  154.4178   26.5067 C   0  0  0  0  0  0
   52.4559  155.7475   26.4313 C   0  0  0  0  0  0
   52.1456  156.6441   27.4475 C   0  0  0  0  0  0
   51.3111  156.2626   28.5040 C   0  0  0  0  0  0
   50.8936  154.9396   28.5906 C   0  0  0  0  0  0
   51.2570  154.0139   27.6128 C   0  0  0  0  0  0
   50.7843  157.1453   29.4286 O   0  0  0  0  0  0
   51.0380  158.5537   29.3508 C   0  0  0  0  0  0
   50.0556  159.3271   30.2361 C   0  0  0  0  0  0
   50.4725  160.4195   31.0229 C   0  0  0  0  0  0
   49.5582  161.0436   31.8785 C   0  0  0  0  0  0
   48.2317  160.6210   31.9366 C   0  0  0  0  0  0
   47.8087  159.5614   31.1397 C   0  0  0  0  0  0
   48.7163  158.9186   30.2995 C   0  0  0  0  0  0
   51.9033  160.9419   30.9872 C   0  0  0  0  0  0
   52.4555  152.1935   25.7040 O   0  0  0  0  0  0
   53.7804  154.4465   24.1350 H   0  0  0  0  0  0
   52.0601  154.5837   23.7366 H   0  0  0  0  0  0
   52.9182  153.0770   23.4029 H   0  0  0  0  0  0
   53.0853  156.0903   25.6225 H   0  0  0  0  0  0
   52.5058  157.6566   27.3640 H   0  0  0  0  0  0
   50.2679  154.6431   29.4169 H   0  0  0  0  0  0
   50.9285  152.9896   27.7194 H   0  0  0  0  0  0
   52.0559  158.7009   29.6995 H   0  0  0  0  0  0
   50.9602  158.9651   28.3456 H   0  0  0  0  0  0
   49.8782  161.8643   32.5034 H   0  0  0  0  0  0
   47.5338  161.1113   32.5986 H   0  0  0  0  0  0
   46.7826  159.2289   31.1810 H   0  0  0  0  0  0
   48.3706  158.0891   29.7049 H   0  0  0  0  0  0
   51.9989  161.9130   31.4728 H   0  0  0  0  0  0
   52.5782  160.2428   31.4815 H   0  0  0  0  0  0
   52.2384  161.0672   29.9566 H   0  0  0  0  0  0
  1  2  1  0  0  0
  1  3  1  0  0  0
  1 18  2  0  0  0
  2 19  1  0  0  0
  2 20  1  0  0  0
  2 21  1  0  0  0
  3  4  1  0  0  0
  3  8  2  0  0  0
  4  5  2  0  0  0
  4 22  1  0  0  0
  5  6  1  0  0  0
  5 23  1  0  0  0
  6  7  2  0  0  0
  6  9  1  0  0  0
  7  8  1  0  0  0
  7 24  1  0  0  0
  8 25  1  0  0  0
  9 10  1  0  0  0
 10 11  1  0  0  0
 10 26  1  0  0  0
 10 27  1  0  0  0
 11 12  1  0  0  0
 11 16  2  0  0  0
 12 13  2  0  0  0
 12 17  1  0  0  0
 13 14  1  0  0  0
 13 28  1  0  0  0
 14 15  2  0  0  0
 14 29  1  0  0  0
 15 16  1  0  0  0
 15 30  1  0  0  0
 16 31  1  0  0  0
 17 32  1  0  0  0
 17 33  1  0  0  0
 17 34  1  0  0  0
M  END
> <s_m_entry_id>
10156

> <s_m_entry_name>
dock_pv.192

> <s_m_Source_Path>
/home/csk/Desktop/cluster/DUD-E-result/aofb

> <s_m_Source_File>
dock_pv.maegz

> <i_m_Source_File_Index>
192

> <chembl_id>
CHEMBL3771057

> <chembl_pref_name>
None

> <i_lp_mmshare_version>
53161

> <i_f3d_flags>
0

> <r_lp_tautomer_probability>
0.99995

> <s_lp_Force_Field>
OPLS_2005

> <r_lp_Energy>
24.475382

> <b_lp_Chiralities_Consistent>
1

> <s_lp_Variant>
CHEMBL2039_lig1663-1

> <s_i_glide_gridfile>
glide-grid_1s3b

> <i_i_glide_lignum>
1931

> <i_i_glide_rotatable_bonds>
4

> <r_i_docking_score>
-7.68205399039614

> <r_i_glide_ligand_efficiency>
-0.42678077724423

> <r_i_glide_ligand_efficiency_sa>
-1.11848204809899

> <r_i_glide_ligand_efficiency_ln>
-1.97463236638095

> <r_i_glide_gscore>
-7.68205399039614

> <r_i_glide_lipo>
-4.14203251964503

> <r_i_glide_hbond>
0

> <r_i_glide_metal>
0

> <r_i_glide_rewards>
-2.78358554137985

> <r_i_glide_evdw>
-29.7965755462646

> <r_i_glide_ecoul>
-1.10295832157135

> <r_i_glide_erotb>
0.898836596177675

> <r_i_glide_esite>
0

> <r_i_glide_emodel>
-41.5891350278603

> <r_i_glide_energy>
-30.899533867836

> <r_i_glide_einternal>
3.48830461502075

> <i_i_glide_confnum>
12

> <i_i_glide_posenum>
139

> <r_i_glide_eff_state_penalty>
0

> <s_user_duplicate_titles>
CHEMBL2039_lig1663

> <s_m_subgroup_title>
dock_pv

> <s_m_subgroupid>
dock_pv

> <b_m_subgroup_collapsed>
1

$$$$
CHEMBL2039_lig1553
                    3D
 Schrodinger Suite 2021-1.
 39 42  0  0  1  0            999 V2000
   51.2904  156.2542   28.4841 C   0  0  0  0  0  0
   51.8261  157.6042   28.6238 N   0  0  1  0  0  0
   51.1770  158.2553   29.7375 C   0  0  1  0  0  0
   51.6538  159.6417   30.0750 C   0  0  0  0  0  0
   50.2526  159.4440   29.5345 C   0  0  2  0  0  0
   49.0510  159.7108   30.4405 C   0  0  0  0  0  0
   49.1864  160.4440   31.6278 C   0  0  0  0  0  0
   48.0915  160.6360   32.4631 C   0  0  0  0  0  0
   46.8560  160.1089   32.1040 C   0  0  0  0  0  0
   46.6985  159.4065   30.9129 C   0  0  0  0  0  0
   47.7983  159.2020   30.0849 C   0  0  0  0  0  0
   51.7536  155.5591   27.2268 C   0  0  0  0  0  0
   52.2907  156.2439   26.1334 C   0  0  0  0  0  0
   52.7403  155.6411   25.0111 N   0  0  0  0  0  0
   52.7000  154.2841   24.9711 C   0  0  0  0  0  0
   53.2312  153.6282   23.8478 C   0  0  0  0  0  0
   53.2560  152.2440   23.8147 C   0  0  0  0  0  0
   52.8560  151.4823   24.9040 C   0  0  0  0  0  0
   52.2380  152.1001   25.9862 C   0  0  0  0  0  0
   52.1660  153.5033   26.0430 C   0  0  0  0  0  0
   51.6560  154.1742   27.1682 C   0  0  0  0  0  0
   50.2024  156.2440   28.5043 H   0  0  0  0  0  0
   51.6290  155.6282   29.3040 H   0  0  0  0  0  0
   52.8158  157.5564   28.8364 H   0  0  0  0  0  0
   50.8444  157.5662   30.5040 H   0  0  0  0  0  0
   51.8513  159.8499   31.1252 H   0  0  0  0  0  0
   52.4020  160.1076   29.4401 H   0  0  0  0  0  0
   50.0801  159.7494   28.5040 H   0  0  0  0  0  0
   50.1323  160.8713   31.9230 H   0  0  0  0  0  0
   48.2020  161.1896   33.3839 H   0  0  0  0  0  0
   46.0092  160.2522   32.7551 H   0  0  0  0  0  0
   45.7281  159.0198   30.6368 H   0  0  0  0  0  0
   47.6664  158.6461   29.1692 H   0  0  0  0  0  0
   52.3580  157.3180   26.1453 H   0  0  0  0  0  0
   53.6300  154.2000   23.0242 H   0  0  0  0  0  0
   53.6558  151.7686   22.9377 H   0  0  0  0  0  0
   52.9213  150.4048   24.8627 H   0  0  0  0  0  0
   51.8095  151.5152   26.7856 H   0  0  0  0  0  0
   51.2636  153.6051   27.9993 H   0  0  0  0  0  0
  1  2  1  0  0  0
  1 12  1  0  0  0
  1 22  1  0  0  0
  1 23  1  0  0  0
  2  3  1  0  0  0
  2 24  1  0  0  0
  3  4  1  0  0  0
  3  5  1  0  0  0
  3 25  1  0  0  0
  4  5  1  0  0  0
  4 26  1  0  0  0
  4 27  1  0  0  0
  5  6  1  0  0  0
  5 28  1  0  0  0
  6  7  2  0  0  0
  6 11  1  0  0  0
  7  8  1  0  0  0
  7 29  1  0  0  0
  8  9  2  0  0  0
  8 30  1  0  0  0
  9 10  1  0  0  0
  9 31  1  0  0  0
 10 11  2  0  0  0
 10 32  1  0  0  0
 11 33  1  0  0  0
 12 13  2  0  0  0
 12 21  1  0  0  0
 13 14  1  0  0  0
 13 34  1  0  0  0
 14 15  2  0  0  0
 15 16  1  0  0  0
 15 20  1  0  0  0
 16 17  2  0  0  0
 16 35  1  0  0  0
 17 18  1  0  0  0
 17 36  1  0  0  0
 18 19  2  0  0  0
 18 37  1  0  0  0
 19 20  1  0  0  0
 19 38  1  0  0  0
 20 21  2  0  0  0
 21 39  1  0  0  0
M  END
> <s_m_entry_id>
10157

> <s_m_entry_name>
dock_pv.193

> <s_m_Source_Path>
/home/csk/Desktop/cluster/DUD-E-result/aofb

> <s_m_Source_File>
dock_pv.maegz

> <i_m_Source_File_Index>
193

> <chembl_id>
CHEMBL3651113

> <chembl_pref_name>
None

> <i_lp_mmshare_version>
53161

> <i_f3d_flags>
0

> <r_lp_tautomer_probability>
1

> <s_lp_Force_Field>
OPLS_2005

> <r_lp_Energy>
24.816901

> <b_lp_Chiralities_Consistent>
1

> <s_lp_Variant>
CHEMBL2039_lig1553-2

> <s_i_glide_gridfile>
glide-grid_1s3b

> <i_i_glide_lignum>
1811

> <i_i_glide_rotatable_bonds>
4

> <r_i_docking_score>
-7.68011356603033

> <r_i_glide_ligand_efficiency>
-0.365719693620492

> <r_i_glide_ligand_efficiency_sa>
-1.0089929034843

> <r_i_glide_ligand_efficiency_ln>
-1.89889256007028

> <r_i_glide_gscore>
-7.68011356603033

> <r_i_glide_lipo>
-4.66773674739537

> <r_i_glide_hbond>
-0.0137159361389477

> <r_i_glide_metal>
0

> <r_i_glide_rewards>
-2.43845713636364

> <r_i_glide_evdw>
-28.801248550415

> <r_i_glide_ecoul>
-0.495278835296631

> <r_i_glide_erotb>
0.95415050668287

> <r_i_glide_esite>
0

> <r_i_glide_emodel>
-34.133521002325

> <r_i_glide_energy>
-29.2965273857117

> <r_i_glide_einternal>
7.08033180236816

> <i_i_glide_confnum>
143

> <i_i_glide_posenum>
24

> <r_i_glide_eff_state_penalty>
0

> <s_user_duplicate_titles>
CHEMBL2039_lig1553

> <s_m_subgroup_title>
dock_pv

> <s_m_subgroupid>
dock_pv

> <b_m_subgroup_collapsed>
1

$$$$
CHEMBL2039_lig796
                    3D
 Schrodinger Suite 2021-1.
 30 32  0  0  1  0            999 V2000
   51.6561  156.9966   28.5039 C   0  0  0  0  0  0
   50.9745  155.8358   28.9039 C   0  0  0  0  0  0
   51.0764  154.6530   28.1768 C   0  0  0  0  0  0
   52.4560  156.9618   27.3529 C   0  0  0  0  0  0
   52.4336  155.8102   26.5631 C   0  0  0  0  0  0
   51.7767  154.6838   26.9816 C   0  0  0  0  0  0
   52.0417  153.6087   26.0059 C   0  0  0  0  0  0
   52.7242  154.2055   25.0044 N   0  0  0  0  0  0
   53.0282  155.5030   25.2378 C   0  0  0  0  0  0
   53.6782  156.2452   24.5043 O   0  0  0  0  0  0
   51.7271  152.4256   26.1026 O   0  0  0  0  0  0
   51.3382  158.5568   29.3047 S   0  0  0  0  0  0
   49.5586  158.6156   29.7042 C   0  0  0  0  0  0
   49.0729  159.3993   30.9000 C   0  0  0  0  0  0
   47.7886  159.0921   31.3515 C   0  0  0  0  0  0
   47.2429  159.7833   32.4180 C   0  0  0  0  0  0
   47.9790  160.7832   33.0416 C   0  0  0  0  0  0
   49.2557  161.0994   32.5856 C   0  0  0  0  0  0
   49.8096  160.4158   31.5073 C   0  0  0  0  0  0
   47.4528  161.4422   34.0970 F   0  0  0  0  0  0
   50.3686  155.8271   29.7921 H   0  0  0  0  0  0
   50.5770  153.7559   28.5090 H   0  0  0  0  0  0
   52.9956  157.8408   27.0445 H   0  0  0  0  0  0
   53.0347  153.7093   24.1843 H   0  0  0  0  0  0
   49.1828  157.6013   29.8040 H   0  0  0  0  0  0
   49.0561  159.0732   28.8569 H   0  0  0  0  0  0
   47.2050  158.3159   30.8772 H   0  0  0  0  0  0
   46.2563  159.5002   32.7546 H   0  0  0  0  0  0
   49.8368  161.8544   33.0875 H   0  0  0  0  0  0
   50.8019  160.6699   31.1650 H   0  0  0  0  0  0
  1  4  1  0  0  0
  1 12  1  0  0  0
  1  2  2  0  0  0
  2  3  1  0  0  0
  2 21  1  0  0  0
  3  6  2  0  0  0
  3 22  1  0  0  0
  4  5  2  0  0  0
  4 23  1  0  0  0
  5  6  1  0  0  0
  5  9  1  0  0  0
  6  7  1  0  0  0
  7 11  2  0  0  0
  7  8  1  0  0  0
  8  9  1  0  0  0
  8 24  1  0  0  0
  9 10  2  0  0  0
 12 13  1  0  0  0
 13 14  1  0  0  0
 13 25  1  0  0  0
 13 26  1  0  0  0
 14 15  2  0  0  0
 14 19  1  0  0  0
 15 16  1  0  0  0
 15 27  1  0  0  0
 16 17  2  0  0  0
 16 28  1  0  0  0
 17 18  1  0  0  0
 17 20  1  0  0  0
 18 19  2  0  0  0
 18 29  1  0  0  0
 19 30  1  0  0  0
M  END
> <s_m_entry_id>
10158

> <s_m_entry_name>
dock_pv.194

> <s_m_Source_Path>
/home/csk/Desktop/cluster/DUD-E-result/aofb

> <s_m_Source_File>
dock_pv.maegz

> <i_m_Source_File_Index>
194

> <chembl_id>
CHEMBL2158244

> <chembl_pref_name>
None

> <i_lp_mmshare_version>
53161

> <i_f3d_flags>
0

> <r_lp_tautomer_probability>
1

> <s_lp_Force_Field>
OPLS_2005

> <r_lp_Energy>
31.566602

> <b_lp_Chiralities_Consistent>
1

> <s_lp_Variant>
CHEMBL2039_lig796-1

> <s_i_glide_gridfile>
glide-grid_1s3b

> <i_i_glide_lignum>
926

> <i_i_glide_rotatable_bonds>
3

> <r_i_docking_score>
-7.67884236238063

> <r_i_glide_ligand_efficiency>
-0.383942118119031

> <r_i_glide_ligand_efficiency_sa>
-1.04217924813436

> <r_i_glide_ligand_efficiency_ln>
-1.92176097813248

> <r_i_glide_gscore>
-7.67884236238063

> <r_i_glide_lipo>
-3.48520286406546

> <r_i_glide_hbond>
0

> <r_i_glide_metal>
0

> <r_i_glide_rewards>
-3.07551178479988

> <r_i_glide_evdw>
-28.2673530578613

> <r_i_glide_ecoul>
-2.43512368202209

> <r_i_glide_erotb>
0.660508491681094

> <r_i_glide_esite>
0

> <r_i_glide_emodel>
-34.1471481232755

> <r_i_glide_energy>
-30.7024767398834

> <r_i_glide_einternal>
4.06043148040771

> <i_i_glide_confnum>
7

> <i_i_glide_posenum>
96

> <r_i_glide_eff_state_penalty>
0

> <s_user_duplicate_titles>
CHEMBL2039_lig796

> <s_m_subgroup_title>
dock_pv

> <s_m_subgroupid>
dock_pv

> <b_m_subgroup_collapsed>
1

$$$$
CHEMBL2039_lig1942
                    3D
 Schrodinger Suite 2021-1.
 35 37  0  0  1  0            999 V2000
   53.6346  155.8241   24.9041 C   0  0  0  0  0  0
   53.0467  154.4823   24.8901 C   0  0  0  0  0  0
   52.2996  154.0154   25.9123 C   0  0  0  0  0  0
   53.2543  156.6440   25.9356 O   0  0  0  0  0  0
   52.4523  156.2094   26.9738 C   0  0  0  0  0  0
   51.9610  154.8994   27.0277 C   0  0  0  0  0  0
   51.1674  154.4987   28.1036 C   0  0  0  0  0  0
   50.7396  155.4484   29.0078 C   0  0  0  0  0  0
   51.1653  156.7722   28.9042 C   0  0  0  0  0  0
   52.1178  157.1325   27.9545 C   0  0  0  0  0  0
   54.4558  156.2926   24.1070 O   0  0  0  0  0  0
   50.5254  157.6457   29.7492 O   0  0  0  0  0  0
   50.6821  159.0523   29.6354 C   0  0  0  0  0  0
   49.6170  159.6980   30.5143 C   0  0  0  0  0  0
   48.2697  159.3807   30.3081 C   0  0  0  0  0  0
   47.2918  159.8866   31.1596 C   0  0  0  0  0  0
   47.6647  160.7061   32.2225 C   0  0  0  0  0  0
   49.0021  161.0444   32.4223 C   0  0  0  0  0  0
   49.9780  160.5520   31.5589 C   0  0  0  0  0  0
   51.8025  152.5879   26.0208 C   0  0  0  0  0  0
   53.2962  153.6809   23.7661 C   0  0  0  0  0  0
   53.4097  153.0440   22.8244 N   0  0  0  0  0  0
   50.7948  153.4908   28.2061 H   0  0  0  0  0  0
   50.0341  155.1655   29.7736 H   0  0  0  0  0  0
   52.4864  158.1447   27.8887 H   0  0  0  0  0  0
   51.6862  159.3451   29.9492 H   0  0  0  0  0  0
   50.5378  159.3890   28.6071 H   0  0  0  0  0  0
   47.9812  158.7203   29.5035 H   0  0  0  0  0  0
   46.2526  159.6314   31.0047 H   0  0  0  0  0  0
   46.9096  161.0849   32.8964 H   0  0  0  0  0  0
   49.2888  161.6792   33.2481 H   0  0  0  0  0  0
   51.0151  160.8025   31.7340 H   0  0  0  0  0  0
   50.7168  152.5722   26.1046 H   0  0  0  0  0  0
   52.2191  152.1219   26.9060 H   0  0  0  0  0  0
   52.0968  151.9680   25.1772 H   0  0  0  0  0  0
  1  2  1  0  0  0
  1  4  1  0  0  0
  1 11  2  0  0  0
  2  3  2  0  0  0
  2 21  1  0  0  0
  3  6  1  0  0  0
  3 20  1  0  0  0
  4  5  1  0  0  0
  5  6  2  0  0  0
  5 10  1  0  0  0
  6  7  1  0  0  0
  7  8  2  0  0  0
  7 23  1  0  0  0
  8  9  1  0  0  0
  8 24  1  0  0  0
  9 10  2  0  0  0
  9 12  1  0  0  0
 10 25  1  0  0  0
 12 13  1  0  0  0
 13 14  1  0  0  0
 13 26  1  0  0  0
 13 27  1  0  0  0
 14 15  2  0  0  0
 14 19  1  0  0  0
 15 16  1  0  0  0
 15 28  1  0  0  0
 16 17  2  0  0  0
 16 29  1  0  0  0
 17 18  1  0  0  0
 17 30  1  0  0  0
 18 19  2  0  0  0
 18 31  1  0  0  0
 19 32  1  0  0  0
 20 33  1  0  0  0
 20 34  1  0  0  0
 20 35  1  0  0  0
 21 22  3  0  0  0
M  END
> <s_m_entry_id>
10159

> <s_m_entry_name>
dock_pv.195

> <s_m_Source_Path>
/home/csk/Desktop/cluster/DUD-E-result/aofb

> <s_m_Source_File>
dock_pv.maegz

> <i_m_Source_File_Index>
195

> <chembl_id>
CHEMBL4095676

> <chembl_pref_name>
None

> <i_lp_mmshare_version>
53161

> <i_f3d_flags>
0

> <r_lp_tautomer_probability>
1

> <s_lp_Force_Field>
OPLS_2005

> <r_lp_Energy>
30.018085

> <b_lp_Chiralities_Consistent>
1

> <s_lp_Variant>
CHEMBL2039_lig1942-1

> <s_i_glide_gridfile>
glide-grid_1s3b

> <i_i_glide_lignum>
2277

> <i_i_glide_rotatable_bonds>
3

> <r_i_docking_score>
-7.67834621414452

> <r_i_glide_ligand_efficiency>
-0.349015737006569

> <r_i_glide_ligand_efficiency_sa>
-0.977955821102449

> <r_i_glide_ligand_efficiency_ln>
-1.87686788922012

> <r_i_glide_gscore>
-7.67834621414452

> <r_i_glide_lipo>
-4.27349649105833

> <r_i_glide_hbond>
0

> <r_i_glide_metal>
0

> <r_i_glide_rewards>
-2.75613168297761

> <r_i_glide_evdw>
-24.4666481018066

> <r_i_glide_ecoul>
-0.468004256486893

> <r_i_glide_erotb>
0.644815003454787

> <r_i_glide_esite>
0

> <r_i_glide_emodel>
-30.3657697491938

> <r_i_glide_energy>
-24.9346523582935

> <r_i_glide_einternal>
5.61031627655029

> <i_i_glide_confnum>
22

> <i_i_glide_posenum>
63

> <r_i_glide_eff_state_penalty>
0

> <s_user_duplicate_titles>
CHEMBL2039_lig1942

> <s_m_subgroup_title>
dock_pv

> <s_m_subgroupid>
dock_pv

> <b_m_subgroup_collapsed>
1

$$$$
CHEMBL2039_lig974
                    3D
 Schrodinger Suite 2021-1.
 34 36  0  0  1  0            999 V2000
   50.6873  158.8346   29.7079 C   0  0  0  0  0  0
   51.5033  159.8437   30.2532 C   0  0  0  0  0  0
   50.9980  160.7063   31.2351 C   0  0  0  0  0  0
   49.3462  158.7705   30.1041 C   0  0  0  0  0  0
   48.8477  159.6453   31.0603 C   0  0  0  0  0  0
   49.6673  160.5827   31.6446 C   0  0  0  0  0  0
   48.8570  161.2863   32.6884 C   0  0  0  0  0  0
   47.5585  160.7245   32.5953 O   0  0  0  0  0  0
   47.4977  159.7697   31.6418 C   0  0  0  0  0  0
   46.4653  159.1598   31.3738 O   0  0  0  0  0  0
   51.1066  157.8013   28.9041 O   0  0  0  0  0  0
   52.4559  157.6039   28.5045 C   0  0  0  0  0  0
   52.4726  156.8538   27.1748 C   0  0  0  0  0  0
   51.6557  155.7143   27.3411 O   0  0  0  0  0  0
   51.8520  154.6147   26.5532 C   0  0  0  0  0  0
   52.6032  154.5993   25.3668 C   0  0  0  0  0  0
   52.9856  153.3757   24.8284 C   0  0  0  0  0  0
   52.5620  152.2012   25.4443 C   0  0  0  0  0  0
   51.6573  152.2315   26.5032 C   0  0  0  0  0  0
   51.3116  153.4440   27.0667 C   0  0  0  0  0  0
   53.2559  150.5320   24.8660 Br  0  0  0  0  0  0
   52.5488  159.9146   30.0017 H   0  0  0  0  0  0
   51.6518  161.4367   31.6919 H   0  0  0  0  0  0
   48.7068  158.0005   29.7040 H   0  0  0  0  0  0
   49.2565  161.1439   33.6930 H   0  0  0  0  0  0
   48.7912  162.3523   32.5040 H   0  0  0  0  0  0
   52.9246  156.9740   29.2586 H   0  0  0  0  0  0
   53.0408  158.5141   28.4824 H   0  0  0  0  0  0
   53.5025  156.6163   26.9137 H   0  0  0  0  0  0
   52.0561  157.4431   26.3659 H   0  0  0  0  0  0
   52.9901  155.5093   24.9357 H   0  0  0  0  0  0
   53.6560  153.3357   23.9820 H   0  0  0  0  0  0
   51.2798  151.3125   26.9287 H   0  0  0  0  0  0
   50.6972  153.4716   27.9547 H   0  0  0  0  0  0
  1  2  2  0  0  0
  1  4  1  0  0  0
  1 11  1  0  0  0
  2  3  1  0  0  0
  2 22  1  0  0  0
  3  6  2  0  0  0
  3 23  1  0  0  0
  4  5  2  0  0  0
  4 24  1  0  0  0
  5  6  1  0  0  0
  5  9  1  0  0  0
  6  7  1  0  0  0
  7  8  1  0  0  0
  7 25  1  0  0  0
  7 26  1  0  0  0
  8  9  1  0  0  0
  9 10  2  0  0  0
 11 12  1  0  0  0
 12 13  1  0  0  0
 12 27  1  0  0  0
 12 28  1  0  0  0
 13 14  1  0  0  0
 13 29  1  0  0  0
 13 30  1  0  0  0
 14 15  1  0  0  0
 15 16  2  0  0  0
 15 20  1  0  0  0
 16 17  1  0  0  0
 16 31  1  0  0  0
 17 18  2  0  0  0
 17 32  1  0  0  0
 18 19  1  0  0  0
 18 21  1  0  0  0
 19 20  2  0  0  0
 19 33  1  0  0  0
 20 34  1  0  0  0
M  END
> <s_m_entry_id>
10160

> <s_m_entry_name>
dock_pv.196

> <s_m_Source_Path>
/home/csk/Desktop/cluster/DUD-E-result/aofb

> <s_m_Source_File>
dock_pv.maegz

> <i_m_Source_File_Index>
196

> <chembl_id>
CHEMBL2391879

> <chembl_pref_name>
None

> <i_lp_mmshare_version>
53161

> <i_f3d_flags>
0

> <r_lp_tautomer_probability>
1

> <s_lp_Force_Field>
OPLS_2005

> <r_lp_Energy>
31.020667

> <b_lp_Chiralities_Consistent>
1

> <s_lp_Variant>
CHEMBL2039_lig974-1

> <s_i_glide_gridfile>
glide-grid_1s3b

> <i_i_glide_lignum>
1121

> <i_i_glide_rotatable_bonds>
5

> <r_i_docking_score>
-7.6780091115116

> <r_i_glide_ligand_efficiency>
-0.365619481500552

> <r_i_glide_ligand_efficiency_sa>
-1.00871642584412

> <r_i_glide_ligand_efficiency_ln>
-1.89837223794298

> <r_i_glide_gscore>
-7.6780091115116

> <r_i_glide_lipo>
-3.65017511302766

> <r_i_glide_hbond>
0

> <r_i_glide_metal>
0

> <r_i_glide_rewards>
-2.35995440317493

> <r_i_glide_evdw>
-32.6640357971191

> <r_i_glide_ecoul>
-3.35535860061646

> <r_i_glide_erotb>
0.468625984639414

> <r_i_glide_esite>
0

> <r_i_glide_emodel>
-43.3353550555884

> <r_i_glide_energy>
-36.0193943977356

> <r_i_glide_einternal>
3.47789454460144

> <i_i_glide_confnum>
9

> <i_i_glide_posenum>
321

> <r_i_glide_eff_state_penalty>
0

> <s_user_duplicate_titles>
CHEMBL2039_lig974

> <s_m_subgroup_title>
dock_pv

> <s_m_subgroupid>
dock_pv

> <b_m_subgroup_collapsed>
1

$$$$
CHEMBL2039_lig2400 
                    3D
 Schrodinger Suite 2021-1.
 40 41  0  0  1  0            999 V2000
   52.3303  153.5162   25.3372 N   0  0  1  0  0  0
   52.0087  152.9126   26.6487 C   0  0  0  0  0  0
   51.1979  153.8280   27.5876 C   0  0  0  0  0  0
   51.9356  155.1517   27.8584 C   0  0  0  0  0  0
   52.1724  155.8294   26.4870 C   0  0  0  0  0  0
   52.7723  154.9287   25.3811 C   0  0  0  0  0  0
   53.3615  152.7926   24.5588 C   0  0  0  0  0  0
   53.2560  151.3158   24.5179 C   0  0  0  0  0  0
   53.2560  150.0938   24.5040 C   0  0  0  0  0  0
   51.1643  156.0515   28.8158 C   0  0  0  0  0  0
   51.2691  157.3994   28.8921 C   0  0  0  0  0  0
   50.4260  158.2856   29.7040 C   0  0  0  0  0  0
   50.8559  159.5527   30.1040 C   0  0  0  0  0  0
   50.0472  160.3306   30.9356 C   0  0  0  0  0  0
   48.7925  159.8568   31.3540 C   0  0  0  0  0  0
   48.3516  158.6134   30.9040 C   0  0  0  0  0  0
   49.1666  157.8440   30.1040 C   0  0  0  0  0  0
   47.9460  160.6519   32.3101 C   0  0  0  0  0  0
   46.6923  160.2440   32.5040 N   0  0  0  0  0  0
   48.3873  161.6243   32.9040 O   0  0  0  0  0  0
   51.4879  151.9658   26.4982 H   0  0  0  0  0  0
   52.9396  152.6476   27.1496 H   0  0  0  0  0  0
   50.2012  153.9346   27.1698 H   0  0  0  0  0  0
   51.0600  153.2955   28.5295 H   0  0  0  0  0  0
   52.8560  154.8698   28.3414 H   0  0  0  0  0  0
   52.8439  156.6802   26.6054 H   0  0  0  0  0  0
   51.2560  156.2440   26.1040 H   0  0  0  0  0  0
   53.8488  154.9811   25.5434 H   0  0  0  0  0  0
   52.6176  155.3656   24.3946 H   0  0  0  0  0  0
   54.3521  152.9861   24.9758 H   0  0  0  0  0  0
   53.3798  153.1575   23.5305 H   0  0  0  0  0  0
   53.2560  149.0259   24.5089 H   0  0  0  0  0  0
   50.4866  155.5325   29.4779 H   0  0  0  0  0  0
   51.9941  157.9044   28.2700 H   0  0  0  0  0  0
   51.8310  159.9145   29.8112 H   0  0  0  0  0  0
   50.4146  161.2901   31.2738 H   0  0  0  0  0  0
   47.4010  158.1942   31.1981 H   0  0  0  0  0  0
   48.8004  156.8682   29.8197 H   0  0  0  0  0  0
   46.1106  160.7619   33.1426 H   0  0  0  0  0  0
   46.2993  159.5021   31.9484 H   0  0  0  0  0  0
  1  2  1  0  0  0
  1  6  1  0  0  0
  1  7  1  0  0  0
  2  3  1  0  0  0
  2 21  1  0  0  0
  2 22  1  0  0  0
  3  4  1  0  0  0
  3 23  1  0  0  0
  3 24  1  0  0  0
  4  5  1  0  0  0
  4 10  1  0  0  0
  4 25  1  0  0  0
  5  6  1  0  0  0
  5 26  1  0  0  0
  5 27  1  0  0  0
  6 28  1  0  0  0
  6 29  1  0  0  0
  7  8  1  0  0  0
  7 30  1  0  0  0
  7 31  1  0  0  0
  8  9  3  0  0  0
  9 32  1  0  0  0
 10 11  2  0  0  0
 10 33  1  0  0  0
 11 12  1  0  0  0
 11 34  1  0  0  0
 12 13  2  0  0  0
 12 17  1  0  0  0
 13 14  1  0  0  0
 13 35  1  0  0  0
 14 15  2  0  0  0
 14 36  1  0  0  0
 15 16  1  0  0  0
 15 18  1  0  0  0
 16 17  2  0  0  0
 16 37  1  0  0  0
 17 38  1  0  0  0
 18 19  1  0  0  0
 18 20  2  0  0  0
 19 39  1  0  0  0
 19 40  1  0  0  0
M  END
> <s_m_entry_id>
10161

> <s_m_entry_name>
dock_pv.197

> <s_m_Source_Path>
/home/csk/Desktop/cluster/DUD-E-result/aofb

> <s_m_Source_File>
dock_pv.maegz

> <i_m_Source_File_Index>
197

> <chembl_id>
CHEMBL4531803

> <chembl_pref_name>
None

> <i_lp_mmshare_version>
53161

> <i_f3d_flags>
0

> <r_lp_tautomer_probability>
1

> <s_lp_Force_Field>
OPLS_2005

> <r_lp_Energy>
19.997091

> <b_lp_Chiralities_Consistent>
1

> <s_lp_Variant>
CHEMBL2039_lig2400 -1

> <s_i_glide_gridfile>
glide-grid_1s3b

> <i_i_glide_lignum>
2792

> <i_i_glide_rotatable_bonds>
5

> <r_i_docking_score>
-7.67618362736217

> <r_i_glide_ligand_efficiency>
-0.383809181368108

> <r_i_glide_ligand_efficiency_sa>
-1.04181840227613

> <r_i_glide_ligand_efficiency_ln>
-1.92109558444831

> <r_i_glide_gscore>
-7.67618362736217

> <r_i_glide_lipo>
-4.24986770382464

> <r_i_glide_hbond>
0

> <r_i_glide_metal>
0

> <r_i_glide_rewards>
-2.72347075421832

> <r_i_glide_evdw>
-32.3060150146484

> <r_i_glide_ecoul>
-0.526373684406281

> <r_i_glide_erotb>
0.991411634074152

> <r_i_glide_esite>
0

> <r_i_glide_emodel>
-33.5344894094191

> <r_i_glide_energy>
-32.8323886990547

> <r_i_glide_einternal>
19.1154651641846

> <i_i_glide_confnum>
1

> <i_i_glide_posenum>
50

> <r_i_glide_eff_state_penalty>
0

> <s_user_duplicate_titles>
CHEMBL2039_lig2400 

> <s_m_subgroup_title>
dock_pv

> <s_m_subgroupid>
dock_pv

> <b_m_subgroup_collapsed>
1

$$$$
CHEMBL2039_lig534
                    3D
 Schrodinger Suite 2021-1.
 30 32  0  0  1  0            999 V2000
   53.2592  153.5370   24.4012 C   0  0  0  0  0  0
   52.7284  152.5849   25.2683 C   0  0  0  0  0  0
   52.0560  152.9906   26.4232 C   0  0  0  0  0  0
   53.1240  154.8903   24.7003 C   0  0  0  0  0  0
   52.4560  155.2928   25.8468 C   0  0  0  0  0  0
   51.9633  154.3538   26.7522 C   0  0  0  0  0  0
   51.5213  154.7813   28.1040 C   0  0  0  0  0  0
   51.5143  156.2396   28.3328 C   0  0  0  0  0  0
   52.4562  157.0440   27.4407 C   0  0  0  0  0  0
   52.4131  156.6439   26.0720 O   0  0  0  0  0  0
   51.2560  153.9404   28.9552 O   0  0  0  0  0  0
   50.6574  156.7435   29.2568 C   0  0  0  0  0  0
   50.4560  158.1479   29.7040 C   0  0  0  0  0  0
   49.2061  158.4801   30.2462 C   0  0  0  0  0  0
   48.9859  159.7215   30.8323 C   0  0  0  0  0  0
   50.0235  160.6440   30.8831 C   0  0  0  0  0  0
   51.2565  160.3550   30.3084 C   0  0  0  0  0  0
   51.4654  159.1178   29.7040 C   0  0  0  0  0  0
   52.9516  150.9060   24.9334 Cl  0  0  0  0  0  0
   53.8040  153.2269   23.5212 H   0  0  0  0  0  0
   51.6821  152.2350   27.1007 H   0  0  0  0  0  0
   53.5968  155.6473   24.1040 H   0  0  0  0  0  0
   52.1470  158.0814   27.4241 H   0  0  0  0  0  0
   53.4798  157.0217   27.8175 H   0  0  0  0  0  0
   50.0167  156.0352   29.7628 H   0  0  0  0  0  0
   48.4050  157.7550   30.2549 H   0  0  0  0  0  0
   48.0280  159.9533   31.2746 H   0  0  0  0  0  0
   49.8743  161.5851   31.3872 H   0  0  0  0  0  0
   52.0589  161.0760   30.3610 H   0  0  0  0  0  0
   52.4558  158.9026   29.3332 H   0  0  0  0  0  0
  1  2  2  0  0  0
  1  4  1  0  0  0
  1 20  1  0  0  0
  2  3  1  0  0  0
  2 19  1  0  0  0
  3  6  2  0  0  0
  3 21  1  0  0  0
  4  5  2  0  0  0
  4 22  1  0  0  0
  5  6  1  0  0  0
  5 10  1  0  0  0
  6  7  1  0  0  0
  7  8  1  0  0  0
  7 11  2  0  0  0
  8  9  1  0  0  0
  8 12  2  0  0  0
  9 10  1  0  0  0
  9 23  1  0  0  0
  9 24  1  0  0  0
 12 13  1  0  0  0
 12 25  1  0  0  0
 13 14  2  0  0  0
 13 18  1  0  0  0
 14 15  1  0  0  0
 14 26  1  0  0  0
 15 16  2  0  0  0
 15 27  1  0  0  0
 16 17  1  0  0  0
 16 28  1  0  0  0
 17 18  2  0  0  0
 17 29  1  0  0  0
 18 30  1  0  0  0
M  END
> <s_m_entry_id>
10162

> <s_m_entry_name>
dock_pv.198

> <s_m_Source_Path>
/home/csk/Desktop/cluster/DUD-E-result/aofb

> <s_m_Source_File>
dock_pv.maegz

> <i_m_Source_File_Index>
198

> <chembl_id>
CHEMBL1766553

> <chembl_pref_name>
None

> <i_lp_mmshare_version>
53161

> <i_f3d_flags>
0

> <r_lp_tautomer_probability>
1

> <s_lp_Force_Field>
OPLS_2005

> <r_lp_Energy>
18.610295

> <b_lp_Chiralities_Consistent>
1

> <s_lp_Variant>
CHEMBL2039_lig534-1

> <s_i_glide_gridfile>
glide-grid_1s3b

> <i_i_glide_lignum>
636

> <i_i_glide_rotatable_bonds>
1

> <r_i_docking_score>
-7.67458332011227

> <r_i_glide_ligand_efficiency>
-0.403925437900646

> <r_i_glide_ligand_efficiency_sa>
-1.07783530339694

> <r_i_glide_ligand_efficiency_ln>
-1.94567170658427

> <r_i_glide_gscore>
-7.67458332011227

> <r_i_glide_lipo>
-3.61078419263205

> <r_i_glide_hbond>
0

> <r_i_glide_metal>
0

> <r_i_glide_rewards>
-2.721680061063

> <r_i_glide_evdw>
-27.5362129211426

> <r_i_glide_ecoul>
0.231277197599411

> <r_i_glide_erotb>
0

> <r_i_glide_esite>
0

> <r_i_glide_emodel>
-34.7494285528174

> <r_i_glide_energy>
-27.3049357235432

> <r_i_glide_einternal>
0.280393421649933

> <i_i_glide_confnum>
1

> <i_i_glide_posenum>
51

> <r_i_glide_eff_state_penalty>
0

> <s_user_duplicate_titles>
CHEMBL2039_lig534

> <s_m_subgroup_title>
dock_pv

> <s_m_subgroupid>
dock_pv

> <b_m_subgroup_collapsed>
1

$$$$
CHEMBL2039_lig2173
                    3D
 Schrodinger Suite 2021-1.
 29 31  0  0  1  0            999 V2000
   47.5208  159.8786   31.7030 C   0  0  0  0  0  0
   48.3391  160.9367   32.1169 C   0  0  0  0  0  0
   49.6642  161.0234   31.6730 C   0  0  0  0  0  0
   48.0304  158.8685   30.8823 C   0  0  0  0  0  0
   49.3525  158.9765   30.4619 C   0  0  0  0  0  0
   50.1461  160.0415   30.8074 C   0  0  0  0  0  0
   51.4239  159.8440   30.1206 C   0  0  0  0  0  0
   51.2679  158.5310   29.4655 C   0  0  0  0  0  0
   50.0224  158.0639   29.7040 O   0  0  0  0  0  0
   52.4183  160.5708   30.1040 O   0  0  0  0  0  0
   52.1683  157.8492   28.7205 C   0  0  0  0  0  0
   51.9762  156.5274   28.0759 C   0  0  0  0  0  0
   51.2750  155.4723   28.6775 C   0  0  0  0  0  0
   51.1526  154.2483   28.0222 C   0  0  0  0  0  0
   51.6560  154.0968   26.7353 C   0  0  0  0  0  0
   52.2758  155.1609   26.0910 C   0  0  0  0  0  0
   52.4560  156.3584   26.7744 C   0  0  0  0  0  0
   46.2150  159.8440   32.1037 O   0  0  0  0  0  0
   51.5757  152.8862   26.1081 O   0  0  0  0  0  0
   47.9405  161.7002   32.7688 H   0  0  0  0  0  0
   50.2905  161.8436   31.9943 H   0  0  0  0  0  0
   47.4183  158.0325   30.5828 H   0  0  0  0  0  0
   53.1494  158.2797   28.5759 H   0  0  0  0  0  0
   50.8561  155.5791   29.6675 H   0  0  0  0  0  0
   50.6670  153.4164   28.5043 H   0  0  0  0  0  0
   52.6698  155.0481   25.0925 H   0  0  0  0  0  0
   52.9875  157.1549   26.2834 H   0  0  0  0  0  0
   45.6970  159.1593   31.6762 H   0  0  0  0  0  0
   52.0549  152.8765   25.2773 H   0  0  0  0  0  0
  1  4  2  0  0  0
  1  2  1  0  0  0
  1 18  1  0  0  0
  2  3  2  0  0  0
  2 20  1  0  0  0
  3  6  1  0  0  0
  3 21  1  0  0  0
  4  5  1  0  0  0
  4 22  1  0  0  0
  5  9  1  0  0  0
  5  6  2  0  0  0
  6  7  1  0  0  0
  7 10  2  0  0  0
  7  8  1  0  0  0
  8 11  2  0  0  0
  8  9  1  0  0  0
 11 12  1  0  0  0
 11 23  1  0  0  0
 12 13  2  0  0  0
 12 17  1  0  0  0
 13 14  1  0  0  0
 13 24  1  0  0  0
 14 15  2  0  0  0
 14 25  1  0  0  0
 15 16  1  0  0  0
 15 19  1  0  0  0
 16 17  2  0  0  0
 16 26  1  0  0  0
 17 27  1  0  0  0
 18 28  1  0  0  0
 19 29  1  0  0  0
M  END
> <s_m_entry_id>
10163

> <s_m_entry_name>
dock_pv.199

> <s_m_Source_Path>
/home/csk/Desktop/cluster/DUD-E-result/aofb

> <s_m_Source_File>
dock_pv.maegz

> <i_m_Source_File_Index>
199

> <chembl_id>
CHEMBL426110

> <chembl_pref_name>
None

> <i_lp_mmshare_version>
53161

> <i_f3d_flags>
0

> <r_lp_tautomer_probability>
1

> <s_lp_Force_Field>
OPLS_2005

> <r_lp_Energy>
27.617535

> <b_lp_Chiralities_Consistent>
1

> <s_lp_Variant>
CHEMBL2039_lig2173-1

> <s_i_glide_gridfile>
glide-grid_1s3b

> <i_i_glide_lignum>
2532

> <i_i_glide_rotatable_bonds>
3

> <r_i_docking_score>
-7.67265136027277

> <r_i_glide_ligand_efficiency>
-0.40382375580383

> <r_i_glide_ligand_efficiency_sa>
-1.07756397472242

> <r_i_glide_ligand_efficiency_ln>
-1.94518191327026

> <r_i_glide_gscore>
-7.67265136027277

> <r_i_glide_lipo>
-3.52242617541821

> <r_i_glide_hbond>
-0.141278597833152

> <r_i_glide_metal>
0

> <r_i_glide_rewards>
-2.28766121803721

> <r_i_glide_evdw>
-32.2457504272461

> <r_i_glide_ecoul>
-2.54024887084961

> <r_i_glide_erotb>
0.272039483005549

> <r_i_glide_esite>
0

> <r_i_glide_emodel>
-47.2604382913359

> <r_i_glide_energy>
-34.7859992980957

> <r_i_glide_einternal>
1.67196929454803

> <i_i_glide_confnum>
2

> <i_i_glide_posenum>
285

> <r_i_glide_eff_state_penalty>
0

> <s_user_duplicate_titles>
CHEMBL2039_lig2173

> <s_m_subgroup_title>
dock_pv

> <s_m_subgroupid>
dock_pv

> <b_m_subgroup_collapsed>
1

$$$$
CHEMBL2039_lig2786 
                    3D
 Schrodinger Suite 2021-1.
 27 28  0  0  1  0            999 V2000
   51.9001  156.3644   28.0505 C   0  0  0  0  0  0
   52.4559  156.2439   26.7750 C   0  0  0  0  0  0
   52.4030  155.0315   26.0968 C   0  0  0  0  0  0
   51.8519  153.9023   26.7194 C   0  0  0  0  0  0
   51.2635  154.0338   27.9816 C   0  0  0  0  0  0
   51.2629  155.2614   28.6300 C   0  0  0  0  0  0
   51.9041  157.6921   28.6959 C   0  0  0  0  0  0
   50.9005  158.1434   29.4763 C   0  0  0  0  0  0
   50.8620  159.4684   30.1040 C   0  0  0  0  0  0
   49.6386  159.8491   30.8140 C   0  0  0  0  0  0
   51.8289  160.2335   30.0935 O   0  0  0  0  0  0
   49.4942  160.8534   31.7714 C   0  0  0  0  0  0
   48.1918  160.9634   32.2697 C   0  0  0  0  0  0
   47.3220  160.0615   31.6795 C   0  0  0  0  0  0
   48.1022  159.0720   30.5042 S   0  0  0  0  0  0
   45.6560  159.8439   31.9748 Cl  0  0  0  0  0  0
   51.9854  152.5682   26.1024 N   0  3  0  0  0  0
   51.2561  151.6674   26.5041 O   0  0  0  0  0  0
   52.8277  152.4095   25.2225 O   0  5  0  0  0  0
   52.9320  157.0846   26.2994 H   0  0  0  0  0  0
   52.8672  154.9521   25.1238 H   0  0  0  0  0  0
   50.8537  153.1736   28.4916 H   0  0  0  0  0  0
   50.8128  155.3307   29.6088 H   0  0  0  0  0  0
   52.7757  158.3075   28.5150 H   0  0  0  0  0  0
   50.0612  157.4941   29.6607 H   0  0  0  0  0  0
   50.3122  161.4748   32.1108 H   0  0  0  0  0  0
   47.8961  161.6746   33.0265 H   0  0  0  0  0  0
  1  2  2  0  0  0
  1  6  1  0  0  0
  1  7  1  0  0  0
  2  3  1  0  0  0
  2 20  1  0  0  0
  3  4  2  0  0  0
  3 21  1  0  0  0
  4  5  1  0  0  0
  4 17  1  0  0  0
  5  6  2  0  0  0
  5 22  1  0  0  0
  6 23  1  0  0  0
  7  8  2  0  0  0
  7 24  1  0  0  0
  8  9  1  0  0  0
  8 25  1  0  0  0
  9 10  1  0  0  0
  9 11  2  0  0  0
 10 12  2  0  0  0
 10 15  1  0  0  0
 12 13  1  0  0  0
 12 26  1  0  0  0
 13 14  2  0  0  0
 13 27  1  0  0  0
 14 15  1  0  0  0
 14 16  1  0  0  0
 17 18  2  0  0  0
 17 19  1  0  0  0
M  CHG  2  17   1  19  -1
M  END
> <s_m_entry_id>
10164

> <s_m_entry_name>
dock_pv.200

> <s_m_Source_Path>
/home/csk/Desktop/cluster/DUD-E-result/aofb

> <s_m_Source_File>
dock_pv.maegz

> <i_m_Source_File_Index>
200

> <chembl_id>
CHEMBL4574981

> <chembl_pref_name>
None

> <i_lp_mmshare_version>
53161

> <i_f3d_flags>
0

> <r_lp_tautomer_probability>
1

> <s_lp_Force_Field>
OPLS_2005

> <r_lp_Energy>
8.716067

> <b_lp_Chiralities_Consistent>
1

> <s_lp_Variant>
CHEMBL2039_lig2786 -1

> <s_i_glide_gridfile>
glide-grid_1s3b

> <i_i_glide_lignum>
3253

> <i_i_glide_rotatable_bonds>
4

> <r_i_docking_score>
-7.67055722713871

> <r_i_glide_ligand_efficiency>
-0.403713538270458

> <r_i_glide_ligand_efficiency_sa>
-1.07726987007494

> <r_i_glide_ligand_efficiency_ln>
-1.94465100554292

> <r_i_glide_gscore>
-7.67055722713871

> <r_i_glide_lipo>
-3.50404308002932

> <r_i_glide_hbond>
0

> <r_i_glide_metal>
0

> <r_i_glide_rewards>
-2.787331952643

> <r_i_glide_evdw>
-36.2092056274414

> <r_i_glide_ecoul>
0.0505169220268726

> <r_i_glide_erotb>
0.423700548601656

> <r_i_glide_esite>
0

> <r_i_glide_emodel>
-48.7493743838719

> <r_i_glide_energy>
-36.1586887054145

> <r_i_glide_einternal>
4.74123525619507

> <i_i_glide_confnum>
1

> <i_i_glide_posenum>
358

> <r_i_glide_eff_state_penalty>
0

> <s_user_duplicate_titles>
CHEMBL2039_lig2786 

> <s_m_subgroup_title>
dock_pv

> <s_m_subgroupid>
dock_pv

> <b_m_subgroup_collapsed>
1

$$$$
CHEMBL2039_lig2533 
                    3D
 Schrodinger Suite 2021-1.
 30 32  0  0  1  0            999 V2000
   51.6560  159.3355   29.7173 C   0  0  0  0  0  0
   50.8326  158.2147   29.5672 C   0  0  0  0  0  0
   49.5414  158.2440   30.1182 C   0  0  0  0  0  0
   51.2794  160.4063   30.5317 C   0  0  0  0  0  0
   50.0381  160.3641   31.1601 C   0  0  0  0  0  0
   49.1621  159.3233   30.9159 C   0  0  0  0  0  0
   47.9384  159.6051   31.6583 C   0  0  0  0  0  0
   48.2696  160.8869   32.4843 C   0  0  0  0  0  0
   49.5104  161.2307   32.1040 N   0  0  0  0  0  0
   47.5436  161.4439   33.3043 O   0  0  0  0  0  0
   51.3803  157.1355   28.9040 O   0  0  0  0  0  0
   50.7755  155.8303   28.8995 C   0  0  0  0  0  0
   46.8618  159.0124   31.7040 O   0  0  0  0  0  0
   51.3952  155.0234   27.7591 C   0  0  0  0  0  0
   52.0560  155.6758   26.7102 C   0  0  0  0  0  0
   52.5736  154.9610   25.6359 C   0  0  0  0  0  0
   52.3938  153.5744   25.5660 C   0  0  0  0  0  0
   51.7244  152.9180   26.6001 C   0  0  0  0  0  0
   51.2560  153.6341   27.7031 C   0  0  0  0  0  0
   53.5581  155.8105   24.5040 Cl  0  0  0  0  0  0
   53.0428  152.6465   24.2586 Cl  0  0  0  0  0  0
   52.6516  159.3141   29.3040 H   0  0  0  0  0  0
   48.8754  157.4004   30.0306 H   0  0  0  0  0  0
   51.9730  161.2145   30.7118 H   0  0  0  0  0  0
   50.0237  161.9947   32.5205 H   0  0  0  0  0  0
   49.7077  155.8440   28.6922 H   0  0  0  0  0  0
   50.8560  155.3161   29.8555 H   0  0  0  0  0  0
   52.2021  156.7461   26.7302 H   0  0  0  0  0  0
   51.5975  151.8456   26.5645 H   0  0  0  0  0  0
   50.7702  153.1019   28.5041 H   0  0  0  0  0  0
  1  2  2  0  0  0
  1  4  1  0  0  0
  1 22  1  0  0  0
  2  3  1  0  0  0
  2 11  1  0  0  0
  3  6  2  0  0  0
  3 23  1  0  0  0
  4  5  2  0  0  0
  4 24  1  0  0  0
  5  6  1  0  0  0
  5  9  1  0  0  0
  6  7  1  0  0  0
  7  8  1  0  0  0
  7 13  2  0  0  0
  8  9  1  0  0  0
  8 10  2  0  0  0
  9 25  1  0  0  0
 11 12  1  0  0  0
 12 14  1  0  0  0
 12 26  1  0  0  0
 12 27  1  0  0  0
 14 15  2  0  0  0
 14 19  1  0  0  0
 15 16  1  0  0  0
 15 28  1  0  0  0
 16 17  2  0  0  0
 16 20  1  0  0  0
 17 18  1  0  0  0
 17 21  1  0  0  0
 18 19  2  0  0  0
 18 29  1  0  0  0
 19 30  1  0  0  0
M  END
> <s_m_entry_id>
10165

> <s_m_entry_name>
dock_pv.201

> <s_m_Source_Path>
/home/csk/Desktop/cluster/DUD-E-result/aofb

> <s_m_Source_File>
dock_pv.maegz

> <i_m_Source_File_Index>
201

> <chembl_id>
CHEMBL4460336

> <chembl_pref_name>
None

> <i_lp_mmshare_version>
53161

> <i_f3d_flags>
0

> <r_lp_tautomer_probability>
1

> <s_lp_Force_Field>
OPLS_2005

> <r_lp_Energy>
37.413714

> <b_lp_Chiralities_Consistent>
1

> <s_lp_Variant>
CHEMBL2039_lig2533 -1

> <s_i_glide_gridfile>
glide-grid_1s3b

> <i_i_glide_lignum>
2938

> <i_i_glide_rotatable_bonds>
3

> <r_i_docking_score>
-7.66794109814286

> <r_i_glide_ligand_efficiency>
-0.365140052292517

> <r_i_glide_ligand_efficiency_sa>
-1.00739371701255

> <r_i_glide_ligand_efficiency_ln>
-1.89588294198189

> <r_i_glide_gscore>
-7.66794109814286

> <r_i_glide_lipo>
-3.56478754732185

> <r_i_glide_hbond>
-0.0452850895906974

> <r_i_glide_metal>
0

> <r_i_glide_rewards>
-2.46692390425809

> <r_i_glide_evdw>
-34.8307952880859

> <r_i_glide_ecoul>
-2.59924173355103

> <r_i_glide_erotb>
0.540481467464721

> <r_i_glide_esite>
0

> <r_i_glide_emodel>
-47.7701827975367

> <r_i_glide_energy>
-37.430037021637

> <r_i_glide_einternal>
4.59323930740356

> <i_i_glide_confnum>
25

> <i_i_glide_posenum>
290

> <r_i_glide_eff_state_penalty>
0

> <s_user_duplicate_titles>
CHEMBL2039_lig2533 

> <s_m_subgroup_title>
dock_pv

> <s_m_subgroupid>
dock_pv

> <b_m_subgroup_collapsed>
1

$$$$
CHEMBL2039_lig1506
                    3D
 Schrodinger Suite 2021-1.
 40 43  0  0  1  0            999 V2000
   52.0203  157.8424   28.6109 C   0  0  0  0  0  0
   51.0864  158.1644   29.6896 N   0  0  2  0  0  0
   51.4313  159.4655   30.2463 C   0  0  1  0  0  0
   50.8114  160.7190   29.7183 C   0  0  0  0  0  0
   50.3928  160.2255   31.0723 C   0  0  1  0  0  0
   48.9167  159.8992   31.2468 C   0  0  0  0  0  0
   48.1979  159.2048   30.2666 C   0  0  0  0  0  0
   46.8307  159.0234   30.4024 C   0  0  0  0  0  0
   46.1788  159.5506   31.5070 C   0  0  0  0  0  0
   46.8829  160.2433   32.4833 C   0  0  0  0  0  0
   48.2563  160.4069   32.3658 C   0  0  0  0  0  0
   51.9031  156.4388   28.0111 C   0  0  0  0  0  0
   51.2859  155.3600   28.6655 C   0  0  0  0  0  0
   51.2557  154.0961   28.0722 C   0  0  0  0  0  0
   51.7722  153.9172   26.7932 C   0  0  0  0  0  0
   51.7476  152.6459   26.2561 O   0  0  0  0  0  0
   52.7432  152.4413   25.2457 C   0  0  0  0  0  0
   52.7036  153.6182   24.2426 C   0  0  0  0  0  0
   52.9753  154.8611   24.8909 O   0  0  0  0  0  0
   52.3338  155.0048   26.1039 C   0  0  0  0  0  0
   52.4244  156.2442   26.7257 C   0  0  0  0  0  0
   53.0601  157.9900   28.9038 H   0  0  0  0  0  0
   51.8087  158.5482   27.8116 H   0  0  0  0  0  0
   51.1273  157.4723   30.4215 H   0  0  0  0  0  0
   52.4551  159.5451   30.6064 H   0  0  0  0  0  0
   51.4022  161.6337   29.7041 H   0  0  0  0  0  0
   50.0879  160.6455   28.9045 H   0  0  0  0  0  0
   50.8146  160.7644   31.9235 H   0  0  0  0  0  0
   48.6797  158.8345   29.3772 H   0  0  0  0  0  0
   46.2725  158.5080   29.6369 H   0  0  0  0  0  0
   45.1121  159.4447   31.5996 H   0  0  0  0  0  0
   46.3534  160.6880   33.3042 H   0  0  0  0  0  0
   48.7938  160.9673   33.1170 H   0  0  0  0  0  0
   50.8558  155.4773   29.6487 H   0  0  0  0  0  0
   50.8561  153.2506   28.6087 H   0  0  0  0  0  0
   52.5744  151.4884   24.7449 H   0  0  0  0  0  0
   53.7320  152.4000   25.7060 H   0  0  0  0  0  0
   51.6937  153.6906   23.8514 H   0  0  0  0  0  0
   53.3932  153.4608   23.4127 H   0  0  0  0  0  0
   52.9213  157.0450   26.2045 H   0  0  0  0  0  0
  1  2  1  0  0  0
  1 12  1  0  0  0
  1 22  1  0  0  0
  1 23  1  0  0  0
  2  3  1  0  0  0
  2 24  1  0  0  0
  3  4  1  0  0  0
  3  5  1  0  0  0
  3 25  1  0  0  0
  4  5  1  0  0  0
  4 26  1  0  0  0
  4 27  1  0  0  0
  5  6  1  0  0  0
  5 28  1  0  0  0
  6  7  2  0  0  0
  6 11  1  0  0  0
  7  8  1  0  0  0
  7 29  1  0  0  0
  8  9  2  0  0  0
  8 30  1  0  0  0
  9 10  1  0  0  0
  9 31  1  0  0  0
 10 11  2  0  0  0
 10 32  1  0  0  0
 11 33  1  0  0  0
 12 13  2  0  0  0
 12 21  1  0  0  0
 13 14  1  0  0  0
 13 34  1  0  0  0
 14 15  2  0  0  0
 14 35  1  0  0  0
 15 16  1  0  0  0
 15 20  1  0  0  0
 16 17  1  0  0  0
 17 18  1  0  0  0
 17 36  1  0  0  0
 17 37  1  0  0  0
 18 19  1  0  0  0
 18 38  1  0  0  0
 18 39  1  0  0  0
 19 20  1  0  0  0
 20 21  2  0  0  0
 21 40  1  0  0  0
M  END
> <s_m_entry_id>
10166

> <s_m_entry_name>
dock_pv.202

> <s_m_Source_Path>
/home/csk/Desktop/cluster/DUD-E-result/aofb

> <s_m_Source_File>
dock_pv.maegz

> <i_m_Source_File_Index>
202

> <chembl_id>
CHEMBL3651125

> <chembl_pref_name>
None

> <i_lp_mmshare_version>
53161

> <i_f3d_flags>
0

> <r_lp_tautomer_probability>
1

> <s_lp_Force_Field>
OPLS_2005

> <r_lp_Energy>
28.79009

> <b_lp_Chiralities_Consistent>
1

> <s_lp_Variant>
CHEMBL2039_lig1506-1

> <s_i_glide_gridfile>
glide-grid_1s3b

> <i_i_glide_lignum>
1735

> <i_i_glide_rotatable_bonds>
4

> <r_i_docking_score>
-7.66762319315548

> <r_i_glide_ligand_efficiency>
-0.365124913959785

> <r_i_glide_ligand_efficiency_sa>
-1.00735195150042

> <r_i_glide_ligand_efficiency_ln>
-1.89580434061615

> <r_i_glide_gscore>
-7.66762319315548

> <r_i_glide_lipo>
-4.51746122978058

> <r_i_glide_hbond>
0

> <r_i_glide_metal>
0

> <r_i_glide_rewards>
-2.36777907399424

> <r_i_glide_evdw>
-30.537769317627

> <r_i_glide_ecoul>
-1.12592339515686

> <r_i_glide_erotb>
0.913394085774219

> <r_i_glide_esite>
0

> <r_i_glide_emodel>
-35.0854578219752

> <r_i_glide_energy>
-31.6636927127838

> <r_i_glide_einternal>
7.12713289260864

> <i_i_glide_confnum>
10

> <i_i_glide_posenum>
208

> <r_i_glide_eff_state_penalty>
0

> <s_user_duplicate_titles>
CHEMBL2039_lig1506

> <s_m_subgroup_title>
dock_pv

> <s_m_subgroupid>
dock_pv

> <b_m_subgroup_collapsed>
1

$$$$
CHEMBL2039_lig1615
                    3D
 Schrodinger Suite 2021-1.
 33 35  0  0  1  0            999 V2000
   47.4998  158.5989   31.2606 O   0  0  0  0  0  0
   46.9573  159.7202   31.9538 C   0  0  0  0  0  0
   48.0972  160.6977   32.1827 C   0  0  0  0  0  0
   49.1820  160.1732   31.3631 C   0  0  0  0  0  0
   48.7658  158.9539   30.8796 C   0  0  0  0  0  0
   50.4564  160.6453   31.0572 C   0  0  0  0  0  0
   51.2656  159.9036   30.1911 C   0  0  0  0  0  0
   50.8595  158.6555   29.7040 C   0  0  0  0  0  0
   49.6033  158.1623   30.1040 C   0  0  0  0  0  0
   48.0776  161.7029   32.8842 O   0  0  0  0  0  0
   51.7673  158.0034   28.8870 O   0  0  0  0  0  0
   51.5928  156.6429   28.4872 C   0  0  0  0  0  0
   52.1394  156.4270   27.0597 C   0  0  0  0  0  0
   52.0559  154.9982   26.5319 C   0  0  0  0  0  0
   52.6662  154.7174   25.3039 C   0  0  0  0  0  0
   52.8344  153.3967   24.8976 C   0  0  0  0  0  0
   52.3573  152.3661   25.7038 C   0  0  0  0  0  0
   51.6559  152.6440   26.8714 C   0  0  0  0  0  0
   51.5129  153.9558   27.2945 C   0  0  0  0  0  0
   46.1854  160.1924   31.3458 H   0  0  0  0  0  0
   46.5112  159.4470   32.9050 H   0  0  0  0  0  0
   50.8208  161.5780   31.4633 H   0  0  0  0  0  0
   52.2463  160.2737   29.9330 H   0  0  0  0  0  0
   49.2489  157.1918   29.8056 H   0  0  0  0  0  0
   50.5592  156.3074   28.5051 H   0  0  0  0  0  0
   52.1579  156.0039   29.1621 H   0  0  0  0  0  0
   53.1897  156.7231   27.0570 H   0  0  0  0  0  0
   51.6568  157.0666   26.3275 H   0  0  0  0  0  0
   53.0868  155.5138   24.7080 H   0  0  0  0  0  0
   53.3529  153.1711   23.9763 H   0  0  0  0  0  0
   52.4934  151.3396   25.3953 H   0  0  0  0  0  0
   51.2562  151.8391   27.4710 H   0  0  0  0  0  0
   51.0264  154.1285   28.2419 H   0  0  0  0  0  0
  1  2  1  0  0  0
  1  5  1  0  0  0
  2  3  1  0  0  0
  2 20  1  0  0  0
  2 21  1  0  0  0
  3  4  1  0  0  0
  3 10  2  0  0  0
  4  5  1  0  0  0
  4  6  2  0  0  0
  5  9  2  0  0  0
  6  7  1  0  0  0
  6 22  1  0  0  0
  7  8  2  0  0  0
  7 23  1  0  0  0
  8  9  1  0  0  0
  8 11  1  0  0  0
  9 24  1  0  0  0
 11 12  1  0  0  0
 12 13  1  0  0  0
 12 25  1  0  0  0
 12 26  1  0  0  0
 13 14  1  0  0  0
 13 27  1  0  0  0
 13 28  1  0  0  0
 14 15  1  0  0  0
 14 19  2  0  0  0
 15 16  2  0  0  0
 15 29  1  0  0  0
 16 17  1  0  0  0
 16 30  1  0  0  0
 17 18  2  0  0  0
 17 31  1  0  0  0
 18 19  1  0  0  0
 18 32  1  0  0  0
 19 33  1  0  0  0
M  END
> <s_m_entry_id>
10167

> <s_m_entry_name>
dock_pv.203

> <s_m_Source_Path>
/home/csk/Desktop/cluster/DUD-E-result/aofb

> <s_m_Source_File>
dock_pv.maegz

> <i_m_Source_File_Index>
203

> <chembl_id>
CHEMBL3741782

> <chembl_pref_name>
None

> <i_lp_mmshare_version>
53161

> <i_f3d_flags>
0

> <r_lp_tautomer_probability>
0.99995

> <s_lp_Force_Field>
OPLS_2005

> <r_lp_Energy>
32.022666

> <b_lp_Chiralities_Consistent>
1

> <s_lp_Variant>
CHEMBL2039_lig1615-1

> <s_i_glide_gridfile>
glide-grid_1s3b

> <i_i_glide_lignum>
1876

> <i_i_glide_rotatable_bonds>
4

> <r_i_docking_score>
-7.66663925165478

> <r_i_glide_ligand_efficiency>
-0.403507329034462

> <r_i_glide_ligand_efficiency_sa>
-1.07671962101017

> <r_i_glide_ligand_efficiency_ln>
-1.94365771460735

> <r_i_glide_gscore>
-7.66663925165478

> <r_i_glide_lipo>
-3.68164826956721

> <r_i_glide_hbond>
0

> <r_i_glide_metal>
0

> <r_i_glide_rewards>
-2.99028227236468

> <r_i_glide_evdw>
-31.4680156707764

> <r_i_glide_ecoul>
0.231809064745903

> <r_i_glide_erotb>
0.543920714104031

> <r_i_glide_esite>
0

> <r_i_glide_emodel>
-40.3271367554559

> <r_i_glide_energy>
-31.2362066060305

> <r_i_glide_einternal>
3.34981203079224

> <i_i_glide_confnum>
3

> <i_i_glide_posenum>
125

> <r_i_glide_eff_state_penalty>
0

> <s_user_duplicate_titles>
CHEMBL2039_lig1615

> <s_m_subgroup_title>
dock_pv

> <s_m_subgroupid>
dock_pv

> <b_m_subgroup_collapsed>
1

$$$$
CHEMBL2039_lig2643 
                    3D
 Schrodinger Suite 2021-1.
 32 34  0  0  1  0            999 V2000
   52.3109  156.6034   26.3503 O   0  0  0  0  0  0
   52.0560  155.4329   26.6373 C   0  0  0  0  0  0
   52.4423  154.3274   25.7106 C   0  0  0  0  0  0
   53.0962  154.5810   24.5040 C   0  0  0  0  0  0
   53.4853  153.5242   23.6866 C   0  0  0  0  0  0
   53.2560  152.2092   24.0776 C   0  0  0  0  0  0
   52.6694  151.9388   25.3040 C   0  0  0  0  0  0
   52.2427  152.9946   26.0956 C   0  0  0  0  0  0
   51.6560  152.6490   27.2824 O   0  0  0  0  0  0
   51.2864  153.6475   28.1063 C   0  0  0  0  0  0
   51.4123  154.9788   27.8924 C   0  0  0  0  0  0
   50.8560  155.8605   28.9040 C   0  0  0  0  0  0
   51.2822  157.1464   28.9040 N   0  0  0  0  0  0
   50.7968  158.2640   29.6160 C   0  0  0  0  0  0
   49.5137  158.3565   30.1806 C   0  0  0  0  0  0
   49.1402  159.4904   30.9052 C   0  0  0  0  0  0
   50.0478  160.5341   31.0873 C   0  0  0  0  0  0
   51.3112  160.4593   30.5040 C   0  0  0  0  0  0
   51.6560  159.3560   29.7264 C   0  0  0  0  0  0
   50.0142  155.4440   29.7005 O   0  0  0  0  0  0
   52.2349  161.4445   30.7180 O   0  0  0  0  0  0
   53.3199  155.5941   24.2021 H   0  0  0  0  0  0
   53.9864  153.7181   22.7510 H   0  0  0  0  0  0
   53.5603  151.3997   23.4336 H   0  0  0  0  0  0
   52.5090  150.9212   25.6280 H   0  0  0  0  0  0
   50.8560  153.2158   28.9984 H   0  0  0  0  0  0
   52.0447  157.3453   28.2700 H   0  0  0  0  0  0
   48.8052  157.5462   30.1040 H   0  0  0  0  0  0
   48.1595  159.5437   31.3546 H   0  0  0  0  0  0
   49.7709  161.3898   31.6856 H   0  0  0  0  0  0
   52.6478  159.3039   29.3040 H   0  0  0  0  0  0
   52.0266  161.9862   31.4853 H   0  0  0  0  0  0
  1  2  2  0  0  0
  2  3  1  0  0  0
  2 11  1  0  0  0
  3  4  2  0  0  0
  3  8  1  0  0  0
  4  5  1  0  0  0
  4 22  1  0  0  0
  5  6  2  0  0  0
  5 23  1  0  0  0
  6  7  1  0  0  0
  6 24  1  0  0  0
  7  8  2  0  0  0
  7 25  1  0  0  0
  8  9  1  0  0  0
  9 10  1  0  0  0
 10 11  2  0  0  0
 10 26  1  0  0  0
 11 12  1  0  0  0
 12 13  1  0  0  0
 12 20  2  0  0  0
 13 14  1  0  0  0
 13 27  1  0  0  0
 14 15  2  0  0  0
 14 19  1  0  0  0
 15 16  1  0  0  0
 15 28  1  0  0  0
 16 17  2  0  0  0
 16 29  1  0  0  0
 17 18  1  0  0  0
 17 30  1  0  0  0
 18 19  2  0  0  0
 18 21  1  0  0  0
 19 31  1  0  0  0
 21 32  1  0  0  0
M  END
> <s_m_entry_id>
10168

> <s_m_entry_name>
dock_pv.204

> <s_m_Source_Path>
/home/csk/Desktop/cluster/DUD-E-result/aofb

> <s_m_Source_File>
dock_pv.maegz

> <i_m_Source_File_Index>
204

> <chembl_id>
CHEMBL4573588

> <chembl_pref_name>
None

> <i_lp_mmshare_version>
53161

> <i_f3d_flags>
0

> <r_lp_tautomer_probability>
0.999999999997365

> <s_lp_Force_Field>
OPLS_2005

> <r_lp_Energy>
24.805335

> <b_lp_Chiralities_Consistent>
1

> <s_lp_Variant>
CHEMBL2039_lig2643 -1

> <s_i_glide_gridfile>
glide-grid_1s3b

> <i_i_glide_lignum>
3062

> <i_i_glide_rotatable_bonds>
4

> <r_i_docking_score>
-7.66436645484949

> <r_i_glide_ligand_efficiency>
-0.364969831183309

> <r_i_glide_ligand_efficiency_sa>
-1.0069240898795

> <r_i_glide_ligand_efficiency_ln>
-1.89499911865085

> <r_i_glide_gscore>
-7.66436645484949

> <r_i_glide_lipo>
-3.59339753370966

> <r_i_glide_hbond>
-0.04604002817571

> <r_i_glide_metal>
0

> <r_i_glide_rewards>
-2.77934114930443

> <r_i_glide_evdw>
-24.4908008575439

> <r_i_glide_ecoul>
-4.70971870422363

> <r_i_glide_erotb>
0.685410104851049

> <r_i_glide_esite>
0

> <r_i_glide_emodel>
-33.8377391348904

> <r_i_glide_energy>
-29.2005195617676

> <r_i_glide_einternal>
5.83733463287354

> <i_i_glide_confnum>
1

> <i_i_glide_posenum>
56

> <r_i_glide_eff_state_penalty>
0

> <s_user_duplicate_titles>
CHEMBL2039_lig2643 

> <s_m_subgroup_title>
dock_pv

> <s_m_subgroupid>
dock_pv

> <b_m_subgroup_collapsed>
1

$$$$
CHEMBL2039_lig2294
                    3D
 Schrodinger Suite 2021-1.
 31 33  0  0  1  0            999 V2000
   47.9369  160.7256   32.2289 C   0  0  0  0  0  0
   47.3180  159.5871   31.7039 C   0  0  0  0  0  0
   48.0221  158.7400   30.8441 C   0  0  0  0  0  0
   49.2510  161.0440   31.8776 C   0  0  0  0  0  0
   49.9324  160.2124   30.9860 C   0  0  0  0  0  0
   49.3343  159.0483   30.4928 C   0  0  0  0  0  0
   50.0560  158.1330   29.7040 N   0  0  0  0  0  0
   51.2560  158.3877   29.3383 C   0  0  0  0  0  0
   51.8219  159.5665   29.7040 N   0  0  0  0  0  0
   51.3426  160.5094   30.5399 C   0  0  0  0  0  0
   52.2959  157.1829   28.5040 S   0  0  0  0  0  0
   52.0474  161.4551   30.8695 O   0  0  0  0  0  0
   51.2931  155.6532   28.4090 C   0  0  0  0  0  0
   51.6560  154.8205   27.1783 C   0  0  0  0  0  0
   52.1527  155.4239   26.0133 C   0  0  0  0  0  0
   52.5817  154.6509   24.9429 C   0  0  0  0  0  0
   52.4561  153.2682   24.9826 C   0  0  0  0  0  0
   51.9007  152.6585   26.1043 C   0  0  0  0  0  0
   51.5134  153.4276   27.2059 C   0  0  0  0  0  0
   51.6560  150.7735   26.1040 Br  0  0  0  0  0  0
   47.3939  161.3661   32.9089 H   0  0  0  0  0  0
   46.2984  159.3555   31.9770 H   0  0  0  0  0  0
   47.5627  157.8440   30.4582 H   0  0  0  0  0  0
   49.7290  161.9222   32.2915 H   0  0  0  0  0  0
   52.8043  159.6610   29.5080 H   0  0  0  0  0  0
   50.2223  155.8440   28.4172 H   0  0  0  0  0  0
   51.5039  155.0665   29.3040 H   0  0  0  0  0  0
   52.2607  156.4951   25.9346 H   0  0  0  0  0  0
   53.0379  155.1361   24.1040 H   0  0  0  0  0  0
   52.7803  152.6706   24.1428 H   0  0  0  0  0  0
   51.1099  152.9380   28.0808 H   0  0  0  0  0  0
  1  2  2  0  0  0
  1  4  1  0  0  0
  1 21  1  0  0  0
  2  3  1  0  0  0
  2 22  1  0  0  0
  3  6  2  0  0  0
  3 23  1  0  0  0
  4  5  2  0  0  0
  4 24  1  0  0  0
  5  6  1  0  0  0
  5 10  1  0  0  0
  6  7  1  0  0  0
  7  8  2  0  0  0
  8  9  1  0  0  0
  8 11  1  0  0  0
  9 10  1  0  0  0
  9 25  1  0  0  0
 10 12  2  0  0  0
 11 13  1  0  0  0
 13 14  1  0  0  0
 13 26  1  0  0  0
 13 27  1  0  0  0
 14 15  2  0  0  0
 14 19  1  0  0  0
 15 16  1  0  0  0
 15 28  1  0  0  0
 16 17  2  0  0  0
 16 29  1  0  0  0
 17 18  1  0  0  0
 17 30  1  0  0  0
 18 19  2  0  0  0
 18 20  1  0  0  0
 19 31  1  0  0  0
M  END
> <s_m_entry_id>
10169

> <s_m_entry_name>
dock_pv.205

> <s_m_Source_Path>
/home/csk/Desktop/cluster/DUD-E-result/aofb

> <s_m_Source_File>
dock_pv.maegz

> <i_m_Source_File_Index>
205

> <chembl_id>
CHEMBL4291246

> <chembl_pref_name>
None

> <i_lp_mmshare_version>
53161

> <i_f3d_flags>
0

> <r_lp_tautomer_probability>
0.883938

> <s_lp_Force_Field>
OPLS_2005

> <r_lp_Energy>
16.400816

> <b_lp_Chiralities_Consistent>
1

> <s_lp_Variant>
CHEMBL2039_lig2294-1

> <s_i_glide_gridfile>
glide-grid_1s3b

> <i_i_glide_lignum>
2661

> <i_i_glide_rotatable_bonds>
3

> <r_i_docking_score>
-7.65761053848763

> <r_i_glide_ligand_efficiency>
-0.382880526924382

> <r_i_glide_ligand_efficiency_sa>
-1.03929764629686

> <r_i_glide_ligand_efficiency_ln>
-1.91644735288448

> <r_i_glide_gscore>
-7.65761053848763

> <r_i_glide_lipo>
-4.03489798617134

> <r_i_glide_hbond>
-0.0854253426623021

> <r_i_glide_metal>
0

> <r_i_glide_rewards>
-2.18880133431529

> <r_i_glide_evdw>
-34.8982124328613

> <r_i_glide_ecoul>
-0.403491199016571

> <r_i_glide_erotb>
0.473301355926401

> <r_i_glide_esite>
-0.0163529297695443

> <r_i_glide_emodel>
-45.6598197500326

> <r_i_glide_energy>
-35.3017036318779

> <r_i_glide_einternal>
4.32870244979858

> <i_i_glide_confnum>
7

> <i_i_glide_posenum>
266

> <r_i_glide_eff_state_penalty>
0

> <s_user_duplicate_titles>
CHEMBL2039_lig2294

> <s_m_subgroup_title>
dock_pv

> <s_m_subgroupid>
dock_pv

> <b_m_subgroup_collapsed>
1

$$$$
CHEMBL2039_lig232
                    3D
 Schrodinger Suite 2021-1.
 38 40  0  0  1  0            999 V2000
   53.6342  155.6938   24.8977 C   0  0  0  0  0  0
   52.2375  153.9372   25.9260 C   0  0  0  0  0  0
   53.0350  154.3325   24.9001 C   0  0  0  0  0  0
   53.2416  156.5649   25.8796 O   0  0  0  0  0  0
   52.4560  156.1667   26.9392 C   0  0  0  0  0  0
   51.8997  154.8835   27.0120 C   0  0  0  0  0  0
   52.2003  157.1184   27.9191 C   0  0  0  0  0  0
   51.0861  154.5637   28.1040 C   0  0  0  0  0  0
   54.4560  156.1579   24.1040 O   0  0  0  0  0  0
   50.6985  157.8440   29.7040 N   0  0  0  0  0  0
   51.2560  156.8435   28.9040 C   0  0  0  0  0  0
   50.7346  155.5513   29.0147 C   0  0  0  0  0  0
   50.7186  159.2583   29.3626 C   0  0  0  0  0  0
   51.7041  152.5231   26.0889 C   0  0  0  0  0  0
   53.4907  153.4440   23.7385 C   0  0  0  0  0  0
   49.7287  159.9527   30.2820 C   0  0  0  0  0  0
   48.3593  159.8991   29.9998 C   0  0  0  0  0  0
   50.1756  160.5459   31.4637 C   0  0  0  0  0  0
   49.2560  161.0440   32.3813 C   0  0  0  0  0  0
   47.4404  160.4136   30.9115 C   0  0  0  0  0  0
   47.8936  160.9748   32.1040 C   0  0  0  0  0  0
   52.6276  158.1049   27.8287 H   0  0  0  0  0  0
   50.6516  153.5828   28.2180 H   0  0  0  0  0  0
   49.9303  157.5654   30.2957 H   0  0  0  0  0  0
   50.0162  155.3114   29.7829 H   0  0  0  0  0  0
   50.4224  159.4187   28.3264 H   0  0  0  0  0  0
   51.7235  159.6663   29.4830 H   0  0  0  0  0  0
   52.0560  151.8318   25.3251 H   0  0  0  0  0  0
   52.0415  152.1284   27.0425 H   0  0  0  0  0  0
   50.6167  152.5366   26.1040 H   0  0  0  0  0  0
   53.6560  152.4137   24.0477 H   0  0  0  0  0  0
   52.7371  153.4440   22.9509 H   0  0  0  0  0  0
   54.4296  153.7743   23.2901 H   0  0  0  0  0  0
   48.0068  159.4353   29.0896 H   0  0  0  0  0  0
   51.2306  160.5794   31.6978 H   0  0  0  0  0  0
   49.6047  161.4788   33.3066 H   0  0  0  0  0  0
   46.3815  160.3625   30.7039 H   0  0  0  0  0  0
   47.1852  161.3608   32.8218 H   0  0  0  0  0  0
  1  3  1  0  0  0
  1  4  1  0  0  0
  1  9  2  0  0  0
  2  3  2  0  0  0
  2 14  1  0  0  0
  2  6  1  0  0  0
  3 15  1  0  0  0
  4  5  1  0  0  0
  5  6  1  0  0  0
  5  7  2  0  0  0
  6  8  2  0  0  0
  7 11  1  0  0  0
  7 22  1  0  0  0
  8 12  1  0  0  0
  8 23  1  0  0  0
 10 11  1  0  0  0
 10 13  1  0  0  0
 10 24  1  0  0  0
 11 12  2  0  0  0
 12 25  1  0  0  0
 13 16  1  0  0  0
 13 26  1  0  0  0
 13 27  1  0  0  0
 14 28  1  0  0  0
 14 29  1  0  0  0
 14 30  1  0  0  0
 15 31  1  0  0  0
 15 32  1  0  0  0
 15 33  1  0  0  0
 16 17  2  0  0  0
 16 18  1  0  0  0
 17 20  1  0  0  0
 17 34  1  0  0  0
 18 19  2  0  0  0
 18 35  1  0  0  0
 19 21  1  0  0  0
 19 36  1  0  0  0
 20 21  2  0  0  0
 20 37  1  0  0  0
 21 38  1  0  0  0
M  END
> <s_m_entry_id>
10170

> <s_m_entry_name>
dock_pv.206

> <s_m_Source_Path>
/home/csk/Desktop/cluster/DUD-E-result/aofb

> <s_m_Source_File>
dock_pv.maegz

> <i_m_Source_File_Index>
206

> <chembl_id>
CHEMBL348922

> <chembl_pref_name>
None

> <i_lp_mmshare_version>
53161

> <i_f3d_flags>
0

> <r_lp_tautomer_probability>
1

> <s_lp_Force_Field>
OPLS_2005

> <r_lp_Energy>
25.781505

> <b_lp_Chiralities_Consistent>
1

> <s_lp_Variant>
CHEMBL2039_lig232-1

> <s_i_glide_gridfile>
glide-grid_1s3b

> <i_i_glide_lignum>
273

> <i_i_glide_rotatable_bonds>
3

> <r_i_docking_score>
-7.65335767349495

> <r_i_glide_ligand_efficiency>
-0.36444560349976

> <r_i_glide_ligand_efficiency_sa>
-1.00547778545089

> <r_i_glide_ligand_efficiency_ln>
-1.89227721970628

> <r_i_glide_gscore>
-7.65335767349495

> <r_i_glide_lipo>
-4.49713381628579

> <r_i_glide_hbond>
0

> <r_i_glide_metal>
0

> <r_i_glide_rewards>
-2.39642802118826

> <r_i_glide_evdw>
-27.1695919036865

> <r_i_glide_ecoul>
-0.633149385452271

> <r_i_glide_erotb>
0.693656166981268

> <r_i_glide_esite>
0

> <r_i_glide_emodel>
-28.2290619782003

> <r_i_glide_energy>
-27.8027412891388

> <r_i_glide_einternal>
7.99055480957031

> <i_i_glide_confnum>
30

> <i_i_glide_posenum>
302

> <r_i_glide_eff_state_penalty>
0

> <s_user_duplicate_titles>
CHEMBL2039_lig232

> <s_m_subgroup_title>
dock_pv

> <s_m_subgroupid>
dock_pv

> <b_m_subgroup_collapsed>
1

$$$$
CHEMBL2039_lig914
                    3D
 Schrodinger Suite 2021-1.
 37 38  0  0  1  0            999 V2000
   46.4441  159.8443   31.7556 C   0  0  0  0  0  0
   46.8195  159.3734   30.5053 C   0  0  0  0  0  0
   48.1166  159.5771   30.0457 C   0  0  0  0  0  0
   49.0859  160.1989   30.8528 C   0  0  0  0  0  0
   48.6699  160.7234   32.0937 C   0  0  0  0  0  0
   47.3622  160.5363   32.5392 C   0  0  0  0  0  0
   49.5066  161.4388   32.9077 O   0  0  0  0  0  0
   50.5196  160.2995   30.3923 C   0  0  0  0  0  0
   51.3486  161.0321   30.9346 O   0  0  0  0  0  0
   51.0196  159.4440   29.2117 C   0  0  0  0  0  0
   50.9022  157.9284   29.3324 C   0  0  0  0  0  0
   51.6564  157.1060   28.4027 C   0  0  0  0  0  0
   51.2567  155.8487   28.1039 C   0  0  0  0  0  0
   51.7917  155.0110   27.0213 C   0  0  0  0  0  0
   52.4558  155.5861   25.9324 C   0  0  0  0  0  0
   52.9351  154.7855   24.9045 C   0  0  0  0  0  0
   52.7275  153.4083   24.9393 C   0  0  0  0  0  0
   52.0599  152.8270   26.0198 C   0  0  0  0  0  0
   51.5972  153.6274   27.0608 C   0  0  0  0  0  0
   50.0800  157.4447   30.1017 O   0  0  0  0  0  0
   53.2554  152.5438   23.8139 C   0  0  0  0  0  0
   45.4329  159.6932   32.1041 H   0  0  0  0  0  0
   46.1006  158.8553   29.8873 H   0  0  0  0  0  0
   48.3578  159.2010   29.0634 H   0  0  0  0  0  0
   47.0586  160.9297   33.4981 H   0  0  0  0  0  0
   50.4021  161.5253   32.5590 H   0  0  0  0  0  0
   50.4357  159.7135   28.3399 H   0  0  0  0  0  0
   52.4998  157.5746   27.9174 H   0  0  0  0  0  0
   50.4256  155.4113   28.6426 H   0  0  0  0  0  0
   52.6160  156.6518   25.8768 H   0  0  0  0  0  0
   53.4894  155.2424   24.1041 H   0  0  0  0  0  0
   51.9068  151.7583   26.0590 H   0  0  0  0  0  0
   51.0843  153.1684   27.8943 H   0  0  0  0  0  0
   52.0584  159.6921   29.0157 H   0  0  0  0  0  0
   53.6557  151.6058   24.1994 H   0  0  0  0  0  0
   52.4645  152.3183   23.1062 H   0  0  0  0  0  0
   54.0559  153.0446   23.2719 H   0  0  0  0  0  0
  1  2  2  0  0  0
  1  6  1  0  0  0
  1 22  1  0  0  0
  2  3  1  0  0  0
  2 23  1  0  0  0
  3  4  2  0  0  0
  3 24  1  0  0  0
  4  5  1  0  0  0
  4  8  1  0  0  0
  5  6  2  0  0  0
  5  7  1  0  0  0
  6 25  1  0  0  0
  7 26  1  0  0  0
  8 10  1  0  0  0
  8  9  2  0  0  0
 10 11  1  0  0  0
 10 27  1  0  0  0
 10 34  1  0  0  0
 11 12  1  0  0  0
 11 20  2  0  0  0
 12 13  2  0  0  0
 12 28  1  0  0  0
 13 14  1  0  0  0
 13 29  1  0  0  0
 14 15  2  0  0  0
 14 19  1  0  0  0
 15 16  1  0  0  0
 15 30  1  0  0  0
 16 17  2  0  0  0
 16 31  1  0  0  0
 17 18  1  0  0  0
 17 21  1  0  0  0
 18 19  2  0  0  0
 18 32  1  0  0  0
 19 33  1  0  0  0
 21 35  1  0  0  0
 21 36  1  0  0  0
 21 37  1  0  0  0
M  END
> <s_m_entry_id>
10171

> <s_m_entry_name>
dock_pv.207

> <s_m_Source_Path>
/home/csk/Desktop/cluster/DUD-E-result/aofb

> <s_m_Source_File>
dock_pv.maegz

> <i_m_Source_File_Index>
207

> <chembl_id>
CHEMBL2332172

> <chembl_pref_name>
None

> <i_lp_mmshare_version>
53161

> <i_f3d_flags>
0

> <r_lp_tautomer_probability>
0.692307692307692

> <s_lp_Force_Field>
OPLS_2005

> <r_lp_Energy>
28.450134

> <b_lp_Chiralities_Consistent>
1

> <s_lp_Variant>
CHEMBL2039_lig914-1

> <s_i_glide_gridfile>
glide-grid_1s3b

> <i_i_glide_lignum>
1051

> <i_i_glide_rotatable_bonds>
6

> <r_i_docking_score>
-7.64904178185006

> <r_i_glide_ligand_efficiency>
-0.364240084850003

> <r_i_glide_ligand_efficiency_sa>
-1.00491077507996

> <r_i_glide_ligand_efficiency_ln>
-1.89121012421816

> <r_i_glide_gscore>
-7.64904178185006

> <r_i_glide_lipo>
-4.12064839067437

> <r_i_glide_hbond>
0

> <r_i_glide_metal>
0

> <r_i_glide_rewards>
-2.86511801054006

> <r_i_glide_evdw>
-30.2403984069824

> <r_i_glide_ecoul>
-2.00203156471252

> <r_i_glide_erotb>
1.14904927442037

> <r_i_glide_esite>
0

> <r_i_glide_emodel>
-40.4407055680853

> <r_i_glide_energy>
-32.2424299716949

> <r_i_glide_einternal>
5.31154108047485

> <i_i_glide_confnum>
122

> <i_i_glide_posenum>
380

> <r_i_glide_eff_state_penalty>
0

> <s_user_duplicate_titles>
CHEMBL2039_lig914,CHEMBL2039_lig914

> <s_m_subgroup_title>
dock_pv

> <s_m_subgroupid>
dock_pv

> <b_m_subgroup_collapsed>
1

$$$$
CHEMBL2039_lig216
                    3D
 Schrodinger Suite 2021-1.
 40 42  0  0  1  0            999 V2000
   51.7077  152.1519   26.2511 C   0  0  0  0  0  0
   53.0065  153.7422   24.9044 C   0  0  0  0  0  0
   52.6899  152.4613   25.1977 C   0  0  0  0  0  0
   51.2252  153.1763   27.0118 O   0  0  0  0  0  0
   51.7018  154.4563   26.8692 C   0  0  0  0  0  0
   52.4868  154.8362   25.7661 C   0  0  0  0  0  0
   46.8701  160.1857   31.4315 C   0  0  0  0  0  0
   48.3493  160.0505   31.1674 C   0  0  0  0  0  0
   51.4706  155.3216   27.9376 C   0  0  0  0  0  0
   53.0159  156.1258   25.7501 C   0  0  0  0  0  0
   51.2556  151.0424   26.5039 O   0  0  0  0  0  0
   48.7971  158.9831   30.4025 C   0  0  0  0  0  0
   46.1914  159.0446   31.2836 F   0  0  0  0  0  0
   46.4560  161.0443   30.5052 F   0  0  0  0  0  0
   46.6610  160.6436   32.6649 F   0  0  0  0  0  0
   52.0547  156.5933   27.9293 C   0  0  0  0  0  0
   51.8054  157.5954   28.8376 O   0  0  0  0  0  0
   52.8556  156.9428   26.8648 C   0  0  0  0  0  0
   50.1454  158.8573   30.1040 C   0  0  0  0  0  0
   54.0881  154.0523   23.8719 C   0  0  0  0  0  0
   50.6159  157.5191   29.6044 C   0  0  0  0  0  0
   53.2662  151.2282   24.4972 C   0  0  0  0  0  0
   49.2667  160.9924   31.6511 C   0  0  0  0  0  0
   50.6134  160.9003   31.2993 C   0  0  0  0  0  0
   51.0517  159.8456   30.5013 C   0  0  0  0  0  0
   50.8714  154.9839   28.7692 H   0  0  0  0  0  0
   53.6871  156.4617   24.9768 H   0  0  0  0  0  0
   48.1040  158.2167   30.0849 H   0  0  0  0  0  0
   53.3900  157.8679   26.9135 H   0  0  0  0  0  0
   54.0585  153.3718   23.0231 H   0  0  0  0  0  0
   54.0564  155.0442   23.4559 H   0  0  0  0  0  0
   55.0603  153.9578   24.3556 H   0  0  0  0  0  0
   50.8560  157.0439   30.5040 H   0  0  0  0  0  0
   49.8232  156.8469   29.3040 H   0  0  0  0  0  0
   54.2571  151.0266   24.9042 H   0  0  0  0  0  0
   52.6814  150.3178   24.6306 H   0  0  0  0  0  0
   53.3401  151.3774   23.4212 H   0  0  0  0  0  0
   48.9369  161.8153   32.2694 H   0  0  0  0  0  0
   51.3194  161.6297   31.6709 H   0  0  0  0  0  0
   52.1062  159.7355   30.2930 H   0  0  0  0  0  0
  1  3  1  0  0  0
  1  4  1  0  0  0
  1 11  2  0  0  0
  2  3  2  0  0  0
  2 20  1  0  0  0
  2  6  1  0  0  0
  3 22  1  0  0  0
  4  5  1  0  0  0
  5  6  1  0  0  0
  5  9  2  0  0  0
  6 10  2  0  0  0
  7  8  1  0  0  0
  7 13  1  0  0  0
  7 14  1  0  0  0
  7 15  1  0  0  0
  8 12  1  0  0  0
  8 23  2  0  0  0
  9 16  1  0  0  0
  9 26  1  0  0  0
 10 18  1  0  0  0
 10 27  1  0  0  0
 12 19  2  0  0  0
 12 28  1  0  0  0
 16 17  1  0  0  0
 16 18  2  0  0  0
 17 21  1  0  0  0
 18 29  1  0  0  0
 19 21  1  0  0  0
 19 25  1  0  0  0
 20 30  1  0  0  0
 20 31  1  0  0  0
 20 32  1  0  0  0
 21 33  1  0  0  0
 21 34  1  0  0  0
 22 35  1  0  0  0
 22 36  1  0  0  0
 22 37  1  0  0  0
 23 24  1  0  0  0
 23 38  1  0  0  0
 24 25  2  0  0  0
 24 39  1  0  0  0
 25 40  1  0  0  0
M  END
> <s_m_entry_id>
10172

> <s_m_entry_name>
dock_pv.208

> <s_m_Source_Path>
/home/csk/Desktop/cluster/DUD-E-result/aofb

> <s_m_Source_File>
dock_pv.maegz

> <i_m_Source_File_Index>
208

> <chembl_id>
CHEMBL143555

> <chembl_pref_name>
None

> <i_lp_mmshare_version>
53161

> <i_f3d_flags>
0

> <r_lp_tautomer_probability>
1

> <s_lp_Force_Field>
OPLS_2005

> <r_lp_Energy>
24.904498

> <b_lp_Chiralities_Consistent>
1

> <s_lp_Variant>
CHEMBL2039_lig216-1

> <s_i_glide_gridfile>
glide-grid_1s3b

> <i_i_glide_lignum>
257

> <i_i_glide_rotatable_bonds>
4

> <r_i_docking_score>
-7.64794789471148

> <r_i_glide_ligand_efficiency>
-0.305917915788459

> <r_i_glide_ligand_efficiency_sa>
-0.894509411242793

> <r_i_glide_ligand_efficiency_ln>
-1.81279284155049

> <r_i_glide_gscore>
-7.64794789471148

> <r_i_glide_lipo>
-4.72112183785681

> <r_i_glide_hbond>
0

> <r_i_glide_metal>
0

> <r_i_glide_rewards>
-2.72554809168379

> <r_i_glide_evdw>
-17.1352386474609

> <r_i_glide_ecoul>
1.23199498653412

> <r_i_glide_erotb>
0.47068471922205

> <r_i_glide_esite>
0

> <r_i_glide_emodel>
-48.338906843706

> <r_i_glide_energy>
-15.9032436609268

> <r_i_glide_einternal>
4.39656066894531

> <i_i_glide_confnum>
13

> <i_i_glide_posenum>
83

> <r_i_glide_eff_state_penalty>
0

> <s_user_duplicate_titles>
CHEMBL2039_lig216

> <s_m_subgroup_title>
dock_pv

> <s_m_subgroupid>
dock_pv

> <b_m_subgroup_collapsed>
1

$$$$
CHEMBL2039_lig2287
                    3D
 Schrodinger Suite 2021-1.
 31 33  0  0  1  0            999 V2000
   53.2560  152.2994   23.9551 C   0  0  0  0  0  0
   52.8560  151.5384   25.0497 C   0  0  0  0  0  0
   52.1920  152.1706   26.1040 C   0  0  0  0  0  0
   53.2463  153.6883   23.9983 C   0  0  0  0  0  0
   52.7116  154.3129   25.1206 C   0  0  0  0  0  0
   52.1407  153.5549   26.1474 C   0  0  0  0  0  0
   51.5488  154.1457   27.2638 N   0  0  0  0  0  0
   51.6560  155.4051   27.4445 C   0  0  0  0  0  0
   52.2810  156.1890   26.5035 N   0  0  0  0  0  0
   52.8191  155.8004   25.3239 C   0  0  0  0  0  0
   50.8560  156.0627   28.9040 S   0  0  0  0  0  0
   53.3609  156.6065   24.5720 O   0  0  0  0  0  0
   51.5389  157.7698   28.9040 C   0  0  0  0  0  0
   50.7766  158.8043   29.7213 C   0  0  0  0  0  0
   51.4870  159.9171   30.1781 C   0  0  0  0  0  0
   50.8902  160.8244   31.0464 C   0  0  0  0  0  0
   49.5636  160.6440   31.4281 C   0  0  0  0  0  0
   48.8288  159.5651   30.9495 C   0  0  0  0  0  0
   49.4381  158.6440   30.1040 C   0  0  0  0  0  0
   53.6560  151.8179   23.0799 H   0  0  0  0  0  0
   52.9168  150.4603   25.0170 H   0  0  0  0  0  0
   51.7278  151.6010   26.8957 H   0  0  0  0  0  0
   53.6779  154.2440   23.1800 H   0  0  0  0  0  0
   52.3671  157.1762   26.6687 H   0  0  0  0  0  0
   51.6560  158.1918   27.9100 H   0  0  0  0  0  0
   52.5448  157.6811   29.3040 H   0  0  0  0  0  0
   52.5269  160.0445   29.9152 H   0  0  0  0  0  0
   51.4577  161.6581   31.4353 H   0  0  0  0  0  0
   49.1035  161.3495   32.1045 H   0  0  0  0  0  0
   47.8014  159.4282   31.2536 H   0  0  0  0  0  0
   48.8674  157.7862   29.7910 H   0  0  0  0  0  0
  1  2  2  0  0  0
  1  4  1  0  0  0
  1 20  1  0  0  0
  2  3  1  0  0  0
  2 21  1  0  0  0
  3  6  2  0  0  0
  3 22  1  0  0  0
  4  5  2  0  0  0
  4 23  1  0  0  0
  5  6  1  0  0  0
  5 10  1  0  0  0
  6  7  1  0  0  0
  7  8  2  0  0  0
  8  9  1  0  0  0
  8 11  1  0  0  0
  9 10  1  0  0  0
  9 24  1  0  0  0
 10 12  2  0  0  0
 11 13  1  0  0  0
 13 14  1  0  0  0
 13 25  1  0  0  0
 13 26  1  0  0  0
 14 15  2  0  0  0
 14 19  1  0  0  0
 15 16  1  0  0  0
 15 27  1  0  0  0
 16 17  2  0  0  0
 16 28  1  0  0  0
 17 18  1  0  0  0
 17 29  1  0  0  0
 18 19  2  0  0  0
 18 30  1  0  0  0
 19 31  1  0  0  0
M  END
> <s_m_entry_id>
10173

> <s_m_entry_name>
dock_pv.209

> <s_m_Source_Path>
/home/csk/Desktop/cluster/DUD-E-result/aofb

> <s_m_Source_File>
dock_pv.maegz

> <i_m_Source_File_Index>
209

> <chembl_id>
CHEMBL4286287

> <chembl_pref_name>
None

> <i_lp_mmshare_version>
53161

> <i_f3d_flags>
0

> <r_lp_tautomer_probability>
0.883938

> <s_lp_Force_Field>
OPLS_2005

> <r_lp_Energy>
16.121866

> <b_lp_Chiralities_Consistent>
1

> <s_lp_Variant>
CHEMBL2039_lig2287-1

> <s_i_glide_gridfile>
glide-grid_1s3b

> <i_i_glide_lignum>
2647

> <i_i_glide_rotatable_bonds>
3

> <r_i_docking_score>
-7.64502667187199

> <r_i_glide_ligand_efficiency>
-0.402369824835368

> <r_i_glide_ligand_efficiency_sa>
-1.07368430293286

> <r_i_glide_ligand_efficiency_ln>
-1.93817846143676

> <r_i_glide_gscore>
-7.64502667187199

> <r_i_glide_lipo>
-3.9915176486178

> <r_i_glide_hbond>
0

> <r_i_glide_metal>
0

> <r_i_glide_rewards>
-2.70446571168333

> <r_i_glide_evdw>
-25.7996387481689

> <r_i_glide_ecoul>
-2.68473815917969

> <r_i_glide_erotb>
0.743649349714547

> <r_i_glide_esite>
0

> <r_i_glide_emodel>
-32.2449881338555

> <r_i_glide_energy>
-28.4843769073486

> <r_i_glide_einternal>
5.45475769042969

> <i_i_glide_confnum>
8

> <i_i_glide_posenum>
377

> <r_i_glide_eff_state_penalty>
0

> <s_user_duplicate_titles>
CHEMBL2039_lig2287

> <s_m_subgroup_title>
dock_pv

> <s_m_subgroupid>
dock_pv

> <b_m_subgroup_collapsed>
1

$$$$
CHEMBL2039_lig2632 
                    3D
 Schrodinger Suite 2021-1.
 33 35  0  0  1  0            999 V2000
   52.8358  156.6395   25.3660 O   0  0  0  0  0  0
   52.4557  155.7309   26.1044 C   0  0  0  0  0  0
   52.4561  154.3204   25.6232 C   0  0  0  0  0  0
   53.0764  153.9624   24.4213 C   0  0  0  0  0  0
   53.2562  152.6225   24.0978 C   0  0  0  0  0  0
   52.8559  151.6230   24.9776 C   0  0  0  0  0  0
   52.1055  151.9684   26.1040 C   0  0  0  0  0  0
   51.9388  153.3050   26.4356 C   0  0  0  0  0  0
   51.3151  153.5691   27.6294 O   0  0  0  0  0  0
   51.5227  154.7912   28.1655 C   0  0  0  0  0  0
   52.0561  155.8635   27.5253 C   0  0  0  0  0  0
   52.2740  157.1040   28.2416 C   0  0  0  0  0  0
   51.1997  157.4564   28.9692 N   0  0  0  0  0  0
   50.8253  158.5972   29.7022 C   0  0  0  0  0  0
   49.5217  158.5897   30.2131 C   0  0  0  0  0  0
   49.1029  159.5749   31.1003 C   0  0  0  0  0  0
   49.9942  160.5705   31.4825 C   0  0  0  0  0  0
   51.2610  160.6450   30.9101 C   0  0  0  0  0  0
   51.6667  159.6664   30.0076 C   0  0  0  0  0  0
   53.3049  157.7555   28.1272 O   0  0  0  0  0  0
   49.6428  161.4440   32.5042 N   0  0  0  0  0  0
   53.4910  154.7054   23.7587 H   0  0  0  0  0  0
   53.7387  152.3586   23.1690 H   0  0  0  0  0  0
   53.0093  150.5840   24.7250 H   0  0  0  0  0  0
   51.6560  151.2056   26.7211 H   0  0  0  0  0  0
   51.2103  154.7893   29.2025 H   0  0  0  0  0  0
   50.4528  156.7858   28.9043 H   0  0  0  0  0  0
   48.8428  157.7762   30.0076 H   0  0  0  0  0  0
   48.1177  159.5178   31.5391 H   0  0  0  0  0  0
   51.9531  161.4194   31.2084 H   0  0  0  0  0  0
   52.6796  159.6864   29.6387 H   0  0  0  0  0  0
   48.8128  161.2271   33.0337 H   0  0  0  0  0  0
   50.4161  161.9086   32.9728 H   0  0  0  0  0  0
  1  2  2  0  0  0
  2  3  1  0  0  0
  2 11  1  0  0  0
  3  4  2  0  0  0
  3  8  1  0  0  0
  4  5  1  0  0  0
  4 22  1  0  0  0
  5  6  2  0  0  0
  5 23  1  0  0  0
  6  7  1  0  0  0
  6 24  1  0  0  0
  7  8  2  0  0  0
  7 25  1  0  0  0
  8  9  1  0  0  0
  9 10  1  0  0  0
 10 11  2  0  0  0
 10 26  1  0  0  0
 11 12  1  0  0  0
 12 13  1  0  0  0
 12 20  2  0  0  0
 13 14  1  0  0  0
 13 27  1  0  0  0
 14 15  2  0  0  0
 14 19  1  0  0  0
 15 16  1  0  0  0
 15 28  1  0  0  0
 16 17  2  0  0  0
 16 29  1  0  0  0
 17 18  1  0  0  0
 17 21  1  0  0  0
 18 19  2  0  0  0
 18 30  1  0  0  0
 19 31  1  0  0  0
 21 32  1  0  0  0
 21 33  1  0  0  0
M  END
> <s_m_entry_id>
10174

> <s_m_entry_name>
dock_pv.210

> <s_m_Source_Path>
/home/csk/Desktop/cluster/DUD-E-result/aofb

> <s_m_Source_File>
dock_pv.maegz

> <i_m_Source_File_Index>
210

> <chembl_id>
CHEMBL4541785

> <chembl_pref_name>
None

> <i_lp_mmshare_version>
53161

> <i_f3d_flags>
0

> <r_lp_tautomer_probability>
1

> <s_lp_Force_Field>
OPLS_2005

> <r_lp_Energy>
25.755047

> <b_lp_Chiralities_Consistent>
1

> <s_lp_Variant>
CHEMBL2039_lig2632 -1

> <s_i_glide_gridfile>
glide-grid_1s3b

> <i_i_glide_lignum>
3051

> <i_i_glide_rotatable_bonds>
3

> <r_i_docking_score>
-7.64434809867891

> <r_i_glide_ligand_efficiency>
-0.364016576127567

> <r_i_glide_ligand_efficiency_sa>
-1.00429413146263

> <r_i_glide_ligand_efficiency_ln>
-1.89004962053858

> <r_i_glide_gscore>
-7.64434809867891

> <r_i_glide_lipo>
-3.91725929883893

> <r_i_glide_hbond>
-0.32

> <r_i_glide_metal>
0

> <r_i_glide_rewards>
-2.51644809375164

> <r_i_glide_evdw>
-24.8639793395996

> <r_i_glide_ecoul>
-2.24694132804871

> <r_i_glide_erotb>
0.689599460098939

> <r_i_glide_esite>
0

> <r_i_glide_emodel>
-30.374124810524

> <r_i_glide_energy>
-27.1109206676483

> <r_i_glide_einternal>
5.32402801513672

> <i_i_glide_confnum>
7

> <i_i_glide_posenum>
256

> <r_i_glide_eff_state_penalty>
0

> <s_user_duplicate_titles>
CHEMBL2039_lig2632 

> <s_m_subgroup_title>
dock_pv

> <s_m_subgroupid>
dock_pv

> <b_m_subgroup_collapsed>
1

$$$$
CHEMBL2039_lig720
                    3D
 Schrodinger Suite 2021-1.
 34 36  0  0  1  0            999 V2000
   51.6560  157.9266   29.0046 C   0  0  0  0  0  0
   50.6475  157.2002   29.6549 C   0  0  0  0  0  0
   50.4378  155.8554   29.3040 C   0  0  0  0  0  0
   52.3492  157.3222   27.9425 C   0  0  0  0  0  0
   52.0134  156.0424   27.4757 C   0  0  0  0  0  0
   51.1355  155.2796   28.2460 C   0  0  0  0  0  0
   50.8337  153.9739   27.9338 O   0  0  0  0  0  0
   51.3688  153.4440   26.8090 C   0  0  0  0  0  0
   52.1390  154.0969   25.9101 C   0  0  0  0  0  0
   52.4560  155.5208   26.1390 C   0  0  0  0  0  0
   53.0675  156.2440   25.3514 O   0  0  0  0  0  0
   52.7470  153.3732   24.8128 C   0  0  0  0  0  0
   53.0921  152.0959   25.1351 O   0  0  0  0  0  0
   52.9751  153.8439   23.7040 O   0  0  0  0  0  0
   52.0560  159.2199   29.3040 O   0  0  0  0  0  0
   51.6305  160.0491   30.3762 C   0  0  0  0  0  0
   50.1360  160.2384   30.4943 C   0  0  0  0  0  0
   49.6337  160.6440   31.7217 C   0  0  0  0  0  0
   48.2661  160.6439   31.9575 C   0  0  0  0  0  0
   47.3805  160.3032   30.9349 C   0  0  0  0  0  0
   47.8903  159.9765   29.6769 C   0  0  0  0  0  0
   49.2588  159.9664   29.4469 C   0  0  0  0  0  0
   47.6560  161.0440   33.7040 Br  0  0  0  0  0  0
   50.0869  157.6281   30.4704 H   0  0  0  0  0  0
   49.7136  155.2572   29.8348 H   0  0  0  0  0  0
   53.0928  157.9003   27.4143 H   0  0  0  0  0  0
   51.1196  152.3932   26.7373 H   0  0  0  0  0  0
   53.5296  151.7051   24.3767 H   0  0  0  0  0  0
   52.0560  159.6795   31.3040 H   0  0  0  0  0  0
   52.0758  161.0315   30.2181 H   0  0  0  0  0  0
   50.3203  160.9167   32.5040 H   0  0  0  0  0  0
   46.3154  160.2858   31.1157 H   0  0  0  0  0  0
   47.2560  159.6945   28.8603 H   0  0  0  0  0  0
   49.6340  159.6837   28.4749 H   0  0  0  0  0  0
  1  2  2  0  0  0
  1 15  1  0  0  0
  1  4  1  0  0  0
  2  3  1  0  0  0
  2 24  1  0  0  0
  3  6  2  0  0  0
  3 25  1  0  0  0
  4  5  2  0  0  0
  4 26  1  0  0  0
  5 10  1  0  0  0
  5  6  1  0  0  0
  6  7  1  0  0  0
  7  8  1  0  0  0
  8  9  2  0  0  0
  8 27  1  0  0  0
  9 12  1  0  0  0
  9 10  1  0  0  0
 10 11  2  0  0  0
 12 13  1  0  0  0
 12 14  2  0  0  0
 13 28  1  0  0  0
 15 16  1  0  0  0
 16 17  1  0  0  0
 16 29  1  0  0  0
 16 30  1  0  0  0
 17 18  2  0  0  0
 17 22  1  0  0  0
 18 19  1  0  0  0
 18 31  1  0  0  0
 19 20  2  0  0  0
 19 23  1  0  0  0
 20 21  1  0  0  0
 20 32  1  0  0  0
 21 22  2  0  0  0
 21 33  1  0  0  0
 22 34  1  0  0  0
M  END
> <s_m_entry_id>
10175

> <s_m_entry_name>
dock_pv.211

> <s_m_Source_Path>
/home/csk/Desktop/cluster/DUD-E-result/aofb

> <s_m_Source_File>
dock_pv.maegz

> <i_m_Source_File_Index>
211

> <chembl_id>
CHEMBL2062871

> <chembl_pref_name>
None

> <i_lp_mmshare_version>
53161

> <i_f3d_flags>
0

> <r_lp_tautomer_probability>
1

> <s_lp_Force_Field>
OPLS_2005

> <r_lp_Energy>
21.895674

> <b_lp_Chiralities_Consistent>
1

> <s_lp_Variant>
CHEMBL2039_lig720-1

> <s_i_glide_gridfile>
glide-grid_1s3b

> <i_i_glide_lignum>
849

> <i_i_glide_rotatable_bonds>
5

> <r_i_docking_score>
-7.64239367298888

> <r_i_glide_ligand_efficiency>
-0.332277985782125

> <r_i_glide_ligand_efficiency_sa>
-0.944954390909741

> <r_i_glide_ligand_efficiency_ln>
-1.84800008752323

> <r_i_glide_gscore>
-7.64239367298888

> <r_i_glide_lipo>
-4.31415180558045

> <r_i_glide_hbond>
0

> <r_i_glide_metal>
0

> <r_i_glide_rewards>
-2.15780022308593

> <r_i_glide_evdw>
-30.2992553710938

> <r_i_glide_ecoul>
-1.36805093288422

> <r_i_glide_erotb>
0.549728764164825

> <r_i_glide_esite>
0

> <r_i_glide_emodel>
-33.7483886026422

> <r_i_glide_energy>
-31.667306303978

> <r_i_glide_einternal>
1.33135545253754

> <i_i_glide_confnum>
1

> <i_i_glide_posenum>
322

> <r_i_glide_eff_state_penalty>
0

> <s_user_duplicate_titles>
CHEMBL2039_lig720

> <s_m_subgroup_title>
dock_pv

> <s_m_subgroupid>
dock_pv

> <b_m_subgroup_collapsed>
1

$$$$
CHEMBL2039_lig992
                    3D
 Schrodinger Suite 2021-1.
 32 34  0  0  1  0            999 V2000
   52.6535  152.8530   25.3039 C   0  0  0  0  0  0
   52.7218  154.0713   24.3712 C   0  0  0  0  0  0
   53.0686  155.3649   25.1292 C   0  0  0  0  0  0
   51.5427  153.0558   26.3475 C   0  0  0  0  0  0
   51.6553  154.4004   27.0494 C   0  0  0  0  0  0
   52.3541  155.4848   26.4771 C   0  0  0  0  0  0
   52.4560  156.6688   27.1322 N   0  0  0  0  0  0
   51.8160  156.8055   28.3191 C   0  0  0  0  0  0
   51.0663  155.8427   28.9038 N   0  0  0  0  0  0
   51.0414  154.6414   28.2816 C   0  0  0  0  0  0
   51.9143  158.0853   28.8806 N   0  0  0  0  0  0
   51.1010  158.8708   29.7135 C   0  0  0  0  0  0
   49.7912  158.5342   30.0810 C   0  0  0  0  0  0
   49.0392  159.3732   30.9036 C   0  0  0  0  0  0
   49.6102  160.5363   31.4152 C   0  0  0  0  0  0
   50.9260  160.8632   31.0915 C   0  0  0  0  0  0
   51.6558  160.0462   30.2285 C   0  0  0  0  0  0
   47.4099  158.9629   31.2991 Cl  0  0  0  0  0  0
   53.6169  152.6934   25.7907 H   0  0  0  0  0  0
   52.4560  151.9501   24.7273 H   0  0  0  0  0  0
   53.4460  153.8959   23.5741 H   0  0  0  0  0  0
   51.7592  154.2094   23.8820 H   0  0  0  0  0  0
   54.1425  155.3746   25.3040 H   0  0  0  0  0  0
   52.8540  156.2369   24.5108 H   0  0  0  0  0  0
   50.5738  153.0441   25.8490 H   0  0  0  0  0  0
   51.5372  152.2382   27.0693 H   0  0  0  0  0  0
   50.4801  153.8623   28.7731 H   0  0  0  0  0  0
   52.6213  158.6306   28.4071 H   0  0  0  0  0  0
   49.3467  157.6238   29.7160 H   0  0  0  0  0  0
   49.0428  161.1789   32.0717 H   0  0  0  0  0  0
   51.3806  161.7496   31.5100 H   0  0  0  0  0  0
   52.6786  160.3075   30.0006 H   0  0  0  0  0  0
  1  2  1  0  0  0
  1  4  1  0  0  0
  1 19  1  0  0  0
  1 20  1  0  0  0
  2  3  1  0  0  0
  2 21  1  0  0  0
  2 22  1  0  0  0
  3  6  1  0  0  0
  3 23  1  0  0  0
  3 24  1  0  0  0
  4  5  1  0  0  0
  4 25  1  0  0  0
  4 26  1  0  0  0
  5  6  2  0  0  0
  5 10  1  0  0  0
  6  7  1  0  0  0
  7  8  2  0  0  0
  8  9  1  0  0  0
  8 11  1  0  0  0
  9 10  2  0  0  0
 10 27  1  0  0  0
 11 12  1  0  0  0
 11 28  1  0  0  0
 12 13  2  0  0  0
 12 17  1  0  0  0
 13 14  1  0  0  0
 13 29  1  0  0  0
 14 15  2  0  0  0
 14 18  1  0  0  0
 15 16  1  0  0  0
 15 30  1  0  0  0
 16 17  2  0  0  0
 16 31  1  0  0  0
 17 32  1  0  0  0
M  END
> <s_m_entry_id>
10176

> <s_m_entry_name>
dock_pv.212

> <s_m_Source_Path>
/home/csk/Desktop/cluster/DUD-E-result/aofb

> <s_m_Source_File>
dock_pv.maegz

> <i_m_Source_File_Index>
212

> <chembl_id>
CHEMBL2408408

> <chembl_pref_name>
None

> <i_lp_mmshare_version>
53161

> <i_f3d_flags>
0

> <r_lp_tautomer_probability>
0.999999987636

> <s_lp_Force_Field>
OPLS_2005

> <r_lp_Energy>
6.944355

> <b_lp_Chiralities_Consistent>
1

> <s_lp_Variant>
CHEMBL2039_lig992-1

> <s_i_glide_gridfile>
glide-grid_1s3b

> <i_i_glide_lignum>
1139

> <i_i_glide_rotatable_bonds>
2

> <r_i_docking_score>
-7.64152030996697

> <r_i_glide_ligand_efficiency>
-0.424528906109276

> <r_i_glide_ligand_efficiency_sa>
-1.11258047620688

> <r_i_glide_ligand_efficiency_ln>
-1.96421339283507

> <r_i_glide_gscore>
-7.64152030996697

> <r_i_glide_lipo>
-3.43304128045074

> <r_i_glide_hbond>
-0.223525705780479

> <r_i_glide_metal>
0

> <r_i_glide_rewards>
-2.90751238985193

> <r_i_glide_evdw>
-29.4998645782471

> <r_i_glide_ecoul>
-0.7507164478302

> <r_i_glide_erotb>
0.524428735561921

> <r_i_glide_esite>
-0.0142689733588549

> <r_i_glide_emodel>
-40.7331913833473

> <r_i_glide_energy>
-30.2505810260773

> <r_i_glide_einternal>
2.74873971939087

> <i_i_glide_confnum>
8

> <i_i_glide_posenum>
210

> <r_i_glide_eff_state_penalty>
0

> <s_user_duplicate_titles>
CHEMBL2039_lig992

> <s_m_subgroup_title>
dock_pv

> <s_m_subgroupid>
dock_pv

> <b_m_subgroup_collapsed>
1

$$$$
CHEMBL2039_lig1365
                    3D
 Schrodinger Suite 2021-1.
 36 38  0  0  1  0            999 V2000
   50.6829  158.6492   29.7034 C   0  0  0  0  0  0
   51.4367  159.7664   30.1042 C   0  0  0  0  0  0
   50.9103  160.6797   31.0245 C   0  0  0  0  0  0
   49.3831  158.5048   30.1898 C   0  0  0  0  0  0
   48.8541  159.4108   31.0946 C   0  0  0  0  0  0
   49.6235  160.4967   31.5333 C   0  0  0  0  0  0
   49.1302  161.4224   32.4341 O   0  0  0  0  0  0
   47.9783  160.9732   33.1611 C   0  0  0  0  0  0
   46.9819  160.2445   32.2251 C   0  0  0  0  0  0
   47.6079  159.1231   31.6085 O   0  0  0  0  0  0
   51.1159  157.6117   28.9083 O   0  0  0  0  0  0
   52.4628  157.4438   28.5034 C   0  0  0  0  0  0
   52.4688  156.7855   27.1234 C   0  0  0  0  0  0
   51.6586  155.6264   27.1627 O   0  0  0  0  0  0
   52.0073  154.5466   26.3957 C   0  0  0  0  0  0
   51.4976  153.3396   26.8472 C   0  0  0  0  0  0
   51.8883  152.1635   26.2383 C   0  0  0  0  0  0
   52.7962  152.1848   25.1896 C   0  0  0  0  0  0
   53.2559  153.3940   24.6716 C   0  0  0  0  0  0
   52.8451  154.5864   25.2678 C   0  0  0  0  0  0
   53.2563  150.6768   24.5043 Cl  0  0  0  0  0  0
   52.4489  159.9110   29.7645 H   0  0  0  0  0  0
   51.5056  161.5159   31.3619 H   0  0  0  0  0  0
   48.7986  157.6373   29.9289 H   0  0  0  0  0  0
   48.2978  160.2885   33.9490 H   0  0  0  0  0  0
   47.4932  161.8250   33.6365 H   0  0  0  0  0  0
   46.0964  159.9170   32.7694 H   0  0  0  0  0  0
   46.6591  160.9314   31.4415 H   0  0  0  0  0  0
   52.9513  156.7767   29.2123 H   0  0  0  0  0  0
   53.0502  158.3535   28.4909 H   0  0  0  0  0  0
   53.5033  156.5901   26.8490 H   0  0  0  0  0  0
   52.0568  157.4415   26.3670 H   0  0  0  0  0  0
   50.8354  153.3155   27.7002 H   0  0  0  0  0  0
   51.4988  151.2212   26.5949 H   0  0  0  0  0  0
   53.9341  153.4060   23.8308 H   0  0  0  0  0  0
   53.2211  155.5220   24.8847 H   0  0  0  0  0  0
  1  2  2  0  0  0
  1  4  1  0  0  0
  1 11  1  0  0  0
  2  3  1  0  0  0
  2 22  1  0  0  0
  3  6  2  0  0  0
  3 23  1  0  0  0
  4  5  2  0  0  0
  4 24  1  0  0  0
  5  6  1  0  0  0
  5 10  1  0  0  0
  6  7  1  0  0  0
  7  8  1  0  0  0
  8  9  1  0  0  0
  8 25  1  0  0  0
  8 26  1  0  0  0
  9 10  1  0  0  0
  9 27  1  0  0  0
  9 28  1  0  0  0
 11 12  1  0  0  0
 12 13  1  0  0  0
 12 29  1  0  0  0
 12 30  1  0  0  0
 13 14  1  0  0  0
 13 31  1  0  0  0
 13 32  1  0  0  0
 14 15  1  0  0  0
 15 16  2  0  0  0
 15 20  1  0  0  0
 16 17  1  0  0  0
 16 33  1  0  0  0
 17 18  2  0  0  0
 17 34  1  0  0  0
 18 19  1  0  0  0
 18 21  1  0  0  0
 19 20  2  0  0  0
 19 35  1  0  0  0
 20 36  1  0  0  0
M  END
> <s_m_entry_id>
10177

> <s_m_entry_name>
dock_pv.213

> <s_m_Source_Path>
/home/csk/Desktop/cluster/DUD-E-result/aofb

> <s_m_Source_File>
dock_pv.maegz

> <i_m_Source_File_Index>
213

> <chembl_id>
CHEMBL3402201

> <chembl_pref_name>
None

> <i_lp_mmshare_version>
53161

> <i_f3d_flags>
0

> <r_lp_tautomer_probability>
1

> <s_lp_Force_Field>
OPLS_2005

> <r_lp_Energy>
20.938789

> <b_lp_Chiralities_Consistent>
1

> <s_lp_Variant>
CHEMBL2039_lig1365-1

> <s_i_glide_gridfile>
glide-grid_1s3b

> <i_i_glide_lignum>
1586

> <i_i_glide_rotatable_bonds>
5

> <r_i_docking_score>
-7.63853503547689

> <r_i_glide_ligand_efficiency>
-0.363739763594138

> <r_i_glide_ligand_efficiency_sa>
-1.0035304266726

> <r_i_glide_ligand_efficiency_ln>
-1.88861235240828

> <r_i_glide_gscore>
-7.63853503547689

> <r_i_glide_lipo>
-4.33004068221788

> <r_i_glide_hbond>
0

> <r_i_glide_metal>
0

> <r_i_glide_rewards>
-2.17501173591956

> <r_i_glide_evdw>
-31.2932682037354

> <r_i_glide_ecoul>
-1.05288088321686

> <r_i_glide_erotb>
0.589112925329841

> <r_i_glide_esite>
0

> <r_i_glide_emodel>
-37.4236068293502

> <r_i_glide_energy>
-32.3461490869522

> <r_i_glide_einternal>
8.17882347106934

> <i_i_glide_confnum>
3

> <i_i_glide_posenum>
216

> <r_i_glide_eff_state_penalty>
0

> <s_user_duplicate_titles>
CHEMBL2039_lig1365

> <s_m_subgroup_title>
dock_pv

> <s_m_subgroupid>
dock_pv

> <b_m_subgroup_collapsed>
1

$$$$
CHEMBL2039_lig1870
                    3D
 Schrodinger Suite 2021-1.
 36 38  0  0  1  0            999 V2000
   51.0957  158.6441   30.1037 C   0  0  0  0  0  0
   47.4475  160.8620   30.3612 C   0  0  0  0  0  0
   48.0554  160.6441   29.1226 C   0  0  0  0  0  0
   49.2181  159.9153   29.0202 C   0  0  0  0  0  0
   49.8085  159.4086   30.1599 C   0  0  0  0  0  0
   49.2136  159.6215   31.4085 C   0  0  0  0  0  0
   48.0367  160.3527   31.5115 C   0  0  0  0  0  0
   47.3358  160.6440   33.0557 Cl  0  0  0  0  0  0
   51.6786  158.2924   28.8508 N   0  0  0  0  0  0
   51.7547  156.9809   28.3680 C   0  0  0  0  0  0
   51.0350  155.8630   28.8255 C   0  0  0  0  0  0
   51.0795  154.6761   28.0996 C   0  0  0  0  0  0
   51.7529  154.6435   26.8700 C   0  0  0  0  0  0
   52.4561  155.7661   26.4289 C   0  0  0  0  0  0
   52.5121  156.8926   27.2184 C   0  0  0  0  0  0
   51.8825  153.4188   26.0908 C   0  0  0  0  0  0
   51.6559  152.2348   26.5043 N   0  0  0  0  0  0
   52.0612  151.1640   25.7525 N   0  0  0  0  0  0
   53.0582  151.1326   24.8523 C   0  0  0  0  0  0
   53.2566  152.5527   24.2687 C   0  0  0  0  0  0
   52.4076  153.5796   24.8226 O   0  0  0  0  0  0
   53.6559  150.1158   24.5043 O   0  0  0  0  0  0
   51.8532  159.1653   30.6911 H   0  0  0  0  0  0
   50.8425  157.6817   30.5036 H   0  0  0  0  0  0
   46.5375  161.4393   30.4280 H   0  0  0  0  0  0
   47.6561  161.0440   28.2088 H   0  0  0  0  0  0
   49.6619  159.7642   28.0548 H   0  0  0  0  0  0
   49.6562  159.2268   32.3092 H   0  0  0  0  0  0
   52.3638  158.9369   28.4758 H   0  0  0  0  0  0
   50.4138  155.8910   29.7041 H   0  0  0  0  0  0
   50.5515  153.8078   28.4664 H   0  0  0  0  0  0
   53.0388  155.7572   25.5182 H   0  0  0  0  0  0
   53.1138  157.7300   26.9065 H   0  0  0  0  0  0
   51.8355  150.2727   26.1718 H   0  0  0  0  0  0
   53.1719  152.5139   23.1823 H   0  0  0  0  0  0
   54.2804  152.8402   24.5039 H   0  0  0  0  0  0
  1  5  1  0  0  0
  1  9  1  0  0  0
  1 23  1  0  0  0
  1 24  1  0  0  0
  2  3  2  0  0  0
  2  7  1  0  0  0
  2 25  1  0  0  0
  3  4  1  0  0  0
  3 26  1  0  0  0
  4  5  2  0  0  0
  4 27  1  0  0  0
  5  6  1  0  0  0
  6  7  2  0  0  0
  6 28  1  0  0  0
  7  8  1  0  0  0
  9 10  1  0  0  0
  9 29  1  0  0  0
 10 11  2  0  0  0
 10 15  1  0  0  0
 11 12  1  0  0  0
 11 30  1  0  0  0
 12 13  2  0  0  0
 12 31  1  0  0  0
 13 14  1  0  0  0
 13 16  1  0  0  0
 14 15  2  0  0  0
 14 32  1  0  0  0
 15 33  1  0  0  0
 16 17  2  0  0  0
 16 21  1  0  0  0
 17 18  1  0  0  0
 18 19  1  0  0  0
 18 34  1  0  0  0
 19 20  1  0  0  0
 19 22  2  0  0  0
 20 21  1  0  0  0
 20 35  1  0  0  0
 20 36  1  0  0  0
M  END
> <s_m_entry_id>
10178

> <s_m_entry_name>
dock_pv.214

> <s_m_Source_Path>
/home/csk/Desktop/cluster/DUD-E-result/aofb

> <s_m_Source_File>
dock_pv.maegz

> <i_m_Source_File_Index>
214

> <chembl_id>
CHEMBL4071510

> <chembl_pref_name>
None

> <i_lp_mmshare_version>
53161

> <i_f3d_flags>
0

> <r_lp_tautomer_probability>
1

> <s_lp_Force_Field>
OPLS_2005

> <r_lp_Energy>
25.531119

> <b_lp_Chiralities_Consistent>
1

> <s_lp_Variant>
CHEMBL2039_lig1870-1

> <s_i_glide_gridfile>
glide-grid_1s3b

> <i_i_glide_lignum>
2205

> <i_i_glide_rotatable_bonds>
4

> <r_i_docking_score>
-7.63081873147019

> <r_i_glide_ligand_efficiency>
-0.346855396885009

> <r_i_glide_ligand_efficiency_sa>
-0.971902463120482

> <r_i_glide_ligand_efficiency_ln>
-1.86525043884746

> <r_i_glide_gscore>
-7.63081873147019

> <r_i_glide_lipo>
-3.9593519601976

> <r_i_glide_hbond>
-0.270934040178372

> <r_i_glide_metal>
0

> <r_i_glide_rewards>
-3.02810982068645

> <r_i_glide_evdw>
-8.78703689575195

> <r_i_glide_ecoul>
-4.53060054779053

> <r_i_glide_erotb>
0.746519016548405

> <r_i_glide_esite>
0

> <r_i_glide_emodel>
-29.860598930878

> <r_i_glide_energy>
-13.3176374435425

> <r_i_glide_einternal>
3.462406873703

> <i_i_glide_confnum>
2

> <i_i_glide_posenum>
202

> <r_i_glide_eff_state_penalty>
0

> <s_user_duplicate_titles>
CHEMBL2039_lig1870

> <s_m_subgroup_title>
dock_pv

> <s_m_subgroupid>
dock_pv

> <b_m_subgroup_collapsed>
1

$$$$
CHEMBL2039_lig1361
                    3D
 Schrodinger Suite 2021-1.
 32 34  0  0  1  0            999 V2000
   51.4007  156.0322   28.3476 C   0  0  0  0  0  0
   50.9860  154.7091   28.5048 C   0  0  0  0  0  0
   51.2600  153.7434   27.5343 C   0  0  0  0  0  0
   52.1750  156.3641   27.2177 C   0  0  0  0  0  0
   52.4558  155.4083   26.2407 C   0  0  0  0  0  0
   51.9764  154.0952   26.3915 C   0  0  0  0  0  0
   52.2940  153.0853   25.5034 O   0  0  0  0  0  0
   52.8613  153.5383   24.2687 C   0  0  0  0  0  0
   53.8687  154.6884   24.5041 C   0  0  0  0  0  0
   53.2052  155.7892   25.1440 O   0  0  0  0  0  0
   50.9459  156.9434   29.2912 O   0  0  0  0  0  0
   51.3121  158.3181   29.1651 C   0  0  0  0  0  0
   50.4583  159.1842   30.0821 C   0  0  0  0  0  0
   49.0878  158.9461   30.2465 C   0  0  0  0  0  0
   48.3304  159.7485   31.1010 C   0  0  0  0  0  0
   48.9401  160.7900   31.7950 C   0  0  0  0  0  0
   50.2986  161.0439   31.6115 C   0  0  0  0  0  0
   51.0564  160.2445   30.7608 C   0  0  0  0  0  0
   46.4636  159.4424   31.3042 Br  0  0  0  0  0  0
   50.4333  154.4343   29.3889 H   0  0  0  0  0  0
   50.9270  152.7263   27.6784 H   0  0  0  0  0  0
   52.5423  157.3663   27.0654 H   0  0  0  0  0  0
   53.3372  152.7015   23.7565 H   0  0  0  0  0  0
   52.0567  153.9070   23.6348 H   0  0  0  0  0  0
   54.6723  154.3239   25.1438 H   0  0  0  0  0  0
   54.3327  155.0176   23.5746 H   0  0  0  0  0  0
   51.1957  158.6993   28.1539 H   0  0  0  0  0  0
   52.3745  158.4336   29.3715 H   0  0  0  0  0  0
   48.6046  158.1393   29.7177 H   0  0  0  0  0  0
   48.3560  161.4170   32.4538 H   0  0  0  0  0  0
   50.7728  161.8762   32.1041 H   0  0  0  0  0  0
   52.1114  160.4474   30.6404 H   0  0  0  0  0  0
  1  2  2  0  0  0
  1  4  1  0  0  0
  1 11  1  0  0  0
  2  3  1  0  0  0
  2 20  1  0  0  0
  3  6  2  0  0  0
  3 21  1  0  0  0
  4  5  2  0  0  0
  4 22  1  0  0  0
  5  6  1  0  0  0
  5 10  1  0  0  0
  6  7  1  0  0  0
  7  8  1  0  0  0
  8  9  1  0  0  0
  8 23  1  0  0  0
  8 24  1  0  0  0
  9 10  1  0  0  0
  9 25  1  0  0  0
  9 26  1  0  0  0
 11 12  1  0  0  0
 12 13  1  0  0  0
 12 27  1  0  0  0
 12 28  1  0  0  0
 13 14  2  0  0  0
 13 18  1  0  0  0
 14 15  1  0  0  0
 14 29  1  0  0  0
 15 16  2  0  0  0
 15 19  1  0  0  0
 16 17  1  0  0  0
 16 30  1  0  0  0
 17 18  2  0  0  0
 17 31  1  0  0  0
 18 32  1  0  0  0
M  END
> <s_m_entry_id>
10179

> <s_m_entry_name>
dock_pv.215

> <s_m_Source_Path>
/home/csk/Desktop/cluster/DUD-E-result/aofb

> <s_m_Source_File>
dock_pv.maegz

> <i_m_Source_File_Index>
215

> <chembl_id>
CHEMBL3402197

> <chembl_pref_name>
None

> <i_lp_mmshare_version>
53161

> <i_f3d_flags>
0

> <r_lp_tautomer_probability>
1

> <s_lp_Force_Field>
OPLS_2005

> <r_lp_Energy>
19.344209

> <b_lp_Chiralities_Consistent>
1

> <s_lp_Variant>
CHEMBL2039_lig1361-1

> <s_i_glide_gridfile>
glide-grid_1s3b

> <i_i_glide_lignum>
1582

> <i_i_glide_rotatable_bonds>
3

> <r_i_docking_score>
-7.62977948324887

> <r_i_glide_ligand_efficiency>
-0.401567341223625

> <r_i_glide_ligand_efficiency_sa>
-1.07154295434231

> <r_i_glide_ligand_efficiency_ln>
-1.93431297164121

> <r_i_glide_gscore>
-7.62977948324887

> <r_i_glide_lipo>
-4.07645958608084

> <r_i_glide_hbond>
0

> <r_i_glide_metal>
0

> <r_i_glide_rewards>
-2.11931933971945

> <r_i_glide_evdw>
-32.078010559082

> <r_i_glide_ecoul>
-2.48987531661987

> <r_i_glide_erotb>
0.543381267998496

> <r_i_glide_esite>
0

> <r_i_glide_emodel>
-47.8030959565612

> <r_i_glide_energy>
-34.5678858757019

> <r_i_glide_einternal>
0.884782612323761

> <i_i_glide_confnum>
31

> <i_i_glide_posenum>
353

> <r_i_glide_eff_state_penalty>
0

> <s_user_duplicate_titles>
CHEMBL2039_lig1361

> <s_m_subgroup_title>
dock_pv

> <s_m_subgroupid>
dock_pv

> <b_m_subgroup_collapsed>
1

$$$$
CHEMBL2039_lig861
                    3D
 Schrodinger Suite 2021-1.
 39 41  0  0  1  0            999 V2000
   52.8667  153.3680   24.9523 N   0  0  0  0  0  0
   53.6167  154.4110   24.4298 C   0  0  0  0  0  0
   53.3508  155.6475   24.9815 N   0  0  0  0  0  0
   52.0560  153.3386   26.0704 C   0  0  0  0  0  0
   52.0557  154.6407   26.7114 C   0  0  0  0  0  0
   52.6641  155.7667   26.1893 C   0  0  0  0  0  0
   52.4561  156.8011   27.1218 C   0  0  0  0  0  0
   51.6560  156.3201   28.1649 C   0  0  0  0  0  0
   51.4973  154.9764   27.9223 N   0  0  0  0  0  0
   50.7430  154.0656   28.7195 C   0  0  0  0  0  0
   50.8913  156.9607   29.1684 N   0  0  0  0  0  0
   54.4560  154.2496   23.5350 O   0  0  0  0  0  0
   54.0327  156.8287   24.4327 C   0  0  0  0  0  0
   51.4736  152.3337   26.4848 O   0  0  0  0  0  0
   53.0401  152.0764   24.2514 C   0  0  0  0  0  0
   50.8566  158.2950   29.3677 C   0  0  0  0  0  0
   51.6905  159.0439   28.9040 O   0  0  0  0  0  0
   49.7991  158.8825   30.2728 C   0  0  0  0  0  0
   48.5723  158.2440   30.5040 C   0  0  0  0  0  0
   47.6510  158.8037   31.3857 C   0  0  0  0  0  0
   47.9548  159.9952   32.0400 C   0  0  0  0  0  0
   49.1526  160.6516   31.7970 C   0  0  0  0  0  0
   50.0628  160.1073   30.9046 C   0  0  0  0  0  0
   46.8560  160.6683   33.1773 Cl  0  0  0  0  0  0
   52.7952  157.8193   27.0215 H   0  0  0  0  0  0
   49.8663  153.8440   28.1041 H   0  0  0  0  0  0
   51.3247  153.1624   28.9042 H   0  0  0  0  0  0
   50.4556  154.5003   29.6752 H   0  0  0  0  0  0
   50.3146  156.3819   29.7567 H   0  0  0  0  0  0
   54.8570  156.5832   23.7613 H   0  0  0  0  0  0
   53.3253  157.4434   23.8755 H   0  0  0  0  0  0
   54.4560  157.4440   25.2239 H   0  0  0  0  0  0
   54.0563  151.7328   24.3740 H   0  0  0  0  0  0
   52.4323  151.2565   24.6270 H   0  0  0  0  0  0
   52.8558  152.1750   23.1805 H   0  0  0  0  0  0
   48.3279  157.3024   30.0374 H   0  0  0  0  0  0
   46.7144  158.3038   31.5783 H   0  0  0  0  0  0
   49.3864  161.5746   32.3075 H   0  0  0  0  0  0
   50.9973  160.6281   30.7435 H   0  0  0  0  0  0
  1  2  1  0  0  0
  1  4  1  0  0  0
  1 15  1  0  0  0
  2  3  1  0  0  0
  2 12  2  0  0  0
  3  6  1  0  0  0
  3 13  1  0  0  0
  4  5  1  0  0  0
  4 14  2  0  0  0
  5  6  2  0  0  0
  5  9  1  0  0  0
  6  7  1  0  0  0
  7  8  2  0  0  0
  7 25  1  0  0  0
  8  9  1  0  0  0
  8 11  1  0  0  0
  9 10  1  0  0  0
 10 26  1  0  0  0
 10 27  1  0  0  0
 10 28  1  0  0  0
 11 16  1  0  0  0
 11 29  1  0  0  0
 13 30  1  0  0  0
 13 31  1  0  0  0
 13 32  1  0  0  0
 15 33  1  0  0  0
 15 34  1  0  0  0
 15 35  1  0  0  0
 16 17  2  0  0  0
 16 18  1  0  0  0
 18 19  2  0  0  0
 18 23  1  0  0  0
 19 20  1  0  0  0
 19 36  1  0  0  0
 20 21  2  0  0  0
 20 37  1  0  0  0
 21 22  1  0  0  0
 21 24  1  0  0  0
 22 23  2  0  0  0
 22 38  1  0  0  0
 23 39  1  0  0  0
M  END
> <s_m_entry_id>
10181

> <s_m_entry_name>
dock_pv.217

> <s_m_Source_Path>
/home/csk/Desktop/cluster/DUD-E-result/aofb

> <s_m_Source_File>
dock_pv.maegz

> <i_m_Source_File_Index>
217

> <chembl_id>
CHEMBL2312980

> <chembl_pref_name>
None

> <i_lp_mmshare_version>
53161

> <i_f3d_flags>
0

> <r_lp_tautomer_probability>
1

> <s_lp_Force_Field>
OPLS_2005

> <r_lp_Energy>
45.771172

> <b_lp_Chiralities_Consistent>
1

> <s_lp_Variant>
CHEMBL2039_lig861-1

> <s_i_glide_gridfile>
glide-grid_1s3b

> <i_i_glide_lignum>
994

> <i_i_glide_rotatable_bonds>
3

> <r_i_docking_score>
-7.61551818477352

> <r_i_glide_ligand_efficiency>
-0.317313257698897

> <r_i_glide_ligand_efficiency_sa>
-0.915289818168541

> <r_i_glide_ligand_efficiency_ln>
-1.82274295497512

> <r_i_glide_gscore>
-7.61551818477352

> <r_i_glide_lipo>
-3.86872304421041

> <r_i_glide_hbond>
0

> <r_i_glide_metal>
0

> <r_i_glide_rewards>
-3.17417305466912

> <r_i_glide_evdw>
-24.7142295837402

> <r_i_glide_ecoul>
1.25777208805084

> <r_i_glide_erotb>
0.474423580085395

> <r_i_glide_esite>
0

> <r_i_glide_emodel>
-23.034912092309

> <r_i_glide_energy>
-23.4564574956894

> <r_i_glide_einternal>
3.6777663230896

> <i_i_glide_confnum>
1

> <i_i_glide_posenum>
195

> <r_i_glide_eff_state_penalty>
0

> <s_user_duplicate_titles>
CHEMBL2039_lig861

> <s_m_subgroup_title>
dock_pv

> <s_m_subgroupid>
dock_pv

> <b_m_subgroup_collapsed>
1

$$$$
CHEMBL2039_lig1446
                    3D
 Schrodinger Suite 2021-1.
 49 50  0  0  1  0            999 V2000
   52.5546  156.1781   26.1463 C   0  0  0  0  0  0
   51.8951  154.9535   26.1149 C   0  0  0  0  0  0
   51.2560  154.4774   27.2704 C   0  0  0  0  0  0
   51.1768  155.2642   28.4043 C   0  0  0  0  0  0
   51.7142  156.5383   28.3607 C   0  0  0  0  0  0
   52.5080  156.9450   27.2950 C   0  0  0  0  0  0
   51.2561  157.4438   29.3040 N   0  0  0  0  0  0
   51.3440  158.8617   29.0487 C   0  0  0  0  0  0
   50.6048  159.6290   30.1095 C   0  0  0  0  0  0
   51.8094  154.2135   24.7884 C   0  0  0  0  0  0
   52.9834  153.2493   24.4781 C   0  0  2  0  0  0
   52.8462  151.9051   25.0642 N   0  0  3  0  0  0
   54.3909  153.8879   24.5780 C   0  0  0  0  0  0
   52.0282  151.7061   26.2526 C   0  0  0  0  0  0
   53.8299  150.8971   24.7093 C   0  0  0  0  0  0
   53.3224  149.5141   24.7395 C   0  0  0  0  0  0
   52.8561  148.3907   24.8122 C   0  0  0  0  0  0
   51.2078  160.6902   30.7801 C   0  0  0  0  0  0
   50.4661  161.4126   31.7039 C   0  0  0  0  0  0
   49.1709  161.0439   32.0481 C   0  0  0  0  0  0
   48.5720  159.9609   31.4034 C   0  0  0  0  0  0
   49.2854  159.2867   30.4087 C   0  0  0  0  0  0
   52.5120  161.0450   30.5472 O   0  0  0  0  0  0
   47.2153  159.5204   31.7547 N   0  3  0  0  0  0
   46.8560  158.4412   31.3042 O   0  0  0  0  0  0
   46.5292  160.2308   32.4830 O   0  5  0  0  0  0
   53.0719  156.5542   25.2760 H   0  0  0  0  0  0
   50.6739  153.5757   27.2864 H   0  0  0  0  0  0
   50.5748  154.9368   29.2396 H   0  0  0  0  0  0
   53.0010  157.8999   27.3038 H   0  0  0  0  0  0
   50.4848  157.1350   29.8742 H   0  0  0  0  0  0
   52.3910  159.1487   28.9741 H   0  0  0  0  0  0
   50.8586  159.0715   28.1040 H   0  0  0  0  0  0
   51.7243  154.9476   23.9863 H   0  0  0  0  0  0
   50.8563  153.6914   24.7556 H   0  0  0  0  0  0
   52.8584  153.0499   23.4118 H   0  0  0  0  0  0
   54.7027  154.3045   23.6201 H   0  0  0  0  0  0
   54.4460  154.6922   25.3009 H   0  0  0  0  0  0
   55.1538  153.1913   24.9053 H   0  0  0  0  0  0
   51.0050  152.0312   26.1041 H   0  0  0  0  0  0
   51.9063  150.6573   26.5039 H   0  0  0  0  0  0
   52.4638  152.2442   27.0951 H   0  0  0  0  0  0
   54.7371  150.9888   25.3038 H   0  0  0  0  0  0
   54.0560  151.0847   23.6742 H   0  0  0  0  0  0
   52.3863  147.4440   24.9040 H   0  0  0  0  0  0
   50.8953  162.3092   32.1040 H   0  0  0  0  0  0
   48.6351  161.6172   32.7913 H   0  0  0  0  0  0
   48.8197  158.4720   29.8726 H   0  0  0  0  0  0
   53.0854  160.2727   30.5040 H   0  0  0  0  0  0
  1  2  2  0  0  0
  1  6  1  0  0  0
  1 27  1  0  0  0
  2  3  1  0  0  0
  2 10  1  0  0  0
  3  4  2  0  0  0
  3 28  1  0  0  0
  4  5  1  0  0  0
  4 29  1  0  0  0
  5  6  2  0  0  0
  5  7  1  0  0  0
  6 30  1  0  0  0
  7  8  1  0  0  0
  7 31  1  0  0  0
  8  9  1  0  0  0
  8 32  1  0  0  0
  8 33  1  0  0  0
  9 18  2  0  0  0
  9 22  1  0  0  0
 10 11  1  0  0  0
 10 34  1  0  0  0
 10 35  1  0  0  0
 11 12  1  0  0  0
 11 13  1  0  0  0
 11 36  1  0  0  0
 12 14  1  0  0  0
 12 15  1  0  0  0
 13 37  1  0  0  0
 13 38  1  0  0  0
 13 39  1  0  0  0
 14 40  1  0  0  0
 14 41  1  0  0  0
 14 42  1  0  0  0
 15 16  1  0  0  0
 15 43  1  0  0  0
 15 44  1  0  0  0
 16 17  3  0  0  0
 17 45  1  0  0  0
 18 19  1  0  0  0
 18 23  1  0  0  0
 19 20  2  0  0  0
 19 46  1  0  0  0
 20 21  1  0  0  0
 20 47  1  0  0  0
 21 22  2  0  0  0
 21 24  1  0  0  0
 22 48  1  0  0  0
 23 49  1  0  0  0
 24 25  2  0  0  0
 24 26  1  0  0  0
M  CHG  2  24   1  26  -1
M  END
> <s_m_entry_id>
10182

> <s_m_entry_name>
dock_pv.218

> <s_m_Source_Path>
/home/csk/Desktop/cluster/DUD-E-result/aofb

> <s_m_Source_File>
dock_pv.maegz

> <i_m_Source_File_Index>
218

> <chembl_id>
CHEMBL3585855

> <chembl_pref_name>
None

> <i_lp_mmshare_version>
53161

> <i_f3d_flags>
0

> <r_lp_tautomer_probability>
0.999999999997365

> <s_lp_Force_Field>
OPLS_2005

> <r_lp_Energy>
22.06975

> <b_lp_Chiralities_Consistent>
1

> <s_lp_Variant>
CHEMBL2039_lig1446-1

> <s_i_glide_gridfile>
glide-grid_1s3b

> <i_i_glide_lignum>
1670

> <i_i_glide_rotatable_bonds>
10

> <r_i_docking_score>
-7.60961076869677

> <r_i_glide_ligand_efficiency>
-0.292677337257568

> <r_i_glide_ligand_efficiency_sa>
-0.867055459995833

> <r_i_glide_ligand_efficiency_ln>
-1.78709211985893

> <r_i_glide_gscore>
-7.60961076869677

> <r_i_glide_lipo>
-4.59115368169509

> <r_i_glide_hbond>
-0.0946597027965638

> <r_i_glide_metal>
0

> <r_i_glide_rewards>
-2.11102326889976

> <r_i_glide_evdw>
-31.6917514801025

> <r_i_glide_ecoul>
-3.00882887840271

> <r_i_glide_erotb>
1.22313779046018

> <r_i_glide_esite>
0

> <r_i_glide_emodel>
-55.5147769115681

> <r_i_glide_energy>
-34.7005803585052

> <r_i_glide_einternal>
11.1242380142212

> <i_i_glide_confnum>
67

> <i_i_glide_posenum>
135

> <r_i_glide_eff_state_penalty>
0

> <s_user_duplicate_titles>
CHEMBL2039_lig1446

> <s_m_subgroup_title>
dock_pv

> <s_m_subgroupid>
dock_pv

> <b_m_subgroup_collapsed>
1

$$$$
CHEMBL2039_lig2648 
                    3D
 Schrodinger Suite 2021-1.
 33 35  0  0  1  0            999 V2000
   51.2903  153.8163   28.1874 C   0  0  0  0  0  0
   51.4444  155.1297   27.8997 C   0  0  0  0  0  0
   52.0560  155.5050   26.6020 C   0  0  0  0  0  0
   52.4176  154.3480   25.7342 C   0  0  0  0  0  0
   53.0504  154.5372   24.5040 C   0  0  0  0  0  0
   53.4515  153.4440   23.7437 C   0  0  0  0  0  0
   53.2560  152.1506   24.2218 C   0  0  0  0  0  0
   52.6449  151.9460   25.4534 C   0  0  0  0  0  0
   52.2119  153.0412   26.1896 C   0  0  0  0  0  0
   51.6351  152.7698   27.4046 O   0  0  0  0  0  0
   50.9072  156.0734   28.9040 C   0  0  0  0  0  0
   49.9787  155.7482   29.6406 O   0  0  0  0  0  0
   51.6560  157.7937   28.9040 S   0  0  0  0  0  0
   52.2903  156.6440   26.2066 O   0  0  0  0  0  0
   50.6170  158.8941   29.8559 C   0  0  0  0  0  0
   49.2643  158.6440   30.1175 C   0  0  0  0  0  0
   48.5510  159.4599   30.9884 C   0  0  0  0  0  0
   49.1830  160.5381   31.6020 C   0  0  0  0  0  0
   50.5163  160.8259   31.3040 C   0  0  0  0  0  0
   51.2257  160.0146   30.4234 C   0  0  0  0  0  0
   48.4307  161.3541   32.6361 C   0  0  0  0  0  0
   50.8560  153.4440   29.1059 H   0  0  0  0  0  0
   53.2551  155.5329   24.1393 H   0  0  0  0  0  0
   53.9445  153.5911   22.7949 H   0  0  0  0  0  0
   53.5791  151.3056   23.6345 H   0  0  0  0  0  0
   52.4875  150.9459   25.8287 H   0  0  0  0  0  0
   48.7443  157.8001   29.7040 H   0  0  0  0  0  0
   47.5189  159.2303   31.2108 H   0  0  0  0  0  0
   51.0159  161.6593   31.7756 H   0  0  0  0  0  0
   52.2711  160.2146   30.2371 H   0  0  0  0  0  0
   49.1220  161.8440   33.3210 H   0  0  0  0  0  0
   47.8033  160.7038   33.2472 H   0  0  0  0  0  0
   47.7849  162.0945   32.1644 H   0  0  0  0  0  0
  1  2  2  0  0  0
  1 10  1  0  0  0
  1 22  1  0  0  0
  2  3  1  0  0  0
  2 11  1  0  0  0
  3  4  1  0  0  0
  3 14  2  0  0  0
  4  5  1  0  0  0
  4  9  2  0  0  0
  5  6  2  0  0  0
  5 23  1  0  0  0
  6  7  1  0  0  0
  6 24  1  0  0  0
  7  8  2  0  0  0
  7 25  1  0  0  0
  8  9  1  0  0  0
  8 26  1  0  0  0
  9 10  1  0  0  0
 11 12  2  0  0  0
 11 13  1  0  0  0
 13 15  1  0  0  0
 15 16  1  0  0  0
 15 20  2  0  0  0
 16 17  2  0  0  0
 16 27  1  0  0  0
 17 18  1  0  0  0
 17 28  1  0  0  0
 18 19  2  0  0  0
 18 21  1  0  0  0
 19 20  1  0  0  0
 19 29  1  0  0  0
 20 30  1  0  0  0
 21 31  1  0  0  0
 21 32  1  0  0  0
 21 33  1  0  0  0
M  END
> <s_m_entry_id>
10183

> <s_m_entry_name>
dock_pv.219

> <s_m_Source_Path>
/home/csk/Desktop/cluster/DUD-E-result/aofb

> <s_m_Source_File>
dock_pv.maegz

> <i_m_Source_File_Index>
219

> <chembl_id>
CHEMBL4538163

> <chembl_pref_name>
None

> <i_lp_mmshare_version>
53161

> <i_f3d_flags>
0

> <r_lp_tautomer_probability>
1

> <s_lp_Force_Field>
OPLS_2005

> <r_lp_Energy>
16.594127

> <b_lp_Chiralities_Consistent>
1

> <s_lp_Variant>
CHEMBL2039_lig2648 -1

> <s_i_glide_gridfile>
glide-grid_1s3b

> <i_i_glide_lignum>
3067

> <i_i_glide_rotatable_bonds>
3

> <r_i_docking_score>
-7.60639461915803

> <r_i_glide_ligand_efficiency>
-0.362209267578954

> <r_i_glide_ligand_efficiency_sa>
-0.999307904218736

> <r_i_glide_ligand_efficiency_ln>
-1.88066569941927

> <r_i_glide_gscore>
-7.60639461915803

> <r_i_glide_lipo>
-4.15845208487225

> <r_i_glide_hbond>
-0.00888109199787928

> <r_i_glide_metal>
0

> <r_i_glide_rewards>
-2.65930113359831

> <r_i_glide_evdw>
-24.8475151062012

> <r_i_glide_ecoul>
-1.08780157566071

> <r_i_glide_erotb>
0.62578568296957

> <r_i_glide_esite>
0

> <r_i_glide_emodel>
-26.9895858745935

> <r_i_glide_energy>
-25.9353166818619

> <r_i_glide_einternal>
8.07924652099609

> <i_i_glide_confnum>
10

> <i_i_glide_posenum>
70

> <r_i_glide_eff_state_penalty>
0

> <s_user_duplicate_titles>
CHEMBL2039_lig2648 

> <s_m_subgroup_title>
dock_pv

> <s_m_subgroupid>
dock_pv

> <b_m_subgroup_collapsed>
1

$$$$
CHEMBL2039_lig2370 
                    3D
 Schrodinger Suite 2021-1.
 36 37  0  0  1  0            999 V2000
   52.0560  153.6191   26.5912 N   0  0  1  0  0  0
   52.0560  154.3397   25.3108 C   0  0  0  0  0  0
   52.8560  155.6343   25.4500 C   0  0  0  0  0  0
   52.2362  156.5069   26.5295 C   0  0  0  0  0  0
   52.0560  155.8176   27.9007 C   0  0  2  0  0  0
   51.5214  154.3606   27.7532 C   0  0  0  0  0  0
   51.5284  152.2657   26.5056 C   0  0  0  0  0  0
   52.4034  151.3806   25.7040 C   0  0  0  0  0  0
   53.0858  150.6269   25.0275 C   0  0  0  0  0  0
   51.1835  156.6303   28.8713 C   0  0  0  0  0  0
   51.2560  157.9682   29.0711 C   0  0  0  0  0  0
   50.3983  158.7952   29.9640 C   0  0  0  0  0  0
   49.1445  158.3451   30.4127 C   0  0  0  0  0  0
   48.3726  159.1055   31.2886 C   0  0  0  0  0  0
   48.8560  160.3229   31.7610 C   0  0  0  0  0  0
   50.1079  160.7724   31.3504 C   0  0  0  0  0  0
   50.8710  160.0254   30.4539 C   0  0  0  0  0  0
   48.1233  161.0618   32.6256 F   0  0  0  0  0  0
   52.0909  160.4931   30.1040 F   0  0  0  0  0  0
   47.1661  158.6468   31.6890 F   0  0  0  0  0  0
   52.5295  153.7405   24.5322 H   0  0  0  0  0  0
   51.0297  154.5142   24.9836 H   0  0  0  0  0  0
   53.9051  155.4251   25.6497 H   0  0  0  0  0  0
   52.8434  156.1732   24.5040 H   0  0  0  0  0  0
   52.7788  157.4440   26.6247 H   0  0  0  0  0  0
   51.2560  156.6765   26.1040 H   0  0  0  0  0  0
   53.0359  155.7093   28.3551 H   0  0  0  0  0  0
   50.4455  154.3758   27.6031 H   0  0  0  0  0  0
   51.7103  153.7976   28.6692 H   0  0  0  0  0  0
   50.5201  152.2842   26.1040 H   0  0  0  0  0  0
   51.4439  151.8440   27.5055 H   0  0  0  0  0  0
   53.6560  149.9334   24.4556 H   0  0  0  0  0  0
   50.4560  156.0587   29.4293 H   0  0  0  0  0  0
   52.0056  158.5169   28.5181 H   0  0  0  0  0  0
   48.7542  157.3885   30.1040 H   0  0  0  0  0  0
   50.4964  161.7022   31.7396 H   0  0  0  0  0  0
  1  2  1  0  0  0
  1  6  1  0  0  0
  1  7  1  0  0  0
  2  3  1  0  0  0
  2 21  1  0  0  0
  2 22  1  0  0  0
  3  4  1  0  0  0
  3 23  1  0  0  0
  3 24  1  0  0  0
  4  5  1  0  0  0
  4 25  1  0  0  0
  4 26  1  0  0  0
  5  6  1  0  0  0
  5 10  1  0  0  0
  5 27  1  0  0  0
  6 28  1  0  0  0
  6 29  1  0  0  0
  7  8  1  0  0  0
  7 30  1  0  0  0
  7 31  1  0  0  0
  8  9  3  0  0  0
  9 32  1  0  0  0
 10 11  2  0  0  0
 10 33  1  0  0  0
 11 12  1  0  0  0
 11 34  1  0  0  0
 12 13  2  0  0  0
 12 17  1  0  0  0
 13 14  1  0  0  0
 13 35  1  0  0  0
 14 15  2  0  0  0
 14 20  1  0  0  0
 15 16  1  0  0  0
 15 18  1  0  0  0
 16 17  2  0  0  0
 16 36  1  0  0  0
 17 19  1  0  0  0
M  END
> <s_m_entry_id>
10184

> <s_m_entry_name>
dock_pv.220

> <s_m_Source_Path>
/home/csk/Desktop/cluster/DUD-E-result/aofb

> <s_m_Source_File>
dock_pv.maegz

> <i_m_Source_File_Index>
220

> <chembl_id>
CHEMBL4592809

> <chembl_pref_name>
None

> <i_lp_mmshare_version>
53161

> <i_f3d_flags>
0

> <r_lp_tautomer_probability>
1

> <s_lp_Force_Field>
OPLS_2005

> <r_lp_Energy>
18.192998

> <b_lp_Chiralities_Consistent>
1

> <s_lp_Variant>
CHEMBL2039_lig2370 -1

> <s_i_glide_gridfile>
glide-grid_1s3b

> <i_i_glide_lignum>
2761

> <i_i_glide_rotatable_bonds>
4

> <r_i_docking_score>
-7.60277517959286

> <r_i_glide_ligand_efficiency>
-0.380138758979643

> <r_i_glide_ligand_efficiency_sa>
-1.03185534309448

> <r_i_glide_ligand_efficiency_ln>
-1.9027238711443

> <r_i_glide_gscore>
-7.60277517959286

> <r_i_glide_lipo>
-4.03584675740328

> <r_i_glide_hbond>
0

> <r_i_glide_metal>
0

> <r_i_glide_rewards>
-3.30630579832466

> <r_i_glide_evdw>
-27.402795791626

> <r_i_glide_ecoul>
1.2296861410141

> <r_i_glide_erotb>
0.925064244564275

> <r_i_glide_esite>
0

> <r_i_glide_emodel>
-30.5776672393617

> <r_i_glide_energy>
-26.1731096506119

> <r_i_glide_einternal>
3.33469462394714

> <i_i_glide_confnum>
12

> <i_i_glide_posenum>
185

> <r_i_glide_eff_state_penalty>
0

> <s_user_duplicate_titles>
CHEMBL2039_lig2370 

> <s_m_subgroup_title>
dock_pv

> <s_m_subgroupid>
dock_pv

> <b_m_subgroup_collapsed>
1

$$$$
CHEMBL2039_lig351
                    3D
 Schrodinger Suite 2021-1.
 30 32  0  0  1  0            999 V2000
   47.3296  159.9021   32.0921 C   0  0  0  0  0  0
   48.1278  160.9761   32.4706 C   0  0  0  0  0  0
   49.4331  161.0699   31.9954 C   0  0  0  0  0  0
   47.8417  158.8888   31.2920 C   0  0  0  0  0  0
   49.1462  158.9870   30.8261 C   0  0  0  0  0  0
   49.9373  160.1066   31.1198 C   0  0  0  0  0  0
   51.2839  160.2440   30.5011 C   0  0  0  0  0  0
   51.6559  159.0908   29.7040 C   0  0  0  0  0  0
   50.8815  157.9895   29.5839 C   0  0  0  0  0  0
   49.6265  157.9146   30.1040 O   0  0  0  0  0  0
   51.2560  156.7714   28.8013 C   0  0  0  0  0  0
   52.2048  156.8809   27.7705 C   0  0  0  0  0  0
   51.7532  154.6278   27.0535 C   0  0  0  0  0  0
   50.9099  154.4557   28.1439 C   0  0  0  0  0  0
   52.4072  155.8440   26.8679 C   0  0  0  0  0  0
   50.6318  155.5278   28.9897 C   0  0  0  0  0  0
   52.0018  161.2309   30.6465 O   0  0  0  0  0  0
   46.0532  159.8440   32.5040 F   0  0  0  0  0  0
   51.9820  153.4776   26.0910 C   0  0  0  0  0  0
   47.7257  161.7446   33.1134 H   0  0  0  0  0  0
   50.0393  161.9202   32.2818 H   0  0  0  0  0  0
   47.2345  158.0365   31.0338 H   0  0  0  0  0  0
   52.6484  159.0849   29.2875 H   0  0  0  0  0  0
   52.7202  157.8105   27.5827 H   0  0  0  0  0  0
   50.4560  153.4931   28.3102 H   0  0  0  0  0  0
   53.0927  155.9778   26.0440 H   0  0  0  0  0  0
   49.9109  155.3924   29.7806 H   0  0  0  0  0  0
   52.6062  153.7653   25.2440 H   0  0  0  0  0  0
   51.0270  153.1219   25.7040 H   0  0  0  0  0  0
   52.4585  152.6441   26.6072 H   0  0  0  0  0  0
  1  2  2  0  0  0
  1  4  1  0  0  0
  1 18  1  0  0  0
  2  3  1  0  0  0
  2 20  1  0  0  0
  3  6  2  0  0  0
  3 21  1  0  0  0
  4  5  2  0  0  0
  4 22  1  0  0  0
  5  6  1  0  0  0
  5 10  1  0  0  0
  6  7  1  0  0  0
  7  8  1  0  0  0
  7 17  2  0  0  0
  8  9  2  0  0  0
  8 23  1  0  0  0
  9 10  1  0  0  0
  9 11  1  0  0  0
 11 12  2  0  0  0
 11 16  1  0  0  0
 12 15  1  0  0  0
 12 24  1  0  0  0
 13 14  1  0  0  0
 13 15  2  0  0  0
 13 19  1  0  0  0
 14 16  2  0  0  0
 14 25  1  0  0  0
 15 26  1  0  0  0
 16 27  1  0  0  0
 19 28  1  0  0  0
 19 29  1  0  0  0
 19 30  1  0  0  0
M  END
> <s_m_entry_id>
10185

> <s_m_entry_name>
dock_pv.221

> <s_m_Source_Path>
/home/csk/Desktop/cluster/DUD-E-result/aofb

> <s_m_Source_File>
dock_pv.maegz

> <i_m_Source_File_Index>
221

> <chembl_id>
CHEMBL599148

> <chembl_pref_name>
None

> <i_lp_mmshare_version>
53161

> <i_f3d_flags>
0

> <r_lp_tautomer_probability>
1

> <s_lp_Force_Field>
OPLS_2005

> <r_lp_Energy>
12.161752

> <b_lp_Chiralities_Consistent>
1

> <s_lp_Variant>
CHEMBL2039_lig351-1

> <s_i_glide_gridfile>
glide-grid_1s3b

> <i_i_glide_lignum>
403

> <i_i_glide_rotatable_bonds>
1

> <r_i_docking_score>
-7.60057139374021

> <r_i_glide_ligand_efficiency>
-0.400030073354748

> <r_i_glide_ligand_efficiency_sa>
-1.0674409062305

> <r_i_glide_ligand_efficiency_ln>
-1.92690809361853

> <r_i_glide_gscore>
-7.60057139374021

> <r_i_glide_lipo>
-3.90868457881973

> <r_i_glide_hbond>
0

> <r_i_glide_metal>
0

> <r_i_glide_rewards>
-2.73891880015138

> <r_i_glide_evdw>
-21.3296337127686

> <r_i_glide_ecoul>
-1.05661523342133

> <r_i_glide_erotb>
0.272005955882521

> <r_i_glide_esite>
0

> <r_i_glide_emodel>
-26.3044979214799

> <r_i_glide_energy>
-22.3862489461899

> <r_i_glide_einternal>
0.834468305110931

> <i_i_glide_confnum>
1

> <i_i_glide_posenum>
113

> <r_i_glide_eff_state_penalty>
0

> <s_user_duplicate_titles>
CHEMBL2039_lig351

> <s_m_subgroup_title>
dock_pv

> <s_m_subgroupid>
dock_pv

> <b_m_subgroup_collapsed>
1

$$$$
CHEMBL2039_lig575
                    3D
 Schrodinger Suite 2021-1.
 36 38  0  0  1  0            999 V2000
   50.7796  158.2812   29.6869 C   0  0  0  0  0  0
   51.4803  159.4440   30.0640 C   0  0  0  0  0  0
   50.8789  160.3901   30.9051 C   0  0  0  0  0  0
   49.4578  158.1227   30.1040 C   0  0  0  0  0  0
   48.8434  159.1127   30.8395 C   0  0  0  0  0  0
   49.5483  160.1870   31.2767 C   0  0  0  0  0  0
   48.6450  160.9192   32.1832 C   0  0  0  0  0  0
   47.4380  160.3446   32.0669 N   0  0  0  0  0  0
   47.4337  159.2876   31.2462 C   0  0  0  0  0  0
   46.4560  158.6440   30.9040 O   0  0  0  0  0  0
   48.9165  161.8440   32.9125 O   0  0  0  0  0  0
   51.2560  157.2500   28.9040 O   0  0  0  0  0  0
   52.5557  157.2568   28.3432 C   0  0  0  0  0  0
   52.4890  156.4489   27.0417 C   0  0  0  0  0  0
   51.9161  155.0252   27.2348 C   0  0  0  0  0  0
   52.1876  154.0377   26.1040 C   0  0  0  0  0  0
   52.0849  152.6744   26.3895 C   0  0  0  0  0  0
   52.6441  151.7439   25.5193 C   0  0  0  0  0  0
   53.2496  152.1712   24.3423 C   0  0  0  0  0  0
   53.2560  153.5177   23.9994 C   0  0  0  0  0  0
   52.7237  154.4537   24.8790 C   0  0  0  0  0  0
   52.5038  159.5925   29.7609 H   0  0  0  0  0  0
   51.4394  161.2455   31.2564 H   0  0  0  0  0  0
   48.9151  157.2350   29.8174 H   0  0  0  0  0  0
   46.6154  160.6790   32.5419 H   0  0  0  0  0  0
   53.2560  156.7929   29.0364 H   0  0  0  0  0  0
   52.9307  158.2440   28.1108 H   0  0  0  0  0  0
   53.5001  156.3937   26.6440 H   0  0  0  0  0  0
   51.9100  156.9868   26.2920 H   0  0  0  0  0  0
   50.8560  155.0589   27.4520 H   0  0  0  0  0  0
   52.3790  154.6059   28.1310 H   0  0  0  0  0  0
   51.6569  152.3418   27.3245 H   0  0  0  0  0  0
   52.6038  150.6892   25.7481 H   0  0  0  0  0  0
   53.6560  151.4439   23.6590 H   0  0  0  0  0  0
   53.7005  153.8342   23.0676 H   0  0  0  0  0  0
   52.7983  155.4996   24.6250 H   0  0  0  0  0  0
  1 12  1  0  0  0
  1  2  2  0  0  0
  1  4  1  0  0  0
  2  3  1  0  0  0
  2 22  1  0  0  0
  3  6  2  0  0  0
  3 23  1  0  0  0
  4  5  2  0  0  0
  4 24  1  0  0  0
  5  6  1  0  0  0
  5  9  1  0  0  0
  6  7  1  0  0  0
  7 11  2  0  0  0
  7  8  1  0  0  0
  8  9  1  0  0  0
  8 25  1  0  0  0
  9 10  2  0  0  0
 12 13  1  0  0  0
 13 14  1  0  0  0
 13 26  1  0  0  0
 13 27  1  0  0  0
 14 15  1  0  0  0
 14 28  1  0  0  0
 14 29  1  0  0  0
 15 16  1  0  0  0
 15 30  1  0  0  0
 15 31  1  0  0  0
 16 17  2  0  0  0
 16 21  1  0  0  0
 17 18  1  0  0  0
 17 32  1  0  0  0
 18 19  2  0  0  0
 18 33  1  0  0  0
 19 20  1  0  0  0
 19 34  1  0  0  0
 20 21  2  0  0  0
 20 35  1  0  0  0
 21 36  1  0  0  0
M  END
> <s_m_entry_id>
10186

> <s_m_entry_name>
dock_pv.222

> <s_m_Source_Path>
/home/csk/Desktop/cluster/DUD-E-result/aofb

> <s_m_Source_File>
dock_pv.maegz

> <i_m_Source_File_Index>
222

> <chembl_id>
CHEMBL1813520

> <chembl_pref_name>
None

> <i_lp_mmshare_version>
53161

> <i_f3d_flags>
0

> <r_lp_tautomer_probability>
1

> <s_lp_Force_Field>
OPLS_2005

> <r_lp_Energy>
36.463849

> <b_lp_Chiralities_Consistent>
1

> <s_lp_Variant>
CHEMBL2039_lig575-1

> <s_i_glide_gridfile>
glide-grid_1s3b

> <i_i_glide_lignum>
679

> <i_i_glide_rotatable_bonds>
5

> <r_i_docking_score>
-7.59916006133041

> <r_i_glide_ligand_efficiency>
-0.361864764825258

> <r_i_glide_ligand_efficiency_sa>
-0.998357447243698

> <r_i_glide_ligand_efficiency_ln>
-1.87887696961519

> <r_i_glide_gscore>
-7.59916006133041

> <r_i_glide_lipo>
-3.35533202156699

> <r_i_glide_hbond>
0

> <r_i_glide_metal>
0

> <r_i_glide_rewards>
-3.26573192271063

> <r_i_glide_evdw>
-28.0448417663574

> <r_i_glide_ecoul>
-1.74054551124573

> <r_i_glide_erotb>
0.685227797951938

> <r_i_glide_esite>
0

> <r_i_glide_emodel>
-29.1035686006215

> <r_i_glide_energy>
-29.7853872776031

> <r_i_glide_einternal>
6.18431377410889

> <i_i_glide_confnum>
7

> <i_i_glide_posenum>
60

> <r_i_glide_eff_state_penalty>
0

> <s_user_duplicate_titles>
CHEMBL2039_lig575

> <s_m_subgroup_title>
dock_pv

> <s_m_subgroupid>
dock_pv

> <b_m_subgroup_collapsed>
1

$$$$
CHEMBL2039_lig1928
                    3D
 Schrodinger Suite 2021-1.
 34 36  0  0  1  0            999 V2000
   52.8560  151.6050   24.9504 C   0  0  0  0  0  0
   53.2560  152.4717   23.9370 C   0  0  0  0  0  0
   53.1606  153.8440   24.1045 C   0  0  0  0  0  0
   52.1966  152.1220   26.0711 C   0  0  0  0  0  0
   52.0895  153.5037   26.2572 C   0  0  0  0  0  0
   52.5966  154.3535   25.2664 C   0  0  0  0  0  0
   52.6170  155.7187   25.4079 O   0  0  0  0  0  0
   52.1533  156.2326   26.5678 C   0  0  0  0  0  0
   51.6560  155.5410   27.6259 C   0  0  0  0  0  0
   51.6117  154.0652   27.5501 C   0  0  0  0  0  0
   51.0437  156.2440   28.7401 C   0  0  0  0  0  0
   51.4650  157.5234   28.9397 N   0  0  0  0  0  0
   50.0968  155.7465   29.3442 O   0  0  0  0  0  0
   50.8560  158.5522   29.7040 C   0  0  0  0  0  0
   49.5143  158.5437   30.1228 C   0  0  0  0  0  0
   49.0090  159.5859   30.8962 C   0  0  0  0  0  0
   49.8386  160.6440   31.2540 C   0  0  0  0  0  0
   51.1604  160.6811   30.8214 C   0  0  0  0  0  0
   51.6560  159.6506   30.0298 C   0  0  0  0  0  0
   53.0829  150.1113   24.7934 C   0  0  0  0  0  0
   51.2560  153.3096   28.4523 O   0  0  0  0  0  0
   53.6726  152.0835   23.0225 H   0  0  0  0  0  0
   53.5676  154.4992   23.3552 H   0  0  0  0  0  0
   51.7927  151.4443   26.8108 H   0  0  0  0  0  0
   52.1796  157.3114   26.5040 H   0  0  0  0  0  0
   52.3679  157.7611   28.5599 H   0  0  0  0  0  0
   48.8468  157.7293   29.8952 H   0  0  0  0  0  0
   47.9824  159.5637   31.2311 H   0  0  0  0  0  0
   49.4561  161.4438   31.8711 H   0  0  0  0  0  0
   51.7991  161.5055   31.1043 H   0  0  0  0  0  0
   52.6853  159.6875   29.7040 H   0  0  0  0  0  0
   52.4560  149.5273   25.4686 H   0  0  0  0  0  0
   52.8560  149.7916   23.7771 H   0  0  0  0  0  0
   54.1296  149.8661   24.9622 H   0  0  0  0  0  0
  1  2  2  0  0  0
  1  4  1  0  0  0
  1 20  1  0  0  0
  2  3  1  0  0  0
  2 22  1  0  0  0
  3  6  2  0  0  0
  3 23  1  0  0  0
  4  5  2  0  0  0
  4 24  1  0  0  0
  5  6  1  0  0  0
  5 10  1  0  0  0
  6  7  1  0  0  0
  7  8  1  0  0  0
  8  9  2  0  0  0
  8 25  1  0  0  0
  9 10  1  0  0  0
  9 11  1  0  0  0
 10 21  2  0  0  0
 11 12  1  0  0  0
 11 13  2  0  0  0
 12 14  1  0  0  0
 12 26  1  0  0  0
 14 15  2  0  0  0
 14 19  1  0  0  0
 15 16  1  0  0  0
 15 27  1  0  0  0
 16 17  2  0  0  0
 16 28  1  0  0  0
 17 18  1  0  0  0
 17 29  1  0  0  0
 18 19  2  0  0  0
 18 30  1  0  0  0
 19 31  1  0  0  0
 20 32  1  0  0  0
 20 33  1  0  0  0
 20 34  1  0  0  0
M  END
> <s_m_entry_id>
10187

> <s_m_entry_name>
dock_pv.223

> <s_m_Source_Path>
/home/csk/Desktop/cluster/DUD-E-result/aofb

> <s_m_Source_File>
dock_pv.maegz

> <i_m_Source_File_Index>
223

> <chembl_id>
CHEMBL4073128

> <chembl_pref_name>
None

> <i_lp_mmshare_version>
53161

> <i_f3d_flags>
0

> <r_lp_tautomer_probability>
1

> <s_lp_Force_Field>
OPLS_2005

> <r_lp_Energy>
25.072034

> <b_lp_Chiralities_Consistent>
1

> <s_lp_Variant>
CHEMBL2039_lig1928-1

> <s_i_glide_gridfile>
glide-grid_1s3b

> <i_i_glide_lignum>
2263

> <i_i_glide_rotatable_bonds>
3

> <r_i_docking_score>
-7.59466793037272

> <r_i_glide_ligand_efficiency>
-0.361650853827273

> <r_i_glide_ligand_efficiency_sa>
-0.997767283020362

> <r_i_glide_ligand_efficiency_ln>
-1.8777662993131

> <r_i_glide_gscore>
-7.59466793037272

> <r_i_glide_lipo>
-4.09670947063741

> <r_i_glide_hbond>
0

> <r_i_glide_metal>
0

> <r_i_glide_rewards>
-2.74054241350656

> <r_i_glide_evdw>
-23.0092296600342

> <r_i_glide_ecoul>
-2.00530958175659

> <r_i_glide_erotb>
0.693841874036436

> <r_i_glide_esite>
0

> <r_i_glide_emodel>
-29.733936057324

> <r_i_glide_energy>
-25.0145392417908

> <r_i_glide_einternal>
3.40497088432312

> <i_i_glide_confnum>
7

> <i_i_glide_posenum>
323

> <r_i_glide_eff_state_penalty>
0

> <s_user_duplicate_titles>
CHEMBL2039_lig1928

> <s_m_subgroup_title>
dock_pv

> <s_m_subgroupid>
dock_pv

> <b_m_subgroup_collapsed>
1

$$$$
CHEMBL2039_lig91
                    3D
 Schrodinger Suite 2021-1.
 31 33  0  0  1  0            999 V2000
   52.2904  156.2314   26.5377 C   0  0  0  0  0  0
   51.7491  155.5432   27.5755 C   0  0  0  0  0  0
   51.6560  154.0700   27.4889 C   0  0  0  0  0  0
   52.1524  153.5054   26.2098 C   0  0  0  0  0  0
   52.2260  152.1229   26.0270 C   0  0  0  0  0  0
   52.8560  151.5947   24.9040 C   0  0  0  0  0  0
   53.2560  152.4480   23.8824 C   0  0  0  0  0  0
   53.2308  153.8237   24.0641 C   0  0  0  0  0  0
   52.6908  154.3471   25.2290 C   0  0  0  0  0  0
   52.7563  155.7109   25.3809 O   0  0  0  0  0  0
   51.1431  156.2440   28.6887 C   0  0  0  0  0  0
   50.2084  155.7367   29.3040 O   0  0  0  0  0  0
   51.5445  157.5280   28.9040 N   0  0  0  0  0  0
   51.2560  153.3152   28.3737 O   0  0  0  0  0  0
   50.9026  158.5333   29.6820 C   0  0  0  0  0  0
   49.5609  158.4883   30.1040 C   0  0  0  0  0  0
   49.0078  159.5247   30.8570 C   0  0  0  0  0  0
   49.7927  160.6164   31.2198 C   0  0  0  0  0  0
   51.1200  160.6815   30.8034 C   0  0  0  0  0  0
   51.6560  159.6617   30.0190 C   0  0  0  0  0  0
   47.1817  159.4440   31.3896 Br  0  0  0  0  0  0
   52.3598  157.3090   26.4971 H   0  0  0  0  0  0
   51.8015  151.4450   26.7548 H   0  0  0  0  0  0
   52.9189  150.5241   24.7728 H   0  0  0  0  0  0
   53.6560  152.0423   22.9671 H   0  0  0  0  0  0
   53.6559  154.4684   23.3141 H   0  0  0  0  0  0
   52.4436  157.7892   28.5305 H   0  0  0  0  0  0
   48.9216  157.6540   29.8743 H   0  0  0  0  0  0
   49.3754  161.4116   31.8200 H   0  0  0  0  0  0
   51.7321  161.5251   31.0877 H   0  0  0  0  0  0
   52.6871  159.7322   29.7040 H   0  0  0  0  0  0
  1  2  2  0  0  0
  1 10  1  0  0  0
  1 22  1  0  0  0
  2  3  1  0  0  0
  2 11  1  0  0  0
  3  4  1  0  0  0
  3 14  2  0  0  0
  4  5  1  0  0  0
  4  9  2  0  0  0
  5  6  2  0  0  0
  5 23  1  0  0  0
  6  7  1  0  0  0
  6 24  1  0  0  0
  7  8  2  0  0  0
  7 25  1  0  0  0
  8  9  1  0  0  0
  8 26  1  0  0  0
  9 10  1  0  0  0
 11 12  2  0  0  0
 11 13  1  0  0  0
 13 15  1  0  0  0
 13 27  1  0  0  0
 15 16  1  0  0  0
 15 20  2  0  0  0
 16 17  2  0  0  0
 16 28  1  0  0  0
 17 18  1  0  0  0
 17 21  1  0  0  0
 18 19  2  0  0  0
 18 29  1  0  0  0
 19 20  1  0  0  0
 19 30  1  0  0  0
 20 31  1  0  0  0
M  END
> <s_m_entry_id>
10188

> <s_m_entry_name>
dock_pv.224

> <s_m_Source_Path>
/home/csk/Desktop/cluster/DUD-E-result/aofb

> <s_m_Source_File>
dock_pv.maegz

> <i_m_Source_File_Index>
224

> <chembl_id>
CHEMBL4204513

> <chembl_pref_name>
None

> <i_lp_mmshare_version>
53161

> <i_f3d_flags>
0

> <r_lp_tautomer_probability>
1

> <s_lp_Force_Field>
OPLS_2005

> <r_lp_Energy>
24.784072

> <b_lp_Chiralities_Consistent>
1

> <s_lp_Variant>
CHEMBL2039_lig91-1

> <s_i_glide_gridfile>
glide-grid_1s3b

> <i_i_glide_lignum>
114

> <i_i_glide_rotatable_bonds>
3

> <r_i_docking_score>
-7.58134882198087

> <r_i_glide_ligand_efficiency>
-0.361016610570518

> <r_i_glide_ligand_efficiency_sa>
-0.99601745396737

> <r_i_glide_ligand_efficiency_ln>
-1.87447317667701

> <r_i_glide_gscore>
-7.58134882198087

> <r_i_glide_lipo>
-3.98820273561004

> <r_i_glide_hbond>
0

> <r_i_glide_metal>
0

> <r_i_glide_rewards>
-2.28271606347957

> <r_i_glide_evdw>
-27.219762802124

> <r_i_glide_ecoul>
-2.86845755577087

> <r_i_glide_erotb>
0.480826750580569

> <r_i_glide_esite>
0

> <r_i_glide_emodel>
-37.2386984645829

> <r_i_glide_energy>
-30.0882203578949

> <r_i_glide_einternal>
3.65306973457336

> <i_i_glide_confnum>
7

> <i_i_glide_posenum>
171

> <r_i_glide_eff_state_penalty>
0

> <s_user_duplicate_titles>
CHEMBL2039_lig91

> <s_m_subgroup_title>
dock_pv

> <s_m_subgroupid>
dock_pv

> <b_m_subgroup_collapsed>
1

$$$$
CHEMBL2039_lig976
                    3D
 Schrodinger Suite 2021-1.
 34 36  0  0  1  0            999 V2000
   50.8048  158.7506   29.7017 C   0  0  0  0  0  0
   51.6531  159.7973   30.1091 C   0  0  0  0  0  0
   51.2194  160.7264   31.0647 C   0  0  0  0  0  0
   49.4827  158.7418   30.1564 C   0  0  0  0  0  0
   49.0596  159.6734   31.0998 C   0  0  0  0  0  0
   49.9222  160.6369   31.5776 C   0  0  0  0  0  0
   49.1997  161.3751   32.6651 C   0  0  0  0  0  0
   47.8912  160.8250   32.6801 O   0  0  0  0  0  0
   47.7604  159.8241   31.7811 C   0  0  0  0  0  0
   46.7162  159.1949   31.6311 O   0  0  0  0  0  0
   51.1571  157.6784   28.9041 O   0  0  0  0  0  0
   52.4916  157.3889   28.5044 C   0  0  0  0  0  0
   52.4648  156.7470   27.1080 C   0  0  0  0  0  0
   51.6925  155.5397   27.0690 O   0  0  0  0  0  0
   52.0611  154.5844   26.1401 C   0  0  0  0  0  0
   51.8935  153.2460   26.4990 C   0  0  0  0  0  0
   52.4501  152.2372   25.7130 C   0  0  0  0  0  0
   53.1301  152.5615   24.5438 C   0  0  0  0  0  0
   53.2384  153.8848   24.1359 C   0  0  0  0  0  0
   52.6976  154.8964   24.9262 C   0  0  0  0  0  0
   52.6769  159.8454   29.7759 H   0  0  0  0  0  0
   51.9069  161.4756   31.4309 H   0  0  0  0  0  0
   48.8124  157.9585   29.8397 H   0  0  0  0  0  0
   49.6576  161.2337   33.6436 H   0  0  0  0  0  0
   49.1374  162.4395   32.4992 H   0  0  0  0  0  0
   52.9258  156.6867   29.2150 H   0  0  0  0  0  0
   53.1566  158.2443   28.4821 H   0  0  0  0  0  0
   53.5011  156.5816   26.8151 H   0  0  0  0  0  0
   52.0560  157.4435   26.3835 H   0  0  0  0  0  0
   51.4016  152.9957   27.4279 H   0  0  0  0  0  0
   52.3513  151.2046   26.0137 H   0  0  0  0  0  0
   53.5589  151.7790   23.9347 H   0  0  0  0  0  0
   53.7599  154.1241   23.2225 H   0  0  0  0  0  0
   52.8218  155.9220   24.6165 H   0  0  0  0  0  0
  1  2  2  0  0  0
  1  4  1  0  0  0
  1 11  1  0  0  0
  2  3  1  0  0  0
  2 21  1  0  0  0
  3  6  2  0  0  0
  3 22  1  0  0  0
  4  5  2  0  0  0
  4 23  1  0  0  0
  5  6  1  0  0  0
  5  9  1  0  0  0
  6  7  1  0  0  0
  7  8  1  0  0  0
  7 24  1  0  0  0
  7 25  1  0  0  0
  8  9  1  0  0  0
  9 10  2  0  0  0
 11 12  1  0  0  0
 12 13  1  0  0  0
 12 26  1  0  0  0
 12 27  1  0  0  0
 13 14  1  0  0  0
 13 28  1  0  0  0
 13 29  1  0  0  0
 14 15  1  0  0  0
 15 16  2  0  0  0
 15 20  1  0  0  0
 16 17  1  0  0  0
 16 30  1  0  0  0
 17 18  2  0  0  0
 17 31  1  0  0  0
 18 19  1  0  0  0
 18 32  1  0  0  0
 19 20  2  0  0  0
 19 33  1  0  0  0
 20 34  1  0  0  0
M  END
> <s_m_entry_id>
10189

> <s_m_entry_name>
dock_pv.225

> <s_m_Source_Path>
/home/csk/Desktop/cluster/DUD-E-result/aofb

> <s_m_Source_File>
dock_pv.maegz

> <i_m_Source_File_Index>
225

> <chembl_id>
CHEMBL2391877

> <chembl_pref_name>
None

> <i_lp_mmshare_version>
53161

> <i_f3d_flags>
0

> <r_lp_tautomer_probability>
1

> <s_lp_Force_Field>
OPLS_2005

> <r_lp_Energy>
31.715691

> <b_lp_Chiralities_Consistent>
1

> <s_lp_Variant>
CHEMBL2039_lig976-1

> <s_i_glide_gridfile>
glide-grid_1s3b

> <i_i_glide_lignum>
1123

> <i_i_glide_rotatable_bonds>
5

> <r_i_docking_score>
-7.58124193904569

> <r_i_glide_ligand_efficiency>
-0.379062096952285

> <r_i_glide_ligand_efficiency_sa>
-1.02893283272322

> <r_i_glide_ligand_efficiency_ln>
-1.89733481124915

> <r_i_glide_gscore>
-7.58124193904569

> <r_i_glide_lipo>
-3.47728488519482

> <r_i_glide_hbond>
0

> <r_i_glide_metal>
0

> <r_i_glide_rewards>
-2.76177780539943

> <r_i_glide_evdw>
-35.4269180297852

> <r_i_glide_ecoul>
-2.03500866889954

> <r_i_glide_erotb>
0.734417953372747

> <r_i_glide_esite>
0

> <r_i_glide_emodel>
-49.0974216122088

> <r_i_glide_energy>
-37.4619266986847

> <r_i_glide_einternal>
6.23741817474365

> <i_i_glide_confnum>
2

> <i_i_glide_posenum>
138

> <r_i_glide_eff_state_penalty>
0

> <s_user_duplicate_titles>
CHEMBL2039_lig976

> <s_m_subgroup_title>
dock_pv

> <s_m_subgroupid>
dock_pv

> <b_m_subgroup_collapsed>
1

$$$$
CHEMBL2039_lig1041
                    3D
 Schrodinger Suite 2021-1.
 28 29  0  0  1  0            999 V2000
   50.6201  158.6440   29.7040 C   0  0  0  0  0  0
   49.2974  158.5608   30.1697 C   0  0  0  0  0  0
   48.7782  159.5114   31.0466 C   0  0  0  0  0  0
   49.5848  160.5605   31.4841 C   0  0  0  0  0  0
   50.8877  160.6792   31.0022 C   0  0  0  0  0  0
   51.3941  159.7401   30.1040 C   0  0  0  0  0  0
   51.2560  157.5625   28.9140 C   0  0  0  0  0  0
   50.8560  156.2688   28.9040 C   0  0  0  0  0  0
   51.4036  155.1607   28.1040 C   0  0  0  0  0  0
   51.2560  154.0124   28.5169 O   0  0  0  0  0  0
   52.0560  155.3661   26.8006 C   0  0  0  0  0  0
   52.1629  154.2677   25.9975 O   0  0  0  0  0  0
   52.8956  154.6061   24.9040 C   0  0  0  0  0  0
   53.1902  155.9565   24.9562 C   0  0  0  0  0  0
   52.6602  156.4373   26.1529 C   0  0  0  0  0  0
   53.2560  153.4929   23.9524 C   0  0  0  0  0  0
   46.9869  159.3344   31.6737 Br  0  0  0  0  0  0
   49.1181  161.4440   32.3956 F   0  0  0  0  0  0
   48.6664  157.7281   29.9022 H   0  0  0  0  0  0
   51.5154  161.4857   31.3530 H   0  0  0  0  0  0
   52.4232  159.8235   29.7837 H   0  0  0  0  0  0
   52.0943  157.8870   28.3256 H   0  0  0  0  0  0
   50.0369  155.9679   29.5395 H   0  0  0  0  0  0
   53.7660  156.5195   24.2370 H   0  0  0  0  0  0
   52.7681  157.4440   26.5040 H   0  0  0  0  0  0
   54.1240  153.7564   23.3487 H   0  0  0  0  0  0
   52.4560  153.2624   23.2559 H   0  0  0  0  0  0
   53.5068  152.5734   24.4815 H   0  0  0  0  0  0
  1  2  2  0  0  0
  1  6  1  0  0  0
  1  7  1  0  0  0
  2  3  1  0  0  0
  2 19  1  0  0  0
  3  4  2  0  0  0
  3 17  1  0  0  0
  4  5  1  0  0  0
  4 18  1  0  0  0
  5  6  2  0  0  0
  5 20  1  0  0  0
  6 21  1  0  0  0
  7  8  2  0  0  0
  7 22  1  0  0  0
  8  9  1  0  0  0
  8 23  1  0  0  0
  9 10  2  0  0  0
  9 11  1  0  0  0
 11 12  1  0  0  0
 11 15  2  0  0  0
 12 13  1  0  0  0
 13 14  2  0  0  0
 13 16  1  0  0  0
 14 15  1  0  0  0
 14 24  1  0  0  0
 15 25  1  0  0  0
 16 26  1  0  0  0
 16 27  1  0  0  0
 16 28  1  0  0  0
M  END
> <s_m_entry_id>
10190

> <s_m_entry_name>
dock_pv.226

> <s_m_Source_Path>
/home/csk/Desktop/cluster/DUD-E-result/aofb

> <s_m_Source_File>
dock_pv.maegz

> <i_m_Source_File_Index>
226

> <chembl_id>
CHEMBL2420785

> <chembl_pref_name>
None

> <i_lp_mmshare_version>
53161

> <i_f3d_flags>
0

> <r_lp_tautomer_probability>
1

> <s_lp_Force_Field>
OPLS_2005

> <r_lp_Energy>
6.78909

> <b_lp_Chiralities_Consistent>
1

> <s_lp_Variant>
CHEMBL2039_lig1041-1

> <s_i_glide_gridfile>
glide-grid_1s3b

> <i_i_glide_lignum>
1214

> <i_i_glide_rotatable_bonds>
3

> <r_i_docking_score>
-7.57841285524699

> <r_i_glide_ligand_efficiency>
-0.421022936402611

> <r_i_glide_ligand_efficiency_sa>
-1.10339223627863

> <r_i_glide_ligand_efficiency_ln>
-1.94799194700746

> <r_i_glide_gscore>
-7.57841285524699

> <r_i_glide_lipo>
-3.38693763253276

> <r_i_glide_hbond>
0

> <r_i_glide_metal>
0

> <r_i_glide_rewards>
-2.82052503271816

> <r_i_glide_evdw>
-33.8072052001953

> <r_i_glide_ecoul>
-0.453462392091751

> <r_i_glide_erotb>
0.387429428827459

> <r_i_glide_esite>
0

> <r_i_glide_emodel>
-46.4923271192117

> <r_i_glide_energy>
-34.2606675922871

> <r_i_glide_einternal>
1.8897819519043

> <i_i_glide_confnum>
1

> <i_i_glide_posenum>
153

> <r_i_glide_eff_state_penalty>
0

> <s_user_duplicate_titles>
CHEMBL2039_lig1041

> <s_m_subgroup_title>
dock_pv

> <s_m_subgroupid>
dock_pv

> <b_m_subgroup_collapsed>
1

$$$$
CHEMBL2039_lig487
                    3D
 Schrodinger Suite 2021-1.
 16 17  0  0  1  0            999 V2000
   49.2958  159.7505   30.6907 C   0  0  0  0  0  0
   48.0464  159.1526   30.5169 C   0  0  0  0  0  0
   47.0201  159.4645   31.4130 C   0  0  0  0  0  0
   47.2557  160.3435   32.4758 C   0  0  0  0  0  0
   48.5125  160.9291   32.6454 C   0  0  0  0  0  0
   50.8296  161.0946   31.7039 N   0  0  0  0  0  0
   49.5245  160.6263   31.7361 C   0  0  0  0  0  0
   50.5480  159.6450   29.9495 C   0  0  0  0  0  0
   51.5210  160.6441   30.6499 C   0  0  0  0  0  0
   50.8560  158.9594   28.9794 O   0  0  0  0  0  0
   52.6616  160.9453   30.3010 O   0  0  0  0  0  0
   47.8586  158.4660   29.7053 H   0  0  0  0  0  0
   46.0393  159.0313   31.2852 H   0  0  0  0  0  0
   46.4571  160.5799   33.1630 H   0  0  0  0  0  0
   48.6842  161.6062   33.4685 H   0  0  0  0  0  0
   51.2307  161.7278   32.3890 H   0  0  0  0  0  0
  1  2  2  0  0  0
  1  7  1  0  0  0
  1  8  1  0  0  0
  2  3  1  0  0  0
  2 12  1  0  0  0
  3  4  2  0  0  0
  3 13  1  0  0  0
  4  5  1  0  0  0
  4 14  1  0  0  0
  5  7  2  0  0  0
  5 15  1  0  0  0
  6  7  1  0  0  0
  6  9  1  0  0  0
  6 16  1  0  0  0
  8  9  1  0  0  0
  8 10  2  0  0  0
  9 11  2  0  0  0
M  END
> <s_m_entry_id>
10191

> <s_m_entry_name>
dock_pv.227

> <s_m_Source_Path>
/home/csk/Desktop/cluster/DUD-E-result/aofb

> <s_m_Source_File>
dock_pv.maegz

> <i_m_Source_File_Index>
227

> <chembl_id>
CHEMBL326294

> <chembl_pref_name>
ISATIN

> <i_lp_mmshare_version>
53161

> <i_f3d_flags>
0

> <r_lp_tautomer_probability>
1

> <s_lp_Force_Field>
OPLS_2005

> <r_lp_Energy>
27.170668

> <b_lp_Chiralities_Consistent>
1

> <s_lp_Variant>
CHEMBL2039_lig487-1

> <s_i_glide_gridfile>
glide-grid_1s3b

> <i_i_glide_lignum>
582

> <i_i_glide_rotatable_bonds>
0

> <r_i_docking_score>
-7.57216940626246

> <r_i_glide_ligand_efficiency>
-0.688379036932951

> <r_i_glide_ligand_efficiency_sa>
-1.53094127168048

> <r_i_glide_ligand_efficiency_ln>
-2.2284881664485

> <r_i_glide_gscore>
-7.57216940626246

> <r_i_glide_lipo>
-1.9539129505347

> <r_i_glide_hbond>
-0.482730473242857

> <r_i_glide_metal>
0

> <r_i_glide_rewards>
-3.52973201762209

> <r_i_glide_evdw>
-23.3246574401855

> <r_i_glide_ecoul>
-2.93040728569031

> <r_i_glide_erotb>
0

> <r_i_glide_esite>
0

> <r_i_glide_emodel>
-37.5937153788134

> <r_i_glide_energy>
-26.2550647258759

> <r_i_glide_einternal>
0

> <i_i_glide_confnum>
1

> <i_i_glide_posenum>
331

> <r_i_glide_eff_state_penalty>
0

> <s_user_duplicate_titles>
CHEMBL2039_lig487

> <s_m_subgroup_title>
dock_pv

> <s_m_subgroupid>
dock_pv

> <b_m_subgroup_collapsed>
1

$$$$
CHEMBL2039_lig1643
                    3D
 Schrodinger Suite 2021-1.
 31 32  0  0  1  0            999 V2000
   47.7763  160.2434   31.8332 C   0  0  0  0  0  0
   46.5951  159.4442   31.2849 C   0  0  0  0  0  0
   49.1103  160.0586   31.1808 C   0  0  0  0  0  0
   49.3790  158.9789   30.3223 C   0  0  0  0  0  0
   50.6534  158.7731   29.7832 C   0  0  0  0  0  0
   51.6554  159.7136   30.0642 C   0  0  0  0  0  0
   51.4086  160.7922   30.9060 C   0  0  0  0  0  0
   50.1482  160.9515   31.4742 C   0  0  0  0  0  0
   50.8603  157.5826   29.1104 O   0  0  0  0  0  0
   52.1256  157.3042   28.5040 C   0  0  0  0  0  0
   52.0525  156.0635   27.6252 C   0  0  0  0  0  0
   52.4561  156.1234   26.2877 C   0  0  0  0  0  0
   52.4516  154.9756   25.5010 C   0  0  0  0  0  0
   52.0429  153.7658   26.0539 C   0  0  0  0  0  0
   51.6098  153.6998   27.3771 C   0  0  0  0  0  0
   51.6148  154.8495   28.1641 C   0  0  0  0  0  0
   52.0892  152.6435   25.3045 F   0  0  0  0  0  0
   47.5702  161.0415   32.7489 O   0  0  0  0  0  0
   46.7368  158.3813   31.4751 H   0  0  0  0  0  0
   46.5158  159.5887   30.2079 H   0  0  0  0  0  0
   45.6595  159.7682   31.7447 H   0  0  0  0  0  0
   48.6256  158.2352   30.1082 H   0  0  0  0  0  0
   52.6591  159.5786   29.6985 H   0  0  0  0  0  0
   52.1994  161.4862   31.1480 H   0  0  0  0  0  0
   49.9935  161.7852   32.1473 H   0  0  0  0  0  0
   52.4837  158.1545   27.9264 H   0  0  0  0  0  0
   52.8603  157.0850   29.2782 H   0  0  0  0  0  0
   52.8073  157.0441   25.8565 H   0  0  0  0  0  0
   52.7929  155.0128   24.4776 H   0  0  0  0  0  0
   51.2954  152.7556   27.7962 H   0  0  0  0  0  0
   51.3093  154.7874   29.1986 H   0  0  0  0  0  0
  1  2  1  0  0  0
  1  3  1  0  0  0
  1 18  2  0  0  0
  2 19  1  0  0  0
  2 20  1  0  0  0
  2 21  1  0  0  0
  3  4  1  0  0  0
  3  8  2  0  0  0
  4  5  2  0  0  0
  4 22  1  0  0  0
  5  6  1  0  0  0
  5  9  1  0  0  0
  6  7  2  0  0  0
  6 23  1  0  0  0
  7  8  1  0  0  0
  7 24  1  0  0  0
  8 25  1  0  0  0
  9 10  1  0  0  0
 10 11  1  0  0  0
 10 26  1  0  0  0
 10 27  1  0  0  0
 11 12  1  0  0  0
 11 16  2  0  0  0
 12 13  2  0  0  0
 12 28  1  0  0  0
 13 14  1  0  0  0
 13 29  1  0  0  0
 14 15  2  0  0  0
 14 17  1  0  0  0
 15 16  1  0  0  0
 15 30  1  0  0  0
 16 31  1  0  0  0
M  END
> <s_m_entry_id>
10192

> <s_m_entry_name>
dock_pv.228

> <s_m_Source_Path>
/home/csk/Desktop/cluster/DUD-E-result/aofb

> <s_m_Source_File>
dock_pv.maegz

> <i_m_Source_File_Index>
228

> <chembl_id>
CHEMBL3771077

> <chembl_pref_name>
None

> <i_lp_mmshare_version>
53161

> <i_f3d_flags>
0

> <r_lp_tautomer_probability>
0.99995

> <s_lp_Force_Field>
OPLS_2005

> <r_lp_Energy>
22.850745

> <b_lp_Chiralities_Consistent>
1

> <s_lp_Variant>
CHEMBL2039_lig1643-1

> <s_i_glide_gridfile>
glide-grid_1s3b

> <i_i_glide_lignum>
1911

> <i_i_glide_rotatable_bonds>
4

> <r_i_docking_score>
-7.56873194974658

> <r_i_glide_ligand_efficiency>
-0.420485108319255

> <r_i_glide_ligand_efficiency_sa>
-1.10198272795897

> <r_i_glide_ligand_efficiency_ln>
-1.94550352016734

> <r_i_glide_gscore>
-7.56873194974658

> <r_i_glide_lipo>
-3.26925042700462

> <r_i_glide_hbond>
0

> <r_i_glide_metal>
0

> <r_i_glide_rewards>
-3.3064425997491

> <r_i_glide_evdw>
-31.5412940979004

> <r_i_glide_ecoul>
-1.93362009525299

> <r_i_glide_erotb>
0.874068796190095

> <r_i_glide_esite>
0

> <r_i_glide_emodel>
-44.1671673522266

> <r_i_glide_energy>
-33.4749141931534

> <r_i_glide_einternal>
5.13608169555664

> <i_i_glide_confnum>
47

> <i_i_glide_posenum>
173

> <r_i_glide_eff_state_penalty>
0

> <s_user_duplicate_titles>
CHEMBL2039_lig1643

> <s_m_subgroup_title>
dock_pv

> <s_m_subgroupid>
dock_pv

> <b_m_subgroup_collapsed>
1

$$$$
CHEMBL2039_lig542
                    3D
 Schrodinger Suite 2021-1.
 30 32  0  0  1  0            999 V2000
   52.2635  153.1236   25.2508 C   0  0  0  0  0  0
   52.9266  154.2569   24.7896 C   0  0  0  0  0  0
   52.8584  155.4439   25.5176 C   0  0  0  0  0  0
   51.4428  153.2056   26.3738 C   0  0  0  0  0  0
   51.3731  154.3980   27.0893 C   0  0  0  0  0  0
   52.1441  155.5020   26.7229 C   0  0  0  0  0  0
   52.3300  156.6444   27.6581 C   0  0  0  0  0  0
   51.2987  156.7536   28.7071 C   0  0  0  0  0  0
   50.7313  155.3943   29.1536 C   0  0  0  0  0  0
   50.4562  154.4639   28.1065 O   0  0  0  0  0  0
   53.2560  157.4439   27.5099 O   0  0  0  0  0  0
   51.0177  158.0248   29.1363 C   0  0  0  0  0  0
   50.0560  158.6283   30.1040 C   0  0  0  0  0  0
   50.3776  159.8962   30.6064 C   0  0  0  0  0  0
   49.5358  160.5398   31.5089 C   0  0  0  0  0  0
   48.3413  159.9382   31.8911 C   0  0  0  0  0  0
   47.9889  158.6933   31.3813 C   0  0  0  0  0  0
   48.8494  158.0392   30.5038 C   0  0  0  0  0  0
   52.3591  152.1956   24.7081 H   0  0  0  0  0  0
   53.5340  154.2011   23.8979 H   0  0  0  0  0  0
   53.4508  156.2864   25.1878 H   0  0  0  0  0  0
   50.8674  152.3490   26.6878 H   0  0  0  0  0  0
   51.5052  154.8831   29.7101 H   0  0  0  0  0  0
   49.8583  155.4700   29.7925 H   0  0  0  0  0  0
   51.5827  158.8153   28.6551 H   0  0  0  0  0  0
   51.3003  160.3824   30.3219 H   0  0  0  0  0  0
   49.8113  161.5038   31.9112 H   0  0  0  0  0  0
   47.6835  160.4412   32.5848 H   0  0  0  0  0  0
   47.0553  158.2346   31.6713 H   0  0  0  0  0  0
   48.5433  157.0873   30.1039 H   0  0  0  0  0  0
  1  2  2  0  0  0
  1  4  1  0  0  0
  1 19  1  0  0  0
  2  3  1  0  0  0
  2 20  1  0  0  0
  3  6  2  0  0  0
  3 21  1  0  0  0
  4  5  2  0  0  0
  4 22  1  0  0  0
  5  6  1  0  0  0
  5 10  1  0  0  0
  6  7  1  0  0  0
  7  8  1  0  0  0
  7 11  2  0  0  0
  8  9  1  0  0  0
  8 12  2  0  0  0
  9 10  1  0  0  0
  9 23  1  0  0  0
  9 24  1  0  0  0
 12 13  1  0  0  0
 12 25  1  0  0  0
 13 14  2  0  0  0
 13 18  1  0  0  0
 14 15  1  0  0  0
 14 26  1  0  0  0
 15 16  2  0  0  0
 15 27  1  0  0  0
 16 17  1  0  0  0
 16 28  1  0  0  0
 17 18  2  0  0  0
 17 29  1  0  0  0
 18 30  1  0  0  0
M  END
> <s_m_entry_id>
10193

> <s_m_entry_name>
dock_pv.229

> <s_m_Source_Path>
/home/csk/Desktop/cluster/DUD-E-result/aofb

> <s_m_Source_File>
dock_pv.maegz

> <i_m_Source_File_Index>
229

> <chembl_id>
CHEMBL1766549

> <chembl_pref_name>
None

> <i_lp_mmshare_version>
53161

> <i_f3d_flags>
0

> <r_lp_tautomer_probability>
1

> <s_lp_Force_Field>
OPLS_2005

> <r_lp_Energy>
19.847183

> <b_lp_Chiralities_Consistent>
1

> <s_lp_Variant>
CHEMBL2039_lig542-1

> <s_i_glide_gridfile>
glide-grid_1s3b

> <i_i_glide_lignum>
644

> <i_i_glide_rotatable_bonds>
1

> <r_i_docking_score>
-7.56781994329636

> <r_i_glide_ligand_efficiency>
-0.420434441294242

> <r_i_glide_ligand_efficiency_sa>
-1.10184994278933

> <r_i_glide_ligand_efficiency_ln>
-1.94526909361199

> <r_i_glide_gscore>
-7.56781994329636

> <r_i_glide_lipo>
-3.84264052590625

> <r_i_glide_hbond>
0

> <r_i_glide_metal>
0

> <r_i_glide_rewards>
-2.8243404641335

> <r_i_glide_evdw>
-22.7812080383301

> <r_i_glide_ecoul>
1.58814299106598

> <r_i_glide_erotb>
0

> <r_i_glide_esite>
0

> <r_i_glide_emodel>
-30.2885519545887

> <r_i_glide_energy>
-21.1930650472641

> <r_i_glide_einternal>
0.636984705924988

> <i_i_glide_confnum>
1

> <i_i_glide_posenum>
17

> <r_i_glide_eff_state_penalty>
0

> <s_user_duplicate_titles>
CHEMBL2039_lig542

> <s_m_subgroup_title>
dock_pv

> <s_m_subgroupid>
dock_pv

> <b_m_subgroup_collapsed>
1

$$$$
CHEMBL2039_lig1258
                    3D
 Schrodinger Suite 2021-1.
 35 37  0  0  1  0            999 V2000
   50.8709  160.2444   30.6856 C   0  0  0  0  0  0
   54.0259  154.6475   24.3155 C   0  0  0  0  0  0
   52.1084  156.3201   27.1511 C   0  0  0  0  0  0
   47.6540  161.4440   33.3353 I   0  0  0  0  0  0
   50.0890  160.9355   31.6072 C   0  0  0  0  0  0
   51.0427  154.6377   28.4803 C   0  0  0  0  0  0
   51.3859  155.9702   28.3028 C   0  0  0  0  0  0
   52.0495  154.0403   26.3444 C   0  0  0  0  0  0
   53.2023  155.8177   24.9055 C   0  0  0  0  0  0
   51.3820  153.6807   27.5264 C   0  0  0  0  0  0
   50.3769  159.0759   30.0980 C   0  0  0  0  0  0
   53.0983  153.4475   24.0763 C   0  0  0  0  0  0
   52.5164  152.9642   25.4079 C   0  0  0  0  0  0
   51.2780  158.2503   29.1851 C   0  0  0  0  0  0
   48.8115  160.4729   31.9099 C   0  0  0  0  0  0
   48.2933  159.3416   31.2956 C   0  0  0  0  0  0
   49.0790  158.6435   30.3926 C   0  0  0  0  0  0
   50.9183  156.8648   29.2537 O   0  0  0  0  0  0
   52.4269  155.3895   26.1540 C   0  0  0  0  0  0
   52.4581  151.7719   25.7035 O   0  0  0  0  0  0
   51.8746  160.5841   30.4748 H   0  0  0  0  0  0
   54.4860  154.9514   23.3746 H   0  0  0  0  0  0
   54.8539  154.3738   24.9711 H   0  0  0  0  0  0
   52.4154  157.3417   26.9922 H   0  0  0  0  0  0
   50.4804  161.8118   32.0996 H   0  0  0  0  0  0
   50.5037  154.3454   29.3683 H   0  0  0  0  0  0
   52.4696  156.1662   24.1780 H   0  0  0  0  0  0
   53.8516  156.6665   25.1165 H   0  0  0  0  0  0
   51.1209  152.6498   27.7227 H   0  0  0  0  0  0
   52.2811  153.7935   23.4451 H   0  0  0  0  0  0
   53.6565  152.6401   23.6014 H   0  0  0  0  0  0
   51.2263  158.6632   28.1818 H   0  0  0  0  0  0
   52.3192  158.3635   29.4701 H   0  0  0  0  0  0
   47.3029  158.9888   31.5429 H   0  0  0  0  0  0
   48.6865  157.7349   29.9643 H   0  0  0  0  0  0
  1  5  2  0  0  0
  1 11  1  0  0  0
  1 21  1  0  0  0
  2  9  1  0  0  0
  2 12  1  0  0  0
  2 22  1  0  0  0
  2 23  1  0  0  0
  3 19  2  0  0  0
  3  7  1  0  0  0
  3 24  1  0  0  0
  4 15  1  0  0  0
  5 15  1  0  0  0
  5 25  1  0  0  0
  6  7  2  0  0  0
  6 10  1  0  0  0
  6 26  1  0  0  0
  7 18  1  0  0  0
  8 13  1  0  0  0
  8 10  2  0  0  0
  8 19  1  0  0  0
  9 19  1  0  0  0
  9 27  1  0  0  0
  9 28  1  0  0  0
 10 29  1  0  0  0
 11 17  2  0  0  0
 11 14  1  0  0  0
 12 13  1  0  0  0
 12 30  1  0  0  0
 12 31  1  0  0  0
 13 20  2  0  0  0
 14 18  1  0  0  0
 14 32  1  0  0  0
 14 33  1  0  0  0
 15 16  2  0  0  0
 16 17  1  0  0  0
 16 34  1  0  0  0
 17 35  1  0  0  0
M  END
> <s_m_entry_id>
10194

> <s_m_entry_name>
dock_pv.230

> <s_m_Source_Path>
/home/csk/Desktop/cluster/DUD-E-result/aofb

> <s_m_Source_File>
dock_pv.maegz

> <i_m_Source_File_Index>
230

> <chembl_id>
CHEMBL3288299

> <chembl_pref_name>
None

> <i_lp_mmshare_version>
53161

> <i_f3d_flags>
0

> <r_lp_tautomer_probability>
0.99995

> <s_lp_Force_Field>
OPLS_2005

> <r_lp_Energy>
22.56809

> <b_lp_Chiralities_Consistent>
1

> <s_lp_Variant>
CHEMBL2039_lig1258-1

> <s_i_glide_gridfile>
glide-grid_1s3b

> <i_i_glide_lignum>
1450

> <i_i_glide_rotatable_bonds>
3

> <r_i_docking_score>
-7.56591337658613

> <r_i_glide_ligand_efficiency>
-0.378295668829307

> <r_i_glide_ligand_efficiency_sa>
-1.02685242672643

> <r_i_glide_ligand_efficiency_ln>
-1.89349857763535

> <r_i_glide_gscore>
-7.56591337658613

> <r_i_glide_lipo>
-4.38685073995432

> <r_i_glide_hbond>
0

> <r_i_glide_metal>
0

> <r_i_glide_rewards>
-1.69605884466377

> <r_i_glide_evdw>
-33.3246116638184

> <r_i_glide_ecoul>
-1.48778247833252

> <r_i_glide_erotb>
0.406394162972751

> <r_i_glide_esite>
0

> <r_i_glide_emodel>
-44.9120608300166

> <r_i_glide_energy>
-34.8123941421509

> <r_i_glide_einternal>
0.973220825195312

> <i_i_glide_confnum>
42

> <i_i_glide_posenum>
140

> <r_i_glide_eff_state_penalty>
0

> <s_user_duplicate_titles>
CHEMBL2039_lig1258

> <s_m_subgroup_title>
dock_pv

> <s_m_subgroupid>
dock_pv

> <b_m_subgroup_collapsed>
1

$$$$
CHEMBL2039_lig1518
                    3D
 Schrodinger Suite 2021-1.
 37 39  0  0  1  0            999 V2000
   47.2561  161.4440   31.5759 F   0  0  0  0  0  0
   48.2143  160.9009   32.3138 C   0  0  0  0  0  0
   48.9291  161.8440   32.9040 F   0  0  0  0  0  0
   47.6592  160.1465   33.2633 F   0  0  0  0  0  0
   49.0561  160.0848   31.3647 C   0  0  0  0  0  0
   50.3280  160.4957   30.9436 C   0  0  0  0  0  0
   51.0773  159.6730   30.1040 C   0  0  0  0  0  0
   50.5663  158.4355   29.7040 C   0  0  0  0  0  0
   51.4611  157.4568   28.9367 C   0  0  0  0  0  0
   50.8716  156.1148   28.9040 N   0  0  2  0  0  0
   51.7880  155.1220   28.4042 C   0  0  1  0  0  0
   51.6560  153.6870   28.8828 C   0  0  0  0  0  0
   51.1401  154.0645   27.5407 C   0  0  2  0  0  0
   51.8402  153.5993   26.2979 C   0  0  0  0  0  0
   52.0728  152.2417   26.1040 C   0  0  0  0  0  0
   52.8560  151.8278   25.0293 C   0  0  0  0  0  0
   53.3155  152.7776   24.1243 C   0  0  0  0  0  0
   53.1140  154.1335   24.3414 C   0  0  0  0  0  0
   52.3452  154.5505   25.4142 C   0  0  0  0  0  0
   49.2716  158.0753   30.1040 C   0  0  0  0  0  0
   48.5162  158.8909   30.9136 C   0  0  0  0  0  0
   50.7509  161.4288   31.2885 H   0  0  0  0  0  0
   52.0780  159.9645   29.8199 H   0  0  0  0  0  0
   51.6560  157.8311   27.9322 H   0  0  0  0  0  0
   52.4405  157.4439   29.4101 H   0  0  0  0  0  0
   50.1386  156.1761   28.2119 H   0  0  0  0  0  0
   52.8064  155.4554   28.1926 H   0  0  0  0  0  0
   52.5350  153.0440   28.9040 H   0  0  0  0  0  0
   50.9568  153.4761   29.6905 H   0  0  0  0  0  0
   50.0560  153.9951   27.4748 H   0  0  0  0  0  0
   51.6560  151.5164   26.7890 H   0  0  0  0  0  0
   53.0488  150.7777   24.8663 H   0  0  0  0  0  0
   53.8828  152.4658   23.2617 H   0  0  0  0  0  0
   53.5816  154.8597   23.7040 H   0  0  0  0  0  0
   52.1966  155.6053   25.5941 H   0  0  0  0  0  0
   48.8385  157.1185   29.8559 H   0  0  0  0  0  0
   47.5327  158.5697   31.2271 H   0  0  0  0  0  0
  1  2  1  0  0  0
  2  3  1  0  0  0
  2  4  1  0  0  0
  2  5  1  0  0  0
  5  6  2  0  0  0
  5 21  1  0  0  0
  6  7  1  0  0  0
  6 22  1  0  0  0
  7  8  2  0  0  0
  7 23  1  0  0  0
  8  9  1  0  0  0
  8 20  1  0  0  0
  9 10  1  0  0  0
  9 24  1  0  0  0
  9 25  1  0  0  0
 10 11  1  0  0  0
 10 26  1  0  0  0
 11 12  1  0  0  0
 11 13  1  0  0  0
 11 27  1  0  0  0
 12 13  1  0  0  0
 12 28  1  0  0  0
 12 29  1  0  0  0
 13 14  1  0  0  0
 13 30  1  0  0  0
 14 15  2  0  0  0
 14 19  1  0  0  0
 15 16  1  0  0  0
 15 31  1  0  0  0
 16 17  2  0  0  0
 16 32  1  0  0  0
 17 18  1  0  0  0
 17 33  1  0  0  0
 18 19  2  0  0  0
 18 34  1  0  0  0
 19 35  1  0  0  0
 20 21  2  0  0  0
 20 36  1  0  0  0
 21 37  1  0  0  0
M  END
> <s_m_entry_id>
10195

> <s_m_entry_name>
dock_pv.231

> <s_m_Source_Path>
/home/csk/Desktop/cluster/DUD-E-result/aofb

> <s_m_Source_File>
dock_pv.maegz

> <i_m_Source_File_Index>
231

> <chembl_id>
CHEMBL3651093

> <chembl_pref_name>
None

> <i_lp_mmshare_version>
53161

> <i_f3d_flags>
0

> <r_lp_tautomer_probability>
1

> <s_lp_Force_Field>
OPLS_2005

> <r_lp_Energy>
23.805596

> <b_lp_Chiralities_Consistent>
1

> <s_lp_Variant>
CHEMBL2039_lig1518-2

> <s_i_glide_gridfile>
glide-grid_1s3b

> <i_i_glide_lignum>
1756

> <i_i_glide_rotatable_bonds>
5

> <r_i_docking_score>
-7.56561583602216

> <r_i_glide_ligand_efficiency>
-0.36026742076296

> <r_i_glide_ligand_efficiency_sa>
-0.993950496096698

> <r_i_glide_ligand_efficiency_ln>
-1.87058322769021

> <r_i_glide_gscore>
-7.56561583602216

> <r_i_glide_lipo>
-4.45821344892237

> <r_i_glide_hbond>
0

> <r_i_glide_metal>
0

> <r_i_glide_rewards>
-2.72376037394191

> <r_i_glide_evdw>
-21.7111415863037

> <r_i_glide_ecoul>
-0.979320585727692

> <r_i_glide_erotb>
0.859701190194073

> <r_i_glide_esite>
-0.010888036177611

> <r_i_glide_emodel>
-19.6052345073739

> <r_i_glide_energy>
-22.6904621720314

> <r_i_glide_einternal>
7.9008002281189

> <i_i_glide_confnum>
63

> <i_i_glide_posenum>
325

> <r_i_glide_eff_state_penalty>
0

> <s_user_duplicate_titles>
CHEMBL2039_lig1518

> <s_m_subgroup_title>
dock_pv

> <s_m_subgroupid>
dock_pv

> <b_m_subgroup_collapsed>
1

$$$$
CHEMBL2039_lig504
                    3D
 Schrodinger Suite 2021-1.
 38 40  0  0  1  0            999 V2000
   51.4996  158.8730   29.4960 C   0  0  0  0  0  0
   52.0560  160.0131   30.1040 C   0  0  0  0  0  0
   51.3316  160.7985   31.0037 C   0  0  0  0  0  0
   50.1634  158.5782   29.7766 C   0  0  0  0  0  0
   49.4342  159.3655   30.6638 C   0  0  0  0  0  0
   50.0130  160.4553   31.2822 C   0  0  0  0  0  0
   49.1227  161.0407   32.1700 N   0  0  0  0  0  0
   47.9410  160.4012   32.2047 C   0  0  0  0  0  0
   48.0732  159.2470   31.1645 C   0  0  0  0  0  0
   47.1802  158.4437   30.8996 O   0  0  0  0  0  0
   46.9612  160.6440   32.9040 O   0  0  0  0  0  0
   52.3486  158.0413   28.5040 C   0  0  0  0  0  0
   52.4703  156.5003   28.5651 C   0  0  0  0  0  0
   51.1483  155.7050   28.5984 C   0  0  0  0  0  0
   51.1418  154.2404   28.1047 C   0  0  0  0  0  0
   51.7292  153.9459   26.7247 C   0  0  0  0  0  0
   52.0560  154.9496   25.8099 C   0  0  0  0  0  0
   52.8491  154.6529   24.7124 C   0  0  0  0  0  0
   53.2362  153.3406   24.4582 C   0  0  0  0  0  0
   52.8235  152.3158   25.3040 C   0  0  0  0  0  0
   52.0560  152.6250   26.4262 C   0  0  0  0  0  0
   53.0907  160.2616   29.9248 H   0  0  0  0  0  0
   51.8072  161.6387   31.4891 H   0  0  0  0  0  0
   49.7061  157.7085   29.3662 H   0  0  0  0  0  0
   49.3504  161.8221   32.7661 H   0  0  0  0  0  0
   53.3745  158.4049   28.5212 H   0  0  0  0  0  0
   51.9851  158.2440   27.5052 H   0  0  0  0  0  0
   53.1776  156.1701   29.3040 H   0  0  0  0  0  0
   53.0369  156.2440   27.6778 H   0  0  0  0  0  0
   50.4560  156.2438   27.9840 H   0  0  0  0  0  0
   50.7351  155.7260   29.6067 H   0  0  0  0  0  0
   50.1172  153.8693   28.1040 H   0  0  0  0  0  0
   51.6839  153.6413   28.8389 H   0  0  0  0  0  0
   51.7743  155.9773   25.9791 H   0  0  0  0  0  0
   53.1934  155.4661   24.1040 H   0  0  0  0  0  0
   53.8560  153.1160   23.6023 H   0  0  0  0  0  0
   53.1038  151.2930   25.0994 H   0  0  0  0  0  0
   51.7392  151.8440   27.0974 H   0  0  0  0  0  0
  1 12  1  0  0  0
  1  2  2  0  0  0
  1  4  1  0  0  0
  2  3  1  0  0  0
  2 22  1  0  0  0
  3  6  2  0  0  0
  3 23  1  0  0  0
  4  5  2  0  0  0
  4 24  1  0  0  0
  5  6  1  0  0  0
  5  9  1  0  0  0
  6  7  1  0  0  0
  7  8  1  0  0  0
  7 25  1  0  0  0
  8 11  2  0  0  0
  8  9  1  0  0  0
  9 10  2  0  0  0
 12 13  1  0  0  0
 12 26  1  0  0  0
 12 27  1  0  0  0
 13 14  1  0  0  0
 13 28  1  0  0  0
 13 29  1  0  0  0
 14 15  1  0  0  0
 14 30  1  0  0  0
 14 31  1  0  0  0
 15 16  1  0  0  0
 15 32  1  0  0  0
 15 33  1  0  0  0
 16 17  2  0  0  0
 16 21  1  0  0  0
 17 18  1  0  0  0
 17 34  1  0  0  0
 18 19  2  0  0  0
 18 35  1  0  0  0
 19 20  1  0  0  0
 19 36  1  0  0  0
 20 21  2  0  0  0
 20 37  1  0  0  0
 21 38  1  0  0  0
M  END
> <s_m_entry_id>
10196

> <s_m_entry_name>
dock_pv.232

> <s_m_Source_Path>
/home/csk/Desktop/cluster/DUD-E-result/aofb

> <s_m_Source_File>
dock_pv.maegz

> <i_m_Source_File_Index>
232

> <chembl_id>
CHEMBL1642678

> <chembl_pref_name>
None

> <i_lp_mmshare_version>
53161

> <i_f3d_flags>
0

> <r_lp_tautomer_probability>
1

> <s_lp_Force_Field>
OPLS_2005

> <r_lp_Energy>
31.675815

> <b_lp_Chiralities_Consistent>
1

> <s_lp_Variant>
CHEMBL2039_lig504-1

> <s_i_glide_gridfile>
glide-grid_1s3b

> <i_i_glide_lignum>
603

> <i_i_glide_rotatable_bonds>
5

> <r_i_docking_score>
-7.56523868420948

> <r_i_glide_ligand_efficiency>
-0.360249461152833

> <r_i_glide_ligand_efficiency_sa>
-0.99390094689417

> <r_i_glide_ligand_efficiency_ln>
-1.87048997766663

> <r_i_glide_gscore>
-7.56523868420948

> <r_i_glide_lipo>
-3.62414432866792

> <r_i_glide_hbond>
0

> <r_i_glide_metal>
0

> <r_i_glide_rewards>
-2.84084847703447

> <r_i_glide_evdw>
-32.0430603027344

> <r_i_glide_ecoul>
-1.27832686901093

> <r_i_glide_erotb>
0.693656166981268

> <r_i_glide_esite>
0

> <r_i_glide_emodel>
-33.4018834208136

> <r_i_glide_energy>
-33.3213871717453

> <r_i_glide_einternal>
4.69146871566772

> <i_i_glide_confnum>
6

> <i_i_glide_posenum>
245

> <r_i_glide_eff_state_penalty>
0

> <s_user_duplicate_titles>
CHEMBL2039_lig504

> <s_m_subgroup_title>
dock_pv

> <s_m_subgroupid>
dock_pv

> <b_m_subgroup_collapsed>
1

$$$$
CHEMBL2039_lig1701
                    3D
 Schrodinger Suite 2021-1.
 44 47  0  0  1  0            999 V2000
   49.7528  158.5316   29.7068 O   0  0  0  0  0  0
   50.9841  159.0718   29.8155 C   0  0  0  0  0  0
   50.9634  160.2442   30.6659 C   0  0  0  0  0  0
   49.6091  160.2222   31.1859 C   0  0  0  0  0  0
   48.9371  159.2293   30.5216 C   0  0  0  0  0  0
   48.9625  160.9433   32.1691 C   0  0  0  0  0  0
   47.6232  160.6852   32.4419 C   0  0  0  0  0  0
   46.9507  159.7020   31.7147 C   0  0  0  0  0  0
   47.5978  158.9535   30.7374 C   0  0  0  0  0  0
   51.9051  160.9978   30.9110 O   0  0  0  0  0  0
   45.6560  159.4463   32.0059 O   0  0  0  0  0  0
   49.6550  161.8437   32.9040 O   0  0  0  0  0  0
   52.0560  158.5417   29.2316 C   0  0  0  0  0  0
   52.0761  157.2886   28.4977 C   0  0  0  0  0  0
   52.9336  157.2610   27.4207 C   0  0  0  0  0  0
   52.8560  156.2440   26.5017 C   0  0  0  0  0  0
   52.0437  155.1384   26.7473 C   0  0  0  0  0  0
   51.2644  155.1008   27.9117 C   0  0  0  0  0  0
   51.2547  156.1920   28.7683 C   0  0  0  0  0  0
   52.0427  154.0874   25.8519 N   0  0  0  0  0  0
   51.7669  152.6996   26.2551 C   0  0  0  0  0  0
   52.7850  151.6813   25.7040 C   0  0  0  0  0  0
   53.2560  151.9209   24.2804 C   0  0  0  0  0  0
   53.6560  153.3837   24.1040 C   0  0  0  0  0  0
   52.4560  154.2440   24.4505 C   0  0  0  0  0  0
   47.1126  161.2325   33.2203 H   0  0  0  0  0  0
   47.0902  158.1667   30.2022 H   0  0  0  0  0  0
   45.1385  159.0440   31.3040 H   0  0  0  0  0  0
   50.6132  161.8440   32.7788 H   0  0  0  0  0  0
   53.0083  159.0440   29.3040 H   0  0  0  0  0  0
   53.6326  158.0670   27.2574 H   0  0  0  0  0  0
   53.5224  156.2857   25.6553 H   0  0  0  0  0  0
   50.6195  154.2619   28.1264 H   0  0  0  0  0  0
   50.5909  156.1870   29.6202 H   0  0  0  0  0  0
   51.8948  152.6451   27.3369 H   0  0  0  0  0  0
   50.7276  152.4221   26.1040 H   0  0  0  0  0  0
   53.6560  151.6975   26.3570 H   0  0  0  0  0  0
   52.3729  150.6748   25.7848 H   0  0  0  0  0  0
   52.4780  151.6820   23.5645 H   0  0  0  0  0  0
   54.0560  151.2273   24.0710 H   0  0  0  0  0  0
   53.9750  153.5683   23.0778 H   0  0  0  0  0  0
   54.5024  153.6336   24.7465 H   0  0  0  0  0  0
   51.6560  153.8851   23.8308 H   0  0  0  0  0  0
   52.5833  155.2756   24.1308 H   0  0  0  0  0  0
  1  2  1  0  0  0
  1  5  1  0  0  0
  2  3  1  0  0  0
  2 13  2  0  0  0
  3  4  1  0  0  0
  3 10  2  0  0  0
  4  5  1  0  0  0
  4  6  2  0  0  0
  5  9  2  0  0  0
  6  7  1  0  0  0
  6 12  1  0  0  0
  7  8  2  0  0  0
  7 26  1  0  0  0
  8  9  1  0  0  0
  8 11  1  0  0  0
  9 27  1  0  0  0
 11 28  1  0  0  0
 12 29  1  0  0  0
 13 14  1  0  0  0
 13 30  1  0  0  0
 14 15  1  0  0  0
 14 19  2  0  0  0
 15 16  2  0  0  0
 15 31  1  0  0  0
 16 17  1  0  0  0
 16 32  1  0  0  0
 17 18  2  0  0  0
 17 20  1  0  0  0
 18 19  1  0  0  0
 18 33  1  0  0  0
 19 34  1  0  0  0
 20 21  1  0  0  0
 20 25  1  0  0  0
 21 22  1  0  0  0
 21 35  1  0  0  0
 21 36  1  0  0  0
 22 23  1  0  0  0
 22 37  1  0  0  0
 22 38  1  0  0  0
 23 24  1  0  0  0
 23 39  1  0  0  0
 23 40  1  0  0  0
 24 25  1  0  0  0
 24 41  1  0  0  0
 24 42  1  0  0  0
 25 43  1  0  0  0
 25 44  1  0  0  0
M  END
> <s_m_entry_id>
10197

> <s_m_entry_name>
dock_pv.233

> <s_m_Source_Path>
/home/csk/Desktop/cluster/DUD-E-result/aofb

> <s_m_Source_File>
dock_pv.maegz

> <i_m_Source_File_Index>
233

> <chembl_id>
CHEMBL3263556

> <chembl_pref_name>
None

> <i_lp_mmshare_version>
53161

> <i_f3d_flags>
0

> <r_lp_tautomer_probability>
1

> <s_lp_Force_Field>
OPLS_2005

> <r_lp_Energy>
44.739844

> <b_lp_Chiralities_Consistent>
1

> <s_lp_Variant>
CHEMBL2039_lig1701-1

> <s_i_glide_gridfile>
glide-grid_1s3b

> <i_i_glide_lignum>
1989

> <i_i_glide_rotatable_bonds>
4

> <r_i_docking_score>
-7.56473615203574

> <r_i_glide_ligand_efficiency>
-0.302589446081429

> <r_i_glide_ligand_efficiency_sa>
-0.884776906788776

> <r_i_glide_ligand_efficiency_ln>
-1.79306916488163

> <r_i_glide_gscore>
-7.56473615203574

> <r_i_glide_lipo>
-4.5058621526291

> <r_i_glide_hbond>
-0.0639105600366882

> <r_i_glide_metal>
0

> <r_i_glide_rewards>
-1.41732622125084

> <r_i_glide_evdw>
-22.6748886108398

> <r_i_glide_ecoul>
-5.17315101623535

> <r_i_glide_erotb>
0.332079864858183

> <r_i_glide_esite>
0

> <r_i_glide_emodel>
-36.0238733506909

> <r_i_glide_energy>
-27.8480396270752

> <r_i_glide_einternal>
2.34450650215149

> <i_i_glide_confnum>
9

> <i_i_glide_posenum>
53

> <r_i_glide_eff_state_penalty>
0

> <s_user_duplicate_titles>
CHEMBL2039_lig1701

> <s_m_subgroup_title>
dock_pv

> <s_m_subgroupid>
dock_pv

> <b_m_subgroup_collapsed>
1

$$$$
CHEMBL2039_lig2017
                    3D
 Schrodinger Suite 2021-1.
 31 33  0  0  1  0            999 V2000
   53.3111  154.0843   24.4984 C   0  0  0  0  0  0
   52.8540  152.8327   24.9026 C   0  0  0  0  0  0
   52.0566  152.7236   26.0437 C   0  0  0  0  0  0
   52.9951  155.2264   25.2261 C   0  0  0  0  0  0
   52.2621  155.1187   26.4085 C   0  0  0  0  0  0
   51.7697  153.8636   26.7906 C   0  0  0  0  0  0
   51.0940  153.6881   27.9728 O   0  0  0  0  0  0
   50.8566  154.7896   28.7271 C   0  0  0  0  0  0
   51.3082  156.0441   28.5033 C   0  0  0  0  0  0
   52.2213  156.2413   27.3833 C   0  0  0  0  0  0
   52.9400  157.2223   27.2418 O   0  0  0  0  0  0
   50.8560  157.1451   29.3043 C   0  0  0  0  0  0
   51.0222  158.4098   29.2230 N   0  0  0  0  0  0
   50.2483  159.2255   30.0912 C   0  0  0  0  0  0
   48.8551  159.0290   30.2475 C   0  0  0  0  0  0
   48.0949  159.7760   31.1401 C   0  0  0  0  0  0
   48.7007  160.7752   31.8847 C   0  0  0  0  0  0
   50.0532  161.0445   31.7043 C   0  0  0  0  0  0
   50.8190  160.3030   30.7990 C   0  0  0  0  0  0
   52.1417  160.6438   30.6516 O   0  0  0  0  0  0
   46.7756  159.5192   31.2861 F   0  0  0  0  0  0
   54.4559  154.2436   22.9990 Br  0  0  0  0  0  0
   53.1183  151.9523   24.3325 H   0  0  0  0  0  0
   51.6972  151.7586   26.3761 H   0  0  0  0  0  0
   53.4201  156.1740   24.9243 H   0  0  0  0  0  0
   50.1935  154.5465   29.5436 H   0  0  0  0  0  0
   50.2262  156.7549   30.1013 H   0  0  0  0  0  0
   48.3463  158.2512   29.7037 H   0  0  0  0  0  0
   48.1189  161.3620   32.5788 H   0  0  0  0  0  0
   50.4893  161.8530   32.2636 H   0  0  0  0  0  0
   52.4374  161.2797   31.3084 H   0  0  0  0  0  0
  1  2  2  0  0  0
  1  4  1  0  0  0
  1 22  1  0  0  0
  2  3  1  0  0  0
  2 23  1  0  0  0
  3  6  2  0  0  0
  3 24  1  0  0  0
  4  5  2  0  0  0
  4 25  1  0  0  0
  5  6  1  0  0  0
  5 10  1  0  0  0
  6  7  1  0  0  0
  7  8  1  0  0  0
  8  9  2  0  0  0
  8 26  1  0  0  0
  9 10  1  0  0  0
  9 12  1  0  0  0
 10 11  2  0  0  0
 12 13  2  0  0  0
 12 27  1  0  0  0
 13 14  1  0  0  0
 14 15  2  0  0  0
 14 19  1  0  0  0
 15 16  1  0  0  0
 15 28  1  0  0  0
 16 17  2  0  0  0
 16 21  1  0  0  0
 17 18  1  0  0  0
 17 29  1  0  0  0
 18 19  2  0  0  0
 18 30  1  0  0  0
 19 20  1  0  0  0
 20 31  1  0  0  0
M  END
> <s_m_entry_id>
10198

> <s_m_entry_name>
dock_pv.234

> <s_m_Source_Path>
/home/csk/Desktop/cluster/DUD-E-result/aofb

> <s_m_Source_File>
dock_pv.maegz

> <i_m_Source_File_Index>
234

> <chembl_id>
CHEMBL4066518

> <chembl_pref_name>
None

> <i_lp_mmshare_version>
53161

> <i_f3d_flags>
0

> <r_lp_tautomer_probability>
1

> <s_lp_Force_Field>
OPLS_2005

> <r_lp_Energy>
18.087023

> <b_lp_Chiralities_Consistent>
1

> <s_lp_Variant>
CHEMBL2039_lig2017-1

> <s_i_glide_gridfile>
glide-grid_1s3b

> <i_i_glide_lignum>
2352

> <i_i_glide_rotatable_bonds>
3

> <r_i_docking_score>
-7.55366507213541

> <r_i_glide_ligand_efficiency>
-0.343348412369791

> <r_i_glide_ligand_efficiency_sa>
-0.962075754586967

> <r_i_glide_ligand_efficiency_ln>
-1.84639127025794

> <r_i_glide_gscore>
-7.55366507213541

> <r_i_glide_lipo>
-4.07118914123104

> <r_i_glide_hbond>
0

> <r_i_glide_metal>
0

> <r_i_glide_rewards>
-2.55582746828514

> <r_i_glide_evdw>
-25.2425537109375

> <r_i_glide_ecoul>
0.284736514091492

> <r_i_glide_erotb>
0.292768745813921

> <r_i_glide_esite>
0

> <r_i_glide_emodel>
-27.1711769556022

> <r_i_glide_energy>
-24.957817196846

> <r_i_glide_einternal>
1.69136667251587

> <i_i_glide_confnum>
1

> <i_i_glide_posenum>
64

> <r_i_glide_eff_state_penalty>
0

> <s_user_duplicate_titles>
CHEMBL2039_lig2017

> <s_m_subgroup_title>
dock_pv

> <s_m_subgroupid>
dock_pv

> <b_m_subgroup_collapsed>
1

$$$$
CHEMBL2039_lig43
                    3D
 Schrodinger Suite 2021-1.
 26 27  0  0  1  0            999 V2000
   51.2559  156.4821   28.8887 C   0  0  0  0  0  0
   50.6506  155.2319   29.0065 C   0  0  0  0  0  0
   50.8816  154.2443   28.0470 C   0  0  0  0  0  0
   52.0968  156.7409   27.8080 C   0  0  0  0  0  0
   52.2180  155.7991   26.7870 C   0  0  0  0  0  0
   51.6560  154.5257   26.9339 C   0  0  0  0  0  0
   51.9438  153.6393   25.7381 C   0  0  1  0  0  0
   52.4737  154.6641   24.7288 C   0  0  2  0  0  0
   52.9541  155.8959   25.4760 C   0  0  0  0  0  0
   52.8560  152.5544   26.0857 N   0  0  1  0  0  0
   51.3806  155.0440   24.1022 F   0  0  0  0  0  0
   53.3962  151.8828   24.9041 C   0  0  0  0  0  0
   53.2561  150.4194   24.9410 C   0  0  0  0  0  0
   53.2015  149.1992   24.9040 C   0  0  0  0  0  0
   51.0525  157.2680   29.6042 H   0  0  0  0  0  0
   50.0031  155.0438   29.8453 H   0  0  0  0  0  0
   50.4560  153.2618   28.1043 H   0  0  0  0  0  0
   52.5669  157.7090   27.7253 H   0  0  0  0  0  0
   51.0193  153.1943   25.3684 H   0  0  0  0  0  0
   53.1814  154.3145   23.9778 H   0  0  0  0  0  0
   54.0294  155.8301   25.6130 H   0  0  0  0  0  0
   52.7430  156.8133   24.9259 H   0  0  0  0  0  0
   53.6169  152.9890   26.6115 H   0  0  0  0  0  0
   54.4560  152.1198   24.8819 H   0  0  0  0  0  0
   52.9457  152.2000   23.9628 H   0  0  0  0  0  0
   53.1597  148.1329   24.8956 H   0  0  0  0  0  0
  1  2  2  0  0  0
  1  4  1  0  0  0
  1 15  1  0  0  0
  2  3  1  0  0  0
  2 16  1  0  0  0
  3  6  2  0  0  0
  3 17  1  0  0  0
  4  5  2  0  0  0
  4 18  1  0  0  0
  5  9  1  0  0  0
  5  6  1  0  0  0
  6  7  1  0  0  0
  7  8  1  0  0  0
  7 10  1  0  0  0
  7 19  1  0  0  0
  8  9  1  0  0  0
  8 11  1  0  0  0
  8 20  1  0  0  0
  9 21  1  0  0  0
  9 22  1  0  0  0
 10 12  1  0  0  0
 10 23  1  0  0  0
 12 13  1  0  0  0
 12 24  1  0  0  0
 12 25  1  0  0  0
 13 14  3  0  0  0
 14 26  1  0  0  0
M  ISO  1  11  18
M  END
> <s_m_entry_id>
10199

> <s_m_entry_name>
dock_pv.235

> <s_m_Source_Path>
/home/csk/Desktop/cluster/DUD-E-result/aofb

> <s_m_Source_File>
dock_pv.maegz

> <i_m_Source_File_Index>
235

> <chembl_id>
CHEMBL2023193

> <chembl_pref_name>
[18F]FLUORORASAGILINE

> <i_lp_mmshare_version>
53161

> <i_f3d_flags>
0

> <r_lp_tautomer_probability>
1

> <s_lp_Force_Field>
OPLS_2005

> <r_lp_Energy>
20.504411

> <b_lp_Chiralities_Consistent>
1

> <s_lp_Variant>
CHEMBL2039_lig43-1

> <s_i_glide_gridfile>
glide-grid_1s3b

> <i_i_glide_lignum>
65

> <i_i_glide_rotatable_bonds>
3

> <r_i_docking_score>
-7.55062580882457

> <r_i_glide_ligand_efficiency>
-0.539330414916041

> <r_i_glide_ligand_efficiency_sa>
-1.29986302620084

> <r_i_glide_ligand_efficiency_ln>
-2.07488509383359

> <r_i_glide_gscore>
-7.55062580882457

> <r_i_glide_lipo>
-3.20412521257955

> <r_i_glide_hbond>
-0.332692339263486

> <r_i_glide_metal>
0

> <r_i_glide_rewards>
-3.32304981431906

> <r_i_glide_evdw>
-14.8793897628784

> <r_i_glide_ecoul>
-5.61390972137451

> <r_i_glide_erotb>
0.895297503687624

> <r_i_glide_esite>
0

> <r_i_glide_emodel>
-21.0071983881652

> <r_i_glide_energy>
-20.4932994842529

> <r_i_glide_einternal>
6.16046714782715

> <i_i_glide_confnum>
2

> <i_i_glide_posenum>
61

> <r_i_glide_eff_state_penalty>
0

> <s_user_duplicate_titles>
CHEMBL2039_lig43,CHEMBL2039_lig1065

> <s_m_subgroup_title>
dock_pv

> <s_m_subgroupid>
dock_pv

> <b_m_subgroup_collapsed>
1

$$$$
CHEMBL2039_lig1690
                    3D
 Schrodinger Suite 2021-1.
 34 36  0  0  1  0            999 V2000
   52.7998  153.4507   25.3040 C   0  0  0  0  0  0
   53.3196  154.4826   24.5178 C   0  0  0  0  0  0
   53.1420  155.8090   24.9040 C   0  0  0  0  0  0
   52.4560  156.1147   26.0692 C   0  0  0  0  0  0
   51.9545  155.0950   26.8868 C   0  0  0  0  0  0
   52.0560  153.7636   26.4512 C   0  0  0  0  0  0
   51.3766  155.4018   28.2299 C   0  0  0  0  0  0
   51.4551  156.7681   28.7340 C   0  0  0  0  0  0
   50.8560  154.5284   28.9192 O   0  0  0  0  0  0
   50.4560  157.2993   29.4602 C   0  0  0  0  0  0
   50.3869  158.6605   30.0011 C   0  0  0  0  0  0
   51.5104  159.4989   30.1037 C   0  0  0  0  0  0
   51.4632  160.6669   30.8740 C   0  0  0  0  0  0
   50.2743  161.0440   31.5035 C   0  0  0  0  0  0
   49.1972  159.1198   30.5609 C   0  0  0  0  0  0
   49.1448  160.2736   31.2863 C   0  0  0  0  0  0
   47.8764  160.4858   31.7180 O   0  0  0  0  0  0
   47.2256  159.2696   31.4939 C   0  0  0  0  0  0
   47.9618  158.5516   30.5443 O   0  0  0  0  0  0
   53.2045  152.0148   25.0119 C   0  0  0  0  0  0
   53.2560  151.7755   23.7040 F   0  0  0  0  0  0
   54.4164  151.8440   25.5210 F   0  0  0  0  0  0
   52.4014  151.1247   25.5894 F   0  0  0  0  0  0
   53.9112  154.2545   23.6423 H   0  0  0  0  0  0
   53.5647  156.6063   24.3106 H   0  0  0  0  0  0
   52.3699  157.1542   26.3407 H   0  0  0  0  0  0
   51.6912  152.9619   27.0794 H   0  0  0  0  0  0
   52.3367  157.3383   28.4849 H   0  0  0  0  0  0
   49.6001  156.6803   29.7040 H   0  0  0  0  0  0
   52.4560  159.2051   29.6745 H   0  0  0  0  0  0
   52.3530  161.2656   31.0050 H   0  0  0  0  0  0
   50.2401  161.9392   32.1055 H   0  0  0  0  0  0
   47.2560  158.7122   32.4260 H   0  0  0  0  0  0
   46.1858  159.4111   31.1944 H   0  0  0  0  0  0
  1  2  2  0  0  0
  1  6  1  0  0  0
  1 20  1  0  0  0
  2  3  1  0  0  0
  2 24  1  0  0  0
  3  4  2  0  0  0
  3 25  1  0  0  0
  4  5  1  0  0  0
  4 26  1  0  0  0
  5  6  2  0  0  0
  5  7  1  0  0  0
  6 27  1  0  0  0
  7  8  1  0  0  0
  7  9  2  0  0  0
  8 10  2  0  0  0
  8 28  1  0  0  0
 10 11  1  0  0  0
 10 29  1  0  0  0
 11 12  2  0  0  0
 11 15  1  0  0  0
 12 13  1  0  0  0
 12 30  1  0  0  0
 13 14  2  0  0  0
 13 31  1  0  0  0
 14 16  1  0  0  0
 14 32  1  0  0  0
 15 16  2  0  0  0
 15 19  1  0  0  0
 16 17  1  0  0  0
 17 18  1  0  0  0
 18 19  1  0  0  0
 18 33  1  0  0  0
 18 34  1  0  0  0
 20 21  1  0  0  0
 20 22  1  0  0  0
 20 23  1  0  0  0
M  END
> <s_m_entry_id>
10201

> <s_m_entry_name>
dock_pv.237

> <s_m_Source_Path>
/home/csk/Desktop/cluster/DUD-E-result/aofb

> <s_m_Source_File>
dock_pv.maegz

> <i_m_Source_File_Index>
237

> <chembl_id>
CHEMBL3780640

> <chembl_pref_name>
None

> <i_lp_mmshare_version>
53161

> <i_f3d_flags>
0

> <r_lp_tautomer_probability>
1

> <s_lp_Force_Field>
OPLS_2005

> <r_lp_Energy>
28.877096

> <b_lp_Chiralities_Consistent>
1

> <s_lp_Variant>
CHEMBL2039_lig1690-1

> <s_i_glide_gridfile>
glide-grid_1s3b

> <i_i_glide_lignum>
1978

> <i_i_glide_rotatable_bonds>
4

> <r_i_docking_score>
-7.55060494277106

> <r_i_glide_ligand_efficiency>
-0.328287171424828

> <r_i_glide_ligand_efficiency_sa>
-0.933605045748169

> <r_i_glide_ligand_efficiency_ln>
-1.82580474026237

> <r_i_glide_gscore>
-7.55060494277106

> <r_i_glide_lipo>
-2.91528177218158

> <r_i_glide_hbond>
0

> <r_i_glide_metal>
0

> <r_i_glide_rewards>
-3.47403124198922

> <r_i_glide_evdw>
-29.3812980651855

> <r_i_glide_ecoul>
-0.375224649906158

> <r_i_glide_erotb>
0.364056672144946

> <r_i_glide_esite>
0

> <r_i_glide_emodel>
-31.7710910475054

> <r_i_glide_energy>
-29.7565227150917

> <r_i_glide_einternal>
4.87662363052368

> <i_i_glide_confnum>
6

> <i_i_glide_posenum>
139

> <r_i_glide_eff_state_penalty>
0

> <s_user_duplicate_titles>
CHEMBL2039_lig1690

> <s_m_subgroup_title>
dock_pv

> <s_m_subgroupid>
dock_pv

> <b_m_subgroup_collapsed>
1

$$$$
CHEMBL2039_lig337
                    3D
 Schrodinger Suite 2021-1.
 32 34  0  0  1  0            999 V2000
   47.3381  159.8807   32.0101 C   0  0  0  0  0  0
   48.1358  160.9738   32.3325 C   0  0  0  0  0  0
   49.4431  161.0440   31.8550 C   0  0  0  0  0  0
   47.8603  158.8329   31.2562 C   0  0  0  0  0  0
   49.1687  158.9090   30.7806 C   0  0  0  0  0  0
   49.9681  160.0323   31.0474 C   0  0  0  0  0  0
   51.2848  160.1855   30.3735 C   0  0  0  0  0  0
   51.8061  158.8954   29.7414 C   0  0  0  0  0  0
   50.7302  158.0005   29.2099 C   0  0  2  0  0  0
   49.6341  157.7971   30.1040 O   0  0  0  0  0  0
   51.2560  156.6703   28.5757 C   0  0  0  0  0  0
   50.6677  155.4438   28.9040 C   0  0  0  0  0  0
   51.6581  154.4212   26.9609 C   0  0  0  0  0  0
   52.3010  155.6223   26.6601 C   0  0  0  0  0  0
   50.8985  154.3172   28.1186 C   0  0  0  0  0  0
   52.1534  156.7186   27.5045 C   0  0  0  0  0  0
   51.8994  161.2503   30.3342 O   0  0  0  0  0  0
   46.0561  159.8440   32.4277 F   0  0  0  0  0  0
   51.8397  153.2202   26.0516 C   0  0  0  0  0  0
   47.7323  161.7767   32.9308 H   0  0  0  0  0  0
   50.0408  161.9117   32.1022 H   0  0  0  0  0  0
   47.2504  157.9706   31.0361 H   0  0  0  0  0  0
   52.0560  158.2164   30.5040 H   0  0  0  0  0  0
   52.6046  159.0441   29.0194 H   0  0  0  0  0  0
   50.2552  158.6442   28.5040 H   0  0  0  0  0  0
   49.9778  155.3661   29.7294 H   0  0  0  0  0  0
   52.9325  155.6983   25.7871 H   0  0  0  0  0  0
   50.4560  153.3720   28.3807 H   0  0  0  0  0  0
   52.6309  157.6499   27.2424 H   0  0  0  0  0  0
   51.3274  152.3340   26.4288 H   0  0  0  0  0  0
   52.8996  152.9849   25.9493 H   0  0  0  0  0  0
   51.4582  153.4451   25.0554 H   0  0  0  0  0  0
  1  2  2  0  0  0
  1  4  1  0  0  0
  1 18  1  0  0  0
  2  3  1  0  0  0
  2 20  1  0  0  0
  3  6  2  0  0  0
  3 21  1  0  0  0
  4  5  2  0  0  0
  4 22  1  0  0  0
  5  6  1  0  0  0
  5 10  1  0  0  0
  6  7  1  0  0  0
  7  8  1  0  0  0
  7 17  2  0  0  0
  8  9  1  0  0  0
  8 23  1  0  0  0
  8 24  1  0  0  0
  9 10  1  0  0  0
  9 11  1  0  0  0
  9 25  1  0  0  0
 11 12  2  0  0  0
 11 16  1  0  0  0
 12 15  1  0  0  0
 12 26  1  0  0  0
 13 14  1  0  0  0
 13 15  2  0  0  0
 13 19  1  0  0  0
 14 16  2  0  0  0
 14 27  1  0  0  0
 15 28  1  0  0  0
 16 29  1  0  0  0
 19 30  1  0  0  0
 19 31  1  0  0  0
 19 32  1  0  0  0
M  END
> <s_m_entry_id>
10202

> <s_m_entry_name>
dock_pv.238

> <s_m_Source_Path>
/home/csk/Desktop/cluster/DUD-E-result/aofb

> <s_m_Source_File>
dock_pv.maegz

> <i_m_Source_File_Index>
238

> <chembl_id>
CHEMBL597472

> <chembl_pref_name>
None

> <i_lp_mmshare_version>
53161

> <i_f3d_flags>
0

> <r_lp_tautomer_probability>
0.99995

> <s_lp_Force_Field>
OPLS_2005

> <r_lp_Energy>
18.803103

> <b_lp_Chiralities_Consistent>
1

> <s_lp_Variant>
CHEMBL2039_lig337-1

> <s_i_glide_gridfile>
glide-grid_1s3b

> <i_i_glide_lignum>
389

> <i_i_glide_rotatable_bonds>
1

> <r_i_docking_score>
-7.54473693821909

> <r_i_glide_ligand_efficiency>
-0.397091417801005

> <r_i_glide_ligand_efficiency_sa>
-1.05959939291356

> <r_i_glide_ligand_efficiency_ln>
-1.91275285992978

> <r_i_glide_gscore>
-7.54473693821909

> <r_i_glide_lipo>
-3.74687408875121

> <r_i_glide_hbond>
0

> <r_i_glide_metal>
0

> <r_i_glide_rewards>
-3.07969097986816

> <r_i_glide_evdw>
-14.9017152786255

> <r_i_glide_ecoul>
-1.60950291156769

> <r_i_glide_erotb>
0.268339331066704

> <r_i_glide_esite>
0

> <r_i_glide_emodel>
-27.5191967150363

> <r_i_glide_energy>
-16.5112181901932

> <r_i_glide_einternal>
0.101881474256516

> <i_i_glide_confnum>
2

> <i_i_glide_posenum>
118

> <r_i_glide_eff_state_penalty>
0

> <s_user_duplicate_titles>
CHEMBL2039_lig337,CHEMBL2039_lig362,601785,601327

> <s_m_subgroup_title>
dock_pv

> <s_m_subgroupid>
dock_pv

> <b_m_subgroup_collapsed>
1

$$$$
CHEMBL2039_lig1889
                    3D
 Schrodinger Suite 2021-1.
 34 36  0  0  1  0            999 V2000
   53.2560  152.6300   24.0034 C   0  0  0  0  0  0
   52.8559  151.7363   24.9845 C   0  0  0  0  0  0
   52.1746  152.2151   26.1040 C   0  0  0  0  0  0
   53.1394  153.9960   24.2148 C   0  0  0  0  0  0
   52.5527  154.4797   25.3857 C   0  0  0  0  0  0
   52.0560  153.5886   26.3466 C   0  0  0  0  0  0
   51.5758  154.1047   27.6691 C   0  0  0  0  0  0
   51.6560  155.5673   27.8347 C   0  0  0  0  0  0
   52.4695  156.3275   26.8788 C   0  0  0  0  0  0
   52.5659  155.8441   25.5958 O   0  0  0  0  0  0
   51.2560  153.3247   28.5539 O   0  0  0  0  0  0
   51.1009  156.2089   28.9038 C   0  0  0  0  0  0
   51.2560  157.5563   29.2239 N   0  0  0  0  0  0
   50.3926  158.4718   29.8427 C   0  0  0  0  0  0
   50.8985  159.7443   30.1040 C   0  0  0  0  0  0
   50.1560  160.6440   30.8628 C   0  0  0  0  0  0
   48.8692  160.3098   31.2880 C   0  0  0  0  0  0
   48.3362  159.0601   30.9832 C   0  0  0  0  0  0
   49.1044  158.1416   30.2778 C   0  0  0  0  0  0
   48.0523  161.2886   32.1079 C   0  0  0  0  0  0
   53.1354  157.3235   27.1453 O   0  0  0  0  0  0
   53.6915  152.2620   23.0879 H   0  0  0  0  0  0
   52.9656  150.6730   24.8297 H   0  0  0  0  0  0
   51.7696  151.5052   26.8115 H   0  0  0  0  0  0
   53.5697  154.6440   23.4783 H   0  0  0  0  0  0
   50.4970  155.6817   29.6323 H   0  0  0  0  0  0
   52.1138  157.9860   28.8967 H   0  0  0  0  0  0
   51.9014  160.0087   29.8006 H   0  0  0  0  0  0
   50.5996  161.5841   31.1443 H   0  0  0  0  0  0
   47.3463  158.7877   31.3198 H   0  0  0  0  0  0
   48.7015  157.1559   30.1040 H   0  0  0  0  0  0
   47.5906  160.7829   32.9571 H   0  0  0  0  0  0
   47.2560  161.7124   31.4960 H   0  0  0  0  0  0
   48.6681  162.0942   32.5060 H   0  0  0  0  0  0
  1  2  2  0  0  0
  1  4  1  0  0  0
  1 22  1  0  0  0
  2  3  1  0  0  0
  2 23  1  0  0  0
  3  6  2  0  0  0
  3 24  1  0  0  0
  4  5  2  0  0  0
  4 25  1  0  0  0
  5  6  1  0  0  0
  5 10  1  0  0  0
  6  7  1  0  0  0
  7  8  1  0  0  0
  7 11  2  0  0  0
  8  9  1  0  0  0
  8 12  2  0  0  0
  9 10  1  0  0  0
  9 21  2  0  0  0
 12 13  1  0  0  0
 12 26  1  0  0  0
 13 14  1  0  0  0
 13 27  1  0  0  0
 14 15  2  0  0  0
 14 19  1  0  0  0
 15 16  1  0  0  0
 15 28  1  0  0  0
 16 17  2  0  0  0
 16 29  1  0  0  0
 17 18  1  0  0  0
 17 20  1  0  0  0
 18 19  2  0  0  0
 18 30  1  0  0  0
 19 31  1  0  0  0
 20 32  1  0  0  0
 20 33  1  0  0  0
 20 34  1  0  0  0
M  END
> <s_m_entry_id>
10204

> <s_m_entry_name>
dock_pv.240

> <s_m_Source_Path>
/home/csk/Desktop/cluster/DUD-E-result/aofb

> <s_m_Source_File>
dock_pv.maegz

> <i_m_Source_File_Index>
240

> <chembl_id>
CHEMBL4077771

> <chembl_pref_name>
None

> <i_lp_mmshare_version>
53161

> <i_f3d_flags>
0

> <r_lp_tautomer_probability>
1

> <s_lp_Force_Field>
OPLS_2005

> <r_lp_Energy>
25.328829

> <b_lp_Chiralities_Consistent>
1

> <s_lp_Variant>
CHEMBL2039_lig1889-1

> <s_i_glide_gridfile>
glide-grid_1s3b

> <i_i_glide_lignum>
2224

> <i_i_glide_rotatable_bonds>
2

> <r_i_docking_score>
-7.53331667675919

> <r_i_glide_ligand_efficiency>
-0.358729365559961

> <r_i_glide_ligand_efficiency_sa>
-0.989707118416843

> <r_i_glide_ligand_efficiency_ln>
-1.86259732582904

> <r_i_glide_gscore>
-7.53331667675919

> <r_i_glide_lipo>
-4.20926280294888

> <r_i_glide_hbond>
0

> <r_i_glide_metal>
0

> <r_i_glide_rewards>
-2.85315299810498

> <r_i_glide_evdw>
-22.7721042633057

> <r_i_glide_ecoul>
1.36762058734894

> <r_i_glide_erotb>
0.462561249357624

> <r_i_glide_esite>
0

> <r_i_glide_emodel>
-24.5081414034803

> <r_i_glide_energy>
-21.4044836759567

> <r_i_glide_einternal>
4.7307300567627

> <i_i_glide_confnum>
6

> <i_i_glide_posenum>
118

> <r_i_glide_eff_state_penalty>
0

> <s_user_duplicate_titles>
CHEMBL2039_lig1889

> <s_m_subgroup_title>
dock_pv

> <s_m_subgroupid>
dock_pv

> <b_m_subgroup_collapsed>
1

$$$$
CHEMBL2039_lig2324 
                    3D
 Schrodinger Suite 2021-1.
 36 39  0  0  1  0            999 V2000
   52.6651  150.7647   25.3040 C   0  0  0  0  0  0
   51.9646  151.7213   26.1040 N   0  0  0  0  0  0
   52.2931  152.9950   25.7040 C   0  0  0  0  0  0
   53.0005  153.0249   24.6532 N   0  0  0  0  0  0
   53.2560  151.6724   24.2734 C   0  0  0  0  0  0
   51.9464  154.1797   26.4875 C   0  0  0  0  0  0
   52.4560  155.4281   26.1039 C   0  0  0  0  0  0
   52.3712  156.5022   26.9711 C   0  0  0  0  0  0
   51.6690  156.3717   28.1663 C   0  0  0  0  0  0
   51.1085  155.1474   28.5306 C   0  0  0  0  0  0
   51.2560  154.0479   27.6992 C   0  0  0  0  0  0
   51.4072  157.5873   28.9719 C   0  0  0  0  0  0
   50.3630  157.8202   29.7040 N   0  0  0  0  0  0
   50.5257  159.0753   30.0612 C   0  0  0  0  0  0
   51.6560  159.6297   29.7040 N   0  0  0  0  0  0
   52.2387  158.6440   28.9040 O   0  0  0  0  0  0
   49.5246  159.7675   30.9057 C   0  0  0  0  0  0
   48.1803  159.4044   30.8191 C   0  0  0  0  0  0
   47.2586  159.9383   31.7082 C   0  0  0  0  0  0
   47.6564  160.8300   32.6991 C   0  0  0  0  0  0
   48.9930  161.2052   32.7760 C   0  0  0  0  0  0
   49.9174  160.7094   31.8591 C   0  0  0  0  0  0
   45.6322  159.4440   31.5974 Cl  0  0  0  0  0  0
   53.5004  150.2440   25.7458 H   0  0  0  0  0  0
   51.9642  151.3348   27.0398 H   0  0  0  0  0  0
   52.9046  151.5051   23.2536 H   0  0  0  0  0  0
   54.3208  151.5593   24.4093 H   0  0  0  0  0  0
   52.0560  149.9677   24.9040 H   0  0  0  0  0  0
   53.0103  155.5522   25.1842 H   0  0  0  0  0  0
   52.8099  157.4440   26.6901 H   0  0  0  0  0  0
   50.5597  155.0445   29.4559 H   0  0  0  0  0  0
   50.8561  153.0983   28.0247 H   0  0  0  0  0  0
   47.8529  158.6823   30.0847 H   0  0  0  0  0  0
   46.9395  161.2132   33.4103 H   0  0  0  0  0  0
   49.3328  161.8440   33.5720 H   0  0  0  0  0  0
   50.9564  160.9924   31.9591 H   0  0  0  0  0  0
  1  5  1  0  0  0
  1 24  1  0  0  0
  1 28  1  0  0  0
  1  2  1  0  0  0
  2 25  1  0  0  0
  2  3  1  0  0  0
  3  4  2  0  0  0
  3  6  1  0  0  0
  4  5  1  0  0  0
  5 27  1  0  0  0
  5 26  1  0  0  0
  6  7  2  0  0  0
  6 11  1  0  0  0
  7  8  1  0  0  0
  7 29  1  0  0  0
  8  9  2  0  0  0
  8 30  1  0  0  0
  9 10  1  0  0  0
  9 12  1  0  0  0
 10 11  2  0  0  0
 10 31  1  0  0  0
 11 32  1  0  0  0
 12 13  2  0  0  0
 12 16  1  0  0  0
 13 14  1  0  0  0
 14 15  2  0  0  0
 14 17  1  0  0  0
 15 16  1  0  0  0
 17 18  2  0  0  0
 17 22  1  0  0  0
 18 19  1  0  0  0
 18 33  1  0  0  0
 19 20  2  0  0  0
 19 23  1  0  0  0
 20 21  1  0  0  0
 20 34  1  0  0  0
 21 22  2  0  0  0
 21 35  1  0  0  0
 22 36  1  0  0  0
M  END
> <s_m_entry_id>
10205

> <s_m_entry_name>
dock_pv.241

> <s_m_Source_Path>
/home/csk/Desktop/cluster/DUD-E-result/aofb

> <s_m_Source_File>
dock_pv.maegz

> <i_m_Source_File_Index>
241

> <chembl_id>
CHEMBL4459969

> <chembl_pref_name>
None

> <i_lp_mmshare_version>
53161

> <i_f3d_flags>
0

> <r_lp_tautomer_probability>
0.499999999998415

> <s_lp_Force_Field>
OPLS_2005

> <r_lp_Energy>
29.505216

> <b_lp_Chiralities_Consistent>
1

> <s_lp_Variant>
CHEMBL2039_lig2324 -1

> <s_i_glide_gridfile>
glide-grid_1s3b

> <i_i_glide_lignum>
2701

> <i_i_glide_rotatable_bonds>
3

> <r_i_docking_score>
-7.53220150686389

> <r_i_glide_ligand_efficiency>
-0.32748702203756

> <r_i_glide_ligand_efficiency_sa>
-0.931329527329147

> <r_i_glide_ligand_efficiency_ln>
-1.82135462258689

> <r_i_glide_gscore>
-7.53220150686389

> <r_i_glide_lipo>
-4.12955877952436

> <r_i_glide_hbond>
-0.266216706591113

> <r_i_glide_metal>
0

> <r_i_glide_rewards>
-2.70254366627566

> <r_i_glide_evdw>
-19.574613571167

> <r_i_glide_ecoul>
0.251752823591232

> <r_i_glide_erotb>
0.532809191416699

> <r_i_glide_esite>
-0.0257237908697965

> <r_i_glide_emodel>
-23.9636612492522

> <r_i_glide_energy>
-19.3228607475758

> <r_i_glide_einternal>
1.68434298038483

> <i_i_glide_confnum>
1

> <i_i_glide_posenum>
35

> <r_i_glide_eff_state_penalty>
0

> <s_user_duplicate_titles>
CHEMBL2039_lig2324 

> <s_m_subgroup_title>
dock_pv

> <s_m_subgroupid>
dock_pv

> <b_m_subgroup_collapsed>
1

$$$$
CHEMBL2039_lig1038
                    3D
 Schrodinger Suite 2021-1.
 32 33  0  0  1  0            999 V2000
   51.9733  156.3082   27.8790 C   0  0  0  0  0  0
   52.4560  156.1948   26.5696 C   0  0  0  0  0  0
   52.3537  154.9975   25.8535 C   0  0  0  0  0  0
   51.7257  153.8979   26.4629 C   0  0  0  0  0  0
   51.2562  153.9943   27.7708 C   0  0  0  0  0  0
   51.3643  155.1948   28.4719 C   0  0  0  0  0  0
   52.0092  157.6317   28.5430 C   0  0  0  0  0  0
   51.0335  158.1148   29.3479 C   0  0  0  0  0  0
   51.0714  159.4443   29.9702 C   0  0  0  0  0  0
   52.0560  160.1799   29.9144 O   0  0  0  0  0  0
   49.8914  159.8910   30.7062 C   0  0  0  0  0  0
   48.7074  159.2460   30.5330 O   0  0  0  0  0  0
   47.7881  159.8641   31.3205 C   0  0  0  0  0  0
   48.3834  160.9119   32.0028 C   0  0  0  0  0  0
   49.7231  160.9305   31.6151 C   0  0  0  0  0  0
   46.4065  159.2775   31.3017 C   0  0  0  0  0  0
   52.9166  154.9714   24.5927 O   0  0  0  0  0  0
   53.1636  153.7072   23.9841 C   0  0  0  0  0  0
   52.9255  157.0423   26.0936 H   0  0  0  0  0  0
   51.6209  152.9556   25.9483 H   0  0  0  0  0  0
   50.8019  153.1358   28.2409 H   0  0  0  0  0  0
   50.9651  155.2504   29.4730 H   0  0  0  0  0  0
   52.8914  158.2317   28.3538 H   0  0  0  0  0  0
   50.1628  157.5133   29.5553 H   0  0  0  0  0  0
   47.9051  161.5775   32.7056 H   0  0  0  0  0  0
   50.4865  161.6146   31.9613 H   0  0  0  0  0  0
   45.7200  159.8044   31.9641 H   0  0  0  0  0  0
   46.4569  158.2440   31.6323 H   0  0  0  0  0  0
   45.9707  159.2814   30.3032 H   0  0  0  0  0  0
   53.7134  153.8451   23.0540 H   0  0  0  0  0  0
   53.7691  153.0638   24.6262 H   0  0  0  0  0  0
   52.2358  153.1920   23.7423 H   0  0  0  0  0  0
  1  2  2  0  0  0
  1  6  1  0  0  0
  1  7  1  0  0  0
  2  3  1  0  0  0
  2 19  1  0  0  0
  3  4  2  0  0  0
  3 17  1  0  0  0
  4  5  1  0  0  0
  4 20  1  0  0  0
  5  6  2  0  0  0
  5 21  1  0  0  0
  6 22  1  0  0  0
  7  8  2  0  0  0
  7 23  1  0  0  0
  8  9  1  0  0  0
  8 24  1  0  0  0
  9 10  2  0  0  0
  9 11  1  0  0  0
 11 12  1  0  0  0
 11 15  2  0  0  0
 12 13  1  0  0  0
 13 14  2  0  0  0
 13 16  1  0  0  0
 14 15  1  0  0  0
 14 25  1  0  0  0
 15 26  1  0  0  0
 16 27  1  0  0  0
 16 28  1  0  0  0
 16 29  1  0  0  0
 17 18  1  0  0  0
 18 30  1  0  0  0
 18 31  1  0  0  0
 18 32  1  0  0  0
M  END
> <s_m_entry_id>
10206

> <s_m_entry_name>
dock_pv.242

> <s_m_Source_Path>
/home/csk/Desktop/cluster/DUD-E-result/aofb

> <s_m_Source_File>
dock_pv.maegz

> <i_m_Source_File_Index>
242

> <chembl_id>
CHEMBL2420788

> <chembl_pref_name>
None

> <i_lp_mmshare_version>
53161

> <i_f3d_flags>
0

> <r_lp_tautomer_probability>
1

> <s_lp_Force_Field>
OPLS_2005

> <r_lp_Energy>
11.161839

> <b_lp_Chiralities_Consistent>
1

> <s_lp_Variant>
CHEMBL2039_lig1038-1

> <s_i_glide_gridfile>
glide-grid_1s3b

> <i_i_glide_lignum>
1211

> <i_i_glide_rotatable_bonds>
4

> <r_i_docking_score>
-7.52910888009975

> <r_i_glide_ligand_efficiency>
-0.418283826672208

> <r_i_glide_ligand_efficiency_sa>
-1.0962137380318

> <r_i_glide_ligand_efficiency_ln>
-1.93531861442757

> <r_i_glide_gscore>
-7.52910888009975

> <r_i_glide_lipo>
-3.77377657228758

> <r_i_glide_hbond>
-0.0385182483460568

> <r_i_glide_metal>
0

> <r_i_glide_rewards>
-2.77399106074807

> <r_i_glide_evdw>
-33.232494354248

> <r_i_glide_ecoul>
-1.11717963218689

> <r_i_glide_erotb>
0.88637866382239

> <r_i_glide_esite>
0

> <r_i_glide_emodel>
-44.2976232795701

> <r_i_glide_energy>
-34.3496739864349

> <r_i_glide_einternal>
8.50517082214355

> <i_i_glide_confnum>
6

> <i_i_glide_posenum>
222

> <r_i_glide_eff_state_penalty>
0

> <s_user_duplicate_titles>
CHEMBL2039_lig1038

> <s_m_subgroup_title>
dock_pv

> <s_m_subgroupid>
dock_pv

> <b_m_subgroup_collapsed>
1

$$$$
CHEMBL2039_lig2391 
                    3D
 Schrodinger Suite 2021-1.
 41 42  0  0  1  0            999 V2000
   52.5936  152.9135   25.5810 N   0  0  1  0  0  0
   52.1335  154.2909   25.3513 C   0  0  0  0  0  0
   51.8863  155.0846   26.6614 C   0  0  0  0  0  0
   51.2293  154.2775   27.8082 C   0  0  0  0  0  0
   51.7447  152.8335   27.8530 C   0  0  0  0  0  0
   51.6560  152.1996   26.4591 C   0  0  0  0  0  0
   53.0799  152.2811   24.3395 C   0  0  0  0  0  0
   53.2577  150.8116   24.4227 C   0  0  0  0  0  0
   53.3933  149.5991   24.5040 C   0  0  0  0  0  0
   51.2560  155.0121   29.1675 C   0  0  0  0  0  0
   50.0477  155.9564   29.3594 C   0  0  0  0  0  0
   50.2700  157.4527   29.7040 C   0  0  0  0  0  0
   51.4030  158.1646   29.3040 C   0  0  0  0  0  0
   51.5566  159.4935   29.7040 C   0  0  0  0  0  0
   50.5514  160.1619   30.3990 C   0  0  0  0  0  0
   49.3682  159.4975   30.7241 C   0  0  0  0  0  0
   49.2430  158.1499   30.3729 C   0  0  0  0  0  0
   48.2524  160.2260   31.4729 C   0  0  0  0  0  0
   47.4221  159.3764   32.0805 F   0  0  0  0  0  0
   48.7545  161.0440   32.3997 F   0  0  0  0  0  0
   47.5475  160.9477   30.6022 F   0  0  0  0  0  0
   52.9174  154.8101   24.7968 H   0  0  0  0  0  0
   51.2559  154.3016   24.7035 H   0  0  0  0  0  0
   52.8560  155.4440   26.9916 H   0  0  0  0  0  0
   51.3341  156.0039   26.4709 H   0  0  0  0  0  0
   50.1940  154.1185   27.5086 H   0  0  0  0  0  0
   51.1552  152.2492   28.5576 H   0  0  0  0  0  0
   52.7656  152.8137   28.2361 H   0  0  0  0  0  0
   50.6335  152.2574   26.1040 H   0  0  0  0  0  0
   51.8940  151.1410   26.5045 H   0  0  0  0  0  0
   54.0503  152.7186   24.1038 H   0  0  0  0  0  0
   52.4560  152.5067   23.4803 H   0  0  0  0  0  0
   53.5023  148.5401   24.5915 H   0  0  0  0  0  0
   51.2222  154.2690   29.9659 H   0  0  0  0  0  0
   52.2183  155.5014   29.3003 H   0  0  0  0  0  0
   49.4030  155.8440   28.5040 H   0  0  0  0  0  0
   49.4025  155.5034   30.1040 H   0  0  0  0  0  0
   52.1966  157.6862   28.7491 H   0  0  0  0  0  0
   52.4639  160.0165   29.4611 H   0  0  0  0  0  0
   50.6955  161.1947   30.6816 H   0  0  0  0  0  0
   48.3399  157.6185   30.6336 H   0  0  0  0  0  0
  1  2  1  0  0  0
  1  6  1  0  0  0
  1  7  1  0  0  0
  2  3  1  0  0  0
  2 22  1  0  0  0
  2 23  1  0  0  0
  3  4  1  0  0  0
  3 24  1  0  0  0
  3 25  1  0  0  0
  4  5  1  0  0  0
  4 10  1  0  0  0
  4 26  1  0  0  0
  5  6  1  0  0  0
  5 27  1  0  0  0
  5 28  1  0  0  0
  6 29  1  0  0  0
  6 30  1  0  0  0
  7  8  1  0  0  0
  7 31  1  0  0  0
  7 32  1  0  0  0
  8  9  3  0  0  0
  9 33  1  0  0  0
 10 11  1  0  0  0
 10 34  1  0  0  0
 10 35  1  0  0  0
 11 12  1  0  0  0
 11 36  1  0  0  0
 11 37  1  0  0  0
 12 13  2  0  0  0
 12 17  1  0  0  0
 13 14  1  0  0  0
 13 38  1  0  0  0
 14 15  2  0  0  0
 14 39  1  0  0  0
 15 16  1  0  0  0
 15 40  1  0  0  0
 16 17  2  0  0  0
 16 18  1  0  0  0
 17 41  1  0  0  0
 18 19  1  0  0  0
 18 20  1  0  0  0
 18 21  1  0  0  0
M  END
> <s_m_entry_id>
10207

> <s_m_entry_name>
dock_pv.243

> <s_m_Source_Path>
/home/csk/Desktop/cluster/DUD-E-result/aofb

> <s_m_Source_File>
dock_pv.maegz

> <i_m_Source_File_Index>
243

> <chembl_id>
CHEMBL4539823

> <chembl_pref_name>
None

> <i_lp_mmshare_version>
53161

> <i_f3d_flags>
0

> <r_lp_tautomer_probability>
1

> <s_lp_Force_Field>
OPLS_2005

> <r_lp_Energy>
20.17435

> <b_lp_Chiralities_Consistent>
1

> <s_lp_Variant>
CHEMBL2039_lig2391 -1

> <s_i_glide_gridfile>
glide-grid_1s3b

> <i_i_glide_lignum>
2783

> <i_i_glide_rotatable_bonds>
6

> <r_i_docking_score>
-7.5289929739807

> <r_i_glide_ligand_efficiency>
-0.358523474951462

> <r_i_glide_ligand_efficiency_sa>
-0.98913908183994

> <r_i_glide_ligand_efficiency_ln>
-1.86152829905392

> <r_i_glide_gscore>
-7.5289929739807

> <r_i_glide_lipo>
-3.91556950334741

> <r_i_glide_hbond>
0

> <r_i_glide_metal>
0

> <r_i_glide_rewards>
-3.55605198909258

> <r_i_glide_evdw>
-21.6314029693604

> <r_i_glide_ecoul>
-0.166322454810143

> <r_i_glide_erotb>
1.04914703514884

> <r_i_glide_esite>
0

> <r_i_glide_emodel>
-18.6524448168381

> <r_i_glide_energy>
-21.7977254241705

> <r_i_glide_einternal>
14.153600692749

> <i_i_glide_confnum>
81

> <i_i_glide_posenum>
64

> <r_i_glide_eff_state_penalty>
0

> <s_user_duplicate_titles>
CHEMBL2039_lig2391 

> <s_m_subgroup_title>
dock_pv

> <s_m_subgroupid>
dock_pv

> <b_m_subgroup_collapsed>
1

$$$$
CHEMBL2039_lig1654
                    3D
 Schrodinger Suite 2021-1.
 31 32  0  0  1  0            999 V2000
   47.8251  160.4830   32.1482 C   0  0  0  0  0  0
   48.4266  161.4440   33.1481 C   0  0  0  0  0  0
   48.7531  159.7388   31.2592 C   0  0  0  0  0  0
   49.9945  160.2366   30.8289 C   0  0  0  0  0  0
   50.8323  159.4364   30.0434 C   0  0  0  0  0  0
   50.4560  158.1308   29.7040 C   0  0  0  0  0  0
   49.1901  157.6887   30.1040 C   0  0  0  0  0  0
   48.3399  158.4795   30.8471 C   0  0  0  0  0  0
   51.3276  157.3396   28.9595 O   0  0  0  0  0  0
   51.0167  155.9456   28.7126 C   0  0  0  0  0  0
   51.6854  155.4047   27.4561 C   0  0  0  0  0  0
   51.5800  154.0386   27.1675 C   0  0  0  0  0  0
   52.1047  153.5231   25.9825 C   0  0  0  0  0  0
   52.7329  154.3699   25.0673 C   0  0  0  0  0  0
   52.8560  155.7320   25.3561 C   0  0  0  0  0  0
   52.3436  156.2440   26.5488 C   0  0  0  0  0  0
   53.5029  156.5588   24.5040 F   0  0  0  0  0  0
   53.2560  153.8598   23.9274 F   0  0  0  0  0  0
   52.0560  152.1932   25.7487 F   0  0  0  0  0  0
   46.6209  160.2440   32.2349 O   0  0  0  0  0  0
   49.5161  161.4369   33.1583 H   0  0  0  0  0  0
   48.0756  161.1961   34.1495 H   0  0  0  0  0  0
   48.0560  162.4367   32.9040 H   0  0  0  0  0  0
   50.3302  161.2251   31.1082 H   0  0  0  0  0  0
   51.7974  159.8066   29.7305 H   0  0  0  0  0  0
   48.8277  156.6976   29.8919 H   0  0  0  0  0  0
   47.3832  158.0712   31.1453 H   0  0  0  0  0  0
   51.2560  155.3193   29.5708 H   0  0  0  0  0  0
   49.9640  155.7860   28.5040 H   0  0  0  0  0  0
   51.0899  153.3705   27.8615 H   0  0  0  0  0  0
   52.4479  157.2984   26.7593 H   0  0  0  0  0  0
  1  2  1  0  0  0
  1  3  1  0  0  0
  1 20  2  0  0  0
  2 21  1  0  0  0
  2 22  1  0  0  0
  2 23  1  0  0  0
  3  4  1  0  0  0
  3  8  2  0  0  0
  4  5  2  0  0  0
  4 24  1  0  0  0
  5  6  1  0  0  0
  5 25  1  0  0  0
  6  7  2  0  0  0
  6  9  1  0  0  0
  7  8  1  0  0  0
  7 26  1  0  0  0
  8 27  1  0  0  0
  9 10  1  0  0  0
 10 11  1  0  0  0
 10 28  1  0  0  0
 10 29  1  0  0  0
 11 12  1  0  0  0
 11 16  2  0  0  0
 12 13  2  0  0  0
 12 30  1  0  0  0
 13 14  1  0  0  0
 13 19  1  0  0  0
 14 15  2  0  0  0
 14 18  1  0  0  0
 15 16  1  0  0  0
 15 17  1  0  0  0
 16 31  1  0  0  0
M  END
> <s_m_entry_id>
10208

> <s_m_entry_name>
dock_pv.244

> <s_m_Source_Path>
/home/csk/Desktop/cluster/DUD-E-result/aofb

> <s_m_Source_File>
dock_pv.maegz

> <i_m_Source_File_Index>
244

> <chembl_id>
CHEMBL3770510

> <chembl_pref_name>
None

> <i_lp_mmshare_version>
53161

> <i_f3d_flags>
0

> <r_lp_tautomer_probability>
0.99995

> <s_lp_Force_Field>
OPLS_2005

> <r_lp_Energy>
23.650005

> <b_lp_Chiralities_Consistent>
1

> <s_lp_Variant>
CHEMBL2039_lig1654-1

> <s_i_glide_gridfile>
glide-grid_1s3b

> <i_i_glide_lignum>
1922

> <i_i_glide_rotatable_bonds>
4

> <r_i_docking_score>
-7.52775047637861

> <r_i_glide_ligand_efficiency>
-0.37638752381893

> <r_i_glide_ligand_efficiency_sa>
-1.02167292430042

> <r_i_glide_ligand_efficiency_ln>
-1.88394766241009

> <r_i_glide_gscore>
-7.52775047637861

> <r_i_glide_lipo>
-3.1750518019816

> <r_i_glide_hbond>
0

> <r_i_glide_metal>
0

> <r_i_glide_rewards>
-3.79409049713465

> <r_i_glide_evdw>
-23.2099628448486

> <r_i_glide_ecoul>
-0.585762441158295

> <r_i_glide_erotb>
0.689754331153819

> <r_i_glide_esite>
0

> <r_i_glide_emodel>
-29.9456646663599

> <r_i_glide_energy>
-23.7957252860069

> <r_i_glide_einternal>
5.94130325317383

> <i_i_glide_confnum>
55

> <i_i_glide_posenum>
296

> <r_i_glide_eff_state_penalty>
0

> <s_user_duplicate_titles>
CHEMBL2039_lig1654

> <s_m_subgroup_title>
dock_pv

> <s_m_subgroupid>
dock_pv

> <b_m_subgroup_collapsed>
1

$$$$
CHEMBL2039_lig2168
                    3D
 Schrodinger Suite 2021-1.
 34 35  0  0  1  0            999 V2000
   47.1259  160.8210   30.9040 F   0  0  0  0  0  0
   47.6633  159.7462   31.4798 C   0  0  0  0  0  0
   47.7860  159.9710   32.7883 F   0  0  0  0  0  0
   53.1036  152.6223   24.3270 C   0  0  0  0  0  0
   53.2560  153.0440   22.9473 N   0  0  0  0  0  0
   52.6047  153.7355   25.2380 C   0  0  0  0  0  0
   51.9198  153.4014   26.4089 C   0  0  0  0  0  0
   51.6543  154.3815   27.3642 C   0  0  0  0  0  0
   52.0560  155.7094   27.1460 C   0  0  0  0  0  0
   52.6763  156.0399   25.9461 C   0  0  0  0  0  0
   52.9511  155.0681   24.9955 C   0  0  0  0  0  0
   51.9536  156.7208   28.0832 O   0  0  0  0  0  0
   50.8982  156.6323   29.0314 C   0  0  0  0  0  0
   50.5875  157.9938   29.7038 C   0  0  0  0  0  0
   51.5302  159.0282   29.7040 C   0  0  0  0  0  0
   51.2567  160.2478   30.3197 C   0  0  0  0  0  0
   50.0132  160.4689   30.9039 C   0  0  0  0  0  0
   49.0322  159.4741   30.8686 C   0  0  0  0  0  0
   49.3289  158.2440   30.2670 C   0  0  0  0  0  0
   46.8324  158.7195   31.3040 F   0  0  0  0  0  0
   54.0679  152.2916   24.7064 H   0  0  0  0  0  0
   52.4560  151.7519   24.3734 H   0  0  0  0  0  0
   52.3769  153.3939   22.5813 H   0  0  0  0  0  0
   53.9525  153.7691   22.8758 H   0  0  0  0  0  0
   51.6562  152.3740   26.6150 H   0  0  0  0  0  0
   51.1863  154.0829   28.2895 H   0  0  0  0  0  0
   53.0146  157.0440   25.7806 H   0  0  0  0  0  0
   53.5137  155.3483   24.1191 H   0  0  0  0  0  0
   51.0744  155.8094   29.7040 H   0  0  0  0  0  0
   50.0560  156.2440   28.5040 H   0  0  0  0  0  0
   52.5003  158.8730   29.2560 H   0  0  0  0  0  0
   52.0106  161.0205   30.3461 H   0  0  0  0  0  0
   49.8112  161.4186   31.3791 H   0  0  0  0  0  0
   48.5840  157.4620   30.2396 H   0  0  0  0  0  0
  1  2  1  0  0  0
  2  3  1  0  0  0
  2 18  1  0  0  0
  2 20  1  0  0  0
  4  5  1  0  0  0
  4  6  1  0  0  0
  4 21  1  0  0  0
  4 22  1  0  0  0
  5 23  1  0  0  0
  5 24  1  0  0  0
  6  7  1  0  0  0
  6 11  2  0  0  0
  7  8  2  0  0  0
  7 25  1  0  0  0
  8  9  1  0  0  0
  8 26  1  0  0  0
  9 10  2  0  0  0
  9 12  1  0  0  0
 10 11  1  0  0  0
 10 27  1  0  0  0
 11 28  1  0  0  0
 12 13  1  0  0  0
 13 14  1  0  0  0
 13 29  1  0  0  0
 13 30  1  0  0  0
 14 15  1  0  0  0
 14 19  2  0  0  0
 15 16  2  0  0  0
 15 31  1  0  0  0
 16 17  1  0  0  0
 16 32  1  0  0  0
 17 18  2  0  0  0
 17 33  1  0  0  0
 18 19  1  0  0  0
 19 34  1  0  0  0
M  END
> <s_m_entry_id>
10209

> <s_m_entry_name>
dock_pv.245

> <s_m_Source_Path>
/home/csk/Desktop/cluster/DUD-E-result/aofb

> <s_m_Source_File>
dock_pv.maegz

> <i_m_Source_File_Index>
245

> <chembl_id>
CHEMBL4214881

> <chembl_pref_name>
None

> <i_lp_mmshare_version>
53161

> <i_f3d_flags>
0

> <r_lp_tautomer_probability>
1

> <s_lp_Force_Field>
OPLS_2005

> <r_lp_Energy>
15.215798

> <b_lp_Chiralities_Consistent>
1

> <s_lp_Variant>
CHEMBL2039_lig2168-1

> <s_i_glide_gridfile>
glide-grid_1s3b

> <i_i_glide_lignum>
2527

> <i_i_glide_rotatable_bonds>
5

> <r_i_docking_score>
-7.52560903369788

> <r_i_glide_ligand_efficiency>
-0.376280451684894

> <r_i_glide_ligand_efficiency_sa>
-1.02138228581384

> <r_i_glide_ligand_efficiency_ln>
-1.88341172993661

> <r_i_glide_gscore>
-7.52560903369788

> <r_i_glide_lipo>
-3.33534010935419

> <r_i_glide_hbond>
-0.191307223774123

> <r_i_glide_metal>
0

> <r_i_glide_rewards>
-3.64129077902453

> <r_i_glide_evdw>
-23.02760887146

> <r_i_glide_ecoul>
0.7222820520401

> <r_i_glide_erotb>
0.685367214221941

> <r_i_glide_esite>
0

> <r_i_glide_emodel>
-28.6226397860259

> <r_i_glide_energy>
-22.3053268194199

> <r_i_glide_einternal>
1.36096978187561

> <i_i_glide_confnum>
32

> <i_i_glide_posenum>
276

> <r_i_glide_eff_state_penalty>
0

> <s_user_duplicate_titles>
CHEMBL2039_lig2168

> <s_m_subgroup_title>
dock_pv

> <s_m_subgroupid>
dock_pv

> <b_m_subgroup_collapsed>
1

$$$$
CHEMBL2039_lig657
                    3D
 Schrodinger Suite 2021-1.
 34 36  0  0  1  0            999 V2000
   51.5478  155.7634   28.0167 C   0  0  0  0  0  0
   51.1606  154.4730   28.3779 C   0  0  0  0  0  0
   51.3958  153.3925   27.5312 C   0  0  0  0  0  0
   52.1749  155.9755   26.7895 C   0  0  0  0  0  0
   52.4560  154.8947   25.9501 C   0  0  0  0  0  0
   52.0556  153.6026   26.3265 C   0  0  0  0  0  0
   52.3842  152.4836   25.5888 O   0  0  0  0  0  0
   53.1846  152.6559   24.5079 C   0  0  0  0  0  0
   53.6556  153.8419   24.0826 C   0  0  0  0  0  0
   53.3560  155.0775   24.7861 C   0  0  0  0  0  0
   53.8481  156.1691   24.5040 O   0  0  0  0  0  0
   51.2398  156.7569   28.9040 O   0  0  0  0  0  0
   51.6983  158.1018   28.7666 C   0  0  0  0  0  0
   50.8643  158.9793   29.7040 C   0  0  0  0  0  0
   51.4097  160.1337   30.2763 C   0  0  0  0  0  0
   50.6913  160.8436   31.2402 C   0  0  0  0  0  0
   49.4126  160.4203   31.6164 C   0  0  0  0  0  0
   48.8541  159.2900   31.0354 C   0  0  0  0  0  0
   49.5844  158.5708   30.1040 C   0  0  0  0  0  0
   48.6088  161.1849   32.6466 C   0  0  0  0  0  0
   50.6782  154.3105   29.3305 H   0  0  0  0  0  0
   51.1166  152.3936   27.8302 H   0  0  0  0  0  0
   52.5078  156.9652   26.5144 H   0  0  0  0  0  0
   53.3955  151.7192   24.0109 H   0  0  0  0  0  0
   54.2913  153.8665   23.2120 H   0  0  0  0  0  0
   51.6560  158.4851   27.7533 H   0  0  0  0  0  0
   52.7523  158.1361   29.0310 H   0  0  0  0  0  0
   52.4107  160.4472   30.0206 H   0  0  0  0  0  0
   51.1347  161.7135   31.7036 H   0  0  0  0  0  0
   47.8707  158.9481   31.3239 H   0  0  0  0  0  0
   49.1530  157.6658   29.7091 H   0  0  0  0  0  0
   48.8849  160.9043   33.6635 H   0  0  0  0  0  0
   48.7838  162.2442   32.5119 H   0  0  0  0  0  0
   47.5362  161.0300   32.5163 H   0  0  0  0  0  0
  1 12  1  0  0  0
  1  2  2  0  0  0
  1  4  1  0  0  0
  2  3  1  0  0  0
  2 21  1  0  0  0
  3  6  2  0  0  0
  3 22  1  0  0  0
  4  5  2  0  0  0
  4 23  1  0  0  0
  5  6  1  0  0  0
  5 10  1  0  0  0
  6  7  1  0  0  0
  7  8  1  0  0  0
  8  9  2  0  0  0
  8 24  1  0  0  0
  9 10  1  0  0  0
  9 25  1  0  0  0
 10 11  2  0  0  0
 12 13  1  0  0  0
 13 14  1  0  0  0
 13 26  1  0  0  0
 13 27  1  0  0  0
 14 15  2  0  0  0
 14 19  1  0  0  0
 15 16  1  0  0  0
 15 28  1  0  0  0
 16 17  2  0  0  0
 16 29  1  0  0  0
 17 18  1  0  0  0
 17 20  1  0  0  0
 18 19  2  0  0  0
 18 30  1  0  0  0
 19 31  1  0  0  0
 20 32  1  0  0  0
 20 33  1  0  0  0
 20 34  1  0  0  0
M  END
> <s_m_entry_id>
10210

> <s_m_entry_name>
dock_pv.246

> <s_m_Source_Path>
/home/csk/Desktop/cluster/DUD-E-result/aofb

> <s_m_Source_File>
dock_pv.maegz

> <i_m_Source_File_Index>
246

> <chembl_id>
CHEMBL1945159

> <chembl_pref_name>
None

> <i_lp_mmshare_version>
53161

> <i_f3d_flags>
0

> <r_lp_tautomer_probability>
1

> <s_lp_Force_Field>
OPLS_2005

> <r_lp_Energy>
15.81748

> <b_lp_Chiralities_Consistent>
1

> <s_lp_Variant>
CHEMBL2039_lig657-1

> <s_i_glide_gridfile>
glide-grid_1s3b

> <i_i_glide_lignum>
766

> <i_i_glide_rotatable_bonds>
3

> <r_i_docking_score>
-7.52330329546809

> <r_i_glide_ligand_efficiency>
-0.376165164773404

> <r_i_glide_ligand_efficiency_sa>
-1.02106934899064

> <r_i_glide_ligand_efficiency_ln>
-1.88283467970603

> <r_i_glide_gscore>
-7.52330329546809

> <r_i_glide_lipo>
-4.2170305118267

> <r_i_glide_hbond>
0

> <r_i_glide_metal>
0

> <r_i_glide_rewards>
-2.12351400538843

> <r_i_glide_evdw>
-31.8949146270752

> <r_i_glide_ecoul>
-2.27699208259583

> <r_i_glide_erotb>
0.753535765490181

> <r_i_glide_esite>
0

> <r_i_glide_emodel>
-40.84008223276

> <r_i_glide_energy>
-34.171906709671

> <r_i_glide_einternal>
4.17271614074707

> <i_i_glide_confnum>
28

> <i_i_glide_posenum>
94

> <r_i_glide_eff_state_penalty>
0

> <s_user_duplicate_titles>
CHEMBL2039_lig657

> <s_m_subgroup_title>
dock_pv

> <s_m_subgroupid>
dock_pv

> <b_m_subgroup_collapsed>
1

$$$$
CHEMBL2039_lig791
                    3D
 Schrodinger Suite 2021-1.
 33 35  0  0  1  0            999 V2000
   51.2099  158.7373   29.6637 C   0  0  0  0  0  0
   51.6848  159.9465   30.1931 C   0  0  0  0  0  0
   50.9111  160.6981   31.0845 C   0  0  0  0  0  0
   49.9432  158.2905   30.0329 C   0  0  0  0  0  0
   49.1295  159.1185   30.8060 C   0  0  0  0  0  0
   49.6107  160.2751   31.3490 C   0  0  0  0  0  0
   48.5275  160.8524   32.1877 C   0  0  0  0  0  0
   47.4637  160.0561   31.9985 N   0  0  0  0  0  0
   47.6944  159.0361   31.1587 C   0  0  0  0  0  0
   46.8586  158.2440   30.7615 O   0  0  0  0  0  0
   48.5441  161.8438   32.9037 O   0  0  0  0  0  0
   52.2347  157.8440   28.5040 S   0  0  0  0  0  0
   51.7608  156.1391   28.1575 C   0  0  0  0  0  0
   52.0137  155.9132   26.6564 C   0  0  0  0  0  0
   52.0560  154.4801   26.1675 C   0  0  0  0  0  0
   51.4402  153.4538   26.8833 C   0  0  0  0  0  0
   51.6558  152.1405   26.5027 C   0  0  0  0  0  0
   52.4947  151.8514   25.4288 C   0  0  0  0  0  0
   53.0451  152.8737   24.6619 C   0  0  0  0  0  0
   52.8132  154.1933   25.0243 C   0  0  0  0  0  0
   52.6818  160.2788   29.9499 H   0  0  0  0  0  0
   51.3101  161.5998   31.5257 H   0  0  0  0  0  0
   49.6256  157.3220   29.7040 H   0  0  0  0  0  0
   46.5645  160.2289   32.4194 H   0  0  0  0  0  0
   50.7186  155.9562   28.4111 H   0  0  0  0  0  0
   52.3732  155.4788   28.7737 H   0  0  0  0  0  0
   52.9722  156.3655   26.3918 H   0  0  0  0  0  0
   51.2560  156.4502   26.1040 H   0  0  0  0  0  0
   50.8346  153.6566   27.7555 H   0  0  0  0  0  0
   51.2111  151.3333   27.0645 H   0  0  0  0  0  0
   52.6788  150.8217   25.1590 H   0  0  0  0  0  0
   53.6575  152.6438   23.8026 H   0  0  0  0  0  0
   53.2835  154.9875   24.4633 H   0  0  0  0  0  0
  1  4  1  0  0  0
  1 12  1  0  0  0
  1  2  2  0  0  0
  2  3  1  0  0  0
  2 21  1  0  0  0
  3  6  2  0  0  0
  3 22  1  0  0  0
  4  5  2  0  0  0
  4 23  1  0  0  0
  5  6  1  0  0  0
  5  9  1  0  0  0
  6  7  1  0  0  0
  7 11  2  0  0  0
  7  8  1  0  0  0
  8  9  1  0  0  0
  8 24  1  0  0  0
  9 10  2  0  0  0
 12 13  1  0  0  0
 13 14  1  0  0  0
 13 25  1  0  0  0
 13 26  1  0  0  0
 14 15  1  0  0  0
 14 27  1  0  0  0
 14 28  1  0  0  0
 15 16  2  0  0  0
 15 20  1  0  0  0
 16 17  1  0  0  0
 16 29  1  0  0  0
 17 18  2  0  0  0
 17 30  1  0  0  0
 18 19  1  0  0  0
 18 31  1  0  0  0
 19 20  2  0  0  0
 19 32  1  0  0  0
 20 33  1  0  0  0
M  END
> <s_m_entry_id>
10211

> <s_m_entry_name>
dock_pv.247

> <s_m_Source_Path>
/home/csk/Desktop/cluster/DUD-E-result/aofb

> <s_m_Source_File>
dock_pv.maegz

> <i_m_Source_File_Index>
247

> <chembl_id>
CHEMBL2158249

> <chembl_pref_name>
None

> <i_lp_mmshare_version>
53161

> <i_f3d_flags>
0

> <r_lp_tautomer_probability>
1

> <s_lp_Force_Field>
OPLS_2005

> <r_lp_Energy>
32.467741

> <b_lp_Chiralities_Consistent>
1

> <s_lp_Variant>
CHEMBL2039_lig791-1

> <s_i_glide_gridfile>
glide-grid_1s3b

> <i_i_glide_lignum>
921

> <i_i_glide_rotatable_bonds>
4

> <r_i_docking_score>
-7.51848812846575

> <r_i_glide_ligand_efficiency>
-0.375924406423287

> <r_i_glide_ligand_efficiency_sa>
-1.02041583028439

> <r_i_glide_ligand_efficiency_ln>
-1.88162960222018

> <r_i_glide_gscore>
-7.51848812846575

> <r_i_glide_lipo>
-3.50009647343436

> <r_i_glide_hbond>
0

> <r_i_glide_metal>
0

> <r_i_glide_rewards>
-2.97649653238488

> <r_i_glide_evdw>
-27.0437679290771

> <r_i_glide_ecoul>
-0.938818454742432

> <r_i_glide_erotb>
0.451116042018718

> <r_i_glide_esite>
0

> <r_i_glide_emodel>
-30.3101070921377

> <r_i_glide_energy>
-27.9825863838196

> <r_i_glide_einternal>
4.69189453125

> <i_i_glide_confnum>
6

> <i_i_glide_posenum>
368

> <r_i_glide_eff_state_penalty>
0

> <s_user_duplicate_titles>
CHEMBL2039_lig791

> <s_m_subgroup_title>
dock_pv

> <s_m_subgroupid>
dock_pv

> <b_m_subgroup_collapsed>
1

$$$$
CHEMBL2039_lig574
                    3D
 Schrodinger Suite 2021-1.
 33 35  0  0  1  0            999 V2000
   51.2531  159.1884   29.7208 C   0  0  0  0  0  0
   51.6259  160.3221   30.4618 C   0  0  0  0  0  0
   50.7059  160.9657   31.3040 C   0  0  0  0  0  0
   49.9438  158.7229   29.8375 C   0  0  0  0  0  0
   49.0316  159.3787   30.6493 C   0  0  0  0  0  0
   49.4014  160.4706   31.3733 C   0  0  0  0  0  0
   48.2013  160.9073   32.1332 C   0  0  0  0  0  0
   47.2211  160.0540   31.7929 N   0  0  0  0  0  0
   47.5982  159.1145   30.9134 C   0  0  0  0  0  0
   46.8809  158.2440   30.4440 O   0  0  0  0  0  0
   48.0766  161.8440   32.9040 O   0  0  0  0  0  0
   52.1804  158.5790   28.9040 O   0  0  0  0  0  0
   52.1669  157.1591   28.7191 C   0  0  0  0  0  0
   52.4560  156.7562   27.2637 C   0  0  0  0  0  0
   52.0560  155.3340   26.8676 C   0  0  0  0  0  0
   52.2340  154.9625   25.5322 C   0  0  0  0  0  0
   52.0803  153.6346   25.1511 C   0  0  0  0  0  0
   51.7372  152.6792   26.1040 C   0  0  0  0  0  0
   51.5041  153.0441   27.4244 C   0  0  0  0  0  0
   51.6560  154.3705   27.8080 C   0  0  0  0  0  0
   52.6400  160.6876   30.3995 H   0  0  0  0  0  0
   51.0077  161.8304   31.8761 H   0  0  0  0  0  0
   49.6560  157.8506   29.3040 H   0  0  0  0  0  0
   46.2825  160.1232   32.1526 H   0  0  0  0  0  0
   51.2634  156.6790   29.0791 H   0  0  0  0  0  0
   52.9800  156.7384   29.3040 H   0  0  0  0  0  0
   53.5257  156.8714   27.0913 H   0  0  0  0  0  0
   52.0116  157.4440   26.5586 H   0  0  0  0  0  0
   52.5498  155.6910   24.8000 H   0  0  0  0  0  0
   52.2561  153.3416   24.1262 H   0  0  0  0  0  0
   51.6560  151.6408   25.8189 H   0  0  0  0  0  0
   51.2385  152.2954   28.1570 H   0  0  0  0  0  0
   51.5384  154.5985   28.8555 H   0  0  0  0  0  0
  1  4  1  0  0  0
  1 12  1  0  0  0
  1  2  2  0  0  0
  2  3  1  0  0  0
  2 21  1  0  0  0
  3  6  2  0  0  0
  3 22  1  0  0  0
  4  5  2  0  0  0
  4 23  1  0  0  0
  5  6  1  0  0  0
  5  9  1  0  0  0
  6  7  1  0  0  0
  7 11  2  0  0  0
  7  8  1  0  0  0
  8  9  1  0  0  0
  8 24  1  0  0  0
  9 10  2  0  0  0
 12 13  1  0  0  0
 13 14  1  0  0  0
 13 25  1  0  0  0
 13 26  1  0  0  0
 14 15  1  0  0  0
 14 27  1  0  0  0
 14 28  1  0  0  0
 15 16  2  0  0  0
 15 20  1  0  0  0
 16 17  1  0  0  0
 16 29  1  0  0  0
 17 18  2  0  0  0
 17 30  1  0  0  0
 18 19  1  0  0  0
 18 31  1  0  0  0
 19 20  2  0  0  0
 19 32  1  0  0  0
 20 33  1  0  0  0
M  END
> <s_m_entry_id>
10212

> <s_m_entry_name>
dock_pv.248

> <s_m_Source_Path>
/home/csk/Desktop/cluster/DUD-E-result/aofb

> <s_m_Source_File>
dock_pv.maegz

> <i_m_Source_File_Index>
248

> <chembl_id>
CHEMBL1813519

> <chembl_pref_name>
None

> <i_lp_mmshare_version>
53161

> <i_f3d_flags>
0

> <r_lp_tautomer_probability>
1

> <s_lp_Force_Field>
OPLS_2005

> <r_lp_Energy>
35.759969

> <b_lp_Chiralities_Consistent>
1

> <s_lp_Variant>
CHEMBL2039_lig574-1

> <s_i_glide_gridfile>
glide-grid_1s3b

> <i_i_glide_lignum>
678

> <i_i_glide_rotatable_bonds>
4

> <r_i_docking_score>
-7.51805795967746

> <r_i_glide_ligand_efficiency>
-0.375902897983873

> <r_i_glide_ligand_efficiency_sa>
-1.0203574473976

> <r_i_glide_ligand_efficiency_ln>
-1.88152194516039

> <r_i_glide_gscore>
-7.51805795967746

> <r_i_glide_lipo>
-3.28150780325682

> <r_i_glide_hbond>
0

> <r_i_glide_metal>
0

> <r_i_glide_rewards>
-2.97869482543553

> <r_i_glide_evdw>
-31.476411819458

> <r_i_glide_ecoul>
-1.22125589847565

> <r_i_glide_erotb>
0.499153644759134

> <r_i_glide_esite>
0

> <r_i_glide_emodel>
-39.2118830887814

> <r_i_glide_energy>
-32.6976677179337

> <r_i_glide_einternal>
7.66610860824585

> <i_i_glide_confnum>
2

> <i_i_glide_posenum>
359

> <r_i_glide_eff_state_penalty>
0

> <s_user_duplicate_titles>
CHEMBL2039_lig574

> <s_m_subgroup_title>
dock_pv

> <s_m_subgroupid>
dock_pv

> <b_m_subgroup_collapsed>
1

$$$$
CHEMBL2039_lig2770
                    3D
 Schrodinger Suite 2021-1.
 46 48  0  0  1  0            999 V2000
   48.0645  159.1311   33.2727 C   0  0  0  0  0  0
   47.2561  160.2493   32.8033 N   0  0  0  0  0  0
   47.6412  161.4440   33.5328 C   0  0  0  0  0  0
   47.2091  160.4475   31.3406 C   0  0  2  0  0  0
   46.7413  159.1939   30.6266 C   0  0  0  0  0  0
   47.9884  158.4129   30.2369 C   0  0  0  0  0  0
   49.0215  159.4573   30.1537 N   0  0  0  0  0  0
   48.5345  160.7580   30.6188 C   0  0  0  0  0  0
   50.3081  159.2766   29.7638 C   0  0  0  0  0  0
   51.1090  160.2116   29.7041 O   0  0  0  0  0  0
   50.7891  157.8305   29.5362 C   0  0  0  0  0  0
   52.0560  157.6994   28.8438 N   0  0  2  0  0  0
   52.4387  156.3219   28.4863 C   0  0  1  0  0  0
   51.5925  155.1077   28.8883 C   0  0  0  0  0  0
   51.5911  155.5769   27.4619 C   0  0  2  0  0  0
   52.0561  154.6224   26.3790 C   0  0  0  0  0  0
   52.7955  155.1239   25.3040 C   0  0  0  0  0  0
   53.3808  154.2440   24.3965 C   0  0  0  0  0  0
   53.2093  152.8721   24.5517 C   0  0  0  0  0  0
   52.4560  152.3679   25.6077 C   0  0  0  0  0  0
   51.8488  153.2434   26.5037 C   0  0  0  0  0  0
   47.6560  158.1903   32.9098 H   0  0  0  0  0  0
   48.0560  159.0697   34.3618 H   0  0  0  0  0  0
   49.0952  159.2157   32.9251 H   0  0  0  0  0  0
   46.9648  162.2646   33.3040 H   0  0  0  0  0  0
   47.5732  161.2799   34.6083 H   0  0  0  0  0  0
   48.6610  161.7565   33.3037 H   0  0  0  0  0  0
   46.5481  161.2686   31.0742 H   0  0  0  0  0  0
   46.0560  158.6244   31.2400 H   0  0  0  0  0  0
   46.1742  159.4440   29.7398 H   0  0  0  0  0  0
   48.2428  157.6714   30.9922 H   0  0  0  0  0  0
   47.7387  157.9238   29.3040 H   0  0  0  0  0  0
   48.3096  161.3495   29.7305 H   0  0  0  0  0  0
   49.2382  161.2832   31.2652 H   0  0  0  0  0  0
   50.8560  157.3917   30.5040 H   0  0  0  0  0  0
   50.0560  157.2157   29.0657 H   0  0  0  0  0  0
   52.7730  158.0190   29.4947 H   0  0  0  0  0  0
   53.5078  156.2440   28.3509 H   0  0  0  0  0  0
   52.0560  154.1443   29.0737 H   0  0  0  0  0  0
   50.6806  155.1979   29.4752 H   0  0  0  0  0  0
   50.8560  156.2440   27.0908 H   0  0  0  0  0  0
   52.9645  156.1866   25.2085 H   0  0  0  0  0  0
   53.9859  154.6206   23.5858 H   0  0  0  0  0  0
   53.6560  152.1918   23.8427 H   0  0  0  0  0  0
   52.3250  151.3013   25.7181 H   0  0  0  0  0  0
   51.2714  152.8436   27.3243 H   0  0  0  0  0  0
  1  2  1  0  0  0
  1 22  1  0  0  0
  1 23  1  0  0  0
  1 24  1  0  0  0
  2  3  1  0  0  0
  2  4  1  0  0  0
  3 25  1  0  0  0
  3 26  1  0  0  0
  3 27  1  0  0  0
  4  5  1  0  0  0
  4  8  1  0  0  0
  4 28  1  0  0  0
  5  6  1  0  0  0
  5 29  1  0  0  0
  5 30  1  0  0  0
  6  7  1  0  0  0
  6 31  1  0  0  0
  6 32  1  0  0  0
  7  8  1  0  0  0
  7  9  1  0  0  0
  8 33  1  0  0  0
  8 34  1  0  0  0
  9 10  2  0  0  0
  9 11  1  0  0  0
 11 12  1  0  0  0
 11 35  1  0  0  0
 11 36  1  0  0  0
 12 13  1  0  0  0
 12 37  1  0  0  0
 13 14  1  0  0  0
 13 15  1  0  0  0
 13 38  1  0  0  0
 14 15  1  0  0  0
 14 39  1  0  0  0
 14 40  1  0  0  0
 15 16  1  0  0  0
 15 41  1  0  0  0
 16 17  2  0  0  0
 16 21  1  0  0  0
 17 18  1  0  0  0
 17 42  1  0  0  0
 18 19  2  0  0  0
 18 43  1  0  0  0
 19 20  1  0  0  0
 19 44  1  0  0  0
 20 21  2  0  0  0
 20 45  1  0  0  0
 21 46  1  0  0  0
M  END
> <s_m_entry_id>
10213

> <s_m_entry_name>
dock_pv.249

> <s_m_Source_Path>
/home/csk/Desktop/cluster/DUD-E-result/aofb

> <s_m_Source_File>
dock_pv.maegz

> <i_m_Source_File_Index>
249

> <chembl_id>
CHEMBL3651575

> <chembl_pref_name>
None

> <i_lp_mmshare_version>
53161

> <i_f3d_flags>
0

> <r_lp_tautomer_probability>
1

> <s_lp_Force_Field>
OPLS_2005

> <r_lp_Energy>
42.911834

> <b_lp_Chiralities_Consistent>
1

> <s_lp_Variant>
CHEMBL2039_lig2770-1

> <s_i_glide_gridfile>
glide-grid_1s3b

> <i_i_glide_lignum>
3231

> <i_i_glide_rotatable_bonds>
6

> <r_i_docking_score>
-7.5174050024239

> <r_i_glide_ligand_efficiency>
-0.357971666782091

> <r_i_glide_ligand_efficiency_sa>
-0.987616684942282

> <r_i_glide_ligand_efficiency_ln>
-1.8586631965022

> <r_i_glide_gscore>
-7.5174050024239

> <r_i_glide_lipo>
-3.82235299116098

> <r_i_glide_hbond>
-0.32

> <r_i_glide_metal>
0

> <r_i_glide_rewards>
-3.07556856687902

> <r_i_glide_evdw>
-22.7894992828369

> <r_i_glide_ecoul>
-1.73503279685974

> <r_i_glide_erotb>
1.1002464392869

> <r_i_glide_esite>
0

> <r_i_glide_emodel>
-13.0020900048829

> <r_i_glide_energy>
-24.5245320796967

> <r_i_glide_einternal>
28.6936893463135

> <i_i_glide_confnum>
130

> <i_i_glide_posenum>
237

> <r_i_glide_eff_state_penalty>
0

> <s_user_duplicate_titles>
CHEMBL2039_lig2770

> <s_m_subgroup_title>
dock_pv

> <s_m_subgroupid>
dock_pv

> <b_m_subgroup_collapsed>
1

$$$$
CHEMBL2039_lig213
                    3D
 Schrodinger Suite 2021-1.
 40 42  0  0  1  0            999 V2000
   51.6726  152.3719   26.4069 C   0  0  0  0  0  0
   52.8652  154.2232   25.3041 C   0  0  0  0  0  0
   52.5790  152.9005   25.3633 C   0  0  0  0  0  0
   51.2553  153.2311   27.3839 O   0  0  0  0  0  0
   51.6156  154.5606   27.3896 C   0  0  0  0  0  0
   52.3986  155.1332   26.3774 C   0  0  0  0  0  0
   51.1692  155.3093   28.4722 C   0  0  0  0  0  0
   52.8532  156.4458   26.5580 C   0  0  0  0  0  0
   51.2560  151.2218   26.5040 O   0  0  0  0  0  0
   51.5260  156.6473   28.5729 C   0  0  0  0  0  0
   50.8565  157.4003   29.5207 O   0  0  0  0  0  0
   52.4560  157.1764   27.6719 C   0  0  0  0  0  0
   53.8754  154.7895   24.3176 C   0  0  0  0  0  0
   49.9494  159.4458   30.4129 C   0  0  0  0  0  0
   50.9516  158.8212   29.4596 C   0  0  0  0  0  0
   53.2181  151.8269   24.4807 C   0  0  0  0  0  0
   48.1811  160.5087   32.2758 C   0  0  0  0  0  0
   50.3453  160.5177   31.2141 C   0  0  0  0  0  0
   48.6483  158.9415   30.5062 C   0  0  0  0  0  0
   47.7633  159.4719   31.4404 C   0  0  0  0  0  0
   49.4610  161.0440   32.1462 C   0  0  0  0  0  0
   47.2549  161.0580   33.3381 C   0  0  0  0  0  0
   50.5062  154.8696   29.2025 H   0  0  0  0  0  0
   53.5377  156.9184   25.8740 H   0  0  0  0  0  0
   52.8077  158.1912   27.7650 H   0  0  0  0  0  0
   53.9156  154.2441   23.3759 H   0  0  0  0  0  0
   53.6549  155.8287   24.1040 H   0  0  0  0  0  0
   54.8652  154.7592   24.7695 H   0  0  0  0  0  0
   50.7216  159.1877   28.4625 H   0  0  0  0  0  0
   51.9679  159.1328   29.7088 H   0  0  0  0  0  0
   54.1932  151.5815   24.9030 H   0  0  0  0  0  0
   52.6525  150.8958   24.4431 H   0  0  0  0  0  0
   53.3466  152.1544   23.4500 H   0  0  0  0  0  0
   51.3466  160.9193   31.1488 H   0  0  0  0  0  0
   48.3310  158.1194   29.8828 H   0  0  0  0  0  0
   46.7679  159.0609   31.5281 H   0  0  0  0  0  0
   49.7889  161.8441   32.7929 H   0  0  0  0  0  0
   47.5989  160.7589   34.3288 H   0  0  0  0  0  0
   47.2511  162.1468   33.3032 H   0  0  0  0  0  0
   46.2307  160.7164   33.1932 H   0  0  0  0  0  0
  1  3  1  0  0  0
  1  4  1  0  0  0
  1  9  2  0  0  0
  2  3  2  0  0  0
  2 13  1  0  0  0
  2  6  1  0  0  0
  3 16  1  0  0  0
  4  5  1  0  0  0
  5  6  1  0  0  0
  5  7  2  0  0  0
  6  8  2  0  0  0
  7 10  1  0  0  0
  7 23  1  0  0  0
  8 12  1  0  0  0
  8 24  1  0  0  0
 10 11  1  0  0  0
 10 12  2  0  0  0
 11 15  1  0  0  0
 12 25  1  0  0  0
 13 26  1  0  0  0
 13 27  1  0  0  0
 13 28  1  0  0  0
 14 15  1  0  0  0
 14 18  2  0  0  0
 14 19  1  0  0  0
 15 29  1  0  0  0
 15 30  1  0  0  0
 16 31  1  0  0  0
 16 32  1  0  0  0
 16 33  1  0  0  0
 17 20  1  0  0  0
 17 22  1  0  0  0
 17 21  2  0  0  0
 18 21  1  0  0  0
 18 34  1  0  0  0
 19 20  2  0  0  0
 19 35  1  0  0  0
 20 36  1  0  0  0
 21 37  1  0  0  0
 22 38  1  0  0  0
 22 39  1  0  0  0
 22 40  1  0  0  0
M  END
> <s_m_entry_id>
10214

> <s_m_entry_name>
dock_pv.250

> <s_m_Source_Path>
/home/csk/Desktop/cluster/DUD-E-result/aofb

> <s_m_Source_File>
dock_pv.maegz

> <i_m_Source_File_Index>
250

> <chembl_id>
CHEMBL18966

> <chembl_pref_name>
None

> <i_lp_mmshare_version>
53161

> <i_f3d_flags>
0

> <r_lp_tautomer_probability>
1

> <s_lp_Force_Field>
OPLS_2005

> <r_lp_Energy>
29.135121

> <b_lp_Chiralities_Consistent>
1

> <s_lp_Variant>
CHEMBL2039_lig213-1

> <s_i_glide_gridfile>
glide-grid_1s3b

> <i_i_glide_lignum>
254

> <i_i_glide_rotatable_bonds>
3

> <r_i_docking_score>
-7.5149217837496

> <r_i_glide_ligand_efficiency>
-0.3415873538068

> <r_i_glide_ligand_efficiency_sa>
-0.957141199234962

> <r_i_glide_ligand_efficiency_ln>
-1.83692099738066

> <r_i_glide_gscore>
-7.5149217837496

> <r_i_glide_lipo>
-4.56553710684916

> <r_i_glide_hbond>
0

> <r_i_glide_metal>
0

> <r_i_glide_rewards>
-2.29721138310079

> <r_i_glide_evdw>
-28.5685997009277

> <r_i_glide_ecoul>
0.953566193580627

> <r_i_glide_erotb>
0.633221762209641

> <r_i_glide_esite>
0

> <r_i_glide_emodel>
-28.7910665910613

> <r_i_glide_energy>
-27.6150335073471

> <r_i_glide_einternal>
1.25185930728912

> <i_i_glide_confnum>
11

> <i_i_glide_posenum>
360

> <r_i_glide_eff_state_penalty>
0

> <s_user_duplicate_titles>
CHEMBL2039_lig213,21782

> <s_m_subgroup_title>
dock_pv

> <s_m_subgroupid>
dock_pv

> <b_m_subgroup_collapsed>
1

$$$$
CHEMBL2039_lig897
                    3D
 Schrodinger Suite 2021-1.
 35 37  0  0  1  0            999 V2000
   52.9037  153.2296   24.7279 C   0  0  0  0  0  0
   53.6801  154.3648   24.2467 C   0  0  0  0  0  0
   53.4634  155.5564   24.9039 N   0  0  0  0  0  0
   52.1130  153.2645   25.8211 C   0  0  0  0  0  0
   52.0285  154.5165   26.5491 C   0  0  0  0  0  0
   52.6792  155.6375   26.0589 C   0  0  0  0  0  0
   52.5261  156.6685   26.8722 N   0  0  0  0  0  0
   51.7749  156.2441   27.8654 C   0  0  0  0  0  0
   51.4671  154.9100   27.7272 N   0  0  0  0  0  0
   50.6246  154.1203   28.5679 C   0  0  0  0  0  0
   51.1532  157.0552   28.9138 C   0  0  0  0  0  0
   51.2563  158.3831   29.1233 C   0  0  0  0  0  0
   50.4664  159.1646   30.1037 C   0  0  0  0  0  0
   51.0319  160.3103   30.6708 C   0  0  0  0  0  0
   50.3296  161.0398   31.6287 C   0  0  0  0  0  0
   49.0496  160.6423   32.0044 C   0  0  0  0  0  0
   48.4714  159.5072   31.4441 C   0  0  0  0  0  0
   49.1820  158.7657   30.5039 C   0  0  0  0  0  0
   54.4559  154.2440   23.3039 O   0  0  0  0  0  0
   54.1570  156.7577   24.4067 C   0  0  0  0  0  0
   52.9880  152.3100   24.1679 H   0  0  0  0  0  0
   51.5709  152.3850   26.1363 H   0  0  0  0  0  0
   50.4562  153.1487   28.1038 H   0  0  0  0  0  0
   51.1116  153.9748   29.5328 H   0  0  0  0  0  0
   49.6732  154.6440   28.6852 H   0  0  0  0  0  0
   50.4979  156.5077   29.5731 H   0  0  0  0  0  0
   51.9319  158.9500   28.5040 H   0  0  0  0  0  0
   52.0298  160.6213   30.3967 H   0  0  0  0  0  0
   50.7792  161.9069   32.0890 H   0  0  0  0  0  0
   48.5089  161.2109   32.7467 H   0  0  0  0  0  0
   47.4827  159.1951   31.7473 H   0  0  0  0  0  0
   48.7246  157.8754   30.1018 H   0  0  0  0  0  0
   55.0733  156.5137   23.8661 H   0  0  0  0  0  0
   53.5111  157.3157   23.7276 H   0  0  0  0  0  0
   54.4550  157.4402   25.2044 H   0  0  0  0  0  0
  1  2  1  0  0  0
  1  4  2  0  0  0
  1 21  1  0  0  0
  2  3  1  0  0  0
  2 19  2  0  0  0
  3  6  1  0  0  0
  3 20  1  0  0  0
  4  5  1  0  0  0
  4 22  1  0  0  0
  5  6  2  0  0  0
  5  9  1  0  0  0
  6  7  1  0  0  0
  7  8  2  0  0  0
  8  9  1  0  0  0
  8 11  1  0  0  0
  9 10  1  0  0  0
 10 23  1  0  0  0
 10 24  1  0  0  0
 10 25  1  0  0  0
 11 12  2  0  0  0
 11 26  1  0  0  0
 12 13  1  0  0  0
 12 27  1  0  0  0
 13 14  2  0  0  0
 13 18  1  0  0  0
 14 15  1  0  0  0
 14 28  1  0  0  0
 15 16  2  0  0  0
 15 29  1  0  0  0
 16 17  1  0  0  0
 16 30  1  0  0  0
 17 18  2  0  0  0
 17 31  1  0  0  0
 18 32  1  0  0  0
 20 33  1  0  0  0
 20 34  1  0  0  0
 20 35  1  0  0  0
M  END
> <s_m_entry_id>
10215

> <s_m_entry_name>
dock_pv.251

> <s_m_Source_Path>
/home/csk/Desktop/cluster/DUD-E-result/aofb

> <s_m_Source_File>
dock_pv.maegz

> <i_m_Source_File_Index>
251

> <chembl_id>
CHEMBL2313288

> <chembl_pref_name>
None

> <i_lp_mmshare_version>
53161

> <i_f3d_flags>
0

> <r_lp_tautomer_probability>
1

> <s_lp_Force_Field>
OPLS_2005

> <r_lp_Energy>
31.23072

> <b_lp_Chiralities_Consistent>
1

> <s_lp_Variant>
CHEMBL2039_lig897-1

> <s_i_glide_gridfile>
glide-grid_1s3b

> <i_i_glide_lignum>
1030

> <i_i_glide_rotatable_bonds>
2

> <r_i_docking_score>
-7.51209423904985

> <r_i_glide_ligand_efficiency>
-0.375604711952493

> <r_i_glide_ligand_efficiency_sa>
-1.0195480459818

> <r_i_glide_ligand_efficiency_ln>
-1.88002942258397

> <r_i_glide_gscore>
-7.51209423904985

> <r_i_glide_lipo>
-3.37550712853299

> <r_i_glide_hbond>
0

> <r_i_glide_metal>
0

> <r_i_glide_rewards>
-3.41387796144316

> <r_i_glide_evdw>
-27.078441619873

> <r_i_glide_ecoul>
0.837618231773376

> <r_i_glide_erotb>
0.505570197153944

> <r_i_glide_esite>
0

> <r_i_glide_emodel>
-31.1457073356654

> <r_i_glide_energy>
-26.2408233880997

> <r_i_glide_einternal>
2.52191090583801

> <i_i_glide_confnum>
1

> <i_i_glide_posenum>
76

> <r_i_glide_eff_state_penalty>
0

> <s_user_duplicate_titles>
CHEMBL2039_lig897

> <s_m_subgroup_title>
dock_pv

> <s_m_subgroupid>
dock_pv

> <b_m_subgroup_collapsed>
1

$$$$
CHEMBL2039_lig1366
                    3D
 Schrodinger Suite 2021-1.
 36 38  0  0  1  0            999 V2000
   50.8260  158.7631   29.7040 C   0  0  0  0  0  0
   51.5931  159.8440   30.1673 C   0  0  0  0  0  0
   51.0538  160.7354   31.1037 C   0  0  0  0  0  0
   49.5057  158.6351   30.1306 C   0  0  0  0  0  0
   48.9670  159.5105   31.0594 C   0  0  0  0  0  0
   49.7472  160.5577   31.5673 C   0  0  0  0  0  0
   49.2506  161.4440   32.5040 O   0  0  0  0  0  0
   48.0786  160.9805   33.1886 C   0  0  0  0  0  0
   47.0861  160.3200   32.2005 C   0  0  0  0  0  0
   47.7041  159.2226   31.5330 O   0  0  0  0  0  0
   51.2560  157.7335   28.9040 O   0  0  0  0  0  0
   52.6015  157.5245   28.5173 C   0  0  0  0  0  0
   52.5489  156.8249   27.1514 C   0  0  0  0  0  0
   51.6560  155.7294   27.2658 O   0  0  0  0  0  0
   51.8635  154.6093   26.5095 C   0  0  0  0  0  0
   51.3096  153.4513   27.0384 C   0  0  0  0  0  0
   51.6560  152.2259   26.5040 C   0  0  0  0  0  0
   52.5719  152.1707   25.4548 C   0  0  0  0  0  0
   53.0116  153.3311   24.8237 C   0  0  0  0  0  0
   52.6306  154.5670   25.3337 C   0  0  0  0  0  0
   53.2560  150.4885   24.9040 Br  0  0  0  0  0  0
   52.6210  159.9656   29.8674 H   0  0  0  0  0  0
   51.6557  161.5429   31.4955 H   0  0  0  0  0  0
   48.9184  157.7919   29.8082 H   0  0  0  0  0  0
   48.3728  160.2494   33.9441 H   0  0  0  0  0  0
   47.5998  161.8140   33.7009 H   0  0  0  0  0  0
   46.1861  159.9801   32.7125 H   0  0  0  0  0  0
   46.7891  161.0440   31.4430 H   0  0  0  0  0  0
   53.0592  156.8459   29.2360 H   0  0  0  0  0  0
   53.2156  158.4159   28.5040 H   0  0  0  0  0  0
   53.5579  156.5480   26.8528 H   0  0  0  0  0  0
   52.1325  157.4440   26.3690 H   0  0  0  0  0  0
   50.6821  153.5007   27.9163 H   0  0  0  0  0  0
   51.2647  151.3185   26.9426 H   0  0  0  0  0  0
   53.6899  153.2713   23.9848 H   0  0  0  0  0  0
   53.0244  155.4677   24.8892 H   0  0  0  0  0  0
  1  2  2  0  0  0
  1  4  1  0  0  0
  1 11  1  0  0  0
  2  3  1  0  0  0
  2 22  1  0  0  0
  3  6  2  0  0  0
  3 23  1  0  0  0
  4  5  2  0  0  0
  4 24  1  0  0  0
  5  6  1  0  0  0
  5 10  1  0  0  0
  6  7  1  0  0  0
  7  8  1  0  0  0
  8  9  1  0  0  0
  8 25  1  0  0  0
  8 26  1  0  0  0
  9 10  1  0  0  0
  9 27  1  0  0  0
  9 28  1  0  0  0
 11 12  1  0  0  0
 12 13  1  0  0  0
 12 29  1  0  0  0
 12 30  1  0  0  0
 13 14  1  0  0  0
 13 31  1  0  0  0
 13 32  1  0  0  0
 14 15  1  0  0  0
 15 16  2  0  0  0
 15 20  1  0  0  0
 16 17  1  0  0  0
 16 33  1  0  0  0
 17 18  2  0  0  0
 17 34  1  0  0  0
 18 19  1  0  0  0
 18 21  1  0  0  0
 19 20  2  0  0  0
 19 35  1  0  0  0
 20 36  1  0  0  0
M  END
> <s_m_entry_id>
10216

> <s_m_entry_name>
dock_pv.252

> <s_m_Source_Path>
/home/csk/Desktop/cluster/DUD-E-result/aofb

> <s_m_Source_File>
dock_pv.maegz

> <i_m_Source_File_Index>
252

> <chembl_id>
CHEMBL3402202

> <chembl_pref_name>
None

> <i_lp_mmshare_version>
53161

> <i_f3d_flags>
0

> <r_lp_tautomer_probability>
1

> <s_lp_Force_Field>
OPLS_2005

> <r_lp_Energy>
20.81549

> <b_lp_Chiralities_Consistent>
1

> <s_lp_Variant>
CHEMBL2039_lig1366-1

> <s_i_glide_gridfile>
glide-grid_1s3b

> <i_i_glide_lignum>
1587

> <i_i_glide_rotatable_bonds>
5

> <r_i_docking_score>
-7.51114378892082

> <r_i_glide_ligand_efficiency>
-0.357673513758134

> <r_i_glide_ligand_efficiency_sa>
-0.986794103357063

> <r_i_glide_ligand_efficiency_ln>
-1.85711512411554

> <r_i_glide_gscore>
-7.51114378892082

> <r_i_glide_lipo>
-4.16076532897157

> <r_i_glide_hbond>
0

> <r_i_glide_metal>
0

> <r_i_glide_rewards>
-1.86805475942351

> <r_i_glide_evdw>
-34.2371711730957

> <r_i_glide_ecoul>
-1.56212937831879

> <r_i_glide_erotb>
0.463854264876867

> <r_i_glide_esite>
0

> <r_i_glide_emodel>
-41.3551567987771

> <r_i_glide_energy>
-35.7993005514145

> <r_i_glide_einternal>
7.78279495239258

> <i_i_glide_confnum>
6

> <i_i_glide_posenum>
58

> <r_i_glide_eff_state_penalty>
0

> <s_user_duplicate_titles>
CHEMBL2039_lig1366

> <s_m_subgroup_title>
dock_pv

> <s_m_subgroupid>
dock_pv

> <b_m_subgroup_collapsed>
1

$$$$
CHEMBL2039_lig1872
                    3D
 Schrodinger Suite 2021-1.
 35 37  0  0  1  0            999 V2000
   50.0560  159.0430   30.3149 C   0  0  0  0  0  0
   50.3992  157.8044   29.6216 C   0  0  0  0  0  0
   51.4991  157.5219   28.9040 C   0  0  0  0  0  0
   51.6560  156.2384   28.2091 C   0  0  0  0  0  0
   48.7860  159.1278   30.8937 C   0  0  0  0  0  0
   48.4915  160.1539   31.7818 C   0  0  0  0  0  0
   49.4726  161.0840   32.1040 C   0  0  0  0  0  0
   50.7127  161.0440   31.4653 C   0  0  0  0  0  0
   50.9967  160.0504   30.5378 C   0  0  0  0  0  0
   51.1881  155.0440   28.7652 C   0  0  0  0  0  0
   51.2560  153.8664   28.0383 C   0  0  0  0  0  0
   51.7725  153.8846   26.7416 C   0  0  0  0  0  0
   52.1728  155.0887   26.1552 C   0  0  0  0  0  0
   52.1506  156.2502   26.9076 C   0  0  0  0  0  0
   52.0574  152.6322   26.0647 C   0  0  0  0  0  0
   52.9570  152.4836   25.1665 N   0  0  0  0  0  0
   53.2560  151.2634   24.6611 N   0  0  0  0  0  0
   52.8560  150.0515   25.0827 C   0  0  0  0  0  0
   51.6555  150.1963   26.1039 C   0  0  0  0  0  0
   51.3266  151.5469   26.5040 O   0  0  0  0  0  0
   53.3319  148.9899   24.6844 O   0  0  0  0  0  0
   46.9321  160.2440   32.5040 Cl  0  0  0  0  0  0
   49.6529  157.0275   29.7040 H   0  0  0  0  0  0
   52.3000  158.2398   28.7966 H   0  0  0  0  0  0
   48.0419  158.3663   30.7081 H   0  0  0  0  0  0
   49.2697  161.8448   32.8390 H   0  0  0  0  0  0
   51.4639  161.7830   31.7040 H   0  0  0  0  0  0
   51.9850  160.0050   30.1047 H   0  0  0  0  0  0
   50.7898  155.0141   29.7685 H   0  0  0  0  0  0
   50.9484  152.9427   28.5085 H   0  0  0  0  0  0
   52.5859  155.1180   25.1564 H   0  0  0  0  0  0
   52.4923  157.1723   26.4646 H   0  0  0  0  0  0
   53.9976  151.2820   23.9763 H   0  0  0  0  0  0
   51.6560  149.4670   26.9040 H   0  0  0  0  0  0
   50.7274  149.8440   25.7040 H   0  0  0  0  0  0
  1  2  1  0  0  0
  1  5  2  0  0  0
  1  9  1  0  0  0
  2  3  2  0  0  0
  2 23  1  0  0  0
  3  4  1  0  0  0
  3 24  1  0  0  0
  4 10  2  0  0  0
  4 14  1  0  0  0
  5  6  1  0  0  0
  5 25  1  0  0  0
  6  7  2  0  0  0
  6 22  1  0  0  0
  7  8  1  0  0  0
  7 26  1  0  0  0
  8  9  2  0  0  0
  8 27  1  0  0  0
  9 28  1  0  0  0
 10 11  1  0  0  0
 10 29  1  0  0  0
 11 12  2  0  0  0
 11 30  1  0  0  0
 12 13  1  0  0  0
 12 15  1  0  0  0
 13 14  2  0  0  0
 13 31  1  0  0  0
 14 32  1  0  0  0
 15 16  2  0  0  0
 15 20  1  0  0  0
 16 17  1  0  0  0
 17 18  1  0  0  0
 17 33  1  0  0  0
 18 19  1  0  0  0
 18 21  2  0  0  0
 19 20  1  0  0  0
 19 34  1  0  0  0
 19 35  1  0  0  0
M  END
> <s_m_entry_id>
10217

> <s_m_entry_name>
dock_pv.253

> <s_m_Source_Path>
/home/csk/Desktop/cluster/DUD-E-result/aofb

> <s_m_Source_File>
dock_pv.maegz

> <i_m_Source_File_Index>
253

> <chembl_id>
CHEMBL4061847

> <chembl_pref_name>
None

> <i_lp_mmshare_version>
53161

> <i_f3d_flags>
0

> <r_lp_tautomer_probability>
1

> <s_lp_Force_Field>
OPLS_2005

> <r_lp_Energy>
29.536245

> <b_lp_Chiralities_Consistent>
1

> <s_lp_Variant>
CHEMBL2039_lig1872-1

> <s_i_glide_gridfile>
glide-grid_1s3b

> <i_i_glide_lignum>
2207

> <i_i_glide_rotatable_bonds>
3

> <r_i_docking_score>
-7.50846635312464

> <r_i_glide_ligand_efficiency>
-0.341293925142029

> <r_i_glide_ligand_efficiency_sa>
-0.956319000576381

> <r_i_glide_ligand_efficiency_ln>
-1.83534305466837

> <r_i_glide_gscore>
-7.50846635312464

> <r_i_glide_lipo>
-3.75174883836515

> <r_i_glide_hbond>
-0.185262218192319

> <r_i_glide_metal>
0

> <r_i_glide_rewards>
-3.07670440909091

> <r_i_glide_evdw>
-19.4718360900879

> <r_i_glide_ecoul>
-0.603599846363068

> <r_i_glide_erotb>
0.569380893982586

> <r_i_glide_esite>
0

> <r_i_glide_emodel>
-30.6092519580206

> <r_i_glide_energy>
-20.075435936451

> <r_i_glide_einternal>
2.77357602119446

> <i_i_glide_confnum>
10

> <i_i_glide_posenum>
111

> <r_i_glide_eff_state_penalty>
0

> <s_user_duplicate_titles>
CHEMBL2039_lig1872

> <s_m_subgroup_title>
dock_pv

> <s_m_subgroupid>
dock_pv

> <b_m_subgroup_collapsed>
1

$$$$
CHEMBL2039_lig1254
                    3D
 Schrodinger Suite 2021-1.
 35 37  0  0  1  0            999 V2000
   50.5455  160.5731   31.1351 C   0  0  0  0  0  0
   51.3526  152.2440   26.5040 C   0  0  0  0  0  0
   51.2829  155.3603   28.5733 C   0  0  0  0  0  0
   47.3041  161.0440   33.4076 Cl  0  0  0  0  0  0
   49.6567  161.0440   32.0979 C   0  0  0  0  0  0
   52.4560  157.1056   27.4365 C   0  0  0  0  0  0
   51.6557  156.6918   28.5040 C   0  0  0  0  0  0
   52.2819  154.9303   26.4058 C   0  0  0  0  0  0
   51.4932  152.9802   27.8314 C   0  0  0  0  0  0
   52.6561  156.2712   26.3406 C   0  0  0  0  0  0
   50.1529  159.5421   30.2766 C   0  0  0  0  0  0
   52.5556  152.5218   25.5971 C   0  0  0  0  0  0
   52.6003  154.0128   25.2592 C   0  0  0  0  0  0
   51.1499  158.9287   29.3039 C   0  0  0  0  0  0
   48.3789  160.4999   32.1849 C   0  0  0  0  0  0
   47.9661  159.5037   31.3075 C   0  0  0  0  0  0
   48.8560  159.0254   30.3544 C   0  0  0  0  0  0
   51.1378  157.5189   29.4752 O   0  0  0  0  0  0
   51.6560  154.4594   27.5837 C   0  0  0  0  0  0
   52.9572  154.4231   24.1582 O   0  0  0  0  0  0
   51.5470  160.9773   31.0942 H   0  0  0  0  0  0
   51.2139  151.1725   26.6548 H   0  0  0  0  0  0
   50.4560  152.6423   26.0411 H   0  0  0  0  0  0
   50.7404  155.0139   29.4408 H   0  0  0  0  0  0
   49.9709  161.8160   32.7852 H   0  0  0  0  0  0
   52.8155  158.1180   27.4003 H   0  0  0  0  0  0
   52.3798  152.6440   28.3672 H   0  0  0  0  0  0
   50.6515  152.7753   28.4838 H   0  0  0  0  0  0
   53.1880  156.6507   25.4799 H   0  0  0  0  0  0
   53.4694  152.2566   26.1286 H   0  0  0  0  0  0
   52.4560  151.9477   24.6763 H   0  0  0  0  0  0
   50.8388  159.1908   28.2964 H   0  0  0  0  0  0
   52.1563  159.3173   29.4659 H   0  0  0  0  0  0
   46.9724  159.0866   31.3814 H   0  0  0  0  0  0
   48.5459  158.2245   29.7040 H   0  0  0  0  0  0
  1  5  2  0  0  0
  1 11  1  0  0  0
  1 21  1  0  0  0
  2  9  1  0  0  0
  2 12  1  0  0  0
  2 22  1  0  0  0
  2 23  1  0  0  0
  3 19  2  0  0  0
  3  7  1  0  0  0
  3 24  1  0  0  0
  4 15  1  0  0  0
  5 15  1  0  0  0
  5 25  1  0  0  0
  6  7  2  0  0  0
  6 10  1  0  0  0
  6 26  1  0  0  0
  7 18  1  0  0  0
  8 13  1  0  0  0
  8 10  2  0  0  0
  8 19  1  0  0  0
  9 19  1  0  0  0
  9 27  1  0  0  0
  9 28  1  0  0  0
 10 29  1  0  0  0
 11 17  2  0  0  0
 11 14  1  0  0  0
 12 13  1  0  0  0
 12 30  1  0  0  0
 12 31  1  0  0  0
 13 20  2  0  0  0
 14 18  1  0  0  0
 14 32  1  0  0  0
 14 33  1  0  0  0
 15 16  2  0  0  0
 16 17  1  0  0  0
 16 34  1  0  0  0
 17 35  1  0  0  0
M  END
> <s_m_entry_id>
10218

> <s_m_entry_name>
dock_pv.254

> <s_m_Source_Path>
/home/csk/Desktop/cluster/DUD-E-result/aofb

> <s_m_Source_File>
dock_pv.maegz

> <i_m_Source_File_Index>
254

> <chembl_id>
CHEMBL3288295

> <chembl_pref_name>
None

> <i_lp_mmshare_version>
53161

> <i_f3d_flags>
0

> <r_lp_tautomer_probability>
0.99995

> <s_lp_Force_Field>
OPLS_2005

> <r_lp_Energy>
22.681996

> <b_lp_Chiralities_Consistent>
1

> <s_lp_Variant>
CHEMBL2039_lig1254-1

> <s_i_glide_gridfile>
glide-grid_1s3b

> <i_i_glide_lignum>
1446

> <i_i_glide_rotatable_bonds>
3

> <r_i_docking_score>
-7.50653131591741

> <r_i_glide_ligand_efficiency>
-0.37532656579587

> <r_i_glide_ligand_efficiency_sa>
-1.01879304115503

> <r_i_glide_ligand_efficiency_ln>
-1.87863720640141

> <r_i_glide_gscore>
-7.50653131591741

> <r_i_glide_lipo>
-4.04129786266641

> <r_i_glide_hbond>
0

> <r_i_glide_metal>
0

> <r_i_glide_rewards>
-2.67387769165286

> <r_i_glide_evdw>
-25.1593799591064

> <r_i_glide_ecoul>
-1.30755054950714

> <r_i_glide_erotb>
0.66274581878325

> <r_i_glide_esite>
0

> <r_i_glide_emodel>
-27.5944561371463

> <r_i_glide_energy>
-26.4669305086136

> <r_i_glide_einternal>
2.00837564468384

> <i_i_glide_confnum>
35

> <i_i_glide_posenum>
52

> <r_i_glide_eff_state_penalty>
0

> <s_user_duplicate_titles>
CHEMBL2039_lig1254

> <s_m_subgroup_title>
dock_pv

> <s_m_subgroupid>
dock_pv

> <b_m_subgroup_collapsed>
1

$$$$
CHEMBL2039_lig204
                    3D
 Schrodinger Suite 2021-1.
 33 36  0  0  1  0            999 V2000
   52.3326  156.1366   26.8663 C   0  0  0  0  0  0
   51.6570  155.0123   27.3075 C   0  0  0  0  0  0
   52.8968  155.8747   25.5180 C   0  0  0  0  0  0
   50.9606  154.9761   28.4725 N   0  0  0  0  0  0
   52.6952  154.4286   25.3213 C   0  0  0  0  0  0
   51.9715  153.9090   26.3948 C   0  0  0  0  0  0
   50.8558  156.1095   29.1892 N   0  0  0  0  0  0
   52.3766  157.2475   27.7115 C   0  0  0  0  0  0
   51.5444  157.2400   28.8456 C   0  0  0  0  0  0
   53.5010  156.6434   24.7747 O   0  0  0  0  0  0
   51.2530  158.5587   29.5991 C   0  0  0  0  0  0
   53.2553  153.5887   24.3587 C   0  0  0  0  0  0
   51.8064  152.5341   26.5187 C   0  0  0  0  0  0
   49.8150  158.9832   29.9848 C   0  0  0  0  0  0
   49.4634  160.3283   29.8700 C   0  0  0  0  0  0
   48.8480  158.0977   30.4765 C   0  0  0  0  0  0
   53.1683  152.2096   24.5384 C   0  0  0  0  0  0
   52.4566  151.6857   25.6215 C   0  0  0  0  0  0
   47.5862  158.5385   30.8621 C   0  0  0  0  0  0
   48.1875  160.7664   30.2202 C   0  0  0  0  0  0
   47.2558  159.8769   30.7321 C   0  0  0  0  0  0
   52.9300  158.1323   27.4441 H   0  0  0  0  0  0
   51.6486  159.3543   28.9669 H   0  0  0  0  0  0
   51.8645  158.6365   30.4875 H   0  0  0  0  0  0
   53.8404  153.9798   23.5388 H   0  0  0  0  0  0
   51.2696  152.1140   27.3570 H   0  0  0  0  0  0
   50.1830  161.0442   29.5074 H   0  0  0  0  0  0
   49.0300  157.0440   30.5040 H   0  0  0  0  0  0
   53.6453  151.5470   23.8319 H   0  0  0  0  0  0
   52.3820  150.6150   25.7424 H   0  0  0  0  0  0
   46.8569  157.8443   31.2423 H   0  0  0  0  0  0
   47.9150  161.8027   30.1022 H   0  0  0  0  0  0
   46.2711  160.2225   31.0132 H   0  0  0  0  0  0
  1  2  2  0  0  0
  1  3  1  0  0  0
  1  8  1  0  0  0
  2  4  1  0  0  0
  2  6  1  0  0  0
  3  5  1  0  0  0
  3 10  2  0  0  0
  4  7  2  0  0  0
  5 12  1  0  0  0
  5  6  2  0  0  0
  6 13  1  0  0  0
  7  9  1  0  0  0
  8  9  2  0  0  0
  8 22  1  0  0  0
  9 11  1  0  0  0
 11 14  1  0  0  0
 11 23  1  0  0  0
 11 24  1  0  0  0
 12 17  2  0  0  0
 12 25  1  0  0  0
 13 18  2  0  0  0
 13 26  1  0  0  0
 14 15  2  0  0  0
 14 16  1  0  0  0
 15 20  1  0  0  0
 15 27  1  0  0  0
 16 19  2  0  0  0
 16 28  1  0  0  0
 17 18  1  0  0  0
 17 29  1  0  0  0
 18 30  1  0  0  0
 19 21  1  0  0  0
 19 31  1  0  0  0
 20 21  2  0  0  0
 20 32  1  0  0  0
 21 33  1  0  0  0
M  END
> <s_m_entry_id>
10219

> <s_m_entry_name>
dock_pv.255

> <s_m_Source_Path>
/home/csk/Desktop/cluster/DUD-E-result/aofb

> <s_m_Source_File>
dock_pv.maegz

> <i_m_Source_File_Index>
255

> <chembl_id>
CHEMBL338035

> <chembl_pref_name>
None

> <i_lp_mmshare_version>
53161

> <i_f3d_flags>
0

> <r_lp_tautomer_probability>
1

> <s_lp_Force_Field>
OPLS_2005

> <r_lp_Energy>
40.54546

> <b_lp_Chiralities_Consistent>
1

> <s_lp_Variant>
CHEMBL2039_lig204-1

> <s_i_glide_gridfile>
glide-grid_1s3b

> <i_i_glide_lignum>
245

> <i_i_glide_rotatable_bonds>
2

> <r_i_docking_score>
-7.50648190200543

> <r_i_glide_ligand_efficiency>
-0.357451519143116

> <r_i_glide_ligand_efficiency_sa>
-0.986181637047284

> <r_i_glide_ligand_efficiency_ln>
-1.85596248199594

> <r_i_glide_gscore>
-7.50648190200543

> <r_i_glide_lipo>
-4.05239222581477

> <r_i_glide_hbond>
0

> <r_i_glide_metal>
0

> <r_i_glide_rewards>
-2.70990589000349

> <r_i_glide_evdw>
-19.9423236846924

> <r_i_glide_ecoul>
-1.53605651855469

> <r_i_glide_erotb>
0.483340875830643

> <r_i_glide_esite>
0

> <r_i_glide_emodel>
-28.4943802581749

> <r_i_glide_energy>
-21.4783802032471

> <r_i_glide_einternal>
1.94676578044891

> <i_i_glide_confnum>
1

> <i_i_glide_posenum>
202

> <r_i_glide_eff_state_penalty>
0

> <s_user_duplicate_titles>
CHEMBL2039_lig204

> <s_m_subgroup_title>
dock_pv

> <s_m_subgroupid>
dock_pv

> <b_m_subgroup_collapsed>
1

$$$$
CHEMBL2039_lig1737
                    3D
 Schrodinger Suite 2021-1.
 30 32  0  0  1  0            999 V2000
   51.4100  154.7664   27.8278 C   0  0  0  0  0  0
   51.4808  156.1777   28.2048 C   0  0  0  0  0  0
   52.4552  156.8674   27.2661 C   0  0  0  0  0  0
   52.6783  155.8439   26.1744 C   0  0  0  0  0  0
   53.4990  155.8714   25.0435 C   0  0  0  0  0  0
   53.7755  154.6782   24.3702 C   0  0  0  0  0  0
   53.0805  153.5088   24.6686 C   0  0  0  0  0  0
   52.1881  153.4978   25.7363 C   0  0  0  0  0  0
   52.0559  154.6482   26.5179 C   0  0  0  0  0  0
   50.8560  153.8817   28.4671 O   0  0  0  0  0  0
   50.6786  156.6539   29.1885 C   0  0  0  0  0  0
   50.4565  158.0253   29.7040 C   0  0  0  0  0  0
   49.2320  158.2673   30.3445 C   0  0  0  0  0  0
   49.0018  159.4439   31.0507 C   0  0  0  0  0  0
   50.0107  160.4075   31.1193 C   0  0  0  0  0  0
   51.1997  160.2257   30.4127 C   0  0  0  0  0  0
   51.4160  159.0434   29.7000 C   0  0  0  0  0  0
   54.7795  154.6440   23.4486 O   0  0  0  0  0  0
   47.4955  159.6398   31.8810 Cl  0  0  0  0  0  0
   49.8422  161.7857   32.1369 Cl  0  0  0  0  0  0
   52.0560  157.8091   26.9040 H   0  0  0  0  0  0
   53.3897  157.0995   27.7791 H   0  0  0  0  0  0
   54.0542  156.7608   24.7875 H   0  0  0  0  0  0
   53.2714  152.5985   24.1193 H   0  0  0  0  0  0
   51.7018  152.5728   26.0123 H   0  0  0  0  0  0
   50.0682  155.9221   29.7039 H   0  0  0  0  0  0
   48.4645  157.5066   30.3505 H   0  0  0  0  0  0
   51.9811  160.9691   30.4700 H   0  0  0  0  0  0
   52.3744  158.8855   29.2275 H   0  0  0  0  0  0
   55.0654  153.7343   23.3000 H   0  0  0  0  0  0
  1  2  1  0  0  0
  1  9  1  0  0  0
  1 10  2  0  0  0
  2  3  1  0  0  0
  2 11  2  0  0  0
  3  4  1  0  0  0
  3 21  1  0  0  0
  3 22  1  0  0  0
  4  5  1  0  0  0
  4  9  2  0  0  0
  5  6  2  0  0  0
  5 23  1  0  0  0
  6  7  1  0  0  0
  6 18  1  0  0  0
  7  8  2  0  0  0
  7 24  1  0  0  0
  8  9  1  0  0  0
  8 25  1  0  0  0
 11 12  1  0  0  0
 11 26  1  0  0  0
 12 13  1  0  0  0
 12 17  2  0  0  0
 13 14  2  0  0  0
 13 27  1  0  0  0
 14 15  1  0  0  0
 14 19  1  0  0  0
 15 16  2  0  0  0
 15 20  1  0  0  0
 16 17  1  0  0  0
 16 28  1  0  0  0
 17 29  1  0  0  0
 18 30  1  0  0  0
M  END
> <s_m_entry_id>
10220

> <s_m_entry_name>
dock_pv.256

> <s_m_Source_Path>
/home/csk/Desktop/cluster/DUD-E-result/aofb

> <s_m_Source_File>
dock_pv.maegz

> <i_m_Source_File_Index>
256

> <chembl_id>
CHEMBL3928890

> <chembl_pref_name>
None

> <i_lp_mmshare_version>
53161

> <i_f3d_flags>
0

> <r_lp_tautomer_probability>
1

> <s_lp_Force_Field>
OPLS_2005

> <r_lp_Energy>
24.923902

> <b_lp_Chiralities_Consistent>
1

> <s_lp_Variant>
CHEMBL2039_lig1737-1

> <s_i_glide_gridfile>
glide-grid_1s3b

> <i_i_glide_lignum>
2025

> <i_i_glide_rotatable_bonds>
2

> <r_i_docking_score>
-7.50442400598339

> <r_i_glide_ligand_efficiency>
-0.37522120029917

> <r_i_glide_ligand_efficiency_sa>
-1.01850703519489

> <r_i_glide_ligand_efficiency_ln>
-1.87810981622866

> <r_i_glide_gscore>
-7.50442400598339

> <r_i_glide_lipo>
-3.44183059558377

> <r_i_glide_hbond>
-0.32

> <r_i_glide_metal>
0

> <r_i_glide_rewards>
-2.31947009840317

> <r_i_glide_evdw>
-20.3153514862061

> <r_i_glide_ecoul>
-2.71570491790771

> <r_i_glide_erotb>
0

> <r_i_glide_esite>
0

> <r_i_glide_emodel>
-25.0389529018737

> <r_i_glide_energy>
-23.0310564041138

> <r_i_glide_einternal>
0.803184628486633

> <i_i_glide_confnum>
1

> <i_i_glide_posenum>
61

> <r_i_glide_eff_state_penalty>
0

> <s_user_duplicate_titles>
CHEMBL2039_lig1737

> <s_m_subgroup_title>
dock_pv

> <s_m_subgroupid>
dock_pv

> <b_m_subgroup_collapsed>
1

$$$$
CHEMBL2039_lig2098
                    3D
 Schrodinger Suite 2021-1.
 40 42  0  0  1  0            999 V2000
   52.5154  155.3455   25.2205 C   0  0  0  0  0  0
   53.2558  156.4804   25.4482 C   0  0  0  0  0  0
   53.2560  157.0440   26.7253 C   0  0  0  0  0  0
   52.4558  156.6252   27.7575 C   0  0  0  0  0  0
   51.9111  154.7517   26.3151 C   0  0  0  0  0  0
   51.8471  155.3921   27.5729 C   0  0  0  0  0  0
   51.2558  154.4789   28.5903 C   0  0  0  0  0  0
   50.6459  153.4440   27.7040 C   0  0  0  0  0  0
   51.3680  153.3720   26.3770 C   0  0  2  0  0  0
   52.4635  152.4120   26.3791 N   0  0  1  0  0  0
   53.0651  152.1619   25.0706 C   0  0  0  0  0  0
   53.2552  150.7126   24.8871 C   0  0  0  0  0  0
   53.3778  149.5116   24.6949 C   0  0  0  0  0  0
   52.3702  157.4007   28.9040 O   0  0  0  0  0  0
   51.0460  157.7515   29.3150 C   0  0  0  0  0  0
   50.8567  159.0450   30.0755 C   0  0  0  0  0  0
   51.8739  159.9861   30.2179 C   0  0  0  0  0  0
   51.6812  161.0768   31.0584 C   0  0  0  0  0  0
   50.4559  161.2530   31.7040 C   0  0  0  0  0  0
   49.4066  160.3688   31.4909 C   0  0  0  0  0  0
   49.6046  159.2704   30.6644 C   0  0  0  0  0  0
   47.7335  160.6406   32.3576 Br  0  0  0  0  0  0
   52.5403  154.8663   24.2533 H   0  0  0  0  0  0
   53.8499  156.9133   24.6563 H   0  0  0  0  0  0
   53.8603  157.9188   26.9050 H   0  0  0  0  0  0
   50.5143  154.9092   29.2590 H   0  0  0  0  0  0
   52.0335  154.0258   29.1921 H   0  0  0  0  0  0
   49.6390  153.8244   27.5125 H   0  0  0  0  0  0
   50.5687  152.4712   28.1880 H   0  0  0  0  0  0
   50.6551  153.1385   25.5899 H   0  0  0  0  0  0
   53.1964  152.8771   26.9084 H   0  0  0  0  0  0
   54.0332  152.6601   24.9996 H   0  0  0  0  0  0
   52.4553  152.5235   24.2434 H   0  0  0  0  0  0
   53.4734  148.4578   24.5497 H   0  0  0  0  0  0
   50.4561  158.0406   28.5040 H   0  0  0  0  0  0
   50.5522  156.9425   29.8457 H   0  0  0  0  0  0
   52.8296  159.8348   29.7349 H   0  0  0  0  0  0
   52.4811  161.7839   31.2239 H   0  0  0  0  0  0
   50.3111  162.0972   32.3607 H   0  0  0  0  0  0
   48.8007  158.5606   30.5318 H   0  0  0  0  0  0
  1  2  2  0  0  0
  1  5  1  0  0  0
  1 23  1  0  0  0
  2  3  1  0  0  0
  2 24  1  0  0  0
  3  4  2  0  0  0
  3 25  1  0  0  0
  4  6  1  0  0  0
  4 14  1  0  0  0
  5  6  2  0  0  0
  5  9  1  0  0  0
  6  7  1  0  0  0
  7  8  1  0  0  0
  7 26  1  0  0  0
  7 27  1  0  0  0
  8  9  1  0  0  0
  8 28  1  0  0  0
  8 29  1  0  0  0
  9 10  1  0  0  0
  9 30  1  0  0  0
 10 11  1  0  0  0
 10 31  1  0  0  0
 11 12  1  0  0  0
 11 32  1  0  0  0
 11 33  1  0  0  0
 12 13  3  0  0  0
 13 34  1  0  0  0
 14 15  1  0  0  0
 15 16  1  0  0  0
 15 35  1  0  0  0
 15 36  1  0  0  0
 16 17  2  0  0  0
 16 21  1  0  0  0
 17 18  1  0  0  0
 17 37  1  0  0  0
 18 19  2  0  0  0
 18 38  1  0  0  0
 19 20  1  0  0  0
 19 39  1  0  0  0
 20 21  2  0  0  0
 20 22  1  0  0  0
 21 40  1  0  0  0
M  END
> <s_m_entry_id>
10221

> <s_m_entry_name>
dock_pv.257

> <s_m_Source_Path>
/home/csk/Desktop/cluster/DUD-E-result/aofb

> <s_m_Source_File>
dock_pv.maegz

> <i_m_Source_File_Index>
257

> <chembl_id>
CHEMBL4161773

> <chembl_pref_name>
None

> <i_lp_mmshare_version>
53161

> <i_f3d_flags>
0

> <r_lp_tautomer_probability>
1

> <s_lp_Force_Field>
OPLS_2005

> <r_lp_Energy>
29.841444

> <b_lp_Chiralities_Consistent>
1

> <s_lp_Variant>
CHEMBL2039_lig2098-2

> <s_i_glide_gridfile>
glide-grid_1s3b

> <i_i_glide_lignum>
2440

> <i_i_glide_rotatable_bonds>
6

> <r_i_docking_score>
-7.50250943661133

> <r_i_glide_ligand_efficiency>
-0.341023156209606

> <r_i_glide_ligand_efficiency_sa>
-0.955560295378993

> <r_i_glide_ligand_efficiency_ln>
-1.83388696698871

> <r_i_glide_gscore>
-7.50250943661133

> <r_i_glide_lipo>
-4.57856709778954

> <r_i_glide_hbond>
-0.372299986248589

> <r_i_glide_metal>
0

> <r_i_glide_rewards>
-2.63007054545455

> <r_i_glide_evdw>
-8.17890453338623

> <r_i_glide_ecoul>
-2.77997326850891

> <r_i_glide_erotb>
0.904369409826994

> <r_i_glide_esite>
0

> <r_i_glide_emodel>
-19.1045925025117

> <r_i_glide_energy>
-10.9588778018951

> <r_i_glide_einternal>
10.7041177749634

> <i_i_glide_confnum>
5

> <i_i_glide_posenum>
180

> <r_i_glide_eff_state_penalty>
0

> <s_user_duplicate_titles>
CHEMBL2039_lig2098

> <s_m_subgroup_title>
dock_pv

> <s_m_subgroupid>
dock_pv

> <b_m_subgroup_collapsed>
1

$$$$
CHEMBL2039_lig1047
                    3D
 Schrodinger Suite 2021-1.
 28 29  0  0  1  0            999 V2000
   50.6745  158.6278   29.7040 C   0  0  0  0  0  0
   49.3342  158.5895   30.1228 C   0  0  0  0  0  0
   48.8030  159.5900   30.9352 C   0  0  0  0  0  0
   49.6119  160.6440   31.3498 C   0  0  0  0  0  0
   50.9398  160.7080   30.9327 C   0  0  0  0  0  0
   51.4597  159.7167   30.1040 C   0  0  0  0  0  0
   51.3069  157.5199   28.9478 C   0  0  0  0  0  0
   50.8560  156.2440   28.8968 C   0  0  0  0  0  0
   51.4055  155.1324   28.1040 C   0  0  0  0  0  0
   51.2560  153.9839   28.5153 O   0  0  0  0  0  0
   52.0560  155.3452   26.8035 C   0  0  0  0  0  0
   52.1892  154.2487   26.0036 O   0  0  0  0  0  0
   52.9010  154.6081   24.9040 C   0  0  0  0  0  0
   53.1575  155.9671   24.9526 C   0  0  0  0  0  0
   52.6173  156.4341   26.1503 C   0  0  0  0  0  0
   53.2775  153.5039   23.9487 C   0  0  0  0  0  0
   47.1565  159.5048   31.4497 Cl  0  0  0  0  0  0
   48.6937  157.7632   29.8594 H   0  0  0  0  0  0
   49.2147  161.4125   31.9967 H   0  0  0  0  0  0
   51.5707  161.5199   31.2656 H   0  0  0  0  0  0
   52.4992  159.7699   29.8152 H   0  0  0  0  0  0
   52.1977  157.8058   28.4165 H   0  0  0  0  0  0
   49.9916  155.9650   29.4798 H   0  0  0  0  0  0
   53.7083  156.5471   24.2272 H   0  0  0  0  0  0
   52.6804  157.4440   26.5040 H   0  0  0  0  0  0
   54.0930  153.8087   23.2934 H   0  0  0  0  0  0
   52.4560  153.2072   23.3040 H   0  0  0  0  0  0
   53.6159  152.6129   24.4779 H   0  0  0  0  0  0
  1  2  2  0  0  0
  1  6  1  0  0  0
  1  7  1  0  0  0
  2  3  1  0  0  0
  2 18  1  0  0  0
  3  4  2  0  0  0
  3 17  1  0  0  0
  4  5  1  0  0  0
  4 19  1  0  0  0
  5  6  2  0  0  0
  5 20  1  0  0  0
  6 21  1  0  0  0
  7  8  2  0  0  0
  7 22  1  0  0  0
  8  9  1  0  0  0
  8 23  1  0  0  0
  9 10  2  0  0  0
  9 11  1  0  0  0
 11 12  1  0  0  0
 11 15  2  0  0  0
 12 13  1  0  0  0
 13 14  2  0  0  0
 13 16  1  0  0  0
 14 15  1  0  0  0
 14 24  1  0  0  0
 15 25  1  0  0  0
 16 26  1  0  0  0
 16 27  1  0  0  0
 16 28  1  0  0  0
M  END
> <s_m_entry_id>
10222

> <s_m_entry_name>
dock_pv.258

> <s_m_Source_Path>
/home/csk/Desktop/cluster/DUD-E-result/aofb

> <s_m_Source_File>
dock_pv.maegz

> <i_m_Source_File_Index>
258

> <chembl_id>
CHEMBL2420693

> <chembl_pref_name>
None

> <i_lp_mmshare_version>
53161

> <i_f3d_flags>
0

> <r_lp_tautomer_probability>
1

> <s_lp_Force_Field>
OPLS_2005

> <r_lp_Energy>
6.980248

> <b_lp_Chiralities_Consistent>
1

> <s_lp_Variant>
CHEMBL2039_lig1047-1

> <s_i_glide_gridfile>
glide-grid_1s3b

> <i_i_glide_lignum>
1220

> <i_i_glide_rotatable_bonds>
3

> <r_i_docking_score>
-7.50073313774453

> <r_i_glide_ligand_efficiency>
-0.441219596337913

> <r_i_glide_ligand_efficiency_sa>
-1.13449982442991

> <r_i_glide_ligand_efficiency_ln>
-1.95677424252297

> <r_i_glide_gscore>
-7.50073313774453

> <r_i_glide_lipo>
-3.36886846318199

> <r_i_glide_hbond>
0

> <r_i_glide_metal>
0

> <r_i_glide_rewards>
-3.07712290909091

> <r_i_glide_evdw>
-31.673038482666

> <r_i_glide_ecoul>
-0.293516218662262

> <r_i_glide_erotb>
0.572937591461017

> <r_i_glide_esite>
0

> <r_i_glide_emodel>
-43.115771857199

> <r_i_glide_energy>
-31.9665547013283

> <r_i_glide_einternal>
1.73420548439026

> <i_i_glide_confnum>
1

> <i_i_glide_posenum>
323

> <r_i_glide_eff_state_penalty>
0

> <s_user_duplicate_titles>
CHEMBL2039_lig1047

> <s_m_subgroup_title>
dock_pv

> <s_m_subgroupid>
dock_pv

> <b_m_subgroup_collapsed>
1

$$$$
CHEMBL2039_lig1921
                    3D
 Schrodinger Suite 2021-1.
 34 36  0  0  1  0            999 V2000
   52.8506  152.3423   25.1000 C   0  0  0  0  0  0
   53.4092  153.3488   24.3071 C   0  0  0  0  0  0
   53.2569  154.6879   24.6592 C   0  0  0  0  0  0
   52.0557  152.6845   26.2030 C   0  0  0  0  0  0
   51.8883  154.0279   26.5486 C   0  0  0  0  0  0
   52.5267  155.0199   25.7969 C   0  0  0  0  0  0
   52.6272  156.3208   26.2635 O   0  0  0  0  0  0
   52.3917  156.6012   27.6065 C   0  0  0  0  0  0
   51.3957  155.7308   28.2932 C   0  0  0  0  0  0
   51.2282  154.4810   27.7781 C   0  0  0  0  0  0
   52.9707  157.5764   28.0753 O   0  0  0  0  0  0
   53.0803  150.8860   24.7406 C   0  0  0  0  0  0
   50.4560  156.2321   29.3040 C   0  0  0  0  0  0
   50.5781  157.5539   29.6318 N   0  0  0  0  0  0
   49.5240  155.5327   29.7023 O   0  0  0  0  0  0
   49.6560  158.4641   30.2015 C   0  0  0  0  0  0
   50.1666  159.7188   30.5410 C   0  0  0  0  0  0
   49.3640  160.6440   31.1997 C   0  0  0  0  0  0
   48.0254  160.3524   31.4483 C   0  0  0  0  0  0
   47.4834  159.1347   31.0490 C   0  0  0  0  0  0
   48.2992  158.1918   30.4306 C   0  0  0  0  0  0
   54.0074  153.0905   23.4454 H   0  0  0  0  0  0
   53.7737  155.4548   24.1041 H   0  0  0  0  0  0
   51.6119  151.9101   26.8130 H   0  0  0  0  0  0
   50.4727  153.8272   28.1938 H   0  0  0  0  0  0
   52.4440  150.2130   25.3160 H   0  0  0  0  0  0
   52.8636  150.7248   23.6841 H   0  0  0  0  0  0
   54.1184  150.6101   24.9048 H   0  0  0  0  0  0
   51.4635  157.9695   29.3715 H   0  0  0  0  0  0
   51.2063  159.9565   30.3637 H   0  0  0  0  0  0
   49.7850  161.5824   31.5257 H   0  0  0  0  0  0
   47.4019  161.0783   31.9494 H   0  0  0  0  0  0
   46.4391  158.9208   31.2227 H   0  0  0  0  0  0
   47.8616  157.2642   30.1040 H   0  0  0  0  0  0
  1 12  1  0  0  0
  1  2  2  0  0  0
  1  4  1  0  0  0
  2  3  1  0  0  0
  2 22  1  0  0  0
  3  6  2  0  0  0
  3 23  1  0  0  0
  4  5  2  0  0  0
  4 24  1  0  0  0
  5  6  1  0  0  0
  5 10  1  0  0  0
  6  7  1  0  0  0
  7  8  1  0  0  0
  8 11  2  0  0  0
  8  9  1  0  0  0
  9 10  2  0  0  0
  9 13  1  0  0  0
 10 25  1  0  0  0
 12 26  1  0  0  0
 12 27  1  0  0  0
 12 28  1  0  0  0
 13 14  1  0  0  0
 13 15  2  0  0  0
 14 16  1  0  0  0
 14 29  1  0  0  0
 16 17  2  0  0  0
 16 21  1  0  0  0
 17 18  1  0  0  0
 17 30  1  0  0  0
 18 19  2  0  0  0
 18 31  1  0  0  0
 19 20  1  0  0  0
 19 32  1  0  0  0
 20 21  2  0  0  0
 20 33  1  0  0  0
 21 34  1  0  0  0
M  END
> <s_m_entry_id>
10223

> <s_m_entry_name>
dock_pv.259

> <s_m_Source_Path>
/home/csk/Desktop/cluster/DUD-E-result/aofb

> <s_m_Source_File>
dock_pv.maegz

> <i_m_Source_File_Index>
259

> <chembl_id>
CHEMBL495466

> <chembl_pref_name>
None

> <i_lp_mmshare_version>
53161

> <i_f3d_flags>
0

> <r_lp_tautomer_probability>
1

> <s_lp_Force_Field>
OPLS_2005

> <r_lp_Energy>
30.181371

> <b_lp_Chiralities_Consistent>
1

> <s_lp_Variant>
CHEMBL2039_lig1921-1

> <s_i_glide_gridfile>
glide-grid_1s3b

> <i_i_glide_lignum>
2256

> <i_i_glide_rotatable_bonds>
3

> <r_i_docking_score>
-7.49811350898044

> <r_i_glide_ligand_efficiency>
-0.357053024237164

> <r_i_glide_ligand_efficiency_sa>
-0.985082219818203

> <r_i_glide_ligand_efficiency_ln>
-1.85389341373044

> <r_i_glide_gscore>
-7.49811350898044

> <r_i_glide_lipo>
-4.49088917786904

> <r_i_glide_hbond>
-0.0142771589149829

> <r_i_glide_metal>
0

> <r_i_glide_rewards>
-2.58633599430814

> <r_i_glide_evdw>
-23.2856464385986

> <r_i_glide_ecoul>
0.425528466701508

> <r_i_glide_erotb>
0.693841874036436

> <r_i_glide_esite>
0

> <r_i_glide_emodel>
-15.3722296562138

> <r_i_glide_energy>
-22.8601179718971

> <r_i_glide_einternal>
17.6594161987305

> <i_i_glide_confnum>
3

> <i_i_glide_posenum>
203

> <r_i_glide_eff_state_penalty>
0

> <s_user_duplicate_titles>
CHEMBL2039_lig1921

> <s_m_subgroup_title>
dock_pv

> <s_m_subgroupid>
dock_pv

> <b_m_subgroup_collapsed>
1

$$$$
CHEMBL2039_lig136
                    3D
 Schrodinger Suite 2021-1.
 36 38  0  0  1  0            999 V2000
   52.0445  154.2297   26.4647 C   0  0  0  0  0  0
   52.4560  155.5507   26.4179 C   0  0  0  0  0  0
   51.2896  154.0043   27.6902 C   0  0  0  0  0  0
   52.0217  156.2366   27.6214 C   0  0  0  0  0  0
   51.1768  155.3557   28.2738 C   0  0  0  0  0  0
   53.2559  156.0363   25.4416 N   0  0  0  0  0  0
   47.4672  159.4910   31.0939 C   0  0  0  0  0  0
   53.6861  155.1815   24.5040 N   0  0  0  0  0  0
   50.3743  155.8104   29.3040 C   0  0  0  0  0  0
   52.4061  153.3651   25.4395 C   0  0  0  0  0  0
   52.2314  157.5170   28.1269 C   0  0  0  0  0  0
   50.8560  152.9407   28.1039 O   0  0  0  0  0  0
   53.2199  153.8996   24.4461 C   0  0  0  0  0  0
   48.2696  159.0439   32.0541 F   0  0  0  0  0  0
   46.4560  158.6440   30.9917 F   0  0  0  0  0  0
   46.9736  160.6507   31.5066 F   0  0  0  0  0  0
   51.4143  158.0080   29.1509 C   0  0  0  0  0  0
   50.4560  157.1494   29.7040 C   0  0  0  0  0  0
   48.1457  159.6218   29.7231 C   0  0  0  0  0  0
   51.6003  159.3219   29.5296 O   0  0  0  0  0  0
   53.5481  153.0964   23.2066 C   0  0  0  0  0  0
   50.6852  159.9906   30.3975 C   0  0  0  0  0  0
   49.4157  160.4849   29.6750 C   0  0  0  0  0  0
   49.6791  155.1447   29.7952 H   0  0  0  0  0  0
   52.0736  152.3377   25.4075 H   0  0  0  0  0  0
   52.9493  158.1827   27.6775 H   0  0  0  0  0  0
   49.8132  157.4841   30.5008 H   0  0  0  0  0  0
   48.3332  158.6440   29.3041 H   0  0  0  0  0  0
   47.4202  160.0635   29.0418 H   0  0  0  0  0  0
   53.6560  152.0380   23.4429 H   0  0  0  0  0  0
   52.7369  153.1909   22.4882 H   0  0  0  0  0  0
   54.4560  153.4453   22.7209 H   0  0  0  0  0  0
   51.2316  160.8679   30.7462 H   0  0  0  0  0  0
   50.4560  159.4440   31.3040 H   0  0  0  0  0  0
   49.6560  160.6440   28.6259 H   0  0  0  0  0  0
   49.1506  161.4440   30.1040 H   0  0  0  0  0  0
  1  2  2  0  0  0
  1  3  1  0  0  0
  1 10  1  0  0  0
  2  4  1  0  0  0
  2  6  1  0  0  0
  3  5  1  0  0  0
  3 12  2  0  0  0
  4 11  2  0  0  0
  4  5  1  0  0  0
  5  9  2  0  0  0
  6  8  2  0  0  0
  7 19  1  0  0  0
  7 14  1  0  0  0
  7 15  1  0  0  0
  7 16  1  0  0  0
  8 13  1  0  0  0
  9 18  1  0  0  0
  9 24  1  0  0  0
 10 13  2  0  0  0
 10 25  1  0  0  0
 11 17  1  0  0  0
 11 26  1  0  0  0
 13 21  1  0  0  0
 17 20  1  0  0  0
 17 18  2  0  0  0
 18 27  1  0  0  0
 19 23  1  0  0  0
 19 28  1  0  0  0
 19 29  1  0  0  0
 20 22  1  0  0  0
 21 30  1  0  0  0
 21 31  1  0  0  0
 21 32  1  0  0  0
 22 23  1  0  0  0
 22 33  1  0  0  0
 22 34  1  0  0  0
 23 35  1  0  0  0
 23 36  1  0  0  0
M  END
> <s_m_entry_id>
10224

> <s_m_entry_name>
dock_pv.260

> <s_m_Source_Path>
/home/csk/Desktop/cluster/DUD-E-result/aofb

> <s_m_Source_File>
dock_pv.maegz

> <i_m_Source_File_Index>
260

> <chembl_id>
CHEMBL348961

> <chembl_pref_name>
None

> <i_lp_mmshare_version>
53161

> <i_f3d_flags>
0

> <r_lp_tautomer_probability>
1

> <s_lp_Force_Field>
OPLS_2005

> <r_lp_Energy>
38.255997

> <b_lp_Chiralities_Consistent>
1

> <s_lp_Variant>
CHEMBL2039_lig136-1

> <s_i_glide_gridfile>
glide-grid_1s3b

> <i_i_glide_lignum>
162

> <i_i_glide_rotatable_bonds>
5

> <r_i_docking_score>
-7.49222152560705

> <r_i_glide_ligand_efficiency>
-0.325748761982915

> <r_i_glide_ligand_efficiency_sa>
-0.926386146962514

> <r_i_glide_ligand_efficiency_ln>
-1.81168710060056

> <r_i_glide_gscore>
-7.49222152560705

> <r_i_glide_lipo>
-3.56037259144101

> <r_i_glide_hbond>
0

> <r_i_glide_metal>
0

> <r_i_glide_rewards>
-3.75740912882269

> <r_i_glide_evdw>
-17.6588878631592

> <r_i_glide_ecoul>
-0.0772480443120003

> <r_i_glide_erotb>
0.720091794461405

> <r_i_glide_esite>
0

> <r_i_glide_emodel>
-27.8438240640369

> <r_i_glide_energy>
-17.7361359074712

> <r_i_glide_einternal>
4.65175294876099

> <i_i_glide_confnum>
16

> <i_i_glide_posenum>
37

> <r_i_glide_eff_state_penalty>
0

> <s_user_duplicate_titles>
CHEMBL2039_lig136,271474

> <s_m_subgroup_title>
dock_pv

> <s_m_subgroupid>
dock_pv

> <b_m_subgroup_collapsed>
1

$$$$
CHEMBL2039_lig2371 
                    3D
 Schrodinger Suite 2021-1.
 36 37  0  0  1  0            999 V2000
   52.2857  153.5885   25.5648 N   0  0  1  0  0  0
   51.9317  153.0819   26.9097 C   0  0  0  0  0  0
   51.1412  154.0819   27.7722 C   0  0  0  0  0  0
   51.9164  155.3932   27.9671 C   0  0  0  0  0  0
   52.1555  155.9786   26.5519 C   0  0  0  0  0  0
   52.7505  154.9957   25.5204 C   0  0  0  0  0  0
   53.3277  152.7994   24.8666 C   0  0  0  0  0  0
   53.1688  151.3287   24.8887 C   0  0  0  0  0  0
   53.1343  150.1076   24.9040 C   0  0  0  0  0  0
   51.1597  156.3430   28.9040 C   0  0  0  0  0  0
   51.2559  157.6904   28.9039 C   0  0  0  0  0  0
   50.5187  158.6442   29.7564 C   0  0  0  0  0  0
   51.1606  159.8360   30.1043 C   0  0  0  0  0  0
   50.5677  160.7166   31.0017 C   0  0  0  0  0  0
   49.3049  160.4396   31.5178 C   0  0  0  0  0  0
   48.6428  159.2673   31.1683 C   0  0  0  0  0  0
   49.2572  158.3631   30.3062 C   0  0  0  0  0  0
   51.4052  152.1298   26.8296 H   0  0  0  0  0  0
   52.8560  152.8632   27.4417 H   0  0  0  0  0  0
   50.1691  154.2284   27.3146 H   0  0  0  0  0  0
   50.9552  153.6150   28.7404 H   0  0  0  0  0  0
   52.8560  155.1195   28.4368 H   0  0  0  0  0  0
   52.8330  156.8307   26.6148 H   0  0  0  0  0  0
   51.2560  156.3629   26.1043 H   0  0  0  0  0  0
   53.8232  155.0430   25.7033 H   0  0  0  0  0  0
   52.6261  155.3678   24.5032 H   0  0  0  0  0  0
   54.3101  152.9859   25.3043 H   0  0  0  0  0  0
   53.3916  153.1100   23.8228 H   0  0  0  0  0  0
   53.1088  149.0401   24.9052 H   0  0  0  0  0  0
   50.5124  155.8700   29.6291 H   0  0  0  0  0  0
   51.9295  158.1514   28.1958 H   0  0  0  0  0  0
   52.1480  160.0535   29.7242 H   0  0  0  0  0  0
   51.0927  161.6097   31.3061 H   0  0  0  0  0  0
   48.8461  161.1302   32.2099 H   0  0  0  0  0  0
   47.6737  159.0445   31.5897 H   0  0  0  0  0  0
   48.7564  157.4289   30.1039 H   0  0  0  0  0  0
  1  2  1  0  0  0
  1  6  1  0  0  0
  1  7  1  0  0  0
  2  3  1  0  0  0
  2 18  1  0  0  0
  2 19  1  0  0  0
  3  4  1  0  0  0
  3 20  1  0  0  0
  3 21  1  0  0  0
  4  5  1  0  0  0
  4 10  1  0  0  0
  4 22  1  0  0  0
  5  6  1  0  0  0
  5 23  1  0  0  0
  5 24  1  0  0  0
  6 25  1  0  0  0
  6 26  1  0  0  0
  7  8  1  0  0  0
  7 27  1  0  0  0
  7 28  1  0  0  0
  8  9  3  0  0  0
  9 29  1  0  0  0
 10 11  2  0  0  0
 10 30  1  0  0  0
 11 12  1  0  0  0
 11 31  1  0  0  0
 12 13  2  0  0  0
 12 17  1  0  0  0
 13 14  1  0  0  0
 13 32  1  0  0  0
 14 15  2  0  0  0
 14 33  1  0  0  0
 15 16  1  0  0  0
 15 34  1  0  0  0
 16 17  2  0  0  0
 16 35  1  0  0  0
 17 36  1  0  0  0
M  END
> <s_m_entry_id>
10225

> <s_m_entry_name>
dock_pv.261

> <s_m_Source_Path>
/home/csk/Desktop/cluster/DUD-E-result/aofb

> <s_m_Source_File>
dock_pv.maegz

> <i_m_Source_File_Index>
261

> <chembl_id>
CHEMBL4466952

> <chembl_pref_name>
None

> <i_lp_mmshare_version>
53161

> <i_f3d_flags>
0

> <r_lp_tautomer_probability>
1

> <s_lp_Force_Field>
OPLS_2005

> <r_lp_Energy>
18.019267

> <b_lp_Chiralities_Consistent>
1

> <s_lp_Variant>
CHEMBL2039_lig2371 -1

> <s_i_glide_gridfile>
glide-grid_1s3b

> <i_i_glide_lignum>
2763

> <i_i_glide_rotatable_bonds>
4

> <r_i_docking_score>
-7.49065539311101

> <r_i_glide_ligand_efficiency>
-0.440626787830059

> <r_i_glide_ligand_efficiency_sa>
-1.13297554682832

> <r_i_glide_ligand_efficiency_ln>
-1.95414518336842

> <r_i_glide_gscore>
-7.49065539311101

> <r_i_glide_lipo>
-4.46963732451068

> <r_i_glide_hbond>
0

> <r_i_glide_metal>
0

> <r_i_glide_rewards>
-2.77275845454546

> <r_i_glide_evdw>
-29.8765277862549

> <r_i_glide_ecoul>
-0.608643293380737

> <r_i_glide_erotb>
1.33686326926498

> <r_i_glide_esite>
0

> <r_i_glide_emodel>
-30.8326196815576

> <r_i_glide_energy>
-30.4851710796356

> <r_i_glide_einternal>
17.0392665863037

> <i_i_glide_confnum>
20

> <i_i_glide_posenum>
190

> <r_i_glide_eff_state_penalty>
0

> <s_user_duplicate_titles>
CHEMBL2039_lig2371 

> <s_m_subgroup_title>
dock_pv

> <s_m_subgroupid>
dock_pv

> <b_m_subgroup_collapsed>
1

$$$$
CHEMBL2039_lig1049
                    3D
 Schrodinger Suite 2021-1.
 25 26  0  0  1  0            999 V2000
   50.6360  158.6941   29.7040 C   0  0  0  0  0  0
   49.3124  158.6238   30.1687 C   0  0  0  0  0  0
   48.7999  159.5933   31.0287 C   0  0  0  0  0  0
   49.6124  160.6440   31.4447 C   0  0  0  0  0  0
   50.9238  160.7381   30.9815 C   0  0  0  0  0  0
   51.4249  159.7791   30.1040 C   0  0  0  0  0  0
   51.2560  157.6183   28.9040 C   0  0  0  0  0  0
   50.8838  156.3179   28.9223 C   0  0  0  0  0  0
   51.4206  155.2168   28.1133 C   0  0  0  0  0  0
   51.2560  154.0627   28.5040 O   0  0  0  0  0  0
   52.0560  155.4440   26.8133 C   0  0  0  0  0  0
   51.8851  154.4589   25.8880 O   0  0  0  0  0  0
   52.5627  154.8209   24.7727 C   0  0  0  0  0  0
   53.1753  156.0466   24.9660 C   0  0  0  0  0  0
   52.8560  156.4442   26.2652 C   0  0  0  0  0  0
   47.1748  159.4727   31.6004 Cl  0  0  0  0  0  0
   48.6763  157.7943   29.9031 H   0  0  0  0  0  0
   49.2305  161.3884   32.1279 H   0  0  0  0  0  0
   51.5570  161.5467   31.3179 H   0  0  0  0  0  0
   52.4560  159.8440   29.7867 H   0  0  0  0  0  0
   52.0503  157.9578   28.2649 H   0  0  0  0  0  0
   50.0981  156.0097   29.5960 H   0  0  0  0  0  0
   52.5258  154.1255   23.9462 H   0  0  0  0  0  0
   53.7974  156.5812   24.2632 H   0  0  0  0  0  0
   53.2230  157.3387   26.7414 H   0  0  0  0  0  0
  1  2  2  0  0  0
  1  6  1  0  0  0
  1  7  1  0  0  0
  2  3  1  0  0  0
  2 17  1  0  0  0
  3  4  2  0  0  0
  3 16  1  0  0  0
  4  5  1  0  0  0
  4 18  1  0  0  0
  5  6  2  0  0  0
  5 19  1  0  0  0
  6 20  1  0  0  0
  7  8  2  0  0  0
  7 21  1  0  0  0
  8  9  1  0  0  0
  8 22  1  0  0  0
  9 10  2  0  0  0
  9 11  1  0  0  0
 11 12  1  0  0  0
 11 15  2  0  0  0
 12 13  1  0  0  0
 13 14  2  0  0  0
 13 23  1  0  0  0
 14 15  1  0  0  0
 14 24  1  0  0  0
 15 25  1  0  0  0
M  END
> <s_m_entry_id>
10226

> <s_m_entry_name>
dock_pv.262

> <s_m_Source_Path>
/home/csk/Desktop/cluster/DUD-E-result/aofb

> <s_m_Source_File>
dock_pv.maegz

> <i_m_Source_File_Index>
262

> <chembl_id>
CHEMBL2420793

> <chembl_pref_name>
None

> <i_lp_mmshare_version>
53161

> <i_f3d_flags>
0

> <r_lp_tautomer_probability>
1

> <s_lp_Force_Field>
OPLS_2005

> <r_lp_Energy>
7.795932

> <b_lp_Chiralities_Consistent>
1

> <s_lp_Variant>
CHEMBL2039_lig1049-1

> <s_i_glide_gridfile>
glide-grid_1s3b

> <i_i_glide_lignum>
1222

> <i_i_glide_rotatable_bonds>
3

> <r_i_docking_score>
-7.48915766014047

> <r_i_glide_ligand_efficiency>
-0.468072353758779

> <r_i_glide_ligand_efficiency_sa>
-1.17946842165899

> <r_i_glide_ligand_efficiency_ln>
-1.98515083714033

> <r_i_glide_gscore>
-7.48915766014047

> <r_i_glide_lipo>
-3.10141823234509

> <r_i_glide_hbond>
0

> <r_i_glide_metal>
0

> <r_i_glide_rewards>
-3.17275868181818

> <r_i_glide_evdw>
-30.0204963684082

> <r_i_glide_ecoul>
-0.203348189592361

> <r_i_glide_erotb>
0.316546300882073

> <r_i_glide_esite>
0

> <r_i_glide_emodel>
-43.250035183896

> <r_i_glide_energy>
-30.2238445580006

> <r_i_glide_einternal>
2.18248820304871

> <i_i_glide_confnum>
1

> <i_i_glide_posenum>
349

> <r_i_glide_eff_state_penalty>
0

> <s_user_duplicate_titles>
CHEMBL2039_lig1049

> <s_m_subgroup_title>
dock_pv

> <s_m_subgroupid>
dock_pv

> <b_m_subgroup_collapsed>
1

$$$$
CHEMBL2039_lig655
                    3D
 Schrodinger Suite 2021-1.
 31 33  0  0  1  0            999 V2000
   51.4299  155.8440   28.1501 C   0  0  0  0  0  0
   51.0077  154.5652   28.5044 C   0  0  0  0  0  0
   51.2570  153.4747   27.6746 C   0  0  0  0  0  0
   52.1075  156.0331   26.9395 C   0  0  0  0  0  0
   52.3868  154.9457   26.1038 C   0  0  0  0  0  0
   51.9497  153.6653   26.4844 C   0  0  0  0  0  0
   52.2359  152.5366   25.7437 O   0  0  0  0  0  0
   53.0307  152.6815   24.6554 C   0  0  0  0  0  0
   53.5143  153.8527   24.2056 C   0  0  0  0  0  0
   53.2305  155.1074   24.8890 C   0  0  0  0  0  0
   53.6632  156.1965   24.5123 O   0  0  0  0  0  0
   51.1035  156.8507   29.0277 O   0  0  0  0  0  0
   51.6559  158.1599   28.9040 C   0  0  0  0  0  0
   50.8696  159.1151   29.7949 C   0  0  0  0  0  0
   49.5317  158.8521   30.1145 C   0  0  0  0  0  0
   48.8589  159.6420   31.0391 C   0  0  0  0  0  0
   49.5222  160.7037   31.6404 C   0  0  0  0  0  0
   50.8375  161.0068   31.2933 C   0  0  0  0  0  0
   51.5119  160.2161   30.3683 C   0  0  0  0  0  0
   48.8794  161.4445   32.5696 F   0  0  0  0  0  0
   50.4869  154.4196   29.4394 H   0  0  0  0  0  0
   50.9443  152.4842   27.9682 H   0  0  0  0  0  0
   52.4568  157.0149   26.6564 H   0  0  0  0  0  0
   53.2233  151.7341   24.1707 H   0  0  0  0  0  0
   54.1387  153.8552   23.3258 H   0  0  0  0  0  0
   51.6560  158.5485   27.8916 H   0  0  0  0  0  0
   52.6981  158.1202   29.2024 H   0  0  0  0  0  0
   49.0222  157.9970   29.7043 H   0  0  0  0  0  0
   47.8385  159.4173   31.3108 H   0  0  0  0  0  0
   51.3420  161.8462   31.7420 H   0  0  0  0  0  0
   52.5472  160.4247   30.1396 H   0  0  0  0  0  0
  1 12  1  0  0  0
  1  2  2  0  0  0
  1  4  1  0  0  0
  2  3  1  0  0  0
  2 21  1  0  0  0
  3  6  2  0  0  0
  3 22  1  0  0  0
  4  5  2  0  0  0
  4 23  1  0  0  0
  5  6  1  0  0  0
  5 10  1  0  0  0
  6  7  1  0  0  0
  7  8  1  0  0  0
  8  9  2  0  0  0
  8 24  1  0  0  0
  9 10  1  0  0  0
  9 25  1  0  0  0
 10 11  2  0  0  0
 12 13  1  0  0  0
 13 14  1  0  0  0
 13 26  1  0  0  0
 13 27  1  0  0  0
 14 15  2  0  0  0
 14 19  1  0  0  0
 15 16  1  0  0  0
 15 28  1  0  0  0
 16 17  2  0  0  0
 16 29  1  0  0  0
 17 18  1  0  0  0
 17 20  1  0  0  0
 18 19  2  0  0  0
 18 30  1  0  0  0
 19 31  1  0  0  0
M  END
> <s_m_entry_id>
10227

> <s_m_entry_name>
dock_pv.263

> <s_m_Source_Path>
/home/csk/Desktop/cluster/DUD-E-result/aofb

> <s_m_Source_File>
dock_pv.maegz

> <i_m_Source_File_Index>
263

> <chembl_id>
CHEMBL1945157

> <chembl_pref_name>
None

> <i_lp_mmshare_version>
53161

> <i_f3d_flags>
0

> <r_lp_tautomer_probability>
1

> <s_lp_Force_Field>
OPLS_2005

> <r_lp_Energy>
15.190763

> <b_lp_Chiralities_Consistent>
1

> <s_lp_Variant>
CHEMBL2039_lig655-1

> <s_i_glide_gridfile>
glide-grid_1s3b

> <i_i_glide_lignum>
764

> <i_i_glide_rotatable_bonds>
3

> <r_i_docking_score>
-7.48565049081674

> <r_i_glide_ligand_efficiency>
-0.374282524540837

> <r_i_glide_ligand_efficiency_sa>
-1.01595907718275

> <r_i_glide_ligand_efficiency_ln>
-1.87341142457441

> <r_i_glide_gscore>
-7.48565049081674

> <r_i_glide_lipo>
-3.92923043194488

> <r_i_glide_hbond>
0

> <r_i_glide_metal>
0

> <r_i_glide_rewards>
-2.30436930392975

> <r_i_glide_evdw>
-28.6204128265381

> <r_i_glide_ecoul>
-3.70376491546631

> <r_i_glide_erotb>
0.734534623704745

> <r_i_glide_esite>
0

> <r_i_glide_emodel>
-40.4293586297887

> <r_i_glide_energy>
-32.3241777420044

> <r_i_glide_einternal>
4.53087759017944

> <i_i_glide_confnum>
35

> <i_i_glide_posenum>
173

> <r_i_glide_eff_state_penalty>
0

> <s_user_duplicate_titles>
CHEMBL2039_lig655

> <s_m_subgroup_title>
dock_pv

> <s_m_subgroupid>
dock_pv

> <b_m_subgroup_collapsed>
1

$$$$
CHEMBL2039_lig995
                    3D
 Schrodinger Suite 2021-1.
 37 39  0  0  1  0            999 V2000
   47.3378  160.8586   31.9464 C   0  0  0  0  0  0
   46.9720  159.4650   31.4113 C   0  0  2  0  0  0
   47.7434  159.1498   30.1231 C   0  0  0  0  0  0
   48.8288  160.9642   32.2248 C   0  0  0  0  0  0
   49.7101  160.4122   31.1550 C   0  0  0  0  0  0
   49.2218  159.4319   30.2760 C   0  0  0  0  0  0
   50.0565  158.6440   29.5738 N   0  0  0  0  0  0
   51.3666  158.9328   29.5710 C   0  0  0  0  0  0
   51.9169  159.9723   30.2511 N   0  0  0  0  0  0
   51.0930  160.6444   31.1023 C   0  0  0  0  0  0
   52.2245  158.1060   28.8283 N   0  0  0  0  0  0
   49.2576  161.4439   33.2649 O   0  0  0  0  0  0
   52.0559  156.8610   28.1903 C   0  0  0  0  0  0
   51.2576  155.8539   28.7454 C   0  0  0  0  0  0
   51.1268  154.6281   28.1016 C   0  0  0  0  0  0
   51.7137  154.4327   26.8496 C   0  0  0  0  0  0
   52.4556  155.4539   26.2550 C   0  0  0  0  0  0
   52.6547  156.6451   26.9484 C   0  0  0  0  0  0
   45.4888  159.4437   31.1157 C   0  0  0  0  0  0
   51.5187  153.1120   26.1328 C   0  0  0  0  0  0
   47.1062  161.5747   31.1579 H   0  0  0  0  0  0
   46.7830  161.0611   32.8626 H   0  0  0  0  0  0
   47.2042  158.7021   32.1574 H   0  0  0  0  0  0
   47.3752  159.7684   29.3036 H   0  0  0  0  0  0
   47.5717  158.1163   29.8170 H   0  0  0  0  0  0
   51.5662  161.3684   31.7515 H   0  0  0  0  0  0
   53.1861  158.4168   28.8681 H   0  0  0  0  0  0
   50.7718  156.0043   29.6969 H   0  0  0  0  0  0
   50.5457  153.8432   28.5617 H   0  0  0  0  0  0
   52.9168  155.3099   25.2887 H   0  0  0  0  0  0
   53.2639  157.4167   26.5057 H   0  0  0  0  0  0
   45.2124  160.2873   30.5058 H   0  0  0  0  0  0
   45.2109  158.5962   30.5041 H   0  0  0  0  0  0
   44.9112  159.4445   32.0405 H   0  0  0  0  0  0
   51.8838  153.1423   25.1063 H   0  0  0  0  0  0
   50.4565  152.8713   26.1042 H   0  0  0  0  0  0
   52.0245  152.3072   26.6660 H   0  0  0  0  0  0
  1  2  1  0  0  0
  1  4  1  0  0  0
  1 21  1  0  0  0
  1 22  1  0  0  0
  2  3  1  0  0  0
  2 19  1  0  0  0
  2 23  1  0  0  0
  3  6  1  0  0  0
  3 24  1  0  0  0
  3 25  1  0  0  0
  4  5  1  0  0  0
  4 12  2  0  0  0
  5  6  2  0  0  0
  5 10  1  0  0  0
  6  7  1  0  0  0
  7  8  2  0  0  0
  8  9  1  0  0  0
  8 11  1  0  0  0
  9 10  2  0  0  0
 10 26  1  0  0  0
 11 13  1  0  0  0
 11 27  1  0  0  0
 13 14  2  0  0  0
 13 18  1  0  0  0
 14 15  1  0  0  0
 14 28  1  0  0  0
 15 16  2  0  0  0
 15 29  1  0  0  0
 16 17  1  0  0  0
 16 20  1  0  0  0
 17 18  2  0  0  0
 17 30  1  0  0  0
 18 31  1  0  0  0
 19 32  1  0  0  0
 19 33  1  0  0  0
 19 34  1  0  0  0
 20 35  1  0  0  0
 20 36  1  0  0  0
 20 37  1  0  0  0
M  END
> <s_m_entry_id>
10228

> <s_m_entry_name>
dock_pv.264

> <s_m_Source_Path>
/home/csk/Desktop/cluster/DUD-E-result/aofb

> <s_m_Source_File>
dock_pv.maegz

> <i_m_Source_File_Index>
264

> <chembl_id>
CHEMBL2408565

> <chembl_pref_name>
None

> <i_lp_mmshare_version>
53161

> <i_f3d_flags>
0

> <r_lp_tautomer_probability>
0.99995

> <s_lp_Force_Field>
OPLS_2005

> <r_lp_Energy>
10.434329

> <b_lp_Chiralities_Consistent>
1

> <s_lp_Variant>
CHEMBL2039_lig995-1

> <s_i_glide_gridfile>
glide-grid_1s3b

> <i_i_glide_lignum>
1144

> <i_i_glide_rotatable_bonds>
2

> <r_i_docking_score>
-7.48519714902002

> <r_i_glide_ligand_efficiency>
-0.374259857451001

> <r_i_glide_ligand_efficiency_sa>
-1.01589754923484

> <r_i_glide_ligand_efficiency_ln>
-1.87329796807491

> <r_i_glide_gscore>
-7.48519714902002

> <r_i_glide_lipo>
-3.67178191528767

> <r_i_glide_hbond>
-0.0412774768341519

> <r_i_glide_metal>
0

> <r_i_glide_rewards>
-3.04269530910799

> <r_i_glide_evdw>
-22.4636764526367

> <r_i_glide_ecoul>
-0.551865875720978

> <r_i_glide_erotb>
0.49900409380368

> <r_i_glide_esite>
-0.022482837603896

> <r_i_glide_emodel>
-19.9778178868531

> <r_i_glide_energy>
-23.0155423283577

> <r_i_glide_einternal>
6.4902458190918

> <i_i_glide_confnum>
3

> <i_i_glide_posenum>
99

> <r_i_glide_eff_state_penalty>
0

> <s_user_duplicate_titles>
CHEMBL2039_lig995

> <s_m_subgroup_title>
dock_pv

> <s_m_subgroupid>
dock_pv

> <b_m_subgroup_collapsed>
1

$$$$
CHEMBL2039_lig1222
                    3D
 Schrodinger Suite 2021-1.
 35 37  0  0  1  0            999 V2000
   50.8560  155.4381   28.9040 S   0  0  0  0  0  0
   52.3603  156.6377   27.2110 N   0  0  0  0  0  0
   51.6560  158.0457   28.9406 N   0  0  0  0  0  0
   50.5542  158.4369   29.7040 N   0  0  0  0  0  0
   48.7193  161.4439   32.9040 N   0  0  0  0  0  0
   52.1533  155.4381   26.6905 C   0  0  0  0  0  0
   51.4747  154.5441   27.5440 C   0  0  0  0  0  0
   51.7508  156.8105   28.3443 C   0  0  0  0  0  0
   52.8105  155.0873   25.3789 C   0  0  0  0  0  0
   53.8396  155.9039   24.9040 C   0  0  0  0  0  0
   52.5328  153.8978   24.6956 C   0  0  0  0  0  0
   51.2560  153.0625   27.4335 C   0  0  0  0  0  0
   49.4313  160.0537   31.0436 C   0  0  0  0  0  0
   54.7223  155.4517   23.9348 C   0  0  0  0  0  0
   53.3520  153.4738   23.6599 C   0  0  0  0  0  0
   50.5188  159.6150   30.1660 C   0  0  0  0  0  0
   54.4560  154.2440   23.3042 C   0  0  0  0  0  0
   49.6560  161.0440   32.0080 C   0  0  0  0  0  0
   48.1494  159.4784   31.0020 C   0  0  0  0  0  0
   47.1696  159.8812   31.9103 C   0  0  0  0  0  0
   47.5007  160.8557   32.8507 C   0  0  0  0  0  0
   52.2923  158.7937   28.6989 H   0  0  0  0  0  0
   54.0487  156.8649   25.3438 H   0  0  0  0  0  0
   51.7088  153.2646   24.9633 H   0  0  0  0  0  0
   52.1743  152.5389   27.1722 H   0  0  0  0  0  0
   50.8802  152.6117   28.3524 H   0  0  0  0  0  0
   50.5285  152.8740   26.6482 H   0  0  0  0  0  0
   55.5642  156.0603   23.6410 H   0  0  0  0  0  0
   53.1461  152.5472   23.1436 H   0  0  0  0  0  0
   51.2978  160.3485   29.9700 H   0  0  0  0  0  0
   55.0787  153.8944   22.4999 H   0  0  0  0  0  0
   50.6216  161.5217   32.1040 H   0  0  0  0  0  0
   47.9130  158.7097   30.2793 H   0  0  0  0  0  0
   46.1818  159.4440   31.8902 H   0  0  0  0  0  0
   46.7768  161.1908   33.5778 H   0  0  0  0  0  0
  1  7  1  0  0  0
  1  8  1  0  0  0
  2  6  1  0  0  0
  2  8  2  0  0  0
  3  4  1  0  0  0
  3  8  1  0  0  0
  3 22  1  0  0  0
  4 16  2  0  0  0
  5 18  2  0  0  0
  5 21  1  0  0  0
  6  7  2  0  0  0
  6  9  1  0  0  0
  7 12  1  0  0  0
  9 10  2  0  0  0
  9 11  1  0  0  0
 10 14  1  0  0  0
 10 23  1  0  0  0
 11 15  2  0  0  0
 11 24  1  0  0  0
 12 25  1  0  0  0
 12 26  1  0  0  0
 12 27  1  0  0  0
 13 16  1  0  0  0
 13 18  1  0  0  0
 13 19  2  0  0  0
 14 17  2  0  0  0
 14 28  1  0  0  0
 15 17  1  0  0  0
 15 29  1  0  0  0
 16 30  1  0  0  0
 17 31  1  0  0  0
 18 32  1  0  0  0
 19 20  1  0  0  0
 19 33  1  0  0  0
 20 21  2  0  0  0
 20 34  1  0  0  0
 21 35  1  0  0  0
M  END
> <s_m_entry_id>
10229

> <s_m_entry_name>
dock_pv.265

> <s_m_Source_Path>
/home/csk/Desktop/cluster/DUD-E-result/aofb

> <s_m_Source_File>
dock_pv.maegz

> <i_m_Source_File_Index>
265

> <chembl_id>
CHEMBL1984764

> <chembl_pref_name>
None

> <i_lp_mmshare_version>
53161

> <i_f3d_flags>
0

> <r_lp_tautomer_probability>
1

> <s_lp_Force_Field>
OPLS_2005

> <r_lp_Energy>
12.81956

> <b_lp_Chiralities_Consistent>
1

> <s_lp_Variant>
CHEMBL2039_lig1222-1

> <s_i_glide_gridfile>
glide-grid_1s3b

> <i_i_glide_lignum>
1405

> <i_i_glide_rotatable_bonds>
4

> <r_i_docking_score>
-7.47824689335906

> <r_i_glide_ligand_efficiency>
-0.35610699492186

> <r_i_glide_ligand_efficiency_sa>
-0.982472196671295

> <r_i_glide_ligand_efficiency_ln>
-1.84898143316233

> <r_i_glide_gscore>
-7.47824689335906

> <r_i_glide_lipo>
-3.94589524716111

> <r_i_glide_hbond>
-0.0745530280244062

> <r_i_glide_metal>
0

> <r_i_glide_rewards>
-2.75050309406063

> <r_i_glide_evdw>
-26.4318828582764

> <r_i_glide_ecoul>
-0.125384449958801

> <r_i_glide_erotb>
0.633106286294722

> <r_i_glide_esite>
0

> <r_i_glide_emodel>
-28.1422488468574

> <r_i_glide_energy>
-26.5572673082352

> <r_i_glide_einternal>
2.02105665206909

> <i_i_glide_confnum>
4

> <i_i_glide_posenum>
168

> <r_i_glide_eff_state_penalty>
0

> <s_user_duplicate_titles>
CHEMBL2039_lig1222

> <s_m_subgroup_title>
dock_pv

> <s_m_subgroupid>
dock_pv

> <b_m_subgroup_collapsed>
1

$$$$
CHEMBL2039_lig191
                    3D
 Schrodinger Suite 2021-1.
 30 33  0  0  1  0            999 V2000
   52.2273  155.9574   26.9346 C   0  0  0  0  0  0
   51.6560  154.7653   27.3256 C   0  0  0  0  0  0
   52.8560  155.8020   25.5994 C   0  0  0  0  0  0
   50.9059  154.6439   28.4544 N   0  0  0  0  0  0
   52.7261  154.3629   25.3080 C   0  0  0  0  0  0
   52.0502  153.7349   26.3562 C   0  0  0  0  0  0
   50.6518  155.7441   29.1937 N   0  0  0  0  0  0
   52.1171  157.0440   27.7970 C   0  0  0  0  0  0
   51.2561  156.9438   28.9040 C   0  0  0  0  0  0
   50.7958  158.1808   29.6244 C   0  0  0  0  0  0
   53.4119  156.6440   24.9037 O   0  0  0  0  0  0
   49.5045  158.2698   30.1701 C   0  0  0  0  0  0
   49.0668  159.4204   30.8272 C   0  0  0  0  0  0
   47.4799  159.4773   31.5054 Cl  0  0  0  0  0  0
   53.2828  153.6225   24.2662 C   0  0  0  0  0  0
   51.9506  152.3482   26.3815 C   0  0  0  0  0  0
   51.6125  159.3186   29.7089 C   0  0  0  0  0  0
   51.1923  160.4648   30.3866 C   0  0  0  0  0  0
   49.9183  160.5155   30.9463 C   0  0  0  0  0  0
   52.5846  151.5974   25.3881 C   0  0  0  0  0  0
   53.2339  152.2320   24.3277 C   0  0  0  0  0  0
   52.5657  157.9860   27.5297 H   0  0  0  0  0  0
   48.8294  157.4294   30.1040 H   0  0  0  0  0  0
   53.8141  154.0991   23.4550 H   0  0  0  0  0  0
   51.4376  151.8466   27.1892 H   0  0  0  0  0  0
   52.6123  159.2990   29.3040 H   0  0  0  0  0  0
   51.8558  161.3118   30.4817 H   0  0  0  0  0  0
   49.5955  161.4014   31.4730 H   0  0  0  0  0  0
   52.5353  150.5188   25.4208 H   0  0  0  0  0  0
   53.6560  151.6421   23.5311 H   0  0  0  0  0  0
  1  2  2  0  0  0
  1  3  1  0  0  0
  1  8  1  0  0  0
  2  4  1  0  0  0
  2  6  1  0  0  0
  3  5  1  0  0  0
  3 11  2  0  0  0
  4  7  2  0  0  0
  5 15  1  0  0  0
  5  6  2  0  0  0
  6 16  1  0  0  0
  7  9  1  0  0  0
  8  9  2  0  0  0
  8 22  1  0  0  0
  9 10  1  0  0  0
 10 12  1  0  0  0
 10 17  2  0  0  0
 12 13  2  0  0  0
 12 23  1  0  0  0
 13 14  1  0  0  0
 13 19  1  0  0  0
 15 21  2  0  0  0
 15 24  1  0  0  0
 16 20  2  0  0  0
 16 25  1  0  0  0
 17 18  1  0  0  0
 17 26  1  0  0  0
 18 19  2  0  0  0
 18 27  1  0  0  0
 19 28  1  0  0  0
 20 21  1  0  0  0
 20 29  1  0  0  0
 21 30  1  0  0  0
M  END
> <s_m_entry_id>
10230

> <s_m_entry_name>
dock_pv.266

> <s_m_Source_Path>
/home/csk/Desktop/cluster/DUD-E-result/aofb

> <s_m_Source_File>
dock_pv.maegz

> <i_m_Source_File_Index>
266

> <chembl_id>
CHEMBL339626

> <chembl_pref_name>
None

> <i_lp_mmshare_version>
53161

> <i_f3d_flags>
0

> <r_lp_tautomer_probability>
1

> <s_lp_Force_Field>
OPLS_2005

> <r_lp_Energy>
42.69761

> <b_lp_Chiralities_Consistent>
1

> <s_lp_Variant>
CHEMBL2039_lig191-1

> <s_i_glide_gridfile>
glide-grid_1s3b

> <i_i_glide_lignum>
232

> <i_i_glide_rotatable_bonds>
1

> <r_i_docking_score>
-7.47638792278679

> <r_i_glide_ligand_efficiency>
-0.356018472513657

> <r_i_glide_ligand_efficiency_sa>
-0.9822279700594

> <r_i_glide_ligand_efficiency_ln>
-1.84852180644474

> <r_i_glide_gscore>
-7.47638792278679

> <r_i_glide_lipo>
-4.06073413061075

> <r_i_glide_hbond>
0

> <r_i_glide_metal>
0

> <r_i_glide_rewards>
-2.30492447780205

> <r_i_glide_evdw>
-20.6968860626221

> <r_i_glide_ecoul>
-1.92673087120056

> <r_i_glide_erotb>
0.21312461943719

> <r_i_glide_esite>
0

> <r_i_glide_emodel>
-24.4303837335376

> <r_i_glide_energy>
-22.6236169338226

> <r_i_glide_einternal>
0.164415463805199

> <i_i_glide_confnum>
2

> <i_i_glide_posenum>
77

> <r_i_glide_eff_state_penalty>
0

> <s_user_duplicate_titles>
CHEMBL2039_lig191,210021

> <s_m_subgroup_title>
dock_pv

> <s_m_subgroupid>
dock_pv

> <b_m_subgroup_collapsed>
1

$$$$
CHEMBL2039_lig211
                    3D
 Schrodinger Suite 2021-1.
 37 39  0  0  1  0            999 V2000
   51.6061  152.6347   26.4610 C   0  0  0  0  0  0
   52.7201  154.6025   25.4940 C   0  0  0  0  0  0
   52.4462  153.2794   25.4274 C   0  0  0  0  0  0
   51.0466  153.4411   27.4325 O   0  0  0  0  0  0
   51.4289  154.7544   27.5904 C   0  0  0  0  0  0
   52.2726  155.3860   26.6683 C   0  0  0  0  0  0
   50.8925  155.4530   28.6716 C   0  0  0  0  0  0
   52.7616  156.6500   26.9821 C   0  0  0  0  0  0
   51.2609  151.4557   26.5039 O   0  0  0  0  0  0
   51.2559  156.7854   28.8764 C   0  0  0  0  0  0
   50.4715  157.5437   29.7121 O   0  0  0  0  0  0
   52.2948  157.3245   28.1041 C   0  0  0  0  0  0
   47.9251  160.7221   32.5269 C   0  0  0  0  0  0
   53.6239  155.2967   24.4867 C   0  0  0  0  0  0
   49.6564  159.6092   30.6691 C   0  0  0  0  0  0
   50.6333  158.9635   29.7042 C   0  0  0  0  0  0
   52.9759  152.3447   24.3432 C   0  0  0  0  0  0
   46.8801  161.4098   33.7040 Cl  0  0  0  0  0  0
   49.2563  161.1178   32.5038 C   0  0  0  0  0  0
   47.4416  159.7834   31.6168 C   0  0  0  0  0  0
   50.1191  160.5804   31.5592 C   0  0  0  0  0  0
   48.3130  159.2201   30.6872 C   0  0  0  0  0  0
   50.1446  154.9947   29.2999 H   0  0  0  0  0  0
   53.5050  157.1257   26.3649 H   0  0  0  0  0  0
   52.6729  158.3145   28.2814 H   0  0  0  0  0  0
   53.8588  154.6492   23.6424 H   0  0  0  0  0  0
   53.1349  156.1919   24.1047 H   0  0  0  0  0  0
   54.5813  155.5891   24.9041 H   0  0  0  0  0  0
   50.4550  159.3715   28.7078 H   0  0  0  0  0  0
   51.6524  159.2191   29.9991 H   0  0  0  0  0  0
   54.0556  152.4223   24.3137 H   0  0  0  0  0  0
   52.7488  151.2885   24.4954 H   0  0  0  0  0  0
   52.5973  152.6418   23.3658 H   0  0  0  0  0  0
   49.6302  161.8313   33.2222 H   0  0  0  0  0  0
   46.4037  159.4836   31.6419 H   0  0  0  0  0  0
   51.1555  160.8875   31.5579 H   0  0  0  0  0  0
   47.9517  158.4729   29.9955 H   0  0  0  0  0  0
  1  3  1  0  0  0
  1  4  1  0  0  0
  1  9  2  0  0  0
  2  3  2  0  0  0
  2 14  1  0  0  0
  2  6  1  0  0  0
  3 17  1  0  0  0
  4  5  1  0  0  0
  5  6  1  0  0  0
  5  7  2  0  0  0
  6  8  2  0  0  0
  7 10  1  0  0  0
  7 23  1  0  0  0
  8 12  1  0  0  0
  8 24  1  0  0  0
 10 11  1  0  0  0
 10 12  2  0  0  0
 11 16  1  0  0  0
 12 25  1  0  0  0
 13 20  2  0  0  0
 13 18  1  0  0  0
 13 19  1  0  0  0
 14 26  1  0  0  0
 14 27  1  0  0  0
 14 28  1  0  0  0
 15 16  1  0  0  0
 15 21  1  0  0  0
 15 22  2  0  0  0
 16 29  1  0  0  0
 16 30  1  0  0  0
 17 31  1  0  0  0
 17 32  1  0  0  0
 17 33  1  0  0  0
 19 21  2  0  0  0
 19 34  1  0  0  0
 20 22  1  0  0  0
 20 35  1  0  0  0
 21 36  1  0  0  0
 22 37  1  0  0  0
M  END
> <s_m_entry_id>
10231

> <s_m_entry_name>
dock_pv.267

> <s_m_Source_Path>
/home/csk/Desktop/cluster/DUD-E-result/aofb

> <s_m_Source_File>
dock_pv.maegz

> <i_m_Source_File_Index>
267

> <chembl_id>
CHEMBL274030

> <chembl_pref_name>
None

> <i_lp_mmshare_version>
53161

> <i_f3d_flags>
0

> <r_lp_tautomer_probability>
1

> <s_lp_Force_Field>
OPLS_2005

> <r_lp_Energy>
28.716231

> <b_lp_Chiralities_Consistent>
1

> <s_lp_Variant>
CHEMBL2039_lig211-1

> <s_i_glide_gridfile>
glide-grid_1s3b

> <i_i_glide_lignum>
252

> <i_i_glide_rotatable_bonds>
3

> <r_i_docking_score>
-7.47313515876769

> <r_i_glide_ligand_efficiency>
-0.339687961762168

> <r_i_glide_ligand_efficiency_sa>
-0.951819028027053

> <r_i_glide_ligand_efficiency_ln>
-1.82670682203091

> <r_i_glide_gscore>
-7.47313515876769

> <r_i_glide_lipo>
-4.44899766579697

> <r_i_glide_hbond>
0

> <r_i_glide_metal>
0

> <r_i_glide_rewards>
-2.15923855542424

> <r_i_glide_evdw>
-26.9046459197998

> <r_i_glide_ecoul>
-0.551078379154205

> <r_i_glide_erotb>
0.562995115316641

> <r_i_glide_esite>
0

> <r_i_glide_emodel>
-29.0084813201556

> <r_i_glide_energy>
-27.455724298954

> <r_i_glide_einternal>
1.59192597866058

> <i_i_glide_confnum>
1

> <i_i_glide_posenum>
158

> <r_i_glide_eff_state_penalty>
0

> <s_user_duplicate_titles>
CHEMBL2039_lig211,21783

> <s_m_subgroup_title>
dock_pv

> <s_m_subgroupid>
dock_pv

> <b_m_subgroup_collapsed>
1

$$$$
CHEMBL2039_lig1738
                    3D
 Schrodinger Suite 2021-1.
 31 33  0  0  1  0            999 V2000
   51.4057  154.8066   27.8544 C   0  0  0  0  0  0
   51.4838  156.2215   28.2201 C   0  0  0  0  0  0
   52.4560  156.8891   27.2695 C   0  0  0  0  0  0
   52.6764  155.8535   26.1896 C   0  0  0  0  0  0
   53.4930  155.8741   25.0567 C   0  0  0  0  0  0
   53.7660  154.6778   24.3900 C   0  0  0  0  0  0
   53.0723  153.5100   24.7013 C   0  0  0  0  0  0
   52.1846  153.5069   25.7743 C   0  0  0  0  0  0
   52.0558  154.6642   26.5469 C   0  0  0  0  0  0
   50.8560  153.9305   28.5041 O   0  0  0  0  0  0
   50.7037  156.7369   29.2042 C   0  0  0  0  0  0
   50.5822  158.1305   29.7040 C   0  0  0  0  0  0
   51.6555  159.0254   29.7036 C   0  0  0  0  0  0
   51.5588  160.2541   30.3513 C   0  0  0  0  0  0
   50.3504  160.6440   30.9216 C   0  0  0  0  0  0
   49.2396  159.8078   30.8449 C   0  0  0  0  0  0
   49.3595  158.5555   30.2447 C   0  0  0  0  0  0
   54.7654  154.6438   23.4627 O   0  0  0  0  0  0
   52.6692  161.0441   30.4711 O   0  0  0  0  0  0
   52.0577  157.8299   26.9040 H   0  0  0  0  0  0
   53.3958  157.1205   27.7728 H   0  0  0  0  0  0
   54.0482  156.7615   24.7929 H   0  0  0  0  0  0
   53.2605  152.5959   24.1574 H   0  0  0  0  0  0
   51.6975  152.5850   26.0592 H   0  0  0  0  0  0
   50.0502  156.0408   29.7093 H   0  0  0  0  0  0
   52.6033  158.7254   29.2877 H   0  0  0  0  0  0
   50.2801  161.5839   31.4469 H   0  0  0  0  0  0
   48.3012  160.1113   31.2851 H   0  0  0  0  0  0
   48.5038  157.8955   30.2390 H   0  0  0  0  0  0
   55.0460  153.7343   23.3038 H   0  0  0  0  0  0
   53.4684  160.5094   30.5038 H   0  0  0  0  0  0
  1  2  1  0  0  0
  1  9  1  0  0  0
  1 10  2  0  0  0
  2  3  1  0  0  0
  2 11  2  0  0  0
  3  4  1  0  0  0
  3 20  1  0  0  0
  3 21  1  0  0  0
  4  5  1  0  0  0
  4  9  2  0  0  0
  5  6  2  0  0  0
  5 22  1  0  0  0
  6  7  1  0  0  0
  6 18  1  0  0  0
  7  8  2  0  0  0
  7 23  1  0  0  0
  8  9  1  0  0  0
  8 24  1  0  0  0
 11 12  1  0  0  0
 11 25  1  0  0  0
 12 13  1  0  0  0
 12 17  2  0  0  0
 13 14  2  0  0  0
 13 26  1  0  0  0
 14 15  1  0  0  0
 14 19  1  0  0  0
 15 16  2  0  0  0
 15 27  1  0  0  0
 16 17  1  0  0  0
 16 28  1  0  0  0
 17 29  1  0  0  0
 18 30  1  0  0  0
 19 31  1  0  0  0
M  END
> <s_m_entry_id>
10232

> <s_m_entry_name>
dock_pv.268

> <s_m_Source_Path>
/home/csk/Desktop/cluster/DUD-E-result/aofb

> <s_m_Source_File>
dock_pv.maegz

> <i_m_Source_File_Index>
268

> <chembl_id>
CHEMBL3891485

> <chembl_pref_name>
None

> <i_lp_mmshare_version>
53161

> <i_f3d_flags>
0

> <r_lp_tautomer_probability>
1

> <s_lp_Force_Field>
OPLS_2005

> <r_lp_Energy>
23.369698

> <b_lp_Chiralities_Consistent>
1

> <s_lp_Variant>
CHEMBL2039_lig1738-1

> <s_i_glide_gridfile>
glide-grid_1s3b

> <i_i_glide_lignum>
2026

> <i_i_glide_rotatable_bonds>
3

> <r_i_docking_score>
-7.46911335878923

> <r_i_glide_ligand_efficiency>
-0.39311122940996

> <r_i_glide_ligand_efficiency_sa>
-1.0489786516591

> <r_i_glide_ligand_efficiency_ln>
-1.89358065829875

> <r_i_glide_gscore>
-7.46911335878923

> <r_i_glide_lipo>
-3.02011114740768

> <r_i_glide_hbond>
-0.397690702875306

> <r_i_glide_metal>
0

> <r_i_glide_rewards>
-2.6311285529566

> <r_i_glide_evdw>
-19.8237915039062

> <r_i_glide_ecoul>
-4.6979718208313

> <r_i_glide_erotb>
0.27570239277036

> <r_i_glide_esite>
0

> <r_i_glide_emodel>
-25.3222951440867

> <r_i_glide_energy>
-24.5217633247375

> <r_i_glide_einternal>
2.45651173591614

> <i_i_glide_confnum>
1

> <i_i_glide_posenum>
170

> <r_i_glide_eff_state_penalty>
0

> <s_user_duplicate_titles>
CHEMBL2039_lig1738

> <s_m_subgroup_title>
dock_pv

> <s_m_subgroupid>
dock_pv

> <b_m_subgroup_collapsed>
1

$$$$
CHEMBL2039_lig1261
                    3D
 Schrodinger Suite 2021-1.
 36 38  0  0  1  0            999 V2000
   50.8368  160.2440   30.6100 C   0  0  0  0  0  0
   52.8130  151.9636   25.7040 C   0  0  0  0  0  0
   51.4529  154.8758   27.7123 C   0  0  0  0  0  0
   47.9435  160.8503   32.9074 C   0  0  0  0  0  0
   50.0142  160.8462   31.5591 C   0  0  0  0  0  0
   52.5226  156.8418   26.9040 C   0  0  0  0  0  0
   51.7482  156.2278   27.8802 C   0  0  0  0  0  0
   52.6218  154.8347   25.5735 C   0  0  0  0  0  0
   51.6933  152.6517   26.5234 C   0  0  0  0  0  0
   52.8925  156.1906   25.7408 C   0  0  0  0  0  0
   50.4696  159.0203   30.0412 C   0  0  0  0  0  0
   53.0037  152.6440   24.3359 C   0  0  0  0  0  0
   53.3947  154.1033   24.5116 C   0  0  0  0  0  0
   51.4197  158.3410   29.0544 C   0  0  0  0  0  0
   48.8030  160.2449   31.9071 C   0  0  0  0  0  0
   48.4148  159.0440   31.3177 C   0  0  0  0  0  0
   49.2560  158.4278   30.4006 C   0  0  0  0  0  0
   51.2253  156.9159   28.9613 O   0  0  0  0  0  0
   51.8982  154.1585   26.5887 C   0  0  0  0  0  0
   54.3251  154.6254   23.8922 O   0  0  0  0  0  0
   47.2560  161.3267   33.7040 N   0  0  0  0  0  0
   51.7778  160.7078   30.3518 H   0  0  0  0  0  0
   53.7527  151.9873   26.2584 H   0  0  0  0  0  0
   52.5715  150.9090   25.5649 H   0  0  0  0  0  0
   50.8861  154.3712   28.4808 H   0  0  0  0  0  0
   50.3311  161.7706   32.0244 H   0  0  0  0  0  0
   52.8702  157.8440   27.0367 H   0  0  0  0  0  0
   51.6560  152.2440   27.5335 H   0  0  0  0  0  0
   50.7130  152.4569   26.1040 H   0  0  0  0  0  0
   53.5086  156.7235   25.0301 H   0  0  0  0  0  0
   53.7563  152.1205   23.7507 H   0  0  0  0  0  0
   52.0560  152.6440   23.8201 H   0  0  0  0  0  0
   51.2557  158.8356   28.1040 H   0  0  0  0  0  0
   52.4561  158.5438   29.3041 H   0  0  0  0  0  0
   47.4852  158.5618   31.5887 H   0  0  0  0  0  0
   48.9722  157.4676   30.0005 H   0  0  0  0  0  0
  1  5  2  0  0  0
  1 11  1  0  0  0
  1 22  1  0  0  0
  2  9  1  0  0  0
  2 12  1  0  0  0
  2 23  1  0  0  0
  2 24  1  0  0  0
  3 19  2  0  0  0
  3  7  1  0  0  0
  3 25  1  0  0  0
  4 15  1  0  0  0
  4 21  3  0  0  0
  5 15  1  0  0  0
  5 26  1  0  0  0
  6  7  2  0  0  0
  6 10  1  0  0  0
  6 27  1  0  0  0
  7 18  1  0  0  0
  8 13  1  0  0  0
  8 10  2  0  0  0
  8 19  1  0  0  0
  9 19  1  0  0  0
  9 28  1  0  0  0
  9 29  1  0  0  0
 10 30  1  0  0  0
 11 17  2  0  0  0
 11 14  1  0  0  0
 12 13  1  0  0  0
 12 31  1  0  0  0
 12 32  1  0  0  0
 13 20  2  0  0  0
 14 18  1  0  0  0
 14 33  1  0  0  0
 14 34  1  0  0  0
 15 16  2  0  0  0
 16 17  1  0  0  0
 16 35  1  0  0  0
 17 36  1  0  0  0
M  END
> <s_m_entry_id>
10233

> <s_m_entry_name>
dock_pv.269

> <s_m_Source_Path>
/home/csk/Desktop/cluster/DUD-E-result/aofb

> <s_m_Source_File>
dock_pv.maegz

> <i_m_Source_File_Index>
269

> <chembl_id>
CHEMBL3288302

> <chembl_pref_name>
None

> <i_lp_mmshare_version>
53161

> <i_f3d_flags>
0

> <r_lp_tautomer_probability>
0.99995

> <s_lp_Force_Field>
OPLS_2005

> <r_lp_Energy>
23.529712

> <b_lp_Chiralities_Consistent>
1

> <s_lp_Variant>
CHEMBL2039_lig1261-1

> <s_i_glide_gridfile>
glide-grid_1s3b

> <i_i_glide_lignum>
1453

> <i_i_glide_rotatable_bonds>
3

> <r_i_docking_score>
-7.46646557597006

> <r_i_glide_ligand_efficiency>
-0.355545979808098

> <r_i_glide_ligand_efficiency_sa>
-0.980924398512193

> <r_i_glide_ligand_efficiency_ln>
-1.84606852624429

> <r_i_glide_gscore>
-7.46646557597006

> <r_i_glide_lipo>
-3.73408445969237

> <r_i_glide_hbond>
0

> <r_i_glide_metal>
0

> <r_i_glide_rewards>
-2.80164019717163

> <r_i_glide_evdw>
-27.8896980285645

> <r_i_glide_ecoul>
-1.59124958515167

> <r_i_glide_erotb>
0.702431420094912

> <r_i_glide_esite>
0

> <r_i_glide_emodel>
-37.4764989484615

> <r_i_glide_energy>
-29.4809476137161

> <r_i_glide_einternal>
0.664047658443451

> <i_i_glide_confnum>
6

> <i_i_glide_posenum>
113

> <r_i_glide_eff_state_penalty>
0

> <s_user_duplicate_titles>
CHEMBL2039_lig1261

> <s_m_subgroup_title>
dock_pv

> <s_m_subgroupid>
dock_pv

> <b_m_subgroup_collapsed>
1

$$$$
CHEMBL2039_lig882
                    3D
 Schrodinger Suite 2021-1.
 39 41  0  0  1  0            999 V2000
   52.8906  153.0380   24.9554 N   0  0  0  0  0  0
   53.5407  154.0335   24.2472 C   0  0  0  0  0  0
   53.5679  155.2608   24.8663 N   0  0  0  0  0  0
   52.0354  153.1475   26.0335 C   0  0  0  0  0  0
   52.0560  154.5011   26.5591 C   0  0  0  0  0  0
   52.7966  155.5299   25.9919 C   0  0  0  0  0  0
   52.6952  156.6284   26.8545 C   0  0  0  0  0  0
   51.8235  156.3044   27.8822 C   0  0  0  0  0  0
   51.4558  154.9843   27.7046 N   0  0  0  0  0  0
   50.5641  154.2284   28.5597 C   0  0  0  0  0  0
   51.2050  157.1402   28.9040 C   0  0  0  0  0  0
   51.3258  158.4646   29.0999 C   0  0  0  0  0  0
   50.5034  159.2326   30.0546 C   0  0  0  0  0  0
   51.0410  160.3598   30.6757 C   0  0  0  0  0  0
   50.3055  161.0440   31.6413 C   0  0  0  0  0  0
   49.0228  160.6207   31.9947 C   0  0  0  0  0  0
   48.4590  159.5207   31.3453 C   0  0  0  0  0  0
   49.2008  158.8325   30.3897 C   0  0  0  0  0  0
   54.0560  153.8440   23.1440 O   0  0  0  0  0  0
   54.5326  156.2551   24.3689 C   0  0  0  0  0  0
   51.4035  152.2022   26.5041 O   0  0  0  0  0  0
   53.0727  151.6738   24.4041 C   0  0  0  0  0  0
   48.1652  161.4435   33.2469 Cl  0  0  0  0  0  0
   46.8552  158.9844   31.7035 Cl  0  0  0  0  0  0
   53.2054  157.5686   26.7659 H   0  0  0  0  0  0
   50.9066  153.1996   28.6511 H   0  0  0  0  0  0
   50.5243  154.6193   29.5735 H   0  0  0  0  0  0
   49.5749  154.2439   28.1040 H   0  0  0  0  0  0
   50.5125  156.6346   29.5538 H   0  0  0  0  0  0
   52.0246  159.0282   28.5041 H   0  0  0  0  0  0
   52.0419  160.6905   30.4388 H   0  0  0  0  0  0
   50.7431  161.9127   32.1040 H   0  0  0  0  0  0
   48.7498  157.9727   29.9212 H   0  0  0  0  0  0
   54.4560  156.4558   23.3031 H   0  0  0  0  0  0
   54.4558  157.2046   24.8910 H   0  0  0  0  0  0
   55.5474  155.8826   24.5039 H   0  0  0  0  0  0
   54.1075  151.3597   24.5432 H   0  0  0  0  0  0
   52.4561  150.9042   24.8731 H   0  0  0  0  0  0
   52.8562  151.6457   23.3313 H   0  0  0  0  0  0
  1  2  1  0  0  0
  1  4  1  0  0  0
  1 22  1  0  0  0
  2  3  1  0  0  0
  2 19  2  0  0  0
  3  6  1  0  0  0
  3 20  1  0  0  0
  4  5  1  0  0  0
  4 21  2  0  0  0
  5  6  2  0  0  0
  5  9  1  0  0  0
  6  7  1  0  0  0
  7  8  2  0  0  0
  7 25  1  0  0  0
  8  9  1  0  0  0
  8 11  1  0  0  0
  9 10  1  0  0  0
 10 26  1  0  0  0
 10 27  1  0  0  0
 10 28  1  0  0  0
 11 12  2  0  0  0
 11 29  1  0  0  0
 12 13  1  0  0  0
 12 30  1  0  0  0
 13 14  2  0  0  0
 13 18  1  0  0  0
 14 15  1  0  0  0
 14 31  1  0  0  0
 15 16  2  0  0  0
 15 32  1  0  0  0
 16 17  1  0  0  0
 16 23  1  0  0  0
 17 18  2  0  0  0
 17 24  1  0  0  0
 18 33  1  0  0  0
 20 34  1  0  0  0
 20 35  1  0  0  0
 20 36  1  0  0  0
 22 37  1  0  0  0
 22 38  1  0  0  0
 22 39  1  0  0  0
M  END
> <s_m_entry_id>
10234

> <s_m_entry_name>
dock_pv.270

> <s_m_Source_Path>
/home/csk/Desktop/cluster/DUD-E-result/aofb

> <s_m_Source_File>
dock_pv.maegz

> <i_m_Source_File_Index>
270

> <chembl_id>
CHEMBL2312990

> <chembl_pref_name>
None

> <i_lp_mmshare_version>
53161

> <i_f3d_flags>
0

> <r_lp_tautomer_probability>
1

> <s_lp_Force_Field>
OPLS_2005

> <r_lp_Energy>
40.72563

> <b_lp_Chiralities_Consistent>
1

> <s_lp_Variant>
CHEMBL2039_lig882-1

> <s_i_glide_gridfile>
glide-grid_1s3b

> <i_i_glide_lignum>
1015

> <i_i_glide_rotatable_bonds>
2

> <r_i_docking_score>
-7.46552667312406

> <r_i_glide_ligand_efficiency>
-0.311063611380169

> <r_i_glide_ligand_efficiency_sa>
-0.897262718752123

> <r_i_glide_ligand_efficiency_ln>
-1.78684310357541

> <r_i_glide_gscore>
-7.46552667312406

> <r_i_glide_lipo>
-4.19127241601678

> <r_i_glide_hbond>
0

> <r_i_glide_metal>
0

> <r_i_glide_rewards>
-1.6805953615851

> <r_i_glide_evdw>
-33.9405632019043

> <r_i_glide_ecoul>
-1.24286615848541

> <r_i_glide_erotb>
0.289799188345845

> <r_i_glide_esite>
0

> <r_i_glide_emodel>
-39.2049482037389

> <r_i_glide_energy>
-35.1834293603897

> <r_i_glide_einternal>
3.58357119560242

> <i_i_glide_confnum>
3

> <i_i_glide_posenum>
59

> <r_i_glide_eff_state_penalty>
0

> <s_user_duplicate_titles>
CHEMBL2039_lig882

> <s_m_subgroup_title>
dock_pv

> <s_m_subgroupid>
dock_pv

> <b_m_subgroup_collapsed>
1

$$$$
CHEMBL2039_lig696
                    3D
 Schrodinger Suite 2021-1.
 45 46  0  0  1  0            999 V2000
   51.1429  155.3865   28.6189 C   0  0  0  0  0  0
   51.6742  156.6655   28.4004 C   0  0  0  0  0  0
   52.4561  156.8792   27.2614 C   0  0  0  0  0  0
   52.5596  155.8880   26.2849 C   0  0  0  0  0  0
   52.0265  154.6198   26.5050 C   0  0  0  0  0  0
   51.3276  154.3698   27.6938 C   0  0  0  0  0  0
   52.2175  153.6593   25.5322 O   0  0  0  0  0  0
   52.2338  152.2915   25.9561 C   0  0  0  0  0  0
   52.9746  151.3895   24.9728 C   0  0  0  0  0  0
   53.0081  150.0367   24.8510 C   0  0  0  0  0  0
   53.6559  152.1605   24.1080 F   0  0  0  0  0  0
   52.2261  148.9471   25.5844 C   0  0  0  0  0  0
   51.2560  149.4713   26.5014 N   0  0  0  0  0  0
   51.2521  157.8059   29.3039 C   0  0  0  0  0  0
   51.9078  158.9876   29.3039 N   0  0  0  0  0  0
   50.2881  157.6160   30.0448 O   0  0  0  0  0  0
   51.7053  160.0634   30.3031 C   0  0  2  0  0  0
   50.2455  160.4874   30.5586 C   0  0  0  0  0  0
   49.8906  160.9363   31.8310 C   0  0  0  0  0  0
   48.5539  161.0327   32.2091 C   0  0  0  0  0  0
   47.5634  160.6730   31.2999 C   0  0  0  0  0  0
   47.9038  160.2929   30.0062 C   0  0  0  0  0  0
   49.2355  160.2425   29.6215 C   0  0  0  0  0  0
   52.6701  161.2563   30.1546 C   0  0  0  0  0  0
   50.5437  155.1781   29.4943 H   0  0  0  0  0  0
   52.9102  157.8393   27.0801 H   0  0  0  0  0  0
   53.1131  156.0806   25.3796 H   0  0  0  0  0  0
   50.8860  153.4055   27.8916 H   0  0  0  0  0  0
   51.2106  151.9541   26.1042 H   0  0  0  0  0  0
   52.7661  152.2425   26.9034 H   0  0  0  0  0  0
   53.6586  149.6376   24.0892 H   0  0  0  0  0  0
   52.8908  148.2850   26.1036 H   0  0  0  0  0  0
   51.7454  148.2441   24.9041 H   0  0  0  0  0  0
   50.3385  149.0620   26.6716 H   0  0  0  0  0  0
   51.7222  149.8582   27.3040 H   0  0  0  0  0  0
   52.7591  159.0415   28.7617 H   0  0  0  0  0  0
   52.0539  159.6027   31.2297 H   0  0  0  0  0  0
   50.6645  161.1402   32.5466 H   0  0  0  0  0  0
   48.2921  161.3364   33.2125 H   0  0  0  0  0  0
   46.5246  160.6788   31.5962 H   0  0  0  0  0  0
   47.1502  159.9843   29.3061 H   0  0  0  0  0  0
   49.4764  159.8918   28.6287 H   0  0  0  0  0  0
   52.6240  161.8953   31.0384 H   0  0  0  0  0  0
   53.7029  160.9112   30.0865 H   0  0  0  0  0  0
   52.4578  161.8954   29.3043 H   0  0  0  0  0  0
  1  6  1  0  0  0
  1  2  2  0  0  0
  1 25  1  0  0  0
  2 14  1  0  0  0
  2  3  1  0  0  0
  3  4  2  0  0  0
  3 26  1  0  0  0
  4  5  1  0  0  0
  4 27  1  0  0  0
  5  7  1  0  0  0
  5  6  2  0  0  0
  6 28  1  0  0  0
  7  8  1  0  0  0
  8  9  1  0  0  0
  8 29  1  0  0  0
  8 30  1  0  0  0
  9 10  2  0  0  0
  9 11  1  0  0  0
 10 12  1  0  0  0
 10 31  1  0  0  0
 12 13  1  0  0  0
 12 32  1  0  0  0
 12 33  1  0  0  0
 13 34  1  0  0  0
 13 35  1  0  0  0
 14 15  1  0  0  0
 14 16  2  0  0  0
 15 17  1  0  0  0
 15 36  1  0  0  0
 17 18  1  0  0  0
 17 24  1  0  0  0
 17 37  1  0  0  0
 18 19  2  0  0  0
 18 23  1  0  0  0
 19 20  1  0  0  0
 19 38  1  0  0  0
 20 21  2  0  0  0
 20 39  1  0  0  0
 21 22  1  0  0  0
 21 40  1  0  0  0
 22 23  2  0  0  0
 22 41  1  0  0  0
 23 42  1  0  0  0
 24 43  1  0  0  0
 24 44  1  0  0  0
 24 45  1  0  0  0
M  END
> <s_m_entry_id>
10235

> <s_m_entry_name>
dock_pv.271

> <s_m_Source_Path>
/home/csk/Desktop/cluster/DUD-E-result/aofb

> <s_m_Source_File>
dock_pv.maegz

> <i_m_Source_File_Index>
271

> <chembl_id>
CHEMBL2029550

> <chembl_pref_name>
None

> <i_lp_mmshare_version>
53161

> <i_f3d_flags>
0

> <r_lp_tautomer_probability>
1

> <s_lp_Force_Field>
OPLS_2005

> <r_lp_Energy>
16.338122

> <b_lp_Chiralities_Consistent>
1

> <s_lp_Variant>
CHEMBL2039_lig696-1

> <s_i_glide_gridfile>
glide-grid_1s3b

> <i_i_glide_lignum>
818

> <i_i_glide_rotatable_bonds>
8

> <r_i_docking_score>
-7.46045397366248

> <r_i_glide_ligand_efficiency>
-0.310852248902603

> <r_i_glide_ligand_efficiency_sa>
-0.896653043867872

> <r_i_glide_ligand_efficiency_ln>
-1.78562897382325

> <r_i_glide_gscore>
-7.46045397366248

> <r_i_glide_lipo>
-4.1687704511661

> <r_i_glide_hbond>
-1.12234312844782

> <r_i_glide_metal>
0

> <r_i_glide_rewards>
-2.3315003635039

> <r_i_glide_evdw>
-3.95978021621704

> <r_i_glide_ecoul>
-5.60289621353149

> <r_i_glide_erotb>
1.21914886052514

> <r_i_glide_esite>
-0.0185654482292302

> <r_i_glide_emodel>
-13.4031844363829

> <r_i_glide_energy>
-9.56267642974854

> <r_i_glide_einternal>
5.52015399932861

> <i_i_glide_confnum>
9

> <i_i_glide_posenum>
399

> <r_i_glide_eff_state_penalty>
0

> <s_user_duplicate_titles>
CHEMBL2039_lig696,CHEMBL2039_lig694

> <s_m_subgroup_title>
dock_pv

> <s_m_subgroupid>
dock_pv

> <b_m_subgroup_collapsed>
1

$$$$
CHEMBL2039_lig825
                    3D
 Schrodinger Suite 2021-1.
 33 35  0  0  1  0            999 V2000
   53.4282  155.4698   24.9499 C   0  0  0  0  0  0
   52.7651  156.2839   26.0540 C   0  0  0  0  0  0
   52.0559  155.2631   26.8259 N   0  0  0  0  0  0
   51.9743  153.9798   26.1063 C   0  0  0  0  0  0
   52.4530  154.3393   24.7001 C   0  0  0  0  0  0
   51.5767  155.4138   28.0859 C   0  0  0  0  0  0
   51.1141  154.4602   28.7130 O   0  0  0  0  0  0
   51.5174  156.7620   28.6246 C   0  0  0  0  0  0
   50.4561  157.1327   29.3771 C   0  0  0  0  0  0
   50.1489  158.4376   30.0074 C   0  0  0  0  0  0
   48.8902  158.5817   30.6202 C   0  0  0  0  0  0
   50.8450  160.6037   30.9098 C   0  0  0  0  0  0
   51.0942  159.4817   30.1038 C   0  0  0  0  0  0
   49.6346  160.6436   31.5949 C   0  0  0  0  0  0
   48.6797  159.6846   31.4324 C   0  0  0  0  0  0
   47.6004  159.9776   32.2038 O   0  0  0  0  0  0
   48.0288  161.0031   33.0558 C   0  0  0  0  0  0
   49.1950  161.5495   32.5042 O   0  0  0  0  0  0
   54.3707  155.0489   25.3037 H   0  0  0  0  0  0
   53.6730  156.0973   24.1040 H   0  0  0  0  0  0
   53.5243  156.8045   26.6390 H   0  0  0  0  0  0
   52.0539  156.9824   25.6146 H   0  0  0  0  0  0
   50.9583  153.5819   26.0861 H   0  0  0  0  0  0
   52.6568  153.2581   26.5575 H   0  0  0  0  0  0
   51.6156  154.6995   24.1025 H   0  0  0  0  0  0
   52.8888  153.4893   24.1732 H   0  0  0  0  0  0
   52.3213  157.4420   28.3880 H   0  0  0  0  0  0
   49.7043  156.3761   29.5727 H   0  0  0  0  0  0
   48.1389  157.8101   30.5475 H   0  0  0  0  0  0
   51.5942  161.3707   31.0415 H   0  0  0  0  0  0
   52.0600  159.3870   29.6288 H   0  0  0  0  0  0
   48.2581  160.5812   34.0371 H   0  0  0  0  0  0
   47.2569  161.7650   33.1653 H   0  0  0  0  0  0
  1  2  1  0  0  0
  1  5  1  0  0  0
  1 19  1  0  0  0
  1 20  1  0  0  0
  2  3  1  0  0  0
  2 21  1  0  0  0
  2 22  1  0  0  0
  3  4  1  0  0  0
  3  6  1  0  0  0
  4  5  1  0  0  0
  4 23  1  0  0  0
  4 24  1  0  0  0
  5 25  1  0  0  0
  5 26  1  0  0  0
  6  7  2  0  0  0
  6  8  1  0  0  0
  8  9  2  0  0  0
  8 27  1  0  0  0
  9 10  1  0  0  0
  9 28  1  0  0  0
 10 11  2  0  0  0
 10 13  1  0  0  0
 11 15  1  0  0  0
 11 29  1  0  0  0
 12 14  1  0  0  0
 12 13  2  0  0  0
 12 30  1  0  0  0
 13 31  1  0  0  0
 14 15  2  0  0  0
 14 18  1  0  0  0
 15 16  1  0  0  0
 16 17  1  0  0  0
 17 18  1  0  0  0
 17 32  1  0  0  0
 17 33  1  0  0  0
M  END
> <s_m_entry_id>
10237

> <s_m_entry_name>
dock_pv.273

> <s_m_Source_Path>
/home/csk/Desktop/cluster/DUD-E-result/aofb

> <s_m_Source_File>
dock_pv.maegz

> <i_m_Source_File_Index>
273

> <chembl_id>
CHEMBL2203920

> <chembl_pref_name>
None

> <i_lp_mmshare_version>
53161

> <i_f3d_flags>
0

> <r_lp_tautomer_probability>
1

> <s_lp_Force_Field>
OPLS_2005

> <r_lp_Energy>
47.267132

> <b_lp_Chiralities_Consistent>
1

> <s_lp_Variant>
CHEMBL2039_lig825-1

> <s_i_glide_gridfile>
glide-grid_1s3b

> <i_i_glide_lignum>
958

> <i_i_glide_rotatable_bonds>
3

> <r_i_docking_score>
-7.4600771851481

> <r_i_glide_ligand_efficiency>
-0.414448732508228

> <r_i_glide_ligand_efficiency_sa>
-1.08616294801525

> <r_i_glide_ligand_efficiency_ln>
-1.91757437319624

> <r_i_glide_gscore>
-7.4600771851481

> <r_i_glide_lipo>
-2.69455317989716

> <r_i_glide_hbond>
0

> <r_i_glide_metal>
0

> <r_i_glide_rewards>
-3.70759866325092

> <r_i_glide_evdw>
-31.3969497680664

> <r_i_glide_ecoul>
1.48413491249084

> <r_i_glide_erotb>
0.289301909529684

> <r_i_glide_esite>
0

> <r_i_glide_emodel>
-39.6886545868327

> <r_i_glide_energy>
-29.9128148555756

> <r_i_glide_einternal>
3.54463863372803

> <i_i_glide_confnum>
4

> <i_i_glide_posenum>
158

> <r_i_glide_eff_state_penalty>
0

> <s_user_duplicate_titles>
CHEMBL2039_lig825

> <s_m_subgroup_title>
dock_pv

> <s_m_subgroupid>
dock_pv

> <b_m_subgroup_collapsed>
1

$$$$
CHEMBL2039_lig452
                    3D
 Schrodinger Suite 2021-1.
 33 35  0  0  1  0            999 V2000
   51.4575  156.9834   28.7003 C   0  0  0  0  0  0
   50.4560  157.3920   29.5044 C   0  0  0  0  0  0
   50.2529  158.7262   30.1040 C   0  0  0  0  0  0
   51.2626  159.6964   30.1040 C   0  0  0  0  0  0
   51.1378  160.8369   30.8956 C   0  0  0  0  0  0
   49.9800  161.0440   31.6450 C   0  0  0  0  0  0
   48.9270  160.1353   31.5722 C   0  0  0  0  0  0
   49.0627  158.9829   30.7991 C   0  0  0  0  0  0
   52.0560  150.5877   25.7040 C   0  0  0  0  0  0
   53.2000  150.1638   24.7855 C   0  0  0  0  0  0
   53.6560  151.2450   24.1661 O   0  0  0  0  0  0
   52.2456  152.0880   25.7351 C   0  0  0  0  0  0
   53.1457  152.3705   24.7323 C   0  0  0  0  0  0
   53.4679  153.6604   24.3411 C   0  0  0  0  0  0
   52.8947  154.7133   25.0463 C   0  0  0  0  0  0
   52.0560  154.4733   26.1424 C   0  0  0  0  0  0
   51.6741  153.1440   26.4512 C   0  0  0  0  0  0
   51.7406  155.6079   26.8634 O   0  0  0  0  0  0
   51.4875  155.6216   28.1946 C   0  0  0  0  0  0
   51.2560  154.6440   28.9048 O   0  0  0  0  0  0
   53.6024  149.0363   24.5042 O   0  0  0  0  0  0
   47.4806  160.4106   32.4742 Cl  0  0  0  0  0  0
   52.2560  157.6384   28.3841 H   0  0  0  0  0  0
   49.6913  156.6667   29.7509 H   0  0  0  0  0  0
   52.1934  159.5253   29.5836 H   0  0  0  0  0  0
   51.9489  161.5482   30.9534 H   0  0  0  0  0  0
   49.9005  161.9176   32.2745 H   0  0  0  0  0  0
   48.2631  158.2560   30.8009 H   0  0  0  0  0  0
   52.0560  149.9818   26.5745 H   0  0  0  0  0  0
   51.1079  150.2728   25.3040 H   0  0  0  0  0  0
   54.1634  153.8461   23.5361 H   0  0  0  0  0  0
   53.1733  155.7263   24.7960 H   0  0  0  0  0  0
   50.9730  152.9348   27.2439 H   0  0  0  0  0  0
  1  2  2  0  0  0
  1 19  1  0  0  0
  1 23  1  0  0  0
  2  3  1  0  0  0
  2 24  1  0  0  0
  3  4  2  0  0  0
  3  8  1  0  0  0
  4  5  1  0  0  0
  4 25  1  0  0  0
  5  6  2  0  0  0
  5 26  1  0  0  0
  6  7  1  0  0  0
  6 27  1  0  0  0
  7  8  2  0  0  0
  7 22  1  0  0  0
  8 28  1  0  0  0
  9 12  1  0  0  0
  9 10  1  0  0  0
  9 29  1  0  0  0
  9 30  1  0  0  0
 10 11  1  0  0  0
 10 21  2  0  0  0
 11 13  1  0  0  0
 12 13  2  0  0  0
 12 17  1  0  0  0
 13 14  1  0  0  0
 14 15  2  0  0  0
 14 31  1  0  0  0
 15 16  1  0  0  0
 15 32  1  0  0  0
 16 17  2  0  0  0
 16 18  1  0  0  0
 17 33  1  0  0  0
 18 19  1  0  0  0
 19 20  2  0  0  0
M  END
> <s_m_entry_id>
10238

> <s_m_entry_name>
dock_pv.274

> <s_m_Source_Path>
/home/csk/Desktop/cluster/DUD-E-result/aofb

> <s_m_Source_File>
dock_pv.maegz

> <i_m_Source_File_Index>
274

> <chembl_id>
CHEMBL1254625

> <chembl_pref_name>
None

> <i_lp_mmshare_version>
53161

> <i_f3d_flags>
0

> <r_lp_tautomer_probability>
1

> <s_lp_Force_Field>
OPLS_2005

> <r_lp_Energy>
28.525085

> <b_lp_Chiralities_Consistent>
1

> <s_lp_Variant>
CHEMBL2039_lig452-1

> <s_i_glide_gridfile>
glide-grid_1s3b

> <i_i_glide_lignum>
547

> <i_i_glide_rotatable_bonds>
4

> <r_i_docking_score>
-7.45903644487515

> <r_i_glide_ligand_efficiency>
-0.339047111130689

> <r_i_glide_ligand_efficiency_sa>
-0.950023339354424

> <r_i_glide_ligand_efficiency_ln>
-1.82326058209249

> <r_i_glide_gscore>
-7.45903644487515

> <r_i_glide_lipo>
-3.96059581589996

> <r_i_glide_hbond>
0

> <r_i_glide_metal>
0

> <r_i_glide_rewards>
-2.91233127260306

> <r_i_glide_evdw>
-16.7610721588135

> <r_i_glide_ecoul>
-0.823174357414246

> <r_i_glide_erotb>
0.375420405180673

> <r_i_glide_esite>
0

> <r_i_glide_emodel>
-16.760341421941

> <r_i_glide_energy>
-17.5842465162277

> <r_i_glide_einternal>
4.55560159683228

> <i_i_glide_confnum>
3

> <i_i_glide_posenum>
166

> <r_i_glide_eff_state_penalty>
0

> <s_user_duplicate_titles>
CHEMBL2039_lig452

> <s_m_subgroup_title>
dock_pv

> <s_m_subgroupid>
dock_pv

> <b_m_subgroup_collapsed>
1

$$$$
CHEMBL2039_lig520
                    3D
 Schrodinger Suite 2021-1.
 32 34  0  0  1  0            999 V2000
   53.0572  157.7200   28.5040 C   0  0  0  0  0  0
   51.6679  157.7116   29.1797 C   0  0  2  0  0  0
   51.0115  156.3102   28.9040 C   0  0  0  0  0  0
   51.6100  155.5389   27.7552 C   0  0  0  0  0  0
   51.2491  154.2163   27.4620 C   0  0  0  0  0  0
   51.6559  153.6078   26.2718 C   0  0  0  0  0  0
   52.4223  154.3164   25.3453 C   0  0  0  0  0  0
   52.8314  155.6161   25.6412 C   0  0  0  0  0  0
   52.4560  156.1982   26.8530 C   0  0  0  0  0  0
   52.9647  157.4440   27.1195 O   0  0  0  0  0  0
   50.0583  155.8440   29.5237 O   0  0  0  0  0  0
   50.8477  159.0169   29.0058 C   0  0  0  0  0  0
   50.0079  159.4816   30.1940 C   0  0  0  0  0  0
   50.4619  160.5637   30.9585 C   0  0  0  0  0  0
   49.7013  161.0439   32.0160 C   0  0  0  0  0  0
   48.4919  160.4380   32.3241 C   0  0  0  0  0  0
   48.0250  159.3585   31.5736 C   0  0  0  0  0  0
   48.7837  158.8809   30.5040 C   0  0  0  0  0  0
   47.5947  161.0440   33.6610 Cl  0  0  0  0  0  0
   53.5916  158.6440   28.7048 H   0  0  0  0  0  0
   53.6630  156.9431   28.9574 H   0  0  0  0  0  0
   51.8906  157.8440   30.2285 H   0  0  0  0  0  0
   50.6063  153.6651   28.1340 H   0  0  0  0  0  0
   51.3523  152.5934   26.0614 H   0  0  0  0  0  0
   52.7236  153.8494   24.4188 H   0  0  0  0  0  0
   53.4645  156.1569   24.9542 H   0  0  0  0  0  0
   50.2604  159.0621   28.1040 H   0  0  0  0  0  0
   51.5859  159.8090   28.9040 H   0  0  0  0  0  0
   51.4048  161.0433   30.7395 H   0  0  0  0  0  0
   50.0560  161.8767   32.6036 H   0  0  0  0  0  0
   47.0819  158.8930   31.8186 H   0  0  0  0  0  0
   48.4175  158.0472   29.9250 H   0  0  0  0  0  0
  1  2  1  0  0  0
  1 10  1  0  0  0
  1 20  1  0  0  0
  1 21  1  0  0  0
  2  3  1  0  0  0
  2 12  1  0  0  0
  2 22  1  0  0  0
  3  4  1  0  0  0
  3 11  2  0  0  0
  4  5  1  0  0  0
  4  9  2  0  0  0
  5  6  2  0  0  0
  5 23  1  0  0  0
  6  7  1  0  0  0
  6 24  1  0  0  0
  7  8  2  0  0  0
  7 25  1  0  0  0
  8  9  1  0  0  0
  8 26  1  0  0  0
  9 10  1  0  0  0
 12 13  1  0  0  0
 12 27  1  0  0  0
 12 28  1  0  0  0
 13 14  1  0  0  0
 13 18  2  0  0  0
 14 15  2  0  0  0
 14 29  1  0  0  0
 15 16  1  0  0  0
 15 30  1  0  0  0
 16 17  2  0  0  0
 16 19  1  0  0  0
 17 18  1  0  0  0
 17 31  1  0  0  0
 18 32  1  0  0  0
M  END
> <s_m_entry_id>
10239

> <s_m_entry_name>
dock_pv.275

> <s_m_Source_Path>
/home/csk/Desktop/cluster/DUD-E-result/aofb

> <s_m_Source_File>
dock_pv.maegz

> <i_m_Source_File_Index>
275

> <chembl_id>
CHEMBL1766624

> <chembl_pref_name>
None

> <i_lp_mmshare_version>
53161

> <i_f3d_flags>
0

> <r_lp_tautomer_probability>
0.99995

> <s_lp_Force_Field>
OPLS_2005

> <r_lp_Energy>
18.4826

> <b_lp_Chiralities_Consistent>
1

> <s_lp_Variant>
CHEMBL2039_lig520-1

> <s_i_glide_gridfile>
glide-grid_1s3b

> <i_i_glide_lignum>
621

> <i_i_glide_rotatable_bonds>
2

> <r_i_docking_score>
-7.45883952411843

> <r_i_glide_ligand_efficiency>
-0.392570501269391

> <r_i_glide_ligand_efficiency_sa>
-1.04753577179871

> <r_i_glide_ligand_efficiency_ln>
-1.89097602054797

> <r_i_glide_gscore>
-7.45883952411843

> <r_i_glide_lipo>
-3.84631621467289

> <r_i_glide_hbond>
0

> <r_i_glide_metal>
0

> <r_i_glide_rewards>
-2.81061859389502

> <r_i_glide_evdw>
-18.6161785125732

> <r_i_glide_ecoul>
-2.35421633720398

> <r_i_glide_erotb>
0.482036660658731

> <r_i_glide_esite>
0

> <r_i_glide_emodel>
-26.0924613181445

> <r_i_glide_energy>
-20.9703948497772

> <r_i_glide_einternal>
2.34719562530518

> <i_i_glide_confnum>
16

> <i_i_glide_posenum>
60

> <r_i_glide_eff_state_penalty>
0

> <s_user_duplicate_titles>
CHEMBL2039_lig520

> <s_m_subgroup_title>
dock_pv

> <s_m_subgroupid>
dock_pv

> <b_m_subgroup_collapsed>
1

$$$$
CHEMBL2039_lig913
                    3D
 Schrodinger Suite 2021-1.
 35 36  0  0  1  0            999 V2000
   48.0778  160.4124   32.6285 C   0  0  0  0  0  0
   49.2873  161.0784   32.4837 C   0  0  0  0  0  0
   50.2107  160.6512   31.5339 C   0  0  0  0  0  0
   49.9667  159.5422   30.6995 C   0  0  0  0  0  0
   48.7213  158.9039   30.8476 C   0  0  0  0  0  0
   47.8010  159.3298   31.8050 C   0  0  0  0  0  0
   48.3603  157.8200   30.1125 O   0  0  0  0  0  0
   51.0968  159.0863   29.7954 C   0  0  0  0  0  0
   52.0610  159.8394   29.7040 O   0  0  0  0  0  0
   51.1837  157.6999   29.2770 C   0  0  0  0  0  0
   52.1452  157.1860   28.4727 C   0  0  0  0  0  0
   51.9964  155.8482   27.9527 C   0  0  0  0  0  0
   52.1731  155.6095   26.6354 C   0  0  0  0  0  0
   52.2043  154.3015   25.9735 C   0  0  0  0  0  0
   52.9232  154.2129   24.7807 C   0  0  0  0  0  0
   53.2576  152.9706   24.2599 C   0  0  0  0  0  0
   52.8603  151.8194   24.9311 C   0  0  0  0  0  0
   52.0570  151.8967   26.0607 C   0  0  0  0  0  0
   51.7281  153.1391   26.5894 C   0  0  0  0  0  0
   53.2724  157.8400   28.1062 O   0  0  0  0  0  0
   53.2603  150.5973   24.4724 O   0  0  0  0  0  0
   47.3725  160.7250   33.3820 H   0  0  0  0  0  0
   49.5384  161.8996   33.1332 H   0  0  0  0  0  0
   51.1503  161.1899   31.5012 H   0  0  0  0  0  0
   46.8816  158.7877   31.9329 H   0  0  0  0  0  0
   49.0195  157.5976   29.4511 H   0  0  0  0  0  0
   50.4131  157.0057   29.5513 H   0  0  0  0  0  0
   51.7955  155.0392   28.6420 H   0  0  0  0  0  0
   52.3431  156.4609   25.9832 H   0  0  0  0  0  0
   53.3070  155.1011   24.3029 H   0  0  0  0  0  0
   53.8652  152.9149   23.3676 H   0  0  0  0  0  0
   51.6564  150.9977   26.5074 H   0  0  0  0  0  0
   51.1533  153.1868   27.5032 H   0  0  0  0  0  0
   53.2392  158.7547   28.4091 H   0  0  0  0  0  0
   53.5960  150.6762   23.5748 H   0  0  0  0  0  0
  1  2  2  0  0  0
  1  6  1  0  0  0
  1 22  1  0  0  0
  2  3  1  0  0  0
  2 23  1  0  0  0
  3  4  2  0  0  0
  3 24  1  0  0  0
  4  5  1  0  0  0
  4  8  1  0  0  0
  5  6  2  0  0  0
  5  7  1  0  0  0
  6 25  1  0  0  0
  7 26  1  0  0  0
  8  9  2  0  0  0
  8 10  1  0  0  0
 10 11  2  0  0  0
 10 27  1  0  0  0
 11 12  1  0  0  0
 11 20  1  0  0  0
 12 13  2  0  0  0
 12 28  1  0  0  0
 13 14  1  0  0  0
 13 29  1  0  0  0
 14 15  2  0  0  0
 14 19  1  0  0  0
 15 16  1  0  0  0
 15 30  1  0  0  0
 16 17  2  0  0  0
 16 31  1  0  0  0
 17 18  1  0  0  0
 17 21  1  0  0  0
 18 19  2  0  0  0
 18 32  1  0  0  0
 19 33  1  0  0  0
 20 34  1  0  0  0
 21 35  1  0  0  0
M  END
> <s_m_entry_id>
10240

> <s_m_entry_name>
dock_pv.276

> <s_m_Source_Path>
/home/csk/Desktop/cluster/DUD-E-result/aofb

> <s_m_Source_File>
dock_pv.maegz

> <i_m_Source_File_Index>
276

> <chembl_id>
CHEMBL2332173

> <chembl_pref_name>
None

> <i_lp_mmshare_version>
53161

> <i_f3d_flags>
0

> <r_lp_tautomer_probability>
0.0769230769230769

> <s_lp_Force_Field>
OPLS_2005

> <r_lp_Energy>
27.669096

> <b_lp_Chiralities_Consistent>
1

> <s_lp_Variant>
CHEMBL2039_lig913-2

> <s_i_glide_gridfile>
glide-grid_1s3b

> <i_i_glide_lignum>
1049

> <i_i_glide_rotatable_bonds>
7

> <r_i_docking_score>
-7.4548725101234

> <r_i_glide_ligand_efficiency>
-0.354993929053495

> <r_i_glide_ligand_efficiency_sa>
-0.979401332340276

> <r_i_glide_ligand_efficiency_ln>
-1.8432021641397

> <r_i_glide_gscore>
-7.4548725101234

> <r_i_glide_lipo>
-4.48569330916539

> <r_i_glide_hbond>
-0.0170489796163084

> <r_i_glide_metal>
0

> <r_i_glide_rewards>
-2.47192217185186

> <r_i_glide_evdw>
-26.6468048095703

> <r_i_glide_ecoul>
-1.8866571187973

> <r_i_glide_erotb>
1.13513075880826

> <r_i_glide_esite>
0

> <r_i_glide_emodel>
-22.3405504339167

> <r_i_glide_energy>
-28.5334619283676

> <r_i_glide_einternal>
13.0520706176758

> <i_i_glide_confnum>
2

> <i_i_glide_posenum>
55

> <r_i_glide_eff_state_penalty>
0

> <s_user_duplicate_titles>
CHEMBL2039_lig913

> <s_m_subgroup_title>
dock_pv

> <s_m_subgroupid>
dock_pv

> <b_m_subgroup_collapsed>
1

$$$$
CHEMBL2039_lig1726
                    3D
 Schrodinger Suite 2021-1.
 30 32  0  0  1  0            999 V2000
   52.4382  156.3159   27.0559 C   0  0  0  0  0  0
   51.6560  156.6440   28.2482 C   0  0  0  0  0  0
   50.9573  155.3636   28.7068 C   0  0  0  0  0  0
   51.3871  154.3431   27.6752 C   0  0  0  0  0  0
   51.2560  152.9566   27.6185 C   0  0  0  0  0  0
   51.7141  152.2440   26.5041 C   0  0  0  0  0  0
   52.3768  152.9052   25.4740 C   0  0  0  0  0  0
   52.4963  154.2885   25.5098 C   0  0  0  0  0  0
   52.0560  154.9720   26.6440 C   0  0  0  0  0  0
   53.2505  157.0440   26.5040 O   0  0  0  0  0  0
   52.9701  152.1844   24.4750 O   0  0  0  0  0  0
   51.6560  157.9289   28.6955 C   0  0  0  0  0  0
   50.8559  158.6539   29.7040 C   0  0  0  0  0  0
   51.3672  159.8595   30.1996 C   0  0  0  0  0  0
   50.6214  160.6440   31.0760 C   0  0  0  0  0  0
   49.3428  160.2346   31.4434 C   0  0  0  0  0  0
   48.8208  159.0373   30.9606 C   0  0  0  0  0  0
   49.5831  158.2440   30.1040 C   0  0  0  0  0  0
   51.2560  155.0440   29.7040 H   0  0  0  0  0  0
   49.8725  155.4604   28.7156 H   0  0  0  0  0  0
   50.8105  152.4122   28.4358 H   0  0  0  0  0  0
   51.6198  151.1681   26.4811 H   0  0  0  0  0  0
   53.0645  154.7952   24.7436 H   0  0  0  0  0  0
   53.5014  152.7137   23.8760 H   0  0  0  0  0  0
   52.3168  158.6090   28.1784 H   0  0  0  0  0  0
   52.3556  160.1900   29.9156 H   0  0  0  0  0  0
   51.0355  161.5589   31.4739 H   0  0  0  0  0  0
   48.7596  160.8419   32.1200 H   0  0  0  0  0  0
   47.8336  158.7171   31.2599 H   0  0  0  0  0  0
   49.1714  157.3125   29.7535 H   0  0  0  0  0  0
  1  2  1  0  0  0
  1  9  1  0  0  0
  1 10  2  0  0  0
  2  3  1  0  0  0
  2 12  2  0  0  0
  3  4  1  0  0  0
  3 19  1  0  0  0
  3 20  1  0  0  0
  4  5  1  0  0  0
  4  9  2  0  0  0
  5  6  2  0  0  0
  5 21  1  0  0  0
  6  7  1  0  0  0
  6 22  1  0  0  0
  7  8  2  0  0  0
  7 11  1  0  0  0
  8  9  1  0  0  0
  8 23  1  0  0  0
 11 24  1  0  0  0
 12 13  1  0  0  0
 12 25  1  0  0  0
 13 14  1  0  0  0
 13 18  2  0  0  0
 14 15  2  0  0  0
 14 26  1  0  0  0
 15 16  1  0  0  0
 15 27  1  0  0  0
 16 17  2  0  0  0
 16 28  1  0  0  0
 17 18  1  0  0  0
 17 29  1  0  0  0
 18 30  1  0  0  0
M  END
> <s_m_entry_id>
10241

> <s_m_entry_name>
dock_pv.277

> <s_m_Source_Path>
/home/csk/Desktop/cluster/DUD-E-result/aofb

> <s_m_Source_File>
dock_pv.maegz

> <i_m_Source_File_Index>
277

> <chembl_id>
CHEMBL3925000

> <chembl_pref_name>
None

> <i_lp_mmshare_version>
53161

> <i_f3d_flags>
0

> <r_lp_tautomer_probability>
1

> <s_lp_Force_Field>
OPLS_2005

> <r_lp_Energy>
24.341935

> <b_lp_Chiralities_Consistent>
1

> <s_lp_Variant>
CHEMBL2039_lig1726-1

> <s_i_glide_gridfile>
glide-grid_1s3b

> <i_i_glide_lignum>
2014

> <i_i_glide_rotatable_bonds>
2

> <r_i_docking_score>
-7.4545080658298

> <r_i_glide_ligand_efficiency>
-0.414139336990544

> <r_i_glide_ligand_efficiency_sa>
-1.08535210237566

> <r_i_glide_ligand_efficiency_ln>
-1.91614285979216

> <r_i_glide_gscore>
-7.4545080658298

> <r_i_glide_lipo>
-3.45014693576891

> <r_i_glide_hbond>
0

> <r_i_glide_metal>
0

> <r_i_glide_rewards>
-2.70162154561494

> <r_i_glide_evdw>
-20.2392539978027

> <r_i_glide_ecoul>
-1.93851256370544

> <r_i_glide_erotb>
0

> <r_i_glide_esite>
0

> <r_i_glide_emodel>
-23.8030416676697

> <r_i_glide_energy>
-22.1777665615082

> <r_i_glide_einternal>
0.503180086612701

> <i_i_glide_confnum>
1

> <i_i_glide_posenum>
154

> <r_i_glide_eff_state_penalty>
0

> <s_user_duplicate_titles>
CHEMBL2039_lig1726

> <s_m_subgroup_title>
dock_pv

> <s_m_subgroupid>
dock_pv

> <b_m_subgroup_collapsed>
1

$$$$
CHEMBL2039_lig2065
                    3D
 Schrodinger Suite 2021-1.
 29 30  0  0  1  0            999 V2000
   49.0339  160.1154   31.4270 C   0  0  0  0  0  0
   49.2336  159.0201   30.5891 C   0  0  0  0  0  0
   50.4597  158.8219   29.9530 C   0  0  0  0  0  0
   51.4658  159.7892   30.1042 C   0  0  0  0  0  0
   51.2678  160.8885   30.9394 C   0  0  0  0  0  0
   50.0570  161.0426   31.6134 C   0  0  0  0  0  0
   50.6231  157.6126   29.3042 O   0  0  0  0  0  0
   51.8303  157.3094   28.6108 C   0  0  0  0  0  0
   51.7019  155.9604   27.9019 C   0  0  0  0  0  0
   52.0601  155.8445   26.5538 C   0  0  0  0  0  0
   52.0406  154.6028   25.9111 C   0  0  0  0  0  0
   51.6526  153.4674   26.6222 C   0  0  0  0  0  0
   51.2563  153.5809   27.9537 C   0  0  0  0  0  0
   51.2583  154.8240   28.5860 C   0  0  0  0  0  0
   47.3850  160.3002   32.3588 Br  0  0  0  0  0  0
   52.4581  154.4940   24.4604 C   0  0  0  0  0  0
   48.4538  158.2807   30.4835 H   0  0  0  0  0  0
   52.4328  159.6549   29.6468 H   0  0  0  0  0  0
   52.0633  161.6036   31.0963 H   0  0  0  0  0  0
   49.9146  161.8795   32.2819 H   0  0  0  0  0  0
   52.6681  157.2484   29.3023 H   0  0  0  0  0  0
   52.0570  158.0938   27.8881 H   0  0  0  0  0  0
   52.3881  156.7197   26.0121 H   0  0  0  0  0  0
   51.6472  152.4985   26.1451 H   0  0  0  0  0  0
   50.9453  152.7038   28.5016 H   0  0  0  0  0  0
   50.9636  154.8947   29.6225 H   0  0  0  0  0  0
   53.3954  155.0261   24.2998 H   0  0  0  0  0  0
   52.6146  153.4589   24.1494 H   0  0  0  0  0  0
   51.6990  154.9451   23.8183 H   0  0  0  0  0  0
  1  2  1  0  0  0
  1  6  2  0  0  0
  1 15  1  0  0  0
  2  3  2  0  0  0
  2 17  1  0  0  0
  3  4  1  0  0  0
  3  7  1  0  0  0
  4  5  2  0  0  0
  4 18  1  0  0  0
  5  6  1  0  0  0
  5 19  1  0  0  0
  6 20  1  0  0  0
  7  8  1  0  0  0
  8  9  1  0  0  0
  8 21  1  0  0  0
  8 22  1  0  0  0
  9 10  1  0  0  0
  9 14  2  0  0  0
 10 11  2  0  0  0
 10 23  1  0  0  0
 11 12  1  0  0  0
 11 16  1  0  0  0
 12 13  2  0  0  0
 12 24  1  0  0  0
 13 14  1  0  0  0
 13 25  1  0  0  0
 14 26  1  0  0  0
 16 27  1  0  0  0
 16 28  1  0  0  0
 16 29  1  0  0  0
M  END
> <s_m_entry_id>
10242

> <s_m_entry_name>
dock_pv.278

> <s_m_Source_Path>
/home/csk/Desktop/cluster/DUD-E-result/aofb

> <s_m_Source_File>
dock_pv.maegz

> <i_m_Source_File_Index>
278

> <chembl_id>
CHEMBL4175017

> <chembl_pref_name>
None

> <i_lp_mmshare_version>
53161

> <i_f3d_flags>
0

> <r_lp_tautomer_probability>
1

> <s_lp_Force_Field>
OPLS_2005

> <r_lp_Energy>
14.841811

> <b_lp_Chiralities_Consistent>
1

> <s_lp_Variant>
CHEMBL2039_lig2065-1

> <s_i_glide_gridfile>
glide-grid_1s3b

> <i_i_glide_lignum>
2403

> <i_i_glide_rotatable_bonds>
3

> <r_i_docking_score>
-7.45337672603039

> <r_i_glide_ligand_efficiency>
-0.465836045376899

> <r_i_glide_ligand_efficiency_sa>
-1.17383327765543

> <r_i_glide_ligand_efficiency_ln>
-1.97566638581407

> <r_i_glide_gscore>
-7.45337672603039

> <r_i_glide_lipo>
-4.0191201832498

> <r_i_glide_hbond>
0

> <r_i_glide_metal>
0

> <r_i_glide_rewards>
-2.41924406108008

> <r_i_glide_evdw>
-30.7531433105469

> <r_i_glide_ecoul>
-1.20329225063324

> <r_i_glide_erotb>
0.703138521421818

> <r_i_glide_esite>
0

> <r_i_glide_emodel>
-42.1333374839131

> <r_i_glide_energy>
-31.9564355611801

> <r_i_glide_einternal>
4.34424161911011

> <i_i_glide_confnum>
20

> <i_i_glide_posenum>
337

> <r_i_glide_eff_state_penalty>
0

> <s_user_duplicate_titles>
CHEMBL2039_lig2065

> <s_m_subgroup_title>
dock_pv

> <s_m_subgroupid>
dock_pv

> <b_m_subgroup_collapsed>
1

$$$$
CHEMBL2039_lig648
                    3D
 Schrodinger Suite 2021-1.
 31 33  0  0  1  0            999 V2000
   52.3838  154.9611   26.1041 C   0  0  0  0  0  0
   53.2381  155.1403   24.9011 C   0  0  0  0  0  0
   51.9543  153.6759   26.4741 C   0  0  0  0  0  0
   53.5331  153.8948   24.2063 C   0  0  0  0  0  0
   53.0531  152.7164   24.6417 C   0  0  0  0  0  0
   52.2538  152.5558   25.7253 O   0  0  0  0  0  0
   52.0916  156.0393   26.9465 C   0  0  0  0  0  0
   53.6695  156.2371   24.5468 O   0  0  0  0  0  0
   51.2561  153.4743   27.6604 C   0  0  0  0  0  0
   51.4011  155.8440   28.1505 C   0  0  0  0  0  0
   51.0595  156.8533   29.0237 O   0  0  0  0  0  0
   50.9871  154.5592   28.4936 C   0  0  0  0  0  0
   51.6559  158.1446   28.9040 C   0  0  0  0  0  0
   50.9323  159.1412   29.7987 C   0  0  0  0  0  0
   49.5775  158.9854   30.1159 C   0  0  0  0  0  0
   51.6561  160.1933   30.3615 C   0  0  0  0  0  0
   51.0490  161.0440   31.2739 C   0  0  0  0  0  0
   48.9657  159.8439   31.0247 C   0  0  0  0  0  0
   49.7104  160.8614   31.6134 C   0  0  0  0  0  0
   54.1635  153.9093   23.3311 H   0  0  0  0  0  0
   53.2550  151.7749   24.1496 H   0  0  0  0  0  0
   52.4404  157.0221   26.6682 H   0  0  0  0  0  0
   50.9491  152.4796   27.9462 H   0  0  0  0  0  0
   50.4583  154.4040   29.4223 H   0  0  0  0  0  0
   51.6560  158.5410   27.8943 H   0  0  0  0  0  0
   52.7022  158.0609   29.1806 H   0  0  0  0  0  0
   49.0037  158.1720   29.7040 H   0  0  0  0  0  0
   52.7038  160.3202   30.1309 H   0  0  0  0  0  0
   51.6217  161.8505   31.7040 H   0  0  0  0  0  0
   47.9264  159.7090   31.2857 H   0  0  0  0  0  0
   49.2456  161.5240   32.3285 H   0  0  0  0  0  0
  1  2  1  0  0  0
  1  3  2  0  0  0
  1  7  1  0  0  0
  2  4  1  0  0  0
  2  8  2  0  0  0
  3  6  1  0  0  0
  3  9  1  0  0  0
  4  5  2  0  0  0
  4 20  1  0  0  0
  5  6  1  0  0  0
  5 21  1  0  0  0
  7 10  2  0  0  0
  7 22  1  0  0  0
  9 12  2  0  0  0
  9 23  1  0  0  0
 10 11  1  0  0  0
 10 12  1  0  0  0
 11 13  1  0  0  0
 12 24  1  0  0  0
 13 14  1  0  0  0
 13 25  1  0  0  0
 13 26  1  0  0  0
 14 15  2  0  0  0
 14 16  1  0  0  0
 15 18  1  0  0  0
 15 27  1  0  0  0
 16 17  2  0  0  0
 16 28  1  0  0  0
 17 19  1  0  0  0
 17 29  1  0  0  0
 18 19  2  0  0  0
 18 30  1  0  0  0
 19 31  1  0  0  0
M  END
> <s_m_entry_id>
10243

> <s_m_entry_name>
dock_pv.279

> <s_m_Source_Path>
/home/csk/Desktop/cluster/DUD-E-result/aofb

> <s_m_Source_File>
dock_pv.maegz

> <i_m_Source_File_Index>
279

> <chembl_id>
CHEMBL323988

> <chembl_pref_name>
None

> <i_lp_mmshare_version>
53161

> <i_f3d_flags>
0

> <r_lp_tautomer_probability>
1

> <s_lp_Force_Field>
OPLS_2005

> <r_lp_Energy>
15.791221

> <b_lp_Chiralities_Consistent>
1

> <s_lp_Variant>
CHEMBL2039_lig648-1

> <s_i_glide_gridfile>
glide-grid_1s3b

> <i_i_glide_lignum>
757

> <i_i_glide_rotatable_bonds>
3

> <r_i_docking_score>
-7.45325915500925

> <r_i_glide_ligand_efficiency>
-0.392276797632066

> <r_i_glide_ligand_efficiency_sa>
-1.0467520525294

> <r_i_glide_ligand_efficiency_ln>
-1.88956127712345

> <r_i_glide_gscore>
-7.45325915500925

> <r_i_glide_lipo>
-3.84381867687961

> <r_i_glide_hbond>
0

> <r_i_glide_metal>
0

> <r_i_glide_rewards>
-2.58280385293959

> <r_i_glide_evdw>
-27.8008995056152

> <r_i_glide_ecoul>
-3.09132552146912

> <r_i_glide_erotb>
0.82710717831108

> <r_i_glide_esite>
0

> <r_i_glide_emodel>
-39.8703093965314

> <r_i_glide_energy>
-30.8922250270844

> <r_i_glide_einternal>
4.26055908203125

> <i_i_glide_confnum>
29

> <i_i_glide_posenum>
57

> <r_i_glide_eff_state_penalty>
0

> <s_user_duplicate_titles>
CHEMBL2039_lig648

> <s_m_subgroup_title>
dock_pv

> <s_m_subgroupid>
dock_pv

> <b_m_subgroup_collapsed>
1

$$$$
CHEMBL2039_lig2787 
                    3D
 Schrodinger Suite 2021-1.
 31 32  0  0  1  0            999 V2000
   52.0556  156.4480   27.9382 C   0  0  0  0  0  0
   51.5660  155.2640   28.5039 C   0  0  0  0  0  0
   51.5524  154.0843   27.7653 C   0  0  0  0  0  0
   51.9968  154.0911   26.4405 C   0  0  0  0  0  0
   52.4337  155.2767   25.8520 C   0  0  0  0  0  0
   52.4635  156.4430   26.6067 C   0  0  0  0  0  0
   52.0401  152.8067   25.6439 C   0  0  0  0  0  0
   53.4531  152.2201   25.5209 C   0  0  0  0  0  0
   52.0201  157.7410   28.6466 C   0  0  0  0  0  0
   51.0005  158.1483   29.4329 C   0  0  0  0  0  0
   50.9554  159.4564   30.1026 C   0  0  0  0  0  0
   49.7352  159.8444   30.8210 C   0  0  0  0  0  0
   51.9200  160.2255   30.1040 O   0  0  0  0  0  0
   49.5992  160.8706   31.7571 C   0  0  0  0  0  0
   48.3093  160.9851   32.2804 C   0  0  0  0  0  0
   47.4343  160.0591   31.7379 C   0  0  0  0  0  0
   48.2001  159.0439   30.5676 S   0  0  0  0  0  0
   45.7772  159.8374   32.0977 Cl  0  0  0  0  0  0
   51.2006  155.2446   29.5177 H   0  0  0  0  0  0
   51.2053  153.1711   28.2265 H   0  0  0  0  0  0
   52.7799  155.2889   24.8300 H   0  0  0  0  0  0
   52.8155  157.3488   26.1512 H   0  0  0  0  0  0
   51.3674  152.0797   26.1032 H   0  0  0  0  0  0
   51.6562  153.0439   24.6516 H   0  0  0  0  0  0
   53.4427  151.2908   24.9509 H   0  0  0  0  0  0
   54.1271  152.9121   25.0130 H   0  0  0  0  0  0
   53.8782  152.0075   26.5017 H   0  0  0  0  0  0
   52.8814  158.3761   28.5042 H   0  0  0  0  0  0
   50.1640  157.4870   29.5836 H   0  0  0  0  0  0
   50.4214  161.5040   32.0670 H   0  0  0  0  0  0
   48.0259  161.7147   33.0232 H   0  0  0  0  0  0
  1  2  2  0  0  0
  1  6  1  0  0  0
  1  9  1  0  0  0
  2  3  1  0  0  0
  2 19  1  0  0  0
  3  4  2  0  0  0
  3 20  1  0  0  0
  4  5  1  0  0  0
  4  7  1  0  0  0
  5  6  2  0  0  0
  5 21  1  0  0  0
  6 22  1  0  0  0
  7  8  1  0  0  0
  7 23  1  0  0  0
  7 24  1  0  0  0
  8 25  1  0  0  0
  8 26  1  0  0  0
  8 27  1  0  0  0
  9 10  2  0  0  0
  9 28  1  0  0  0
 10 11  1  0  0  0
 10 29  1  0  0  0
 11 12  1  0  0  0
 11 13  2  0  0  0
 12 14  2  0  0  0
 12 17  1  0  0  0
 14 15  1  0  0  0
 14 30  1  0  0  0
 15 16  2  0  0  0
 15 31  1  0  0  0
 16 17  1  0  0  0
 16 18  1  0  0  0
M  END
> <s_m_entry_id>
10244

> <s_m_entry_name>
dock_pv.280

> <s_m_Source_Path>
/home/csk/Desktop/cluster/DUD-E-result/aofb

> <s_m_Source_File>
dock_pv.maegz

> <i_m_Source_File_Index>
280

> <chembl_id>
CHEMBL4521057

> <chembl_pref_name>
None

> <i_lp_mmshare_version>
53161

> <i_f3d_flags>
0

> <r_lp_tautomer_probability>
1

> <s_lp_Force_Field>
OPLS_2005

> <r_lp_Energy>
7.380629

> <b_lp_Chiralities_Consistent>
1

> <s_lp_Variant>
CHEMBL2039_lig2787 -1

> <s_i_glide_gridfile>
glide-grid_1s3b

> <i_i_glide_lignum>
3254

> <i_i_glide_rotatable_bonds>
4

> <r_i_docking_score>
-7.45102419648255

> <r_i_glide_ligand_efficiency>
-0.413945788693475

> <r_i_glide_ligand_efficiency_sa>
-1.08484486234224

> <r_i_glide_ligand_efficiency_ln>
-1.91524734914072

> <r_i_glide_gscore>
-7.45102419648255

> <r_i_glide_lipo>
-3.80304826738789

> <r_i_glide_hbond>
0

> <r_i_glide_metal>
0

> <r_i_glide_rewards>
-2.42100932133496

> <r_i_glide_evdw>
-34.9578056335449

> <r_i_glide_ecoul>
0.340423732995987

> <r_i_glide_erotb>
0.469860113968144

> <r_i_glide_esite>
0

> <r_i_glide_emodel>
-46.214770498026

> <r_i_glide_energy>
-34.6173819005489

> <r_i_glide_einternal>
4.92775249481201

> <i_i_glide_confnum>
6

> <i_i_glide_posenum>
141

> <r_i_glide_eff_state_penalty>
0

> <s_user_duplicate_titles>
CHEMBL2039_lig2787 

> <s_m_subgroup_title>
dock_pv

> <s_m_subgroupid>
dock_pv

> <b_m_subgroup_collapsed>
1

$$$$
CHEMBL2039_lig2650 
                    3D
 Schrodinger Suite 2021-1.
 35 37  0  0  1  0            999 V2000
   52.2359  156.2440   26.4364 C   0  0  0  0  0  0
   51.6985  155.5972   27.4898 C   0  0  0  0  0  0
   51.6246  154.1319   27.4988 C   0  0  0  0  0  0
   52.1027  153.5043   26.2356 C   0  0  0  0  0  0
   52.1828  152.1153   26.1040 C   0  0  0  0  0  0
   52.8560  151.5415   25.0243 C   0  0  0  0  0  0
   53.2560  152.3501   23.9704 C   0  0  0  0  0  0
   53.1951  153.7316   24.0820 C   0  0  0  0  0  0
   52.6391  154.3037   25.2159 C   0  0  0  0  0  0
   52.6922  155.6754   25.2990 O   0  0  0  0  0  0
   51.2560  153.4475   28.4498 O   0  0  0  0  0  0
   51.1267  156.2955   28.7090 C   0  0  0  0  0  0
   51.5633  157.6824   28.9227 N   0  0  0  0  0  0
   50.8155  158.5887   29.7040 C   0  0  0  0  0  0
   51.4338  159.7764   30.1040 C   0  0  0  0  0  0
   50.7940  160.6440   30.9860 C   0  0  0  0  0  0
   49.5105  160.3478   31.4484 C   0  0  0  0  0  0
   48.8560  159.2034   30.9989 C   0  0  0  0  0  0
   49.5085  158.3277   30.1366 C   0  0  0  0  0  0
   48.8537  161.2195   32.5040 C   0  0  0  0  0  0
   52.3068  157.3198   26.3912 H   0  0  0  0  0  0
   51.7480  151.4732   26.8591 H   0  0  0  0  0  0
   52.9343  150.4667   24.9460 H   0  0  0  0  0  0
   53.6560  151.9035   23.0759 H   0  0  0  0  0  0
   53.6066  154.3477   23.3040 H   0  0  0  0  0  0
   51.2560  155.6916   29.6051 H   0  0  0  0  0  0
   50.0560  156.2440   28.5548 H   0  0  0  0  0  0
   52.5645  157.8286   28.9435 H   0  0  0  0  0  0
   52.4438  159.9921   29.7891 H   0  0  0  0  0  0
   51.3144  161.5217   31.3413 H   0  0  0  0  0  0
   47.8676  158.9603   31.3609 H   0  0  0  0  0  0
   48.9995  157.4116   29.8911 H   0  0  0  0  0  0
   48.3941  160.5940   33.2705 H   0  0  0  0  0  0
   48.0701  161.8439   32.0764 H   0  0  0  0  0  0
   49.5876  161.8440   33.0133 H   0  0  0  0  0  0
  1  2  2  0  0  0
  1 10  1  0  0  0
  1 21  1  0  0  0
  2  3  1  0  0  0
  2 12  1  0  0  0
  3  4  1  0  0  0
  3 11  2  0  0  0
  4  5  1  0  0  0
  4  9  2  0  0  0
  5  6  2  0  0  0
  5 22  1  0  0  0
  6  7  1  0  0  0
  6 23  1  0  0  0
  7  8  2  0  0  0
  7 24  1  0  0  0
  8  9  1  0  0  0
  8 25  1  0  0  0
  9 10  1  0  0  0
 12 13  1  0  0  0
 12 26  1  0  0  0
 12 27  1  0  0  0
 13 14  1  0  0  0
 13 28  1  0  0  0
 14 15  2  0  0  0
 14 19  1  0  0  0
 15 16  1  0  0  0
 15 29  1  0  0  0
 16 17  2  0  0  0
 16 30  1  0  0  0
 17 18  1  0  0  0
 17 20  1  0  0  0
 18 19  2  0  0  0
 18 31  1  0  0  0
 19 32  1  0  0  0
 20 33  1  0  0  0
 20 34  1  0  0  0
 20 35  1  0  0  0
M  END
> <s_m_entry_id>
10245

> <s_m_entry_name>
dock_pv.281

> <s_m_Source_Path>
/home/csk/Desktop/cluster/DUD-E-result/aofb

> <s_m_Source_File>
dock_pv.maegz

> <i_m_Source_File_Index>
281

> <chembl_id>
CHEMBL4539746

> <chembl_pref_name>
None

> <i_lp_mmshare_version>
53161

> <i_f3d_flags>
0

> <r_lp_tautomer_probability>
1

> <s_lp_Force_Field>
OPLS_2005

> <r_lp_Energy>
13.791159

> <b_lp_Chiralities_Consistent>
1

> <s_lp_Variant>
CHEMBL2039_lig2650 -1

> <s_i_glide_gridfile>
glide-grid_1s3b

> <i_i_glide_lignum>
3069

> <i_i_glide_rotatable_bonds>
3

> <r_i_docking_score>
-7.45042046459164

> <r_i_glide_ligand_efficiency>
-0.372521023229582

> <r_i_glide_ligand_efficiency_sa>
-1.0111776269966

> <r_i_glide_ligand_efficiency_ln>
-1.8645945109743

> <r_i_glide_gscore>
-7.45042046459164

> <r_i_glide_lipo>
-4.27755536696072

> <r_i_glide_hbond>
-0.0172374421606351

> <r_i_glide_metal>
0

> <r_i_glide_rewards>
-2.49989771745601

> <r_i_glide_evdw>
-25.8685436248779

> <r_i_glide_ecoul>
-0.804495573043823

> <r_i_glide_erotb>
0.758371579186193

> <r_i_glide_esite>
0

> <r_i_glide_emodel>
-31.5045991412058

> <r_i_glide_energy>
-26.6730391979218

> <r_i_glide_einternal>
3.22396373748779

> <i_i_glide_confnum>
17

> <i_i_glide_posenum>
171

> <r_i_glide_eff_state_penalty>
0

> <s_user_duplicate_titles>
CHEMBL2039_lig2650 

> <s_m_subgroup_title>
dock_pv

> <s_m_subgroupid>
dock_pv

> <b_m_subgroup_collapsed>
1

$$$$
CHEMBL2039_lig528
                    3D
 Schrodinger Suite 2021-1.
 32 34  0  0  1  0            999 V2000
   53.2534  152.9142   24.3528 C   0  0  0  0  0  0
   52.7172  152.0585   25.3097 C   0  0  0  0  0  0
   52.0554  152.5807   26.4214 C   0  0  0  0  0  0
   53.1219  154.2907   24.5056 C   0  0  0  0  0  0
   52.4654  154.8117   25.6254 C   0  0  0  0  0  0
   51.9662  153.9645   26.6191 C   0  0  0  0  0  0
   51.5099  154.5002   27.9325 C   0  0  0  0  0  0
   51.5595  155.9651   28.0642 C   0  0  0  0  0  0
   52.4344  156.7052   27.0571 C   0  0  0  0  0  0
   52.4045  156.1795   25.7249 O   0  0  0  0  0  0
   51.2558  153.7384   28.8618 O   0  0  0  0  0  0
   50.8165  156.5244   29.0518 C   0  0  0  0  0  0
   50.6641  157.9293   29.5141 C   0  0  0  0  0  0
   51.6562  158.9092   29.4414 C   0  0  0  0  0  0
   51.5171  160.1183   30.1364 C   0  0  0  0  0  0
   50.3493  160.3627   30.8709 C   0  0  0  0  0  0
   49.2890  159.4639   30.7979 C   0  0  0  0  0  0
   49.4456  158.2640   30.1109 C   0  0  0  0  0  0
   52.5411  161.0352   30.1114 O   0  0  0  0  0  0
   50.2286  161.4433   31.7059 O   0  0  0  0  0  0
   53.7710  152.5153   23.4929 H   0  0  0  0  0  0
   52.8130  150.9893   25.1897 H   0  0  0  0  0  0
   51.6585  151.8923   27.1567 H   0  0  0  0  0  0
   53.5806  154.9370   23.7720 H   0  0  0  0  0  0
   52.0731  157.7278   26.9791 H   0  0  0  0  0  0
   53.4592  156.7710   27.4156 H   0  0  0  0  0  0
   50.2313  155.8502   29.6649 H   0  0  0  0  0  0
   52.5904  158.6970   28.9409 H   0  0  0  0  0  0
   48.3716  159.6613   31.3356 H   0  0  0  0  0  0
   48.6368  157.5481   30.1525 H   0  0  0  0  0  0
   52.4068  161.7598   30.7256 H   0  0  0  0  0  0
   50.9872  161.5963   32.2794 H   0  0  0  0  0  0
  1  2  2  0  0  0
  1  4  1  0  0  0
  1 21  1  0  0  0
  2  3  1  0  0  0
  2 22  1  0  0  0
  3  6  2  0  0  0
  3 23  1  0  0  0
  4  5  2  0  0  0
  4 24  1  0  0  0
  5  6  1  0  0  0
  5 10  1  0  0  0
  6  7  1  0  0  0
  7 11  2  0  0  0
  7  8  1  0  0  0
  8  9  1  0  0  0
  8 12  2  0  0  0
  9 10  1  0  0  0
  9 25  1  0  0  0
  9 26  1  0  0  0
 12 13  1  0  0  0
 12 27  1  0  0  0
 13 14  2  0  0  0
 13 18  1  0  0  0
 14 15  1  0  0  0
 14 28  1  0  0  0
 15 16  2  0  0  0
 15 19  1  0  0  0
 16 17  1  0  0  0
 16 20  1  0  0  0
 17 18  2  0  0  0
 17 29  1  0  0  0
 18 30  1  0  0  0
 19 31  1  0  0  0
 20 32  1  0  0  0
M  END
> <s_m_entry_id>
10246

> <s_m_entry_name>
dock_pv.282

> <s_m_Source_Path>
/home/csk/Desktop/cluster/DUD-E-result/aofb

> <s_m_Source_File>
dock_pv.maegz

> <i_m_Source_File_Index>
282

> <chembl_id>
CHEMBL1766558

> <chembl_pref_name>
None

> <i_lp_mmshare_version>
53161

> <i_f3d_flags>
0

> <r_lp_tautomer_probability>
1

> <s_lp_Force_Field>
OPLS_2005

> <r_lp_Energy>
18.588141

> <b_lp_Chiralities_Consistent>
1

> <s_lp_Variant>
CHEMBL2039_lig528-1

> <s_i_glide_gridfile>
glide-grid_1s3b

> <i_i_glide_lignum>
630

> <i_i_glide_rotatable_bonds>
3

> <r_i_docking_score>
-7.44449665933272

> <r_i_glide_ligand_efficiency>
-0.372224832966636

> <r_i_glide_ligand_efficiency_sa>
-1.0103736429298

> <r_i_glide_ligand_efficiency_ln>
-1.86311197789817

> <r_i_glide_gscore>
-7.44449665933272

> <r_i_glide_lipo>
-3.44460460489796

> <r_i_glide_hbond>
0

> <r_i_glide_metal>
0

> <r_i_glide_rewards>
-2.50150676122279

> <r_i_glide_evdw>
-21.6523323059082

> <r_i_glide_ecoul>
-4.42509603500366

> <r_i_glide_erotb>
0.247995727333995

> <r_i_glide_esite>
0

> <r_i_glide_emodel>
-33.2131581804425

> <r_i_glide_energy>
-26.0774283409119

> <r_i_glide_einternal>
4.79204797744751

> <i_i_glide_confnum>
3

> <i_i_glide_posenum>
237

> <r_i_glide_eff_state_penalty>
0

> <s_user_duplicate_titles>
CHEMBL2039_lig528

> <s_m_subgroup_title>
dock_pv

> <s_m_subgroupid>
dock_pv

> <b_m_subgroup_collapsed>
1

$$$$
CHEMBL2039_lig993
                    3D
 Schrodinger Suite 2021-1.
 36 38  0  0  1  0            999 V2000
   50.4698  160.7254   30.9770 N   0  0  0  0  0  0
   51.2423  159.9667   30.1583 C   0  0  0  0  0  0
   50.8675  158.7001   29.7041 C   0  0  0  0  0  0
   49.6148  158.2221   30.1040 C   0  0  0  0  0  0
   48.7878  158.9963   30.9188 C   0  0  0  0  0  0
   49.2581  160.2367   31.3466 C   0  0  0  0  0  0
   52.9332  152.8761   25.2436 C   0  0  0  0  0  0
   52.9830  154.1079   24.3242 C   0  0  1  0  0  0
   53.1750  155.4290   25.1197 C   0  0  0  0  0  0
   51.8963  153.0079   26.3528 C   0  0  0  0  0  0
   51.8162  154.3366   27.0095 C   0  0  0  0  0  0
   52.4427  155.4738   26.4662 C   0  0  0  0  0  0
   52.4559  156.6441   27.1558 N   0  0  0  0  0  0
   51.7763  156.7095   28.3296 C   0  0  0  0  0  0
   51.0735  155.6898   28.8845 N   0  0  0  0  0  0
   51.1225  154.5110   28.2151 C   0  0  0  0  0  0
   51.7697  157.9877   28.9027 N   0  0  0  0  0  0
   51.2560  152.0440   26.7503 O   0  0  0  0  0  0
   54.1530  153.8733   23.3561 C   0  0  0  0  0  0
   48.4327  161.1021   32.2795 C   0  0  0  0  0  0
   52.2078  160.3796   29.9102 H   0  0  0  0  0  0
   49.2789  157.2428   29.8053 H   0  0  0  0  0  0
   47.8235  158.6254   31.2336 H   0  0  0  0  0  0
   52.6773  152.0040   24.6411 H   0  0  0  0  0  0
   53.9122  152.7475   25.7045 H   0  0  0  0  0  0
   52.0562  154.1665   23.7517 H   0  0  0  0  0  0
   52.8792  156.2818   24.5075 H   0  0  0  0  0  0
   54.2371  155.5602   25.3040 H   0  0  0  0  0  0
   50.6159  153.6846   28.6885 H   0  0  0  0  0  0
   52.4699  158.5767   28.4737 H   0  0  0  0  0  0
   55.0841  153.8440   23.9211 H   0  0  0  0  0  0
   54.0420  152.9364   22.8102 H   0  0  0  0  0  0
   54.3065  154.6440   22.6167 H   0  0  0  0  0  0
   47.9511  160.4911   33.0438 H   0  0  0  0  0  0
   47.6555  161.6234   31.7204 H   0  0  0  0  0  0
   49.0484  161.8441   32.7900 H   0  0  0  0  0  0
  1  6  2  0  0  0
  1  2  1  0  0  0
  2  3  2  0  0  0
  2 21  1  0  0  0
  3  4  1  0  0  0
  3 17  1  0  0  0
  4  5  2  0  0  0
  4 22  1  0  0  0
  5  6  1  0  0  0
  5 23  1  0  0  0
  6 20  1  0  0  0
  7  8  1  0  0  0
  7 10  1  0  0  0
  7 24  1  0  0  0
  7 25  1  0  0  0
  8  9  1  0  0  0
  8 19  1  0  0  0
  8 26  1  0  0  0
  9 12  1  0  0  0
  9 27  1  0  0  0
  9 28  1  0  0  0
 10 11  1  0  0  0
 10 18  2  0  0  0
 11 12  2  0  0  0
 11 16  1  0  0  0
 12 13  1  0  0  0
 13 14  2  0  0  0
 14 15  1  0  0  0
 14 17  1  0  0  0
 15 16  2  0  0  0
 16 29  1  0  0  0
 17 30  1  0  0  0
 19 31  1  0  0  0
 19 32  1  0  0  0
 19 33  1  0  0  0
 20 34  1  0  0  0
 20 35  1  0  0  0
 20 36  1  0  0  0
M  END
> <s_m_entry_id>
10247

> <s_m_entry_name>
dock_pv.283

> <s_m_Source_Path>
/home/csk/Desktop/cluster/DUD-E-result/aofb

> <s_m_Source_File>
dock_pv.maegz

> <i_m_Source_File_Index>
283

> <chembl_id>
CHEMBL2408575

> <chembl_pref_name>
None

> <i_lp_mmshare_version>
53161

> <i_f3d_flags>
0

> <r_lp_tautomer_probability>
0.999949999999999

> <s_lp_Force_Field>
OPLS_2005

> <r_lp_Energy>
4.717585

> <b_lp_Chiralities_Consistent>
1

> <s_lp_Variant>
CHEMBL2039_lig993-2

> <s_i_glide_gridfile>
glide-grid_1s3b

> <i_i_glide_lignum>
1141

> <i_i_glide_rotatable_bonds>
2

> <r_i_docking_score>
-7.44353946718197

> <r_i_glide_ligand_efficiency>
-0.372176973359098

> <r_i_glide_ligand_efficiency_sa>
-1.0102437319681

> <r_i_glide_ligand_efficiency_ln>
-1.86287242427314

> <r_i_glide_gscore>
-7.44353946718197

> <r_i_glide_lipo>
-3.13118578259533

> <r_i_glide_hbond>
-0.109753092062496

> <r_i_glide_metal>
0

> <r_i_glide_rewards>
-3.31495017010074

> <r_i_glide_evdw>
-27.4969882965088

> <r_i_glide_ecoul>
-0.0558465719223022

> <r_i_glide_erotb>
0.495832793159692

> <r_i_glide_esite>
-0.000256814969305674

> <r_i_glide_emodel>
-32.9183473785995

> <r_i_glide_energy>
-27.5528348684311

> <r_i_glide_einternal>
1.33953356742859

> <i_i_glide_confnum>
6

> <i_i_glide_posenum>
313

> <r_i_glide_eff_state_penalty>
0

> <s_user_duplicate_titles>
CHEMBL2039_lig993

> <s_m_subgroup_title>
dock_pv

> <s_m_subgroupid>
dock_pv

> <b_m_subgroup_collapsed>
1

$$$$
CHEMBL2039_lig215
                    3D
 Schrodinger Suite 2021-1.
 38 40  0  0  1  0            999 V2000
   51.6999  152.2114   26.3372 C   0  0  0  0  0  0
   52.9599  153.9523   25.1236 C   0  0  0  0  0  0
   52.6540  152.6438   25.2920 C   0  0  0  0  0  0
   51.2560  153.1347   27.2234 O   0  0  0  0  0  0
   51.6560  154.4448   27.1582 C   0  0  0  0  0  0
   52.4418  154.9418   26.1040 C   0  0  0  0  0  0
   45.6560  159.4440   31.0838 N   0  0  0  0  0  0
   51.2592  155.2382   28.2298 C   0  0  0  0  0  0
   52.8560  156.2679   26.1829 C   0  0  0  0  0  0
   46.7922  159.6075   31.1133 C   0  0  0  0  0  0
   51.2560  151.0797   26.5040 O   0  0  0  0  0  0
   51.6775  156.5589   28.2947 C   0  0  0  0  0  0
   51.1648  157.3428   29.3040 O   0  0  0  0  0  0
   48.2158  159.8325   31.1387 C   0  0  0  0  0  0
   52.5240  157.0440   27.2909 C   0  0  0  0  0  0
   54.0170  154.3878   24.1040 C   0  0  0  0  0  0
   49.0545  159.1186   30.2843 C   0  0  0  0  0  0
   51.3023  158.7507   29.1836 C   0  0  0  0  0  0
   50.4037  159.4654   30.1720 C   0  0  0  0  0  0
   53.2560  151.4948   24.4817 C   0  0  0  0  0  0
   50.0796  161.1376   31.8837 C   0  0  0  0  0  0
   48.7315  160.8232   31.9658 C   0  0  0  0  0  0
   50.9144  160.4898   30.9741 C   0  0  0  0  0  0
   50.6291  154.8331   29.0078 H   0  0  0  0  0  0
   53.5139  156.7016   25.4494 H   0  0  0  0  0  0
   52.9277  158.0386   27.3433 H   0  0  0  0  0  0
   53.8892  153.8762   23.1509 H   0  0  0  0  0  0
   54.0551  155.4505   23.8896 H   0  0  0  0  0  0
   55.0009  154.1233   24.4930 H   0  0  0  0  0  0
   48.6524  158.3058   29.7040 H   0  0  0  0  0  0
   50.9826  159.0440   28.1862 H   0  0  0  0  0  0
   52.3458  159.0442   29.3112 H   0  0  0  0  0  0
   54.2299  151.2462   24.9040 H   0  0  0  0  0  0
   52.6627  150.5807   24.5036 H   0  0  0  0  0  0
   53.3815  151.7576   23.4322 H   0  0  0  0  0  0
   50.4560  161.9320   32.5040 H   0  0  0  0  0  0
   48.0972  161.3805   32.6419 H   0  0  0  0  0  0
   51.9560  160.7723   30.9143 H   0  0  0  0  0  0
  1  3  1  0  0  0
  1  4  1  0  0  0
  1 11  2  0  0  0
  2  3  2  0  0  0
  2 16  1  0  0  0
  2  6  1  0  0  0
  3 20  1  0  0  0
  4  5  1  0  0  0
  5  6  1  0  0  0
  5  8  2  0  0  0
  6  9  2  0  0  0
  7 10  3  0  0  0
  8 12  1  0  0  0
  8 24  1  0  0  0
  9 15  1  0  0  0
  9 25  1  0  0  0
 10 14  1  0  0  0
 12 13  1  0  0  0
 12 15  2  0  0  0
 13 18  1  0  0  0
 14 17  1  0  0  0
 14 22  2  0  0  0
 15 26  1  0  0  0
 16 27  1  0  0  0
 16 28  1  0  0  0
 16 29  1  0  0  0
 17 19  2  0  0  0
 17 30  1  0  0  0
 18 19  1  0  0  0
 18 31  1  0  0  0
 18 32  1  0  0  0
 19 23  1  0  0  0
 20 33  1  0  0  0
 20 34  1  0  0  0
 20 35  1  0  0  0
 21 23  2  0  0  0
 21 22  1  0  0  0
 21 36  1  0  0  0
 22 37  1  0  0  0
 23 38  1  0  0  0
M  END
> <s_m_entry_id>
10248

> <s_m_entry_name>
dock_pv.284

> <s_m_Source_Path>
/home/csk/Desktop/cluster/DUD-E-result/aofb

> <s_m_Source_File>
dock_pv.maegz

> <i_m_Source_File_Index>
284

> <chembl_id>
CHEMBL356714

> <chembl_pref_name>
None

> <i_lp_mmshare_version>
53161

> <i_f3d_flags>
0

> <r_lp_tautomer_probability>
1

> <s_lp_Force_Field>
OPLS_2005

> <r_lp_Energy>
29.058825

> <b_lp_Chiralities_Consistent>
1

> <s_lp_Variant>
CHEMBL2039_lig215-1

> <s_i_glide_gridfile>
glide-grid_1s3b

> <i_i_glide_lignum>
256

> <i_i_glide_rotatable_bonds>
3

> <r_i_docking_score>
-7.44327754403098

> <r_i_glide_ligand_efficiency>
-0.323620762783956

> <r_i_glide_ligand_efficiency_sa>
-0.920334400313766

> <r_i_glide_ligand_efficiency_ln>
-1.79985200205597

> <r_i_glide_gscore>
-7.44327754403098

> <r_i_glide_lipo>
-4.27461049571658

> <r_i_glide_hbond>
0

> <r_i_glide_metal>
0

> <r_i_glide_rewards>
-2.35738149766146

> <r_i_glide_evdw>
-28.661449432373

> <r_i_glide_ecoul>
0.185889825224876

> <r_i_glide_erotb>
0.593903447181983

> <r_i_glide_esite>
0

> <r_i_glide_emodel>
-29.7508557550727

> <r_i_glide_energy>
-28.4755596071482

> <r_i_glide_einternal>
0.864707827568054

> <i_i_glide_confnum>
13

> <i_i_glide_posenum>
52

> <r_i_glide_eff_state_penalty>
0

> <s_user_duplicate_titles>
CHEMBL2039_lig215

> <s_m_subgroup_title>
dock_pv

> <s_m_subgroupid>
dock_pv

> <b_m_subgroup_collapsed>
1

$$$$
CHEMBL2039_lig1353
                    3D
 Schrodinger Suite 2021-1.
 33 35  0  0  1  0            999 V2000
   49.2683  159.4648   29.9689 C   0  0  0  0  0  0
   47.9237  159.1386   29.7068 C   0  0  0  0  0  0
   46.9173  159.3822   30.6444 C   0  0  0  0  0  0
   49.6083  160.1228   31.1657 C   0  0  0  0  0  0
   48.5891  160.3687   32.0712 C   0  0  0  0  0  0
   47.2986  159.9970   31.8244 C   0  0  0  0  0  0
   46.5385  160.2769   32.9039 O   0  0  0  0  0  0
   47.3518  161.0441   33.7380 C   0  0  0  0  0  0
   48.6742  160.9224   33.3043 O   0  0  0  0  0  0
   50.1898  159.0898   29.0204 O   0  0  0  0  0  0
   51.5526  158.9269   29.3898 C   0  0  0  0  0  0
   52.1890  157.8440   28.5040 C   0  0  0  0  0  0
   51.5805  156.5839   28.7679 O   0  0  0  0  0  0
   51.6558  155.5606   27.8447 C   0  0  0  0  0  0
   51.2561  154.3059   28.3023 C   0  0  0  0  0  0
   51.2668  153.2059   27.4524 C   0  0  0  0  0  0
   51.6613  153.3645   26.1281 C   0  0  0  0  0  0
   52.0561  154.6100   25.6496 C   0  0  0  0  0  0
   52.0561  155.7082   26.5055 C   0  0  0  0  0  0
   47.6546  158.6452   28.7893 H   0  0  0  0  0  0
   45.8944  159.0881   30.4569 H   0  0  0  0  0  0
   50.6240  160.4055   31.3956 H   0  0  0  0  0  0
   47.2570  160.7270   34.7754 H   0  0  0  0  0  0
   47.0322  162.0805   33.6448 H   0  0  0  0  0  0
   52.0723  159.8794   29.3039 H   0  0  0  0  0  0
   51.6555  158.6254   30.4262 H   0  0  0  0  0  0
   52.0562  158.1603   27.4768 H   0  0  0  0  0  0
   53.2622  157.7728   28.6786 H   0  0  0  0  0  0
   50.9480  154.1855   29.3308 H   0  0  0  0  0  0
   50.9746  152.2331   27.8221 H   0  0  0  0  0  0
   51.6797  152.5112   25.4696 H   0  0  0  0  0  0
   52.3659  154.7222   24.6210 H   0  0  0  0  0  0
   52.3729  156.6544   26.1011 H   0  0  0  0  0  0
  1  2  2  0  0  0
  1  4  1  0  0  0
  1 10  1  0  0  0
  2  3  1  0  0  0
  2 20  1  0  0  0
  3  6  2  0  0  0
  3 21  1  0  0  0
  4  5  2  0  0  0
  4 22  1  0  0  0
  5  6  1  0  0  0
  5  9  1  0  0  0
  6  7  1  0  0  0
  7  8  1  0  0  0
  8  9  1  0  0  0
  8 23  1  0  0  0
  8 24  1  0  0  0
 10 11  1  0  0  0
 11 12  1  0  0  0
 11 25  1  0  0  0
 11 26  1  0  0  0
 12 13  1  0  0  0
 12 27  1  0  0  0
 12 28  1  0  0  0
 13 14  1  0  0  0
 14 15  2  0  0  0
 14 19  1  0  0  0
 15 16  1  0  0  0
 15 29  1  0  0  0
 16 17  2  0  0  0
 16 30  1  0  0  0
 17 18  1  0  0  0
 17 31  1  0  0  0
 18 19  2  0  0  0
 18 32  1  0  0  0
 19 33  1  0  0  0
M  END
> <s_m_entry_id>
10249

> <s_m_entry_name>
dock_pv.285

> <s_m_Source_Path>
/home/csk/Desktop/cluster/DUD-E-result/aofb

> <s_m_Source_File>
dock_pv.maegz

> <i_m_Source_File_Index>
285

> <chembl_id>
CHEMBL3402192

> <chembl_pref_name>
None

> <i_lp_mmshare_version>
53161

> <i_f3d_flags>
0

> <r_lp_tautomer_probability>
1

> <s_lp_Force_Field>
OPLS_2005

> <r_lp_Energy>
28.924417

> <b_lp_Chiralities_Consistent>
1

> <s_lp_Variant>
CHEMBL2039_lig1353-1

> <s_i_glide_gridfile>
glide-grid_1s3b

> <i_i_glide_lignum>
1574

> <i_i_glide_rotatable_bonds>
5

> <r_i_docking_score>
-7.44266014605253

> <r_i_glide_ligand_efficiency>
-0.391718955055396

> <r_i_glide_ligand_efficiency_sa>
-1.04526350447955

> <r_i_glide_ligand_efficiency_ln>
-1.88687420070708

> <r_i_glide_gscore>
-7.44266014605253

> <r_i_glide_lipo>
-3.92925670239209

> <r_i_glide_hbond>
0

> <r_i_glide_metal>
0

> <r_i_glide_rewards>
-2.76517632272798

> <r_i_glide_evdw>
-29.3243236541748

> <r_i_glide_ecoul>
-0.508989691734314

> <r_i_glide_erotb>
0.794337515536426

> <r_i_glide_esite>
0

> <r_i_glide_emodel>
-40.9785225112615

> <r_i_glide_energy>
-29.8333133459091

> <r_i_glide_einternal>
1.58442163467407

> <i_i_glide_confnum>
1

> <i_i_glide_posenum>
255

> <r_i_glide_eff_state_penalty>
0

> <s_user_duplicate_titles>
CHEMBL2039_lig1353

> <s_m_subgroup_title>
dock_pv

> <s_m_subgroupid>
dock_pv

> <b_m_subgroup_collapsed>
1

$$$$
CHEMBL2039_lig2293
                    3D
 Schrodinger Suite 2021-1.
 31 33  0  0  1  0            999 V2000
   47.5958  160.0992   33.0940 Cl  0  0  0  0  0  0
   50.4560  156.2440   29.3040 S   0  0  0  0  0  0
   53.0287  156.6030   24.9998 O   0  0  0  0  0  0
   51.2560  154.2520   27.7591 N   0  0  0  0  0  0
   52.0560  156.3736   27.1171 N   0  0  0  0  0  0
   52.4560  154.4068   25.6800 C   0  0  0  0  0  0
   51.8028  153.6221   26.6384 C   0  0  0  0  0  0
   52.5478  155.9050   25.8908 C   0  0  0  0  0  0
   51.4247  155.6100   27.9222 C   0  0  0  0  0  0
   53.1125  153.7984   24.6004 C   0  0  0  0  0  0
   51.7651  152.2440   26.5040 C   0  0  0  0  0  0
   49.7646  159.0160   29.8700 C   0  0  0  0  0  0
   53.1390  152.4086   24.5169 C   0  0  0  0  0  0
   50.9035  158.0534   29.4391 C   0  0  0  0  0  0
   52.4761  151.6348   25.4704 C   0  0  0  0  0  0
   49.2560  159.1397   31.1776 C   0  0  0  0  0  0
   48.1639  159.9551   31.4713 C   0  0  0  0  0  0
   49.1960  159.8411   28.9040 C   0  0  0  0  0  0
   47.5297  160.6440   30.4490 C   0  0  0  0  0  0
   48.0560  160.5715   29.1656 C   0  0  0  0  0  0
   50.7747  153.7157   28.4619 H   0  0  0  0  0  0
   53.6431  154.3805   23.8590 H   0  0  0  0  0  0
   51.2560  151.6356   27.2365 H   0  0  0  0  0  0
   53.6560  151.9285   23.6994 H   0  0  0  0  0  0
   51.3041  158.4041   28.4915 H   0  0  0  0  0  0
   51.7450  158.1680   30.1043 H   0  0  0  0  0  0
   52.4894  150.5574   25.3916 H   0  0  0  0  0  0
   49.6560  158.6440   32.0282 H   0  0  0  0  0  0
   49.5709  159.8416   27.8966 H   0  0  0  0  0  0
   46.6514  161.2400   30.6450 H   0  0  0  0  0  0
   47.6098  161.0440   28.3185 H   0  0  0  0  0  0
  1 17  1  0  0  0
  2 14  1  0  0  0
  2  9  1  0  0  0
  3  8  2  0  0  0
  4  7  1  0  0  0
  4 21  1  0  0  0
  4  9  1  0  0  0
  5  9  2  0  0  0
  5  8  1  0  0  0
  6  8  1  0  0  0
  6 10  1  0  0  0
  6  7  2  0  0  0
  7 11  1  0  0  0
 10 22  1  0  0  0
 10 13  2  0  0  0
 11 15  2  0  0  0
 11 23  1  0  0  0
 12 14  1  0  0  0
 12 16  1  0  0  0
 12 18  2  0  0  0
 13 24  1  0  0  0
 13 15  1  0  0  0
 14 25  1  0  0  0
 14 26  1  0  0  0
 15 27  1  0  0  0
 16 17  2  0  0  0
 16 28  1  0  0  0
 17 19  1  0  0  0
 18 20  1  0  0  0
 18 29  1  0  0  0
 19 20  2  0  0  0
 19 30  1  0  0  0
 20 31  1  0  0  0
M  END
> <s_m_entry_id>
10250

> <s_m_entry_name>
dock_pv.286

> <s_m_Source_Path>
/home/csk/Desktop/cluster/DUD-E-result/aofb

> <s_m_Source_File>
dock_pv.maegz

> <i_m_Source_File_Index>
286

> <chembl_id>
CHEMBL1568688

> <chembl_pref_name>
None

> <i_lp_mmshare_version>
53161

> <i_f3d_flags>
0

> <r_lp_tautomer_probability>
0.116051

> <s_lp_Force_Field>
OPLS_2005

> <r_lp_Energy>
11.914576

> <b_lp_Chiralities_Consistent>
1

> <s_lp_Variant>
CHEMBL2039_lig2293-2

> <s_i_glide_gridfile>
glide-grid_1s3b

> <i_i_glide_lignum>
2660

> <i_i_glide_rotatable_bonds>
3

> <r_i_docking_score>
-7.44139383536518

> <r_i_glide_ligand_efficiency>
-0.372069691768259

> <r_i_glide_ligand_efficiency_sa>
-1.00995252492828

> <r_i_glide_ligand_efficiency_ln>
-1.86233544339708

> <r_i_glide_gscore>
-7.44139383536518

> <r_i_glide_lipo>
-4.25700208717515

> <r_i_glide_hbond>
0

> <r_i_glide_metal>
0

> <r_i_glide_rewards>
-2.63318286298817

> <r_i_glide_evdw>
-15.4946613311768

> <r_i_glide_ecoul>
-2.52777147293091

> <r_i_glide_erotb>
0.602689902296609

> <r_i_glide_esite>
0

> <r_i_glide_emodel>
-19.9318379193005

> <r_i_glide_energy>
-18.0224328041077

> <r_i_glide_einternal>
2.93885374069214

> <i_i_glide_confnum>
6

> <i_i_glide_posenum>
140

> <r_i_glide_eff_state_penalty>
0

> <s_user_duplicate_titles>
CHEMBL2039_lig2293

> <s_m_subgroup_title>
dock_pv

> <s_m_subgroupid>
dock_pv

> <b_m_subgroup_collapsed>
1

$$$$
CHEMBL2039_lig726
                    3D
 Schrodinger Suite 2021-1.
 32 33  0  0  1  0            999 V2000
   51.4451  157.1600   28.9040 O   0  0  0  0  0  0
   50.8693  155.8455   28.8169 C   0  0  0  0  0  0
   51.4700  155.1376   27.6005 C   0  0  0  0  0  0
   51.3654  153.7490   27.4665 C   0  0  0  0  0  0
   51.8627  153.1183   26.3243 C   0  0  0  0  0  0
   52.4560  153.8795   25.3150 C   0  0  0  0  0  0
   52.5335  155.2618   25.4242 C   0  0  0  0  0  0
   52.0560  155.8850   26.5683 C   0  0  0  0  0  0
   53.2559  153.0440   23.8094 Br  0  0  0  0  0  0
   50.8560  158.2299   29.5529 C   0  0  0  0  0  0
   51.6620  159.3493   29.7040 C   0  0  0  0  0  0
   51.2978  160.4217   30.5037 C   0  0  0  0  0  0
   50.0692  160.4141   31.1442 C   0  0  0  0  0  0
   49.1702  159.3493   30.9189 C   0  0  0  0  0  0
   49.5733  158.2678   30.1073 C   0  0  0  0  0  0
   47.8090  159.3046   31.5247 C   0  0  0  0  0  0
   47.6560  159.8439   32.9417 C   0  0  0  0  0  0
   46.8650  158.6832   31.0355 O   0  0  0  0  0  0
   49.8323  161.4439   32.0196 O   0  0  0  0  0  0
   51.1012  155.2611   29.7038 H   0  0  0  0  0  0
   49.7865  155.8440   28.7111 H   0  0  0  0  0  0
   50.9047  153.1582   28.2452 H   0  0  0  0  0  0
   51.8067  152.0437   26.2306 H   0  0  0  0  0  0
   52.9978  155.8455   24.6436 H   0  0  0  0  0  0
   52.1346  156.9602   26.6355 H   0  0  0  0  0  0
   52.6619  159.3269   29.3027 H   0  0  0  0  0  0
   51.9986  161.2281   30.6634 H   0  0  0  0  0  0
   48.9223  157.4118   30.0147 H   0  0  0  0  0  0
   48.5993  160.0938   33.4200 H   0  0  0  0  0  0
   47.2560  159.0504   33.5544 H   0  0  0  0  0  0
   46.9746  160.6932   32.9705 H   0  0  0  0  0  0
   50.6434  161.8459   32.3512 H   0  0  0  0  0  0
  1 10  1  0  0  0
  1  2  1  0  0  0
  2  3  1  0  0  0
  2 20  1  0  0  0
  2 21  1  0  0  0
  3  4  2  0  0  0
  3  8  1  0  0  0
  4  5  1  0  0  0
  4 22  1  0  0  0
  5  6  2  0  0  0
  5 23  1  0  0  0
  6  7  1  0  0  0
  6  9  1  0  0  0
  7  8  2  0  0  0
  7 24  1  0  0  0
  8 25  1  0  0  0
 10 11  2  0  0  0
 10 15  1  0  0  0
 11 12  1  0  0  0
 11 26  1  0  0  0
 12 13  2  0  0  0
 12 27  1  0  0  0
 13 14  1  0  0  0
 13 19  1  0  0  0
 14 15  2  0  0  0
 14 16  1  0  0  0
 15 28  1  0  0  0
 16 17  1  0  0  0
 16 18  2  0  0  0
 17 29  1  0  0  0
 17 30  1  0  0  0
 17 31  1  0  0  0
 19 32  1  0  0  0
M  END
> <s_m_entry_id>
10251

> <s_m_entry_name>
dock_pv.287

> <s_m_Source_Path>
/home/csk/Desktop/cluster/DUD-E-result/aofb

> <s_m_Source_File>
dock_pv.maegz

> <i_m_Source_File_Index>
287

> <chembl_id>
CHEMBL2062877

> <chembl_pref_name>
None

> <i_lp_mmshare_version>
53161

> <i_f3d_flags>
0

> <r_lp_tautomer_probability>
0.99995

> <s_lp_Force_Field>
OPLS_2005

> <r_lp_Energy>
26.157302

> <b_lp_Chiralities_Consistent>
1

> <s_lp_Variant>
CHEMBL2039_lig726-1

> <s_i_glide_gridfile>
glide-grid_1s3b

> <i_i_glide_lignum>
855

> <i_i_glide_rotatable_bonds>
5

> <r_i_docking_score>
-7.44084834283329

> <r_i_glide_ligand_efficiency>
-0.391623596991226

> <r_i_glide_ligand_efficiency_sa>
-1.04500905086415

> <r_i_glide_ligand_efficiency_ln>
-1.88641486967704

> <r_i_glide_gscore>
-7.44084834283329

> <r_i_glide_lipo>
-3.83040356791732

> <r_i_glide_hbond>
-0.295130119387299

> <r_i_glide_metal>
0

> <r_i_glide_rewards>
-2.04107354207842

> <r_i_glide_evdw>
-31.4295444488525

> <r_i_glide_ecoul>
-1.64096772670746

> <r_i_glide_erotb>
0.543381267998496

> <r_i_glide_esite>
0

> <r_i_glide_emodel>
-40.9667318070274

> <r_i_glide_energy>
-33.07051217556

> <r_i_glide_einternal>
4.54399490356445

> <i_i_glide_confnum>
33

> <i_i_glide_posenum>
328

> <r_i_glide_eff_state_penalty>
0

> <s_user_duplicate_titles>
CHEMBL2039_lig726

> <s_m_subgroup_title>
dock_pv

> <s_m_subgroupid>
dock_pv

> <b_m_subgroup_collapsed>
1

$$$$
CHEMBL2039_lig2072
                    3D
 Schrodinger Suite 2021-1.
 31 32  0  0  1  0            999 V2000
   49.0445  160.1133   31.5225 C   0  0  0  0  0  0
   49.2435  159.0387   30.6476 C   0  0  0  0  0  0
   50.4591  158.8682   29.9787 C   0  0  0  0  0  0
   51.4562  159.8441   30.1233 C   0  0  0  0  0  0
   51.2658  160.9198   30.9888 C   0  0  0  0  0  0
   50.0742  161.0439   31.7026 C   0  0  0  0  0  0
   50.6340  157.6750   29.3040 O   0  0  0  0  0  0
   51.8506  157.4173   28.6051 C   0  0  0  0  0  0
   51.7689  156.0908   27.8516 C   0  0  0  0  0  0
   52.0568  156.0501   26.4848 C   0  0  0  0  0  0
   52.0793  154.8350   25.8060 C   0  0  0  0  0  0
   51.8425  153.6504   26.5041 C   0  0  0  0  0  0
   51.4782  153.6907   27.8501 C   0  0  0  0  0  0
   51.4338  154.9112   28.5180 C   0  0  0  0  0  0
   47.7789  160.2134   32.2933 C   0  0  0  0  0  0
   47.5616  161.0455   33.1746 O   0  0  0  0  0  0
   52.0560  152.3150   25.8225 C   0  0  0  0  0  0
   48.4850  158.2777   30.5291 H   0  0  0  0  0  0
   52.4161  159.7360   29.6433 H   0  0  0  0  0  0
   52.0562  161.6409   31.1400 H   0  0  0  0  0  0
   49.9653  161.8664   32.3958 H   0  0  0  0  0  0
   52.0596  158.2323   27.9110 H   0  0  0  0  0  0
   52.6824  157.3571   29.3038 H   0  0  0  0  0  0
   52.2975  156.9572   25.9509 H   0  0  0  0  0  0
   52.3506  154.8125   24.7608 H   0  0  0  0  0  0
   51.2787  152.7788   28.3948 H   0  0  0  0  0  0
   51.1924  154.9282   29.5709 H   0  0  0  0  0  0
   47.0215  159.4755   32.0249 H   0  0  0  0  0  0
   53.0137  151.8882   26.1195 H   0  0  0  0  0  0
   51.2696  151.6130   26.1039 H   0  0  0  0  0  0
   52.0566  152.4225   24.7389 H   0  0  0  0  0  0
  1  2  1  0  0  0
  1  6  2  0  0  0
  1 15  1  0  0  0
  2  3  2  0  0  0
  2 18  1  0  0  0
  3  4  1  0  0  0
  3  7  1  0  0  0
  4  5  2  0  0  0
  4 19  1  0  0  0
  5  6  1  0  0  0
  5 20  1  0  0  0
  6 21  1  0  0  0
  7  8  1  0  0  0
  8  9  1  0  0  0
  8 22  1  0  0  0
  8 23  1  0  0  0
  9 10  1  0  0  0
  9 14  2  0  0  0
 10 11  2  0  0  0
 10 24  1  0  0  0
 11 12  1  0  0  0
 11 25  1  0  0  0
 12 13  2  0  0  0
 12 17  1  0  0  0
 13 14  1  0  0  0
 13 26  1  0  0  0
 14 27  1  0  0  0
 15 16  2  0  0  0
 15 28  1  0  0  0
 17 29  1  0  0  0
 17 30  1  0  0  0
 17 31  1  0  0  0
M  END
> <s_m_entry_id>
10252

> <s_m_entry_name>
dock_pv.288

> <s_m_Source_Path>
/home/csk/Desktop/cluster/DUD-E-result/aofb

> <s_m_Source_File>
dock_pv.maegz

> <i_m_Source_File_Index>
288

> <chembl_id>
CHEMBL4161458

> <chembl_pref_name>
None

> <i_lp_mmshare_version>
53161

> <i_f3d_flags>
0

> <r_lp_tautomer_probability>
1

> <s_lp_Force_Field>
OPLS_2005

> <r_lp_Energy>
16.114636

> <b_lp_Chiralities_Consistent>
1

> <s_lp_Variant>
CHEMBL2039_lig2072-1

> <s_i_glide_gridfile>
glide-grid_1s3b

> <i_i_glide_lignum>
2410

> <i_i_glide_rotatable_bonds>
4

> <r_i_docking_score>
-7.43559570873758

> <r_i_glide_ligand_efficiency>
-0.437387982866917

> <r_i_glide_ligand_efficiency_sa>
-1.12464766725872

> <r_i_glide_ligand_efficiency_ln>
-1.93978133783428

> <r_i_glide_gscore>
-7.43559570873758

> <r_i_glide_lipo>
-3.55275827700459

> <r_i_glide_hbond>
0

> <r_i_glide_metal>
0

> <r_i_glide_rewards>
-3.13580342828922

> <r_i_glide_evdw>
-29.9142799377441

> <r_i_glide_ecoul>
-1.64608502388

> <r_i_glide_erotb>
0.995592747025434

> <r_i_glide_esite>
0

> <r_i_glide_emodel>
-40.9858945453817

> <r_i_glide_energy>
-31.5603649616241

> <r_i_glide_einternal>
4.49704694747925

> <i_i_glide_confnum>
5

> <i_i_glide_posenum>
55

> <r_i_glide_eff_state_penalty>
0

> <s_user_duplicate_titles>
CHEMBL2039_lig2072

> <s_m_subgroup_title>
dock_pv

> <s_m_subgroupid>
dock_pv

> <b_m_subgroup_collapsed>
1

$$$$
CHEMBL2039_lig1352
                    3D
 Schrodinger Suite 2021-1.
 33 35  0  0  1  0            999 V2000
   50.7993  158.7876   29.7040 C   0  0  0  0  0  0
   51.6560  159.8406   30.1040 C   0  0  0  0  0  0
   51.2318  160.7938   31.0429 C   0  0  0  0  0  0
   49.4821  158.7531   30.1892 C   0  0  0  0  0  0
   49.0895  159.7023   31.1210 C   0  0  0  0  0  0
   49.9395  160.6783   31.5466 C   0  0  0  0  0  0
   49.3066  161.4440   32.4766 O   0  0  0  0  0  0
   48.1215  160.7588   32.7831 C   0  0  0  0  0  0
   47.8972  159.8251   31.7615 O   0  0  0  0  0  0
   51.1505  157.7207   28.9040 O   0  0  0  0  0  0
   52.4852  157.4440   28.5040 C   0  0  0  0  0  0
   52.4710  156.7827   27.1270 C   0  0  0  0  0  0
   51.6560  155.6277   27.1729 O   0  0  0  0  0  0
   52.0028  154.5476   26.4034 C   0  0  0  0  0  0
   51.4946  153.3397   26.8538 C   0  0  0  0  0  0
   51.8851  152.1641   26.2429 C   0  0  0  0  0  0
   52.7928  152.1866   25.1936 C   0  0  0  0  0  0
   53.2539  153.3961   24.6785 C   0  0  0  0  0  0
   52.8413  154.5875   25.2752 C   0  0  0  0  0  0
   53.2560  150.6811   24.5040 Cl  0  0  0  0  0  0
   52.6736  159.8931   29.7554 H   0  0  0  0  0  0
   51.9008  161.5699   31.3856 H   0  0  0  0  0  0
   48.8104  157.9608   29.9015 H   0  0  0  0  0  0
   47.2819  161.4489   32.8691 H   0  0  0  0  0  0
   48.2481  160.2302   33.7307 H   0  0  0  0  0  0
   53.1462  158.3008   28.4852 H   0  0  0  0  0  0
   52.9190  156.7492   29.2218 H   0  0  0  0  0  0
   52.0560  157.4440   26.3746 H   0  0  0  0  0  0
   53.5030  156.5835   26.8440 H   0  0  0  0  0  0
   50.8335  153.3142   27.7076 H   0  0  0  0  0  0
   51.4958  151.2213   26.5983 H   0  0  0  0  0  0
   53.9327  153.4095   23.8381 H   0  0  0  0  0  0
   53.2180  155.5228   24.8918 H   0  0  0  0  0  0
  1  2  2  0  0  0
  1  4  1  0  0  0
  1 10  1  0  0  0
  2  3  1  0  0  0
  2 21  1  0  0  0
  3  6  2  0  0  0
  3 22  1  0  0  0
  4  5  2  0  0  0
  4 23  1  0  0  0
  5  6  1  0  0  0
  5  9  1  0  0  0
  6  7  1  0  0  0
  7  8  1  0  0  0
  8  9  1  0  0  0
  8 24  1  0  0  0
  8 25  1  0  0  0
 10 11  1  0  0  0
 11 12  1  0  0  0
 11 26  1  0  0  0
 11 27  1  0  0  0
 12 13  1  0  0  0
 12 28  1  0  0  0
 12 29  1  0  0  0
 13 14  1  0  0  0
 14 15  2  0  0  0
 14 19  1  0  0  0
 15 16  1  0  0  0
 15 30  1  0  0  0
 16 17  2  0  0  0
 16 31  1  0  0  0
 17 18  1  0  0  0
 17 20  1  0  0  0
 18 19  2  0  0  0
 18 32  1  0  0  0
 19 33  1  0  0  0
M  END
> <s_m_entry_id>
10253

> <s_m_entry_name>
dock_pv.289

> <s_m_Source_Path>
/home/csk/Desktop/cluster/DUD-E-result/aofb

> <s_m_Source_File>
dock_pv.maegz

> <i_m_Source_File_Index>
289

> <chembl_id>
CHEMBL3402193

> <chembl_pref_name>
None

> <i_lp_mmshare_version>
53161

> <i_f3d_flags>
0

> <r_lp_tautomer_probability>
1

> <s_lp_Force_Field>
OPLS_2005

> <r_lp_Energy>
28.352243

> <b_lp_Chiralities_Consistent>
1

> <s_lp_Variant>
CHEMBL2039_lig1352-1

> <s_i_glide_gridfile>
glide-grid_1s3b

> <i_i_glide_lignum>
1573

> <i_i_glide_rotatable_bonds>
5

> <r_i_docking_score>
-7.43341989464262

> <r_i_glide_ligand_efficiency>
-0.371670994732131

> <r_i_glide_ligand_efficiency_sa>
-1.00887029467081

> <r_i_glide_ligand_efficiency_ln>
-1.86033982903239

> <r_i_glide_gscore>
-7.43341989464262

> <r_i_glide_lipo>
-3.58077867565157

> <r_i_glide_hbond>
0

> <r_i_glide_metal>
0

> <r_i_glide_rewards>
-2.72125297198485

> <r_i_glide_evdw>
-29.7934761047363

> <r_i_glide_ecoul>
-1.87404501438141

> <r_i_glide_erotb>
0.639392310387822

> <r_i_glide_esite>
0

> <r_i_glide_emodel>
-38.8220414317153

> <r_i_glide_energy>
-31.6675211191177

> <r_i_glide_einternal>
7.64799785614014

> <i_i_glide_confnum>
18

> <i_i_glide_posenum>
260

> <r_i_glide_eff_state_penalty>
0

> <s_user_duplicate_titles>
CHEMBL2039_lig1352

> <s_m_subgroup_title>
dock_pv

> <s_m_subgroupid>
dock_pv

> <b_m_subgroup_collapsed>
1

$$$$
CHEMBL2039_lig651
                    3D
 Schrodinger Suite 2021-1.
 31 33  0  0  1  0            999 V2000
   51.6559  156.6141   28.3937 C   0  0  0  0  0  0
   52.4569  157.1887   27.4103 C   0  0  0  0  0  0
   52.8010  156.5023   26.2494 C   0  0  0  0  0  0
   51.3598  155.2534   28.2860 C   0  0  0  0  0  0
   51.7670  154.5202   27.1561 C   0  0  0  0  0  0
   52.4247  155.1805   26.1041 C   0  0  0  0  0  0
   52.8257  154.5422   24.9473 O   0  0  0  0  0  0
   52.7147  153.1937   24.9107 C   0  0  0  0  0  0
   52.1755  152.4448   25.8910 C   0  0  0  0  0  0
   51.6562  153.0442   27.1110 C   0  0  0  0  0  0
   51.2560  152.3973   28.0677 O   0  0  0  0  0  0
   51.0089  157.3593   29.3675 O   0  0  0  0  0  0
   51.0663  158.7896   29.3082 C   0  0  0  0  0  0
   50.0908  159.4432   30.2861 C   0  0  0  0  0  0
   48.7507  159.0419   30.3431 C   0  0  0  0  0  0
   47.8657  159.6521   31.2326 C   0  0  0  0  0  0
   48.3206  160.6461   32.0977 C   0  0  0  0  0  0
   49.6557  161.0440   32.0550 C   0  0  0  0  0  0
   50.5330  160.4591   31.1414 C   0  0  0  0  0  0
   46.2061  159.1854   31.2541 Cl  0  0  0  0  0  0
   52.7684  158.2139   27.5079 H   0  0  0  0  0  0
   53.3755  156.9808   25.4738 H   0  0  0  0  0  0
   50.8004  154.7769   29.0806 H   0  0  0  0  0  0
   53.1034  152.7827   23.9879 H   0  0  0  0  0  0
   52.1268  151.3735   25.7720 H   0  0  0  0  0  0
   50.8032  159.1373   28.3130 H   0  0  0  0  0  0
   52.0843  159.1212   29.5193 H   0  0  0  0  0  0
   48.3902  158.2520   29.7040 H   0  0  0  0  0  0
   47.6404  161.1140   32.7938 H   0  0  0  0  0  0
   50.0133  161.8156   32.7216 H   0  0  0  0  0  0
   51.5643  160.7823   31.1218 H   0  0  0  0  0  0
  1 12  1  0  0  0
  1  2  2  0  0  0
  1  4  1  0  0  0
  2  3  1  0  0  0
  2 21  1  0  0  0
  3  6  2  0  0  0
  3 22  1  0  0  0
  4  5  2  0  0  0
  4 23  1  0  0  0
  5  6  1  0  0  0
  5 10  1  0  0  0
  6  7  1  0  0  0
  7  8  1  0  0  0
  8  9  2  0  0  0
  8 24  1  0  0  0
  9 10  1  0  0  0
  9 25  1  0  0  0
 10 11  2  0  0  0
 12 13  1  0  0  0
 13 14  1  0  0  0
 13 26  1  0  0  0
 13 27  1  0  0  0
 14 15  2  0  0  0
 14 19  1  0  0  0
 15 16  1  0  0  0
 15 28  1  0  0  0
 16 17  2  0  0  0
 16 20  1  0  0  0
 17 18  1  0  0  0
 17 29  1  0  0  0
 18 19  2  0  0  0
 18 30  1  0  0  0
 19 31  1  0  0  0
M  END
> <s_m_entry_id>
10254

> <s_m_entry_name>
dock_pv.290

> <s_m_Source_Path>
/home/csk/Desktop/cluster/DUD-E-result/aofb

> <s_m_Source_File>
dock_pv.maegz

> <i_m_Source_File_Index>
290

> <chembl_id>
CHEMBL1945152

> <chembl_pref_name>
None

> <i_lp_mmshare_version>
53161

> <i_f3d_flags>
0

> <r_lp_tautomer_probability>
1

> <s_lp_Force_Field>
OPLS_2005

> <r_lp_Energy>
15.263363

> <b_lp_Chiralities_Consistent>
1

> <s_lp_Variant>
CHEMBL2039_lig651-1

> <s_i_glide_gridfile>
glide-grid_1s3b

> <i_i_glide_lignum>
760

> <i_i_glide_rotatable_bonds>
3

> <r_i_docking_score>
-7.43313154185647

> <r_i_glide_ligand_efficiency>
-0.371656577092824

> <r_i_glide_ligand_efficiency_sa>
-1.00883115917673

> <r_i_glide_ligand_efficiency_ln>
-1.86026766384052

> <r_i_glide_gscore>
-7.43313154185647

> <r_i_glide_lipo>
-4.24113256110888

> <r_i_glide_hbond>
0

> <r_i_glide_metal>
0

> <r_i_glide_rewards>
-2.27505846299431

> <r_i_glide_evdw>
-26.5670471191406

> <r_i_glide_ecoul>
-1.67671549320221

> <r_i_glide_erotb>
0.662919162184079

> <r_i_glide_esite>
0

> <r_i_glide_emodel>
-30.663762862923

> <r_i_glide_energy>
-28.2437626123428

> <r_i_glide_einternal>
1.33213067054749

> <i_i_glide_confnum>
6

> <i_i_glide_posenum>
182

> <r_i_glide_eff_state_penalty>
0

> <s_user_duplicate_titles>
CHEMBL2039_lig651

> <s_m_subgroup_title>
dock_pv

> <s_m_subgroupid>
dock_pv

> <b_m_subgroup_collapsed>
1

$$$$
CHEMBL2039_lig2261
                    3D
 Schrodinger Suite 2021-1.
 28 30  0  0  1  0            999 V2000
   52.3492  154.4081   25.6315 C   0  0  0  0  0  0
   51.5796  153.6225   26.4987 C   0  0  0  0  0  0
   51.0887  154.1304   27.7040 C   0  0  0  0  0  0
   52.7089  155.7180   25.9770 C   0  0  0  0  0  0
   52.2630  156.2360   27.2036 C   0  0  0  0  0  0
   51.4031  155.4590   28.0059 C   0  0  0  0  0  0
   50.8560  156.2272   28.9978 O   0  0  0  0  0  0
   51.4522  157.4605   28.9040 C   0  0  0  0  0  0
   52.4560  157.4325   27.9491 C   0  0  0  0  0  0
   50.8765  158.5840   29.7040 C   0  0  0  0  0  0
   51.6560  159.6947   30.0527 C   0  0  0  0  0  0
   51.1339  160.7066   30.8573 C   0  0  0  0  0  0
   49.8085  160.6440   31.2851 C   0  0  0  0  0  0
   49.0082  159.5665   30.9112 C   0  0  0  0  0  0
   49.5450  158.5409   30.1341 C   0  0  0  0  0  0
   52.8591  153.8181   24.3298 C   0  0  0  0  0  0
   47.1921  159.4803   31.4745 Br  0  0  0  0  0  0
   51.3362  152.6059   26.2244 H   0  0  0  0  0  0
   50.4560  153.5430   28.3479 H   0  0  0  0  0  0
   53.3476  156.3038   25.3341 H   0  0  0  0  0  0
   53.1143  158.2440   27.7040 H   0  0  0  0  0  0
   52.6855  159.7505   29.7304 H   0  0  0  0  0  0
   51.7560  161.5393   31.1526 H   0  0  0  0  0  0
   49.4053  161.4312   31.9052 H   0  0  0  0  0  0
   48.9236  157.6916   29.8999 H   0  0  0  0  0  0
   52.7631  152.7319   24.3047 H   0  0  0  0  0  0
   53.9177  154.0476   24.2012 H   0  0  0  0  0  0
   52.3198  154.2438   23.4848 H   0  0  0  0  0  0
  1  2  2  0  0  0
  1  4  1  0  0  0
  1 16  1  0  0  0
  2  3  1  0  0  0
  2 18  1  0  0  0
  3  6  2  0  0  0
  3 19  1  0  0  0
  4  5  2  0  0  0
  4 20  1  0  0  0
  5  6  1  0  0  0
  5  9  1  0  0  0
  6  7  1  0  0  0
  7  8  1  0  0  0
  8  9  2  0  0  0
  8 10  1  0  0  0
  9 21  1  0  0  0
 10 11  2  0  0  0
 10 15  1  0  0  0
 11 12  1  0  0  0
 11 22  1  0  0  0
 12 13  2  0  0  0
 12 23  1  0  0  0
 13 14  1  0  0  0
 13 24  1  0  0  0
 14 15  2  0  0  0
 14 17  1  0  0  0
 15 25  1  0  0  0
 16 26  1  0  0  0
 16 27  1  0  0  0
 16 28  1  0  0  0
M  END
> <s_m_entry_id>
10255

> <s_m_entry_name>
dock_pv.291

> <s_m_Source_Path>
/home/csk/Desktop/cluster/DUD-E-result/aofb

> <s_m_Source_File>
dock_pv.maegz

> <i_m_Source_File_Index>
291

> <chembl_id>
CHEMBL4287036

> <chembl_pref_name>
None

> <i_lp_mmshare_version>
53161

> <i_f3d_flags>
0

> <r_lp_tautomer_probability>
1

> <s_lp_Force_Field>
OPLS_2005

> <r_lp_Energy>
8.929404

> <b_lp_Chiralities_Consistent>
1

> <s_lp_Variant>
CHEMBL2039_lig2261-1

> <s_i_glide_gridfile>
glide-grid_1s3b

> <i_i_glide_lignum>
2621

> <i_i_glide_rotatable_bonds>
1

> <r_i_docking_score>
-7.43095150064181

> <r_i_glide_ligand_efficiency>
-0.437114794155401

> <r_i_glide_ligand_efficiency_sa>
-1.12394522215469

> <r_i_glide_ligand_efficiency_ln>
-1.93856976736352

> <r_i_glide_gscore>
-7.43095150064181

> <r_i_glide_lipo>
-3.87971505819258

> <r_i_glide_hbond>
0

> <r_i_glide_metal>
0

> <r_i_glide_rewards>
-2.35124154545455

> <r_i_glide_evdw>
-25.5969657897949

> <r_i_glide_ecoul>
-0.936852693557739

> <r_i_glide_erotb>
0.220381296528723

> <r_i_glide_esite>
0

> <r_i_glide_emodel>
-26.2290390119278

> <r_i_glide_energy>
-26.5338184833527

> <r_i_glide_einternal>
1.02331638336182

> <i_i_glide_confnum>
1

> <i_i_glide_posenum>
46

> <r_i_glide_eff_state_penalty>
0

> <s_user_duplicate_titles>
CHEMBL2039_lig2261

> <s_m_subgroup_title>
dock_pv

> <s_m_subgroupid>
dock_pv

> <b_m_subgroup_collapsed>
1

$$$$
CHEMBL2039_lig591
                    3D
 Schrodinger Suite 2021-1.
 34 36  0  0  1  0            999 V2000
   50.8560  156.8437   29.3040 C   0  0  0  0  0  0
   51.7462  157.6933   28.6659 C   0  0  0  0  0  0
   52.4560  157.1982   27.5666 C   0  0  0  0  0  0
   50.7216  155.5081   28.9243 C   0  0  0  0  0  0
   51.4153  155.0522   27.8134 C   0  0  0  0  0  0
   52.2044  155.9246   27.0718 C   0  0  0  0  0  0
   52.6987  155.5811   25.8178 O   0  0  0  0  0  0
   52.5864  154.2840   25.3199 C   0  0  0  0  0  0
   51.9715  153.2693   26.2294 C   0  0  0  0  0  0
   51.3717  153.6787   27.3700 C   0  0  0  0  0  0
   53.0650  154.0966   24.2019 O   0  0  0  0  0  0
   52.0560  151.8464   26.0226 C   0  0  0  0  0  0
   53.1137  151.4675   25.2441 O   0  0  0  0  0  0
   51.2560  151.0432   26.5040 O   0  0  0  0  0  0
   51.8390  159.0440   28.9040 O   0  0  0  0  0  0
   51.4877  159.7717   30.0968 C   0  0  0  0  0  0
   50.0063  159.8829   30.4322 C   0  0  0  0  0  0
   49.6411  160.3287   31.7040 C   0  0  0  0  0  0
   48.3051  160.3457   32.1041 C   0  0  0  0  0  0
   47.3163  159.9196   31.2107 C   0  0  0  0  0  0
   47.6711  159.5454   29.9160 C   0  0  0  0  0  0
   49.0064  159.5681   29.5163 C   0  0  0  0  0  0
   47.9150  160.8766   33.7040 Cl  0  0  0  0  0  0
   45.6560  159.8428   31.6719 Cl  0  0  0  0  0  0
   50.2462  157.2167   30.1040 H   0  0  0  0  0  0
   53.1239  157.8440   27.0258 H   0  0  0  0  0  0
   50.0664  154.8528   29.4795 H   0  0  0  0  0  0
   50.9413  152.9575   28.0561 H   0  0  0  0  0  0
   53.5694  152.2299   24.8751 H   0  0  0  0  0  0
   52.0560  159.4440   30.9572 H   0  0  0  0  0  0
   51.8338  160.7910   29.9252 H   0  0  0  0  0  0
   50.4022  160.6513   32.3987 H   0  0  0  0  0  0
   46.9075  159.2256   29.2261 H   0  0  0  0  0  0
   49.2757  159.3134   28.5042 H   0  0  0  0  0  0
  1  2  2  0  0  0
  1  4  1  0  0  0
  1 25  1  0  0  0
  2  3  1  0  0  0
  2 15  1  0  0  0
  3  6  2  0  0  0
  3 26  1  0  0  0
  4  5  2  0  0  0
  4 27  1  0  0  0
  5 10  1  0  0  0
  5  6  1  0  0  0
  6  7  1  0  0  0
  7  8  1  0  0  0
  8  9  1  0  0  0
  8 11  2  0  0  0
  9 12  1  0  0  0
  9 10  2  0  0  0
 10 28  1  0  0  0
 12 13  1  0  0  0
 12 14  2  0  0  0
 13 29  1  0  0  0
 15 16  1  0  0  0
 16 17  1  0  0  0
 16 30  1  0  0  0
 16 31  1  0  0  0
 17 18  2  0  0  0
 17 22  1  0  0  0
 18 19  1  0  0  0
 18 32  1  0  0  0
 19 20  2  0  0  0
 19 23  1  0  0  0
 20 21  1  0  0  0
 20 24  1  0  0  0
 21 22  2  0  0  0
 21 33  1  0  0  0
 22 34  1  0  0  0
M  END
> <s_m_entry_id>
10256

> <s_m_entry_name>
dock_pv.292

> <s_m_Source_Path>
/home/csk/Desktop/cluster/DUD-E-result/aofb

> <s_m_Source_File>
dock_pv.maegz

> <i_m_Source_File_Index>
292

> <chembl_id>
CHEMBL1830827

> <chembl_pref_name>
None

> <i_lp_mmshare_version>
53161

> <i_f3d_flags>
0

> <r_lp_tautomer_probability>
1

> <s_lp_Force_Field>
OPLS_2005

> <r_lp_Energy>
28.972926

> <b_lp_Chiralities_Consistent>
1

> <s_lp_Variant>
CHEMBL2039_lig591-1

> <s_i_glide_gridfile>
glide-grid_1s3b

> <i_i_glide_lignum>
700

> <i_i_glide_rotatable_bonds>
5

> <r_i_docking_score>
-7.43049255792012

> <r_i_glide_ligand_efficiency>
-0.309603856580005

> <r_i_glide_ligand_efficiency_sa>
-0.893052057290002

> <r_i_glide_ligand_efficiency_ln>
-1.77845783219632

> <r_i_glide_gscore>
-7.43049255792012

> <r_i_glide_lipo>
-4.71486552923473

> <r_i_glide_hbond>
0

> <r_i_glide_metal>
0

> <r_i_glide_rewards>
-2.10913600709332

> <r_i_glide_evdw>
-22.4966793060303

> <r_i_glide_ecoul>
-0.390664845705032

> <r_i_glide_erotb>
0.576942670565189

> <r_i_glide_esite>
0

> <r_i_glide_emodel>
-29.5171309055945

> <r_i_glide_energy>
-22.8873441517353

> <r_i_glide_einternal>
2.09741187095642

> <i_i_glide_confnum>
29

> <i_i_glide_posenum>
30

> <r_i_glide_eff_state_penalty>
0

> <s_user_duplicate_titles>
CHEMBL2039_lig591

> <s_m_subgroup_title>
dock_pv

> <s_m_subgroupid>
dock_pv

> <b_m_subgroup_collapsed>
1

$$$$
CHEMBL2039_lig985
                    3D
 Schrodinger Suite 2021-1.
 30 32  0  0  1  0            999 V2000
   50.5230  158.5596   29.7089 C   0  0  0  0  0  0
   51.4382  159.5807   30.0234 C   0  0  0  0  0  0
   51.0875  160.6000   30.9102 C   0  0  0  0  0  0
   49.2156  158.6451   30.2006 C   0  0  0  0  0  0
   48.8696  159.6705   31.0754 C   0  0  0  0  0  0
   49.8089  160.6001   31.4627 C   0  0  0  0  0  0
   49.1917  161.4414   32.5218 C   0  0  0  0  0  0
   47.8357  161.0327   32.5833 O   0  0  0  0  0  0
   47.5995  159.9825   31.7631 C   0  0  0  0  0  0
   46.4990  159.4424   31.6766 O   0  0  0  0  0  0
   50.8570  157.3762   29.0954 O   0  0  0  0  0  0
   52.1273  157.2116   28.4932 C   0  0  0  0  0  0
   52.0584  155.9966   27.5857 C   0  0  0  0  0  0
   52.4526  156.0987   26.2475 C   0  0  0  0  0  0
   52.4443  154.9696   25.4355 C   0  0  0  0  0  0
   52.0557  153.7456   25.9717 C   0  0  0  0  0  0
   51.6460  153.6372   27.2965 C   0  0  0  0  0  0
   51.6477  154.7668   28.1068 C   0  0  0  0  0  0
   52.1259  152.6400   25.2100 F   0  0  0  0  0  0
   52.4602  159.5347   29.6809 H   0  0  0  0  0  0
   51.8250  161.3303   31.2119 H   0  0  0  0  0  0
   48.5044  157.8655   29.9745 H   0  0  0  0  0  0
   49.6555  161.2791   33.4944 H   0  0  0  0  0  0
   49.2965  162.4922   32.3071 H   0  0  0  0  0  0
   52.8907  157.0462   29.2515 H   0  0  0  0  0  0
   52.4097  158.0924   27.9164 H   0  0  0  0  0  0
   52.7796  157.0424   25.8398 H   0  0  0  0  0  0
   52.7674  155.0287   24.4076 H   0  0  0  0  0  0
   51.3533  152.6786   27.6986 H   0  0  0  0  0  0
   51.3552  154.6819   29.1442 H   0  0  0  0  0  0
  1  2  2  0  0  0
  1  4  1  0  0  0
  1 11  1  0  0  0
  2  3  1  0  0  0
  2 20  1  0  0  0
  3  6  2  0  0  0
  3 21  1  0  0  0
  4  5  2  0  0  0
  4 22  1  0  0  0
  5  6  1  0  0  0
  5  9  1  0  0  0
  6  7  1  0  0  0
  7  8  1  0  0  0
  7 23  1  0  0  0
  7 24  1  0  0  0
  8  9  1  0  0  0
  9 10  2  0  0  0
 11 12  1  0  0  0
 12 13  1  0  0  0
 12 25  1  0  0  0
 12 26  1  0  0  0
 13 14  2  0  0  0
 13 18  1  0  0  0
 14 15  1  0  0  0
 14 27  1  0  0  0
 15 16  2  0  0  0
 15 28  1  0  0  0
 16 17  1  0  0  0
 16 19  1  0  0  0
 17 18  2  0  0  0
 17 29  1  0  0  0
 18 30  1  0  0  0
M  END
> <s_m_entry_id>
10257

> <s_m_entry_name>
dock_pv.293

> <s_m_Source_Path>
/home/csk/Desktop/cluster/DUD-E-result/aofb

> <s_m_Source_File>
dock_pv.maegz

> <i_m_Source_File_Index>
293

> <chembl_id>
CHEMBL2391741

> <chembl_pref_name>
None

> <i_lp_mmshare_version>
53161

> <i_f3d_flags>
0

> <r_lp_tautomer_probability>
1

> <s_lp_Force_Field>
OPLS_2005

> <r_lp_Energy>
30.498164

> <b_lp_Chiralities_Consistent>
1

> <s_lp_Variant>
CHEMBL2039_lig985-1

> <s_i_glide_gridfile>
glide-grid_1s3b

> <i_i_glide_lignum>
1132

> <i_i_glide_rotatable_bonds>
3

> <r_i_docking_score>
-7.43002707143841

> <r_i_glide_ligand_efficiency>
-0.391054056391495

> <r_i_glide_ligand_efficiency_sa>
-1.04348928779031

> <r_i_glide_ligand_efficiency_ln>
-1.88367144495884

> <r_i_glide_gscore>
-7.43002707143841

> <r_i_glide_lipo>
-3.17054005487741

> <r_i_glide_hbond>
0

> <r_i_glide_metal>
0

> <r_i_glide_rewards>
-3.23120258900254

> <r_i_glide_evdw>
-30.2525787353516

> <r_i_glide_ecoul>
-2.06749582290649

> <r_i_glide_erotb>
0.794468882645096

> <r_i_glide_esite>
0

> <r_i_glide_emodel>
-40.488353807179

> <r_i_glide_energy>
-32.3200745582581

> <r_i_glide_einternal>
0.716295003890991

> <i_i_glide_confnum>
37

> <i_i_glide_posenum>
55

> <r_i_glide_eff_state_penalty>
0

> <s_user_duplicate_titles>
CHEMBL2039_lig985

> <s_m_subgroup_title>
dock_pv

> <s_m_subgroupid>
dock_pv

> <b_m_subgroup_collapsed>
1

$$$$
CHEMBL2039_lig1513
                    3D
 Schrodinger Suite 2021-1.
 39 42  0  0  1  0            999 V2000
   51.0282  155.8976   28.7632 C   0  0  0  0  0  0
   51.6560  157.2258   28.6965 N   0  0  1  0  0  0
   51.0522  158.0574   29.7167 C   0  0  1  0  0  0
   51.6084  159.4440   29.9338 C   0  0  0  0  0  0
   50.2128  159.2718   29.3751 C   0  0  2  0  0  0
   49.0165  159.6688   30.2422 C   0  0  0  0  0  0
   49.1515  160.6308   31.2522 C   0  0  0  0  0  0
   48.0867  160.9094   32.1038 C   0  0  0  0  0  0
   46.8775  160.2440   31.9300 C   0  0  0  0  0  0
   46.7162  159.3179   30.9046 C   0  0  0  0  0  0
   47.7889  159.0228   30.0699 C   0  0  0  0  0  0
   51.4826  154.9221   27.7040 C   0  0  0  0  0  0
   51.2765  153.5561   27.8924 C   0  0  0  0  0  0
   51.6560  152.6694   26.8923 C   0  0  0  0  0  0
   52.3266  153.1712   25.7603 C   0  0  0  0  0  0
   52.8560  152.3346   24.7615 C   0  0  0  0  0  0
   53.5460  152.9008   23.7033 C   0  0  0  0  0  0
   53.8755  154.2440   23.7040 C   0  0  0  0  0  0
   53.3317  155.1032   24.6445 C   0  0  0  0  0  0
   52.5161  154.5832   25.6633 C   0  0  0  0  0  0
   52.0560  155.4440   26.5951 N   0  0  0  0  0  0
   49.9444  155.9514   28.7103 H   0  0  0  0  0  0
   51.2560  155.4111   29.7040 H   0  0  0  0  0  0
   52.6470  157.1472   28.8892 H   0  0  0  0  0  0
   50.5901  157.4838   30.5040 H   0  0  0  0  0  0
   51.7612  159.7905   30.9546 H   0  0  0  0  0  0
   52.4262  159.7738   29.3040 H   0  0  0  0  0  0
   50.0629  159.4650   28.3143 H   0  0  0  0  0  0
   50.0830  161.1557   31.4019 H   0  0  0  0  0  0
   48.2003  161.6363   32.8946 H   0  0  0  0  0  0
   46.0560  160.4571   32.5949 H   0  0  0  0  0  0
   45.7673  158.8217   30.7654 H   0  0  0  0  0  0
   47.6560  158.2764   29.3040 H   0  0  0  0  0  0
   50.8559  153.1817   28.8109 H   0  0  0  0  0  0
   51.4902  151.6072   26.9922 H   0  0  0  0  0  0
   52.6932  151.2676   24.8077 H   0  0  0  0  0  0
   53.9012  152.2698   22.9043 H   0  0  0  0  0  0
   54.4954  154.6373   22.9123 H   0  0  0  0  0  0
   53.5427  156.1626   24.6127 H   0  0  0  0  0  0
  1  2  1  0  0  0
  1 12  1  0  0  0
  1 22  1  0  0  0
  1 23  1  0  0  0
  2  3  1  0  0  0
  2 24  1  0  0  0
  3  4  1  0  0  0
  3  5  1  0  0  0
  3 25  1  0  0  0
  4  5  1  0  0  0
  4 26  1  0  0  0
  4 27  1  0  0  0
  5  6  1  0  0  0
  5 28  1  0  0  0
  6  7  2  0  0  0
  6 11  1  0  0  0
  7  8  1  0  0  0
  7 29  1  0  0  0
  8  9  2  0  0  0
  8 30  1  0  0  0
  9 10  1  0  0  0
  9 31  1  0  0  0
 10 11  2  0  0  0
 10 32  1  0  0  0
 11 33  1  0  0  0
 12 13  2  0  0  0
 12 21  1  0  0  0
 13 14  1  0  0  0
 13 34  1  0  0  0
 14 15  2  0  0  0
 14 35  1  0  0  0
 15 16  1  0  0  0
 15 20  1  0  0  0
 16 17  2  0  0  0
 16 36  1  0  0  0
 17 18  1  0  0  0
 17 37  1  0  0  0
 18 19  2  0  0  0
 18 38  1  0  0  0
 19 20  1  0  0  0
 19 39  1  0  0  0
 20 21  2  0  0  0
M  END
> <s_m_entry_id>
10258

> <s_m_entry_name>
dock_pv.294

> <s_m_Source_Path>
/home/csk/Desktop/cluster/DUD-E-result/aofb

> <s_m_Source_File>
dock_pv.maegz

> <i_m_Source_File_Index>
294

> <chembl_id>
CHEMBL3651110

> <chembl_pref_name>
None

> <i_lp_mmshare_version>
53161

> <i_f3d_flags>
0

> <r_lp_tautomer_probability>
1

> <s_lp_Force_Field>
OPLS_2005

> <r_lp_Energy>
23.593797

> <b_lp_Chiralities_Consistent>
1

> <s_lp_Variant>
CHEMBL2039_lig1513-2

> <s_i_glide_gridfile>
glide-grid_1s3b

> <i_i_glide_lignum>
1747

> <i_i_glide_rotatable_bonds>
4

> <r_i_docking_score>
-7.42358712021489

> <r_i_glide_ligand_efficiency>
-0.353504148581661

> <r_i_glide_ligand_efficiency_sa>
-0.975291140983204

> <r_i_glide_ligand_efficiency_ln>
-1.83546691470291

> <r_i_glide_gscore>
-7.42358712021489

> <r_i_glide_lipo>
-4.60169050316673

> <r_i_glide_hbond>
0

> <r_i_glide_metal>
0

> <r_i_glide_rewards>
-2.43845713636364

> <r_i_glide_evdw>
-27.4696750640869

> <r_i_glide_ecoul>
0.239291772246361

> <r_i_glide_erotb>
0.95415050668287

> <r_i_glide_esite>
0

> <r_i_glide_emodel>
-28.5149566215335

> <r_i_glide_energy>
-27.2303832918406

> <r_i_glide_einternal>
5.13415765762329

> <i_i_glide_confnum>
113

> <i_i_glide_posenum>
166

> <r_i_glide_eff_state_penalty>
0

> <s_user_duplicate_titles>
CHEMBL2039_lig1513

> <s_m_subgroup_title>
dock_pv

> <s_m_subgroupid>
dock_pv

> <b_m_subgroup_collapsed>
1

$$$$
CHEMBL2039_lig228
                    3D
 Schrodinger Suite 2021-1.
 37 39  0  0  1  0            999 V2000
   50.3486  159.5121   29.7421 S   0  0  0  0  0  0
   51.5995  153.0099   26.4514 C   0  0  0  0  0  0
   52.7631  154.9882   25.5345 C   0  0  0  0  0  0
   52.4442  153.6727   25.4232 C   0  0  0  0  0  0
   51.4704  155.1089   27.6275 C   0  0  0  0  0  0
   51.0714  153.8006   27.4478 O   0  0  0  0  0  0
   52.3544  155.7424   26.7461 C   0  0  0  0  0  0
   50.5353  157.8440   29.8564 O   0  0  0  0  0  0
   50.8906  155.8100   28.6814 C   0  0  0  0  0  0
   51.6111  160.1716   30.0991 O   0  0  0  0  0  0
   49.6059  159.8440   28.5254 O   0  0  0  0  0  0
   49.1757  159.8195   31.0480 C   0  0  0  0  0  0
   52.8560  156.9930   27.1126 C   0  0  0  0  0  0
   51.2560  157.1375   28.9079 C   0  0  0  0  0  0
   51.2575  151.8306   26.5040 O   0  0  0  0  0  0
   52.3398  157.6682   28.2154 C   0  0  0  0  0  0
   53.6311  155.7090   24.5068 C   0  0  0  0  0  0
   52.9438  152.7551   24.3054 C   0  0  0  0  0  0
   47.8638  159.3579   30.9156 C   0  0  0  0  0  0
   49.5296  160.6591   32.1040 C   0  0  0  0  0  0
   48.5686  161.0441   33.0301 C   0  0  0  0  0  0
   46.8973  159.7657   31.8312 C   0  0  0  0  0  0
   47.2560  160.6113   32.8808 C   0  0  0  0  0  0
   50.1277  155.3469   29.2892 H   0  0  0  0  0  0
   53.6495  157.4440   26.5424 H   0  0  0  0  0  0
   52.7271  158.6365   28.4906 H   0  0  0  0  0  0
   53.0887  156.5653   24.1055 H   0  0  0  0  0  0
   53.9287  155.0440   23.7040 H   0  0  0  0  0  0
   54.5647  156.0786   24.9040 H   0  0  0  0  0  0
   52.7860  151.6920   24.4936 H   0  0  0  0  0  0
   52.4560  153.0099   23.3644 H   0  0  0  0  0  0
   54.0186  152.8771   24.1731 H   0  0  0  0  0  0
   47.5854  158.7334   30.0783 H   0  0  0  0  0  0
   50.5363  161.0437   32.1975 H   0  0  0  0  0  0
   48.8409  161.6996   33.8426 H   0  0  0  0  0  0
   45.8712  159.4447   31.7192 H   0  0  0  0  0  0
   46.5059  160.9523   33.5779 H   0  0  0  0  0  0
  1  8  1  0  0  0
  1 10  2  0  0  0
  1 11  2  0  0  0
  1 12  1  0  0  0
  2  6  1  0  0  0
  2 15  2  0  0  0
  2  4  1  0  0  0
  3  7  1  0  0  0
  3  4  2  0  0  0
  3 17  1  0  0  0
  4 18  1  0  0  0
  5  9  2  0  0  0
  5  6  1  0  0  0
  5  7  1  0  0  0
  7 13  2  0  0  0
  8 14  1  0  0  0
  9 14  1  0  0  0
  9 24  1  0  0  0
 12 19  2  0  0  0
 12 20  1  0  0  0
 13 16  1  0  0  0
 13 25  1  0  0  0
 14 16  2  0  0  0
 16 26  1  0  0  0
 17 27  1  0  0  0
 17 28  1  0  0  0
 17 29  1  0  0  0
 18 30  1  0  0  0
 18 31  1  0  0  0
 18 32  1  0  0  0
 19 22  1  0  0  0
 19 33  1  0  0  0
 20 21  2  0  0  0
 20 34  1  0  0  0
 21 23  1  0  0  0
 21 35  1  0  0  0
 22 23  2  0  0  0
 22 36  1  0  0  0
 23 37  1  0  0  0
M  END
> <s_m_entry_id>
10259

> <s_m_entry_name>
dock_pv.295

> <s_m_Source_Path>
/home/csk/Desktop/cluster/DUD-E-result/aofb

> <s_m_Source_File>
dock_pv.maegz

> <i_m_Source_File_Index>
295

> <chembl_id>
CHEMBL18978

> <chembl_pref_name>
None

> <i_lp_mmshare_version>
53161

> <i_f3d_flags>
0

> <r_lp_tautomer_probability>
1

> <s_lp_Force_Field>
OPLS_2005

> <r_lp_Energy>
19.128408

> <b_lp_Chiralities_Consistent>
1

> <s_lp_Variant>
CHEMBL2039_lig228-1

> <s_i_glide_gridfile>
glide-grid_1s3b

> <i_i_glide_lignum>
269

> <i_i_glide_rotatable_bonds>
3

> <r_i_docking_score>
-7.42177827032538

> <r_i_glide_ligand_efficiency>
-0.322686011753278

> <r_i_glide_ligand_efficiency_sa>
-0.917676092726018

> <r_i_glide_ligand_efficiency_ln>
-1.79465328272933

> <r_i_glide_gscore>
-7.42177827032538

> <r_i_glide_lipo>
-4.28793853684441

> <r_i_glide_hbond>
0

> <r_i_glide_metal>
0

> <r_i_glide_rewards>
-2.37305703749829

> <r_i_glide_evdw>
-24.9290943145752

> <r_i_glide_ecoul>
-0.208746820688248

> <r_i_glide_erotb>
0.516984042849311

> <r_i_glide_esite>
0

> <r_i_glide_emodel>
-22.7139493096844

> <r_i_glide_energy>
-25.1378411352634

> <r_i_glide_einternal>
7.95732879638672

> <i_i_glide_confnum>
6

> <i_i_glide_posenum>
127

> <r_i_glide_eff_state_penalty>
0

> <s_user_duplicate_titles>
CHEMBL2039_lig228

> <s_m_subgroup_title>
dock_pv

> <s_m_subgroupid>
dock_pv

> <b_m_subgroup_collapsed>
1

$$$$
CHEMBL2039_lig1332
                    3D
 Schrodinger Suite 2021-1.
 42 45  0  0  1  0            999 V2000
   51.1175  153.6994   27.5141 O   0  0  0  0  0  0
   51.6246  152.9186   26.5040 C   0  0  0  0  0  0
   51.2560  151.7467   26.5040 O   0  0  0  0  0  0
   52.5134  153.5647   25.5227 C   0  0  0  0  0  0
   52.8560  154.8793   25.6391 C   0  0  0  0  0  0
   52.3739  155.6566   26.7870 C   0  0  0  0  0  0
   52.8560  156.9222   27.1217 C   0  0  0  0  0  0
   52.3537  157.5856   28.2249 C   0  0  0  0  0  0
   51.2560  157.0623   28.9040 C   0  0  0  0  0  0
   50.9278  155.7192   28.7183 C   0  0  0  0  0  0
   51.5026  155.0153   27.6731 C   0  0  0  0  0  0
   50.4560  157.7890   29.7765 N   0  0  0  0  0  0
   50.2844  159.0440   29.7040 C   0  0  0  0  0  0
   49.4256  159.6959   30.6739 C   0  0  0  0  0  0
   48.0717  159.3526   30.8666 C   0  0  0  0  0  0
   47.3289  159.9615   31.8757 C   0  0  0  0  0  0
   47.9439  160.8784   32.7199 C   0  0  0  0  0  0
   49.2743  161.2146   32.5384 C   0  0  0  0  0  0
   50.0122  160.6440   31.5116 C   0  0  0  0  0  0
   47.4531  158.3978   30.1040 O   0  0  0  0  0  0
   53.1667  152.6418   24.4997 C   0  0  0  0  0  0
   53.5577  153.4440   23.2664 C   0  0  0  0  0  0
   54.4560  154.6183   23.6768 C   0  0  0  0  0  0
   53.7158  155.5944   24.5921 C   0  0  0  0  0  0
   47.2560  161.4440   33.7455 O   0  0  0  0  0  0
   53.6289  157.4138   26.5550 H   0  0  0  0  0  0
   52.7230  158.5678   28.4756 H   0  0  0  0  0  0
   50.1646  155.2516   29.3233 H   0  0  0  0  0  0
   50.7462  159.6807   28.9544 H   0  0  0  0  0  0
   46.2928  159.6904   32.0180 H   0  0  0  0  0  0
   49.7579  161.8851   33.2264 H   0  0  0  0  0  0
   51.0573  160.9094   31.4184 H   0  0  0  0  0  0
   48.1003  157.9089   29.5884 H   0  0  0  0  0  0
   52.5195  151.8121   24.2188 H   0  0  0  0  0  0
   54.0560  152.1837   24.9344 H   0  0  0  0  0  0
   52.6533  153.8121   22.7828 H   0  0  0  0  0  0
   54.0560  152.8096   22.5349 H   0  0  0  0  0  0
   54.8560  155.1347   22.8024 H   0  0  0  0  0  0
   55.3347  154.2440   24.2037 H   0  0  0  0  0  0
   54.4560  156.3016   24.9368 H   0  0  0  0  0  0
   53.0295  156.2772   24.1040 H   0  0  0  0  0  0
   46.3334  161.1845   33.7260 H   0  0  0  0  0  0
  1  2  1  0  0  0
  1 11  1  0  0  0
  2  3  2  0  0  0
  2  4  1  0  0  0
  4  5  2  0  0  0
  4 21  1  0  0  0
  5  6  1  0  0  0
  5 24  1  0  0  0
  6  7  1  0  0  0
  6 11  2  0  0  0
  7  8  2  0  0  0
  7 26  1  0  0  0
  8  9  1  0  0  0
  8 27  1  0  0  0
  9 10  2  0  0  0
  9 12  1  0  0  0
 10 11  1  0  0  0
 10 28  1  0  0  0
 12 13  2  0  0  0
 13 14  1  0  0  0
 13 29  1  0  0  0
 14 15  1  0  0  0
 14 19  2  0  0  0
 15 16  2  0  0  0
 15 20  1  0  0  0
 16 17  1  0  0  0
 16 30  1  0  0  0
 17 18  2  0  0  0
 17 25  1  0  0  0
 18 19  1  0  0  0
 18 31  1  0  0  0
 19 32  1  0  0  0
 20 33  1  0  0  0
 21 22  1  0  0  0
 21 34  1  0  0  0
 21 35  1  0  0  0
 22 23  1  0  0  0
 22 36  1  0  0  0
 22 37  1  0  0  0
 23 24  1  0  0  0
 23 38  1  0  0  0
 23 39  1  0  0  0
 24 40  1  0  0  0
 24 41  1  0  0  0
 25 42  1  0  0  0
M  END
> <s_m_entry_id>
10260

> <s_m_entry_name>
dock_pv.296

> <s_m_Source_Path>
/home/csk/Desktop/cluster/DUD-E-result/aofb

> <s_m_Source_File>
dock_pv.maegz

> <i_m_Source_File_Index>
296

> <chembl_id>
CHEMBL3394536

> <chembl_pref_name>
None

> <i_lp_mmshare_version>
53161

> <i_f3d_flags>
0

> <r_lp_tautomer_probability>
1

> <s_lp_Force_Field>
OPLS_2005

> <r_lp_Energy>
27.643809

> <b_lp_Chiralities_Consistent>
1

> <s_lp_Variant>
CHEMBL2039_lig1332-1

> <s_i_glide_gridfile>
glide-grid_1s3b

> <i_i_glide_lignum>
1553

> <i_i_glide_rotatable_bonds>
4

> <r_i_docking_score>
-7.42089537871838

> <r_i_glide_ligand_efficiency>
-0.296835815148735

> <r_i_glide_ligand_efficiency_sa>
-0.867953187900499

> <r_i_glide_ligand_efficiency_ln>
-1.75897459104528

> <r_i_glide_gscore>
-7.42089537871838

> <r_i_glide_lipo>
-4.41028428367627

> <r_i_glide_hbond>
0

> <r_i_glide_metal>
0

> <r_i_glide_rewards>
-2.02635440015568

> <r_i_glide_evdw>
-24.3114814758301

> <r_i_glide_ecoul>
-0.695370733737946

> <r_i_glide_erotb>
0.335622988965761

> <r_i_glide_esite>
0

> <r_i_glide_emodel>
-32.0732411254255

> <r_i_glide_energy>
-25.006852209568

> <r_i_glide_einternal>
4.95218467712402

> <i_i_glide_confnum>
4

> <i_i_glide_posenum>
59

> <r_i_glide_eff_state_penalty>
0

> <s_user_duplicate_titles>
CHEMBL2039_lig1332

> <s_m_subgroup_title>
dock_pv

> <s_m_subgroupid>
dock_pv

> <b_m_subgroup_collapsed>
1

$$$$
CHEMBL2039_lig1354
                    3D
 Schrodinger Suite 2021-1.
 35 37  0  0  1  0            999 V2000
   50.2829  158.5695   29.9416 C   0  0  0  0  0  0
   50.7962  159.8439   30.2791 C   0  0  0  0  0  0
   50.0405  160.7239   31.0663 C   0  0  0  0  0  0
   48.9976  158.2106   30.3602 C   0  0  0  0  0  0
   48.2547  159.1176   31.0848 C   0  0  0  0  0  0
   48.7524  160.3394   31.4240 C   0  0  0  0  0  0
   47.8154  161.0057   32.1476 O   0  0  0  0  0  0
   46.6450  160.2440   31.9934 C   0  0  0  0  0  0
   47.0178  158.9580   31.6113 O   0  0  0  0  0  0
   50.9949  157.5741   29.3040 O   0  0  0  0  0  0
   52.0625  157.9354   28.4385 C   0  0  0  0  0  0
   52.6613  156.6938   27.7410 C   0  0  0  0  0  0
   51.6627  155.9509   26.8343 C   0  0  0  0  0  0
   52.2074  154.7802   26.0309 C   0  0  0  0  0  0
   53.0013  155.0177   24.9040 C   0  0  0  0  0  0
   53.5283  153.9468   24.1852 C   0  0  0  0  0  0
   53.2554  152.6434   24.5905 C   0  0  0  0  0  0
   52.4560  152.3991   25.7041 C   0  0  0  0  0  0
   51.9211  153.4674   26.4199 C   0  0  0  0  0  0
   51.8013  160.1243   30.0055 H   0  0  0  0  0  0
   50.4567  161.6658   31.3872 H   0  0  0  0  0  0
   48.6090  157.2328   30.1201 H   0  0  0  0  0  0
   46.0558  160.2354   32.9041 H   0  0  0  0  0  0
   46.0294  160.6445   31.1895 H   0  0  0  0  0  0
   52.8559  158.4637   28.9604 H   0  0  0  0  0  0
   51.6560  158.6260   27.7040 H   0  0  0  0  0  0
   53.0296  156.0115   28.5063 H   0  0  0  0  0  0
   53.5246  157.0105   27.1556 H   0  0  0  0  0  0
   51.2560  156.6438   26.1040 H   0  0  0  0  0  0
   50.8560  155.6019   27.4715 H   0  0  0  0  0  0
   53.2237  156.0296   24.5990 H   0  0  0  0  0  0
   54.1505  154.1223   23.3201 H   0  0  0  0  0  0
   53.6560  151.8138   24.0283 H   0  0  0  0  0  0
   52.2428  151.3842   26.0072 H   0  0  0  0  0  0
   51.3066  153.2739   27.2872 H   0  0  0  0  0  0
  1  2  2  0  0  0
  1  4  1  0  0  0
  1 10  1  0  0  0
  2  3  1  0  0  0
  2 20  1  0  0  0
  3  6  2  0  0  0
  3 21  1  0  0  0
  4  5  2  0  0  0
  4 22  1  0  0  0
  5  6  1  0  0  0
  5  9  1  0  0  0
  6  7  1  0  0  0
  7  8  1  0  0  0
  8  9  1  0  0  0
  8 23  1  0  0  0
  8 24  1  0  0  0
 10 11  1  0  0  0
 11 12  1  0  0  0
 11 25  1  0  0  0
 11 26  1  0  0  0
 12 13  1  0  0  0
 12 27  1  0  0  0
 12 28  1  0  0  0
 13 14  1  0  0  0
 13 29  1  0  0  0
 13 30  1  0  0  0
 14 15  2  0  0  0
 14 19  1  0  0  0
 15 16  1  0  0  0
 15 31  1  0  0  0
 16 17  2  0  0  0
 16 32  1  0  0  0
 17 18  1  0  0  0
 17 33  1  0  0  0
 18 19  2  0  0  0
 18 34  1  0  0  0
 19 35  1  0  0  0
M  END
> <s_m_entry_id>
10261

> <s_m_entry_name>
dock_pv.297

> <s_m_Source_Path>
/home/csk/Desktop/cluster/DUD-E-result/aofb

> <s_m_Source_File>
dock_pv.maegz

> <i_m_Source_File_Index>
297

> <chembl_id>
CHEMBL3400170

> <chembl_pref_name>
None

> <i_lp_mmshare_version>
53161

> <i_f3d_flags>
0

> <r_lp_tautomer_probability>
1

> <s_lp_Force_Field>
OPLS_2005

> <r_lp_Energy>
25.239655

> <b_lp_Chiralities_Consistent>
1

> <s_lp_Variant>
CHEMBL2039_lig1354-1

> <s_i_glide_gridfile>
glide-grid_1s3b

> <i_i_glide_lignum>
1575

> <i_i_glide_rotatable_bonds>
5

> <r_i_docking_score>
-7.41892475470457

> <r_i_glide_ligand_efficiency>
-0.39046972393182

> <r_i_glide_ligand_efficiency_sa>
-1.04193005409304

> <r_i_glide_ligand_efficiency_ln>
-1.88085676921091

> <r_i_glide_gscore>
-7.41892475470457

> <r_i_glide_lipo>
-3.84372433253481

> <r_i_glide_hbond>
0

> <r_i_glide_metal>
0

> <r_i_glide_rewards>
-2.94035028512295

> <r_i_glide_evdw>
-27.7456321716309

> <r_i_glide_ecoul>
-0.349683374166489

> <r_i_glide_erotb>
0.804883977659705

> <r_i_glide_esite>
0

> <r_i_glide_emodel>
-33.7889765761904

> <r_i_glide_energy>
-28.0953155457973

> <r_i_glide_einternal>
5.76854133605957

> <i_i_glide_confnum>
20

> <i_i_glide_posenum>
385

> <r_i_glide_eff_state_penalty>
0

> <s_user_duplicate_titles>
CHEMBL2039_lig1354

> <s_m_subgroup_title>
dock_pv

> <s_m_subgroupid>
dock_pv

> <b_m_subgroup_collapsed>
1

$$$$
CHEMBL2039_lig2316 
                    3D
 Schrodinger Suite 2021-1.
 36 39  0  0  1  0            999 V2000
   52.6905  150.6328   25.2927 C   0  0  0  0  0  0
   52.0070  151.5903   26.1040 N   0  0  0  0  0  0
   52.3364  152.8630   25.7040 C   0  0  0  0  0  0
   53.0345  152.8927   24.6470 N   0  0  0  0  0  0
   53.2560  151.5402   24.2452 C   0  0  0  0  0  0
   51.9796  154.0478   26.4807 C   0  0  0  0  0  0
   51.2870  153.9125   27.6908 C   0  0  0  0  0  0
   51.1220  155.0142   28.5143 C   0  0  0  0  0  0
   51.6560  156.2440   28.1361 C   0  0  0  0  0  0
   52.3340  156.3884   26.9293 C   0  0  0  0  0  0
   52.4560  155.3041   26.0801 C   0  0  0  0  0  0
   51.4043  157.4486   28.9529 C   0  0  0  0  0  0
   50.3701  157.6808   29.7040 N   0  0  0  0  0  0
   50.5201  158.9503   29.9999 C   0  0  0  0  0  0
   51.6560  159.4913   29.6530 N   0  0  0  0  0  0
   52.2598  158.4871   28.9040 O   0  0  0  0  0  0
   49.5398  159.6712   30.8248 C   0  0  0  0  0  0
   48.1851  159.3278   30.8156 C   0  0  0  0  0  0
   47.3174  159.9028   31.7378 C   0  0  0  0  0  0
   47.8212  160.8045   32.6821 C   0  0  0  0  0  0
   49.1564  161.1809   32.6506 C   0  0  0  0  0  0
   50.0092  160.6440   31.7040 C   0  0  0  0  0  0
   46.8560  161.4440   33.9396 Cl  0  0  0  0  0  0
   45.6560  159.4440   31.7044 Cl  0  0  0  0  0  0
   53.5355  150.0993   25.7040 H   0  0  0  0  0  0
   52.0218  151.2033   27.0410 H   0  0  0  0  0  0
   52.8560  151.3914   23.2405 H   0  0  0  0  0  0
   54.3175  151.4036   24.3176 H   0  0  0  0  0  0
   52.0560  149.8486   24.9040 H   0  0  0  0  0  0
   50.9032  152.9591   28.0249 H   0  0  0  0  0  0
   50.5861  154.9067   29.4467 H   0  0  0  0  0  0
   52.7358  157.3465   26.6364 H   0  0  0  0  0  0
   53.0016  155.4311   25.1556 H   0  0  0  0  0  0
   47.8142  158.5869   30.1218 H   0  0  0  0  0  0
   49.5589  161.8440   33.3972 H   0  0  0  0  0  0
   51.0550  160.9179   31.7379 H   0  0  0  0  0  0
  1  5  1  0  0  0
  1 25  1  0  0  0
  1 29  1  0  0  0
  1  2  1  0  0  0
  2 26  1  0  0  0
  2  3  1  0  0  0
  3  4  2  0  0  0
  3  6  1  0  0  0
  4  5  1  0  0  0
  5 28  1  0  0  0
  5 27  1  0  0  0
  6  7  2  0  0  0
  6 11  1  0  0  0
  7  8  1  0  0  0
  7 30  1  0  0  0
  8  9  2  0  0  0
  8 31  1  0  0  0
  9 10  1  0  0  0
  9 12  1  0  0  0
 10 11  2  0  0  0
 10 32  1  0  0  0
 11 33  1  0  0  0
 12 13  2  0  0  0
 12 16  1  0  0  0
 13 14  1  0  0  0
 14 15  2  0  0  0
 14 17  1  0  0  0
 15 16  1  0  0  0
 17 18  2  0  0  0
 17 22  1  0  0  0
 18 19  1  0  0  0
 18 34  1  0  0  0
 19 20  2  0  0  0
 19 24  1  0  0  0
 20 21  1  0  0  0
 20 23  1  0  0  0
 21 22  2  0  0  0
 21 35  1  0  0  0
 22 36  1  0  0  0
M  END
> <s_m_entry_id>
10262

> <s_m_entry_name>
dock_pv.298

> <s_m_Source_Path>
/home/csk/Desktop/cluster/DUD-E-result/aofb

> <s_m_Source_File>
dock_pv.maegz

> <i_m_Source_File_Index>
298

> <chembl_id>
CHEMBL4582038

> <chembl_pref_name>
None

> <i_lp_mmshare_version>
53161

> <i_f3d_flags>
0

> <r_lp_tautomer_probability>
0.499999999998415

> <s_lp_Force_Field>
OPLS_2005

> <r_lp_Energy>
29.877702

> <b_lp_Chiralities_Consistent>
1

> <s_lp_Variant>
CHEMBL2039_lig2316 -1

> <s_i_glide_gridfile>
glide-grid_1s3b

> <i_i_glide_lignum>
2693

> <i_i_glide_rotatable_bonds>
3

> <r_i_docking_score>
-7.41641022651676

> <r_i_glide_ligand_efficiency>
-0.309017092771532

> <r_i_glide_ligand_efficiency_sa>
-0.891359537590509

> <r_i_glide_ligand_efficiency_ln>
-1.77508728409541

> <r_i_glide_gscore>
-7.41641022651676

> <r_i_glide_lipo>
-4.13871517745808

> <r_i_glide_hbond>
-0.279973732192856

> <r_i_glide_metal>
0

> <r_i_glide_rewards>
-2.41903865385134

> <r_i_glide_evdw>
-16.5936546325684

> <r_i_glide_ecoul>
-1.12429261207581

> <r_i_glide_erotb>
0.445584640968282

> <r_i_glide_esite>
-0.025940680542971

> <r_i_glide_emodel>
-28.79967564593

> <r_i_glide_energy>
-17.7179472446442

> <r_i_glide_einternal>
1.95944726467133

> <i_i_glide_confnum>
5

> <i_i_glide_posenum>
20

> <r_i_glide_eff_state_penalty>
0

> <s_user_duplicate_titles>
CHEMBL2039_lig2316 

> <s_m_subgroup_title>
dock_pv

> <s_m_subgroupid>
dock_pv

> <b_m_subgroup_collapsed>
1

$$$$
CHEMBL2039_lig798
                    3D
 Schrodinger Suite 2021-1.
 30 32  0  0  1  0            999 V2000
   50.4605  157.4584   29.5284 C   0  0  0  0  0  0
   49.2005  157.6865   30.1040 C   0  0  0  0  0  0
   48.9076  158.8859   30.7436 C   0  0  0  0  0  0
   51.3815  158.5002   29.4210 C   0  0  0  0  0  0
   51.1185  159.6501   30.1513 C   0  0  0  0  0  0
   49.9312  159.8181   30.8243 C   0  0  0  0  0  0
   50.0626  160.9944   31.6929 C   0  0  0  0  0  0
   51.3026  161.4440   31.4326 N   0  0  0  0  0  0
   52.0002  160.7781   30.5040 C   0  0  0  0  0  0
   53.1296  161.0485   30.1040 O   0  0  0  0  0  0
   49.2560  161.4440   32.5040 O   0  0  0  0  0  0
   50.8560  155.8433   28.9040 S   0  0  0  0  0  0
   51.9463  156.0532   27.4516 C   0  0  0  0  0  0
   52.0560  154.8474   26.5215 C   0  0  0  0  0  0
   51.6560  153.5633   26.9125 C   0  0  0  0  0  0
   52.0215  152.4661   26.1427 C   0  0  0  0  0  0
   52.7642  152.6440   24.9812 C   0  0  0  0  0  0
   53.0866  153.9211   24.5330 C   0  0  0  0  0  0
   52.7268  155.0246   25.3040 C   0  0  0  0  0  0
   53.2560  151.2523   24.0945 Cl  0  0  0  0  0  0
   48.4651  156.8973   30.1040 H   0  0  0  0  0  0
   47.9688  159.0153   31.2632 H   0  0  0  0  0  0
   52.3456  158.3503   28.9554 H   0  0  0  0  0  0
   51.6929  162.2200   31.9492 H   0  0  0  0  0  0
   52.9432  156.2760   27.8304 H   0  0  0  0  0  0
   51.6560  156.9145   26.8579 H   0  0  0  0  0  0
   51.1393  153.3868   27.8439 H   0  0  0  0  0  0
   51.7490  151.4719   26.4669 H   0  0  0  0  0  0
   53.6482  154.0500   23.6197 H   0  0  0  0  0  0
   53.0418  156.0099   24.9928 H   0  0  0  0  0  0
  1  4  1  0  0  0
  1 12  1  0  0  0
  1  2  2  0  0  0
  2  3  1  0  0  0
  2 21  1  0  0  0
  3  6  2  0  0  0
  3 22  1  0  0  0
  4  5  2  0  0  0
  4 23  1  0  0  0
  5  6  1  0  0  0
  5  9  1  0  0  0
  6  7  1  0  0  0
  7 11  2  0  0  0
  7  8  1  0  0  0
  8  9  1  0  0  0
  8 24  1  0  0  0
  9 10  2  0  0  0
 12 13  1  0  0  0
 13 14  1  0  0  0
 13 25  1  0  0  0
 13 26  1  0  0  0
 14 15  2  0  0  0
 14 19  1  0  0  0
 15 16  1  0  0  0
 15 27  1  0  0  0
 16 17  2  0  0  0
 16 28  1  0  0  0
 17 18  1  0  0  0
 17 20  1  0  0  0
 18 19  2  0  0  0
 18 29  1  0  0  0
 19 30  1  0  0  0
M  END
> <s_m_entry_id>
10263

> <s_m_entry_name>
dock_pv.299

> <s_m_Source_Path>
/home/csk/Desktop/cluster/DUD-E-result/aofb

> <s_m_Source_File>
dock_pv.maegz

> <i_m_Source_File_Index>
299

> <chembl_id>
CHEMBL2158242

> <chembl_pref_name>
None

> <i_lp_mmshare_version>
53161

> <i_f3d_flags>
0

> <r_lp_tautomer_probability>
1

> <s_lp_Force_Field>
OPLS_2005

> <r_lp_Energy>
31.472411

> <b_lp_Chiralities_Consistent>
1

> <s_lp_Variant>
CHEMBL2039_lig798-1

> <s_i_glide_gridfile>
glide-grid_1s3b

> <i_i_glide_lignum>
928

> <i_i_glide_rotatable_bonds>
3

> <r_i_docking_score>
-7.41567557786626

> <r_i_glide_ligand_efficiency>
-0.370783778893313

> <r_i_glide_ligand_efficiency_sa>
-1.00646202037061

> <r_i_glide_ligand_efficiency_ln>
-1.85589901179

> <r_i_glide_gscore>
-7.41567557786626

> <r_i_glide_lipo>
-3.55328609923683

> <r_i_glide_hbond>
-0.480084082668905

> <r_i_glide_metal>
0

> <r_i_glide_rewards>
-2.40953972249949

> <r_i_glide_evdw>
-14.6043968200684

> <r_i_glide_ecoul>
-5.61211156845093

> <r_i_glide_erotb>
0.599270902810026

> <r_i_glide_esite>
0

> <r_i_glide_emodel>
-18.5917880000189

> <r_i_glide_energy>
-20.2165083885193

> <r_i_glide_einternal>
6.42505121231079

> <i_i_glide_confnum>
9

> <i_i_glide_posenum>
82

> <r_i_glide_eff_state_penalty>
0

> <s_user_duplicate_titles>
CHEMBL2039_lig798

> <s_m_subgroup_title>
dock_pv

> <s_m_subgroupid>
dock_pv

> <b_m_subgroup_collapsed>
1

$$$$
CHEMBL2039_lig1980
                    3D
 Schrodinger Suite 2021-1.
 40 42  0  0  1  0            999 V2000
   50.5224  159.8443   30.5040 C   0  0  0  0  0  0
   50.0979  158.6466   30.0109 N   0  0  0  0  0  0
   48.8202  158.3643   30.3957 C   0  0  0  0  0  0
   48.3964  159.4141   31.2831 C   0  0  0  0  0  0
   47.1821  159.5328   31.9392 C   0  0  0  0  0  0
   46.9963  160.6440   32.7323 C   0  0  0  0  0  0
   48.0073  161.5887   32.8185 C   0  0  0  0  0  0
   49.2504  161.4295   32.1918 C   0  0  0  0  0  0
   49.4105  160.3132   31.3808 C   0  0  0  0  0  0
   51.6001  160.4007   30.2919 O   0  0  0  0  0  0
   48.0865  157.4440   30.1040 O   0  0  0  0  0  0
   51.0167  157.7450   29.2530 C   0  0  0  0  0  0
   50.5711  156.2451   29.1061 C   0  0  0  0  0  0
   51.2287  155.3942   28.1021 N   0  0  1  0  0  0
   51.9370  156.0325   26.9760 C   0  0  0  0  0  0
   52.4560  155.1091   25.8762 C   0  0  0  0  0  0
   53.4380  155.6035   25.0129 C   0  0  0  0  0  0
   54.0562  154.7534   24.1040 C   0  0  0  0  0  0
   53.6138  153.4440   23.9844 C   0  0  0  0  0  0
   52.5959  152.9639   24.7953 C   0  0  0  0  0  0
   51.9749  153.8074   25.7040 C   0  0  0  0  0  0
   52.0560  154.4486   28.7972 C   0  0  0  0  0  0
   46.3952  158.8028   31.8204 H   0  0  0  0  0  0
   46.0560  160.8087   33.2297 H   0  0  0  0  0  0
   47.7329  162.4852   33.3040 H   0  0  0  0  0  0
   50.0231  162.1807   32.2833 H   0  0  0  0  0  0
   51.9955  157.7586   29.7284 H   0  0  0  0  0  0
   51.2539  158.2013   28.2917 H   0  0  0  0  0  0
   49.5261  156.1014   28.9040 H   0  0  0  0  0  0
   50.6106  155.7871   30.0940 H   0  0  0  0  0  0
   52.7429  156.6776   27.3316 H   0  0  0  0  0  0
   51.2560  156.6440   26.4162 H   0  0  0  0  0  0
   53.7817  156.6232   25.1041 H   0  0  0  0  0  0
   54.8555  155.1164   23.4742 H   0  0  0  0  0  0
   54.0559  152.7896   23.2505 H   0  0  0  0  0  0
   52.2943  151.9327   24.7156 H   0  0  0  0  0  0
   51.1763  153.4235   26.3223 H   0  0  0  0  0  0
   51.5103  153.9455   29.5971 H   0  0  0  0  0  0
   52.4581  153.6644   28.1633 H   0  0  0  0  0  0
   52.8703  155.0452   29.1975 H   0  0  0  0  0  0
  1  2  1  0  0  0
  1  9  1  0  0  0
  1 10  2  0  0  0
  2  3  1  0  0  0
  2 12  1  0  0  0
  3  4  1  0  0  0
  3 11  2  0  0  0
  4  5  1  0  0  0
  4  9  2  0  0  0
  5  6  2  0  0  0
  5 23  1  0  0  0
  6  7  1  0  0  0
  6 24  1  0  0  0
  7  8  2  0  0  0
  7 25  1  0  0  0
  8  9  1  0  0  0
  8 26  1  0  0  0
 12 13  1  0  0  0
 12 27  1  0  0  0
 12 28  1  0  0  0
 13 14  1  0  0  0
 13 29  1  0  0  0
 13 30  1  0  0  0
 14 15  1  0  0  0
 14 22  1  0  0  0
 15 16  1  0  0  0
 15 31  1  0  0  0
 15 32  1  0  0  0
 16 17  1  0  0  0
 16 21  2  0  0  0
 17 18  2  0  0  0
 17 33  1  0  0  0
 18 19  1  0  0  0
 18 34  1  0  0  0
 19 20  2  0  0  0
 19 35  1  0  0  0
 20 21  1  0  0  0
 20 36  1  0  0  0
 21 37  1  0  0  0
 22 38  1  0  0  0
 22 39  1  0  0  0
 22 40  1  0  0  0
M  END
> <s_m_entry_id>
10264

> <s_m_entry_name>
dock_pv.300

> <s_m_Source_Path>
/home/csk/Desktop/cluster/DUD-E-result/aofb

> <s_m_Source_File>
dock_pv.maegz

> <i_m_Source_File_Index>
300

> <chembl_id>
CHEMBL4066289

> <chembl_pref_name>
None

> <i_lp_mmshare_version>
53161

> <i_f3d_flags>
0

> <r_lp_tautomer_probability>
1

> <s_lp_Force_Field>
OPLS_2005

> <r_lp_Energy>
43.76653

> <b_lp_Chiralities_Consistent>
1

> <s_lp_Variant>
CHEMBL2039_lig1980-1

> <s_i_glide_gridfile>
glide-grid_1s3b

> <i_i_glide_lignum>
2315

> <i_i_glide_rotatable_bonds>
5

> <r_i_docking_score>
-7.41487889074936

> <r_i_glide_ligand_efficiency>
-0.337039949579516

> <r_i_glide_ligand_efficiency_sa>
-0.944399193750854

> <r_i_glide_ligand_efficiency_ln>
-1.81246686517822

> <r_i_glide_gscore>
-7.41487889074936

> <r_i_glide_lipo>
-3.90834796508535

> <r_i_glide_hbond>
0

> <r_i_glide_metal>
0

> <r_i_glide_rewards>
-3.44273226711472

> <r_i_glide_evdw>
-10.9432516098022

> <r_i_glide_ecoul>
-0.998969614505768

> <r_i_glide_erotb>
0.63320936411669

> <r_i_glide_esite>
0

> <r_i_glide_emodel>
-13.1810208780098

> <r_i_glide_energy>
-11.942221224308

> <r_i_glide_einternal>
21.5565891265869

> <i_i_glide_confnum>
23

> <i_i_glide_posenum>
301

> <r_i_glide_eff_state_penalty>
0

> <s_user_duplicate_titles>
CHEMBL2039_lig1980

> <s_m_subgroup_title>
dock_pv

> <s_m_subgroupid>
dock_pv

> <b_m_subgroup_collapsed>
1

$$$$
CHEMBL2039_lig1945
                    3D
 Schrodinger Suite 2021-1.
 34 36  0  0  1  0            999 V2000
   51.6799  152.1887   26.3236 C   0  0  0  0  0  0
   52.6012  152.6271   25.2616 C   0  0  0  0  0  0
   52.9685  153.9216   25.1301 C   0  0  0  0  0  0
   51.2560  153.1092   27.2226 O   0  0  0  0  0  0
   51.6556  154.4201   27.1541 C   0  0  0  0  0  0
   52.4504  154.9159   26.1049 C   0  0  0  0  0  0
   52.8560  156.2460   26.1838 C   0  0  0  0  0  0
   52.4984  157.0316   27.2844 C   0  0  0  0  0  0
   51.6563  156.5378   28.2879 C   0  0  0  0  0  0
   51.2560  155.2121   28.2242 C   0  0  0  0  0  0
   51.2560  151.0517   26.5039 O   0  0  0  0  0  0
   51.1278  157.3036   29.3040 O   0  0  0  0  0  0
   51.2127  158.7216   29.2181 C   0  0  0  0  0  0
   50.2597  159.3757   30.2048 C   0  0  0  0  0  0
   49.0260  158.7827   30.4999 C   0  0  0  0  0  0
   48.2235  159.3060   31.5070 C   0  0  0  0  0  0
   48.6618  160.4175   32.2182 C   0  0  0  0  0  0
   49.8603  161.0440   31.8957 C   0  0  0  0  0  0
   50.6612  160.5281   30.8835 C   0  0  0  0  0  0
   54.0446  154.3458   24.1280 C   0  0  0  0  0  0
   53.2560  151.3430   24.2301 Cl  0  0  0  0  0  0
   47.6560  161.0440   33.6970 Br  0  0  0  0  0  0
   53.5175  156.6710   25.4467 H   0  0  0  0  0  0
   52.8826  158.0338   27.3429 H   0  0  0  0  0  0
   50.6284  154.8024   29.0018 H   0  0  0  0  0  0
   50.9156  159.0440   28.2224 H   0  0  0  0  0  0
   52.2407  159.0436   29.3908 H   0  0  0  0  0  0
   48.7115  157.8819   29.9966 H   0  0  0  0  0  0
   47.2923  158.8245   31.7667 H   0  0  0  0  0  0
   50.1884  161.9030   32.4614 H   0  0  0  0  0  0
   51.6145  160.9910   30.6733 H   0  0  0  0  0  0
   54.0489  153.7184   23.2368 H   0  0  0  0  0  0
   53.9756  155.3752   23.7987 H   0  0  0  0  0  0
   55.0199  154.2442   24.6043 H   0  0  0  0  0  0
  1  2  1  0  0  0
  1  4  1  0  0  0
  1 11  2  0  0  0
  2  3  2  0  0  0
  2 21  1  0  0  0
  3  6  1  0  0  0
  3 20  1  0  0  0
  4  5  1  0  0  0
  5  6  2  0  0  0
  5 10  1  0  0  0
  6  7  1  0  0  0
  7  8  2  0  0  0
  7 23  1  0  0  0
  8  9  1  0  0  0
  8 24  1  0  0  0
  9 10  2  0  0  0
  9 12  1  0  0  0
 10 25  1  0  0  0
 12 13  1  0  0  0
 13 14  1  0  0  0
 13 26  1  0  0  0
 13 27  1  0  0  0
 14 15  2  0  0  0
 14 19  1  0  0  0
 15 16  1  0  0  0
 15 28  1  0  0  0
 16 17  2  0  0  0
 16 29  1  0  0  0
 17 18  1  0  0  0
 17 22  1  0  0  0
 18 19  2  0  0  0
 18 30  1  0  0  0
 19 31  1  0  0  0
 20 32  1  0  0  0
 20 33  1  0  0  0
 20 34  1  0  0  0
M  END
> <s_m_entry_id>
10265

> <s_m_entry_name>
dock_pv.301

> <s_m_Source_Path>
/home/csk/Desktop/cluster/DUD-E-result/aofb

> <s_m_Source_File>
dock_pv.maegz

> <i_m_Source_File_Index>
301

> <chembl_id>
CHEMBL4079843

> <chembl_pref_name>
None

> <i_lp_mmshare_version>
53161

> <i_f3d_flags>
0

> <r_lp_tautomer_probability>
1

> <s_lp_Force_Field>
OPLS_2005

> <r_lp_Energy>
28.201848

> <b_lp_Chiralities_Consistent>
1

> <s_lp_Variant>
CHEMBL2039_lig1945-1

> <s_i_glide_gridfile>
glide-grid_1s3b

> <i_i_glide_lignum>
2280

> <i_i_glide_rotatable_bonds>
3

> <r_i_docking_score>
-7.41398002417503

> <r_i_glide_ligand_efficiency>
-0.336999092007956

> <r_i_glide_ligand_efficiency_sa>
-0.944284709228505

> <r_i_glide_ligand_efficiency_ln>
-1.8122471494005

> <r_i_glide_gscore>
-7.41398002417503

> <r_i_glide_lipo>
-4.64819444451854

> <r_i_glide_hbond>
0

> <r_i_glide_metal>
0

> <r_i_glide_rewards>
-1.71149696385987

> <r_i_glide_evdw>
-28.2667045593262

> <r_i_glide_ecoul>
-0.297425657510757

> <r_i_glide_erotb>
0.403660460796293

> <r_i_glide_esite>
0

> <r_i_glide_emodel>
-29.7643542091708

> <r_i_glide_energy>
-28.5641302168369

> <r_i_glide_einternal>
0.856331169605255

> <i_i_glide_confnum>
15

> <i_i_glide_posenum>
338

> <r_i_glide_eff_state_penalty>
0

> <s_user_duplicate_titles>
CHEMBL2039_lig1945

> <s_m_subgroup_title>
dock_pv

> <s_m_subgroupid>
dock_pv

> <b_m_subgroup_collapsed>
1

$$$$
CHEMBL2039_lig1524
                    3D
 Schrodinger Suite 2021-1.
 40 43  0  0  1  0            999 V2000
   46.9277  158.8994   30.5179 C   0  0  0  0  0  0
   48.2509  158.5777   30.1038 O   0  0  0  0  0  0
   49.3169  159.3669   30.5012 C   0  0  0  0  0  0
   49.1518  160.4596   31.3652 C   0  0  0  0  0  0
   50.2338  161.2595   31.7042 C   0  0  0  0  0  0
   51.4783  161.0436   31.1360 C   0  0  0  0  0  0
   51.6561  159.9660   30.2843 C   0  0  0  0  0  0
   50.6146  159.0666   30.0176 C   0  0  0  0  0  0
   50.9406  157.7741   29.3382 C   0  0  0  0  0  0
   50.1923  156.7024   29.7039 N   0  0  0  0  0  0
   50.4526  155.5233   29.1063 C   0  0  0  0  0  0
   51.3226  155.4188   28.0229 C   0  0  0  0  0  0
   51.4141  154.2751   27.2041 C   0  0  0  0  0  0
   52.1779  154.3396   26.0368 C   0  0  0  0  0  0
   52.8537  155.5156   25.7001 C   0  0  0  0  0  0
   52.8555  156.6030   26.5628 C   0  0  0  0  0  0
   52.0788  156.5897   27.7280 C   0  0  0  0  0  0
   51.9919  157.7269   28.4788 N   0  0  0  0  0  0
   52.4597  153.1722   25.3134 N   0  0  0  0  0  0
   52.9619  153.0443   24.0464 C   0  0  0  0  0  0
   53.2563  151.8133   23.7311 N   0  0  0  0  0  0
   53.0182  151.0847   24.8035 C   0  0  0  0  0  0
   53.2891  149.5980   24.7969 C   0  0  0  0  0  0
   52.4449  151.8809   25.7706 C   0  0  0  0  0  0
   46.2302  158.2453   29.9978 H   0  0  0  0  0  0
   46.8015  158.7461   31.5912 H   0  0  0  0  0  0
   46.6575  159.9257   30.2650 H   0  0  0  0  0  0
   48.1928  160.7025   31.7949 H   0  0  0  0  0  0
   50.0913  162.0826   32.3891 H   0  0  0  0  0  0
   52.3086  161.6899   31.3827 H   0  0  0  0  0  0
   52.6509  159.7869   29.9046 H   0  0  0  0  0  0
   49.8575  154.6787   29.4102 H   0  0  0  0  0  0
   50.8739  153.3831   27.4839 H   0  0  0  0  0  0
   53.5027  155.5558   24.8384 H   0  0  0  0  0  0
   53.4888  157.4439   26.3701 H   0  0  0  0  0  0
   53.0850  153.9025   23.4061 H   0  0  0  0  0  0
   52.7723  149.0889   25.6105 H   0  0  0  0  0  0
   54.3519  149.3816   24.9000 H   0  0  0  0  0  0
   52.9597  149.1246   23.8715 H   0  0  0  0  0  0
   52.0598  151.6510   26.7486 H   0  0  0  0  0  0
  1  2  1  0  0  0
  1 25  1  0  0  0
  1 26  1  0  0  0
  1 27  1  0  0  0
  2  3  1  0  0  0
  3  4  2  0  0  0
  3  8  1  0  0  0
  4  5  1  0  0  0
  4 28  1  0  0  0
  5  6  2  0  0  0
  5 29  1  0  0  0
  6  7  1  0  0  0
  6 30  1  0  0  0
  7  8  2  0  0  0
  7 31  1  0  0  0
  8  9  1  0  0  0
  9 10  2  0  0  0
  9 18  1  0  0  0
 10 11  1  0  0  0
 11 12  2  0  0  0
 11 32  1  0  0  0
 12 13  1  0  0  0
 12 17  1  0  0  0
 13 14  2  0  0  0
 13 33  1  0  0  0
 14 15  1  0  0  0
 14 19  1  0  0  0
 15 16  2  0  0  0
 15 34  1  0  0  0
 16 17  1  0  0  0
 16 35  1  0  0  0
 17 18  2  0  0  0
 19 20  1  0  0  0
 19 24  1  0  0  0
 20 21  2  0  0  0
 20 36  1  0  0  0
 21 22  1  0  0  0
 22 23  1  0  0  0
 22 24  2  0  0  0
 23 37  1  0  0  0
 23 38  1  0  0  0
 23 39  1  0  0  0
 24 40  1  0  0  0
M  END
> <s_m_entry_id>
10266

> <s_m_entry_name>
dock_pv.302

> <s_m_Source_Path>
/home/csk/Desktop/cluster/DUD-E-result/aofb

> <s_m_Source_File>
dock_pv.maegz

> <i_m_Source_File_Index>
302

> <chembl_id>
CHEMBL3652415

> <chembl_pref_name>
None

> <i_lp_mmshare_version>
53161

> <i_f3d_flags>
0

> <r_lp_tautomer_probability>
1

> <s_lp_Force_Field>
OPLS_2005

> <r_lp_Energy>
23.601641

> <b_lp_Chiralities_Consistent>
1

> <s_lp_Variant>
CHEMBL2039_lig1524-1

> <s_i_glide_gridfile>
glide-grid_1s3b

> <i_i_glide_lignum>
1765

> <i_i_glide_rotatable_bonds>
3

> <r_i_docking_score>
-7.41160983265441

> <r_i_glide_ligand_efficiency>
-0.3088170763606

> <r_i_glide_ligand_efficiency_sa>
-0.89078259042568

> <r_i_glide_ligand_efficiency_ln>
-1.77393832956843

> <r_i_glide_gscore>
-7.41160983265441

> <r_i_glide_lipo>
-3.8898588320424

> <r_i_glide_hbond>
0

> <r_i_glide_metal>
0

> <r_i_glide_rewards>
-3.20277251570941

> <r_i_glide_evdw>
-14.672532081604

> <r_i_glide_ecoul>
0.284258365631104

> <r_i_glide_erotb>
0.372009364332938

> <r_i_glide_esite>
0

> <r_i_glide_emodel>
-28.2049887642713

> <r_i_glide_energy>
-14.3882737159729

> <r_i_glide_einternal>
0.728948056697845

> <i_i_glide_confnum>
5

> <i_i_glide_posenum>
35

> <r_i_glide_eff_state_penalty>
0

> <s_user_duplicate_titles>
CHEMBL2039_lig1524

> <s_m_subgroup_title>
dock_pv

> <s_m_subgroupid>
dock_pv

> <b_m_subgroup_collapsed>
1

$$$$
CHEMBL2039_lig2063
                    3D
 Schrodinger Suite 2021-1.
 26 27  0  0  1  0            999 V2000
   52.2938  155.6674   26.4829 C   0  0  0  0  0  0
   52.0622  156.6434   27.4523 C   0  0  0  0  0  0
   51.2877  156.3481   28.5779 C   0  0  0  0  0  0
   50.8773  155.0312   28.7878 C   0  0  0  0  0  0
   51.1715  154.0361   27.8544 C   0  0  0  0  0  0
   51.8368  154.3644   26.6768 C   0  0  0  0  0  0
   50.8546  157.2870   29.4960 O   0  0  0  0  0  0
   51.0331  158.6938   29.3042 C   0  0  0  0  0  0
   50.0692  159.4317   30.2361 C   0  0  0  0  0  0
   48.7272  159.0397   30.3206 C   0  0  0  0  0  0
   47.8707  159.6440   31.2373 C   0  0  0  0  0  0
   48.3580  160.6372   32.0805 C   0  0  0  0  0  0
   49.6854  161.0440   31.9940 C   0  0  0  0  0  0
   50.5393  160.4553   31.0636 C   0  0  0  0  0  0
   53.2557  156.0990   24.9040 Br  0  0  0  0  0  0
   47.5408  161.2062   32.9943 F   0  0  0  0  0  0
   52.4365  157.6434   27.2997 H   0  0  0  0  0  0
   50.3165  154.7804   29.6757 H   0  0  0  0  0  0
   50.8558  153.0185   28.0315 H   0  0  0  0  0  0
   52.0402  153.6035   25.9382 H   0  0  0  0  0  0
   50.8541  159.0437   28.2875 H   0  0  0  0  0  0
   52.0630  158.9487   29.5494 H   0  0  0  0  0  0
   48.3491  158.2410   29.7043 H   0  0  0  0  0  0
   46.8396  159.3309   31.3108 H   0  0  0  0  0  0
   50.0552  161.8147   32.6540 H   0  0  0  0  0  0
   51.5739  160.7654   31.0245 H   0  0  0  0  0  0
  1  2  1  0  0  0
  1  6  2  0  0  0
  1 15  1  0  0  0
  2  3  2  0  0  0
  2 17  1  0  0  0
  3  4  1  0  0  0
  3  7  1  0  0  0
  4  5  2  0  0  0
  4 18  1  0  0  0
  5  6  1  0  0  0
  5 19  1  0  0  0
  6 20  1  0  0  0
  7  8  1  0  0  0
  8  9  1  0  0  0
  8 21  1  0  0  0
  8 22  1  0  0  0
  9 10  1  0  0  0
  9 14  2  0  0  0
 10 11  2  0  0  0
 10 23  1  0  0  0
 11 12  1  0  0  0
 11 24  1  0  0  0
 12 13  2  0  0  0
 12 16  1  0  0  0
 13 14  1  0  0  0
 13 25  1  0  0  0
 14 26  1  0  0  0
M  END
> <s_m_entry_id>
10267

> <s_m_entry_name>
dock_pv.303

> <s_m_Source_Path>
/home/csk/Desktop/cluster/DUD-E-result/aofb

> <s_m_Source_File>
dock_pv.maegz

> <i_m_Source_File_Index>
303

> <chembl_id>
CHEMBL4170537

> <chembl_pref_name>
None

> <i_lp_mmshare_version>
53161

> <i_f3d_flags>
0

> <r_lp_tautomer_probability>
1

> <s_lp_Force_Field>
OPLS_2005

> <r_lp_Energy>
14.76498

> <b_lp_Chiralities_Consistent>
1

> <s_lp_Variant>
CHEMBL2039_lig2063-1

> <s_i_glide_gridfile>
glide-grid_1s3b

> <i_i_glide_lignum>
2401

> <i_i_glide_rotatable_bonds>
3

> <r_i_docking_score>
-7.41114204937016

> <r_i_glide_ligand_efficiency>
-0.463196378085635

> <r_i_glide_ligand_efficiency_sa>
-1.16718173289161

> <r_i_glide_ligand_efficiency_ln>
-1.96447124110846

> <r_i_glide_gscore>
-7.41114204937016

> <r_i_glide_lipo>
-3.74323135249158

> <r_i_glide_hbond>
0

> <r_i_glide_metal>
0

> <r_i_glide_rewards>
-2.82153303364502

> <r_i_glide_evdw>
-24.8240413665771

> <r_i_glide_ecoul>
-1.94126462936401

> <r_i_glide_erotb>
0.686014099499898

> <r_i_glide_esite>
0

> <r_i_glide_emodel>
-35.5049431101329

> <r_i_glide_energy>
-26.7653059959412

> <r_i_glide_einternal>
1.06601297855377

> <i_i_glide_confnum>
68

> <i_i_glide_posenum>
174

> <r_i_glide_eff_state_penalty>
0

> <s_user_duplicate_titles>
CHEMBL2039_lig2063

> <s_m_subgroup_title>
dock_pv

> <s_m_subgroupid>
dock_pv

> <b_m_subgroup_collapsed>
1

$$$$
CHEMBL2039_lig1039
                    3D
 Schrodinger Suite 2021-1.
 31 32  0  0  1  0            999 V2000
   51.3182  156.8810   28.9013 C   0  0  0  0  0  0
   50.6674  155.6441   29.0092 C   0  0  0  0  0  0
   50.9362  154.6223   28.1044 C   0  0  0  0  0  0
   51.7842  154.8545   27.0229 C   0  0  0  0  0  0
   52.4560  156.0707   26.9263 C   0  0  0  0  0  0
   52.2841  157.0438   27.8983 C   0  0  0  0  0  0
   50.9139  158.0238   29.7413 C   0  0  0  0  0  0
   51.5407  159.2227   29.7915 C   0  0  0  0  0  0
   51.1601  160.3931   30.5796 C   0  0  0  0  0  0
   51.9642  161.3183   30.6940 O   0  0  0  0  0  0
   49.8573  160.4710   31.2415 C   0  0  0  0  0  0
   48.7992  159.7871   30.7316 O   0  0  0  0  0  0
   47.7240  160.0397   31.5204 C   0  0  0  0  0  0
   48.0836  160.9195   32.5276 C   0  0  0  0  0  0
   49.4380  161.2007   32.3449 C   0  0  0  0  0  0
   46.4551  159.3223   31.1549 C   0  0  0  0  0  0
   51.9496  153.7948   25.9417 C   0  0  0  0  0  0
   52.0573  152.5764   26.4713 F   0  0  0  0  0  0
   50.8580  153.8443   25.1932 F   0  0  0  0  0  0
   52.9963  154.0112   25.1429 F   0  0  0  0  0  0
   49.9266  155.4731   29.7737 H   0  0  0  0  0  0
   50.4336  153.6720   28.1950 H   0  0  0  0  0  0
   53.1376  156.2589   26.1095 H   0  0  0  0  0  0
   52.8309  157.9635   27.7729 H   0  0  0  0  0  0
   50.0373  157.8457   30.3445 H   0  0  0  0  0  0
   52.4364  159.3853   29.2206 H   0  0  0  0  0  0
   47.4417  161.3048   33.3054 H   0  0  0  0  0  0
   50.0557  161.8479   32.9485 H   0  0  0  0  0  0
   45.6032  159.6711   31.7386 H   0  0  0  0  0  0
   46.5523  158.2513   31.3273 H   0  0  0  0  0  0
   46.2012  159.4463   30.1042 H   0  0  0  0  0  0
  1  2  2  0  0  0
  1  6  1  0  0  0
  1  7  1  0  0  0
  2  3  1  0  0  0
  2 21  1  0  0  0
  3  4  2  0  0  0
  3 22  1  0  0  0
  4  5  1  0  0  0
  4 17  1  0  0  0
  5  6  2  0  0  0
  5 23  1  0  0  0
  6 24  1  0  0  0
  7  8  2  0  0  0
  7 25  1  0  0  0
  8  9  1  0  0  0
  8 26  1  0  0  0
  9 10  2  0  0  0
  9 11  1  0  0  0
 11 12  1  0  0  0
 11 15  2  0  0  0
 12 13  1  0  0  0
 13 14  2  0  0  0
 13 16  1  0  0  0
 14 15  1  0  0  0
 14 27  1  0  0  0
 15 28  1  0  0  0
 16 29  1  0  0  0
 16 30  1  0  0  0
 16 31  1  0  0  0
 17 18  1  0  0  0
 17 19  1  0  0  0
 17 20  1  0  0  0
M  END
> <s_m_entry_id>
10268

> <s_m_entry_name>
dock_pv.304

> <s_m_Source_Path>
/home/csk/Desktop/cluster/DUD-E-result/aofb

> <s_m_Source_File>
dock_pv.maegz

> <i_m_Source_File_Index>
304

> <chembl_id>
CHEMBL2420787

> <chembl_pref_name>
None

> <i_lp_mmshare_version>
53161

> <i_f3d_flags>
0

> <r_lp_tautomer_probability>
1

> <s_lp_Force_Field>
OPLS_2005

> <r_lp_Energy>
7.558096

> <b_lp_Chiralities_Consistent>
1

> <s_lp_Variant>
CHEMBL2039_lig1039-1

> <s_i_glide_gridfile>
glide-grid_1s3b

> <i_i_glide_lignum>
1212

> <i_i_glide_rotatable_bonds>
4

> <r_i_docking_score>
-7.4109538684937

> <r_i_glide_ligand_efficiency>
-0.370547693424685

> <r_i_glide_ligand_efficiency_sa>
-1.00582118581618

> <r_i_glide_ligand_efficiency_ln>
-1.85471732366645

> <r_i_glide_gscore>
-7.4109538684937

> <r_i_glide_lipo>
-3.22962565441654

> <r_i_glide_hbond>
0

> <r_i_glide_metal>
0

> <r_i_glide_rewards>
-3.423778114627

> <r_i_glide_evdw>
-26.7375106811523

> <r_i_glide_ecoul>
-0.736192643642426

> <r_i_glide_erotb>
0.689754331153819

> <r_i_glide_esite>
0

> <r_i_glide_emodel>
-34.8519342592752

> <r_i_glide_energy>
-27.4737033247948

> <r_i_glide_einternal>
4.10136985778809

> <i_i_glide_confnum>
6

> <i_i_glide_posenum>
332

> <r_i_glide_eff_state_penalty>
0

> <s_user_duplicate_titles>
CHEMBL2039_lig1039

> <s_m_subgroup_title>
dock_pv

> <s_m_subgroupid>
dock_pv

> <b_m_subgroup_collapsed>
1

$$$$
CHEMBL2039_lig1238
                    3D
 Schrodinger Suite 2021-1.
 36 38  0  0  1  0            999 V2000
   50.1909  157.3661   29.7042 N   0  0  0  0  0  0
   50.0496  158.7251   30.0923 N   0  0  0  0  0  0
   48.8867  159.1915   30.3285 C   0  0  0  0  0  0
   48.5810  160.5912   30.8891 C   0  0  1  0  0  0
   47.0748  160.5923   31.2107 C   0  0  0  0  0  0
   46.6199  159.1507   31.1398 C   0  0  0  0  0  0
   47.5332  158.5243   30.1049 C   0  0  0  0  0  0
   49.4220  160.9681   32.1211 C   0  0  0  0  0  0
   52.4922  157.8423   28.5000 S   0  0  0  0  0  0
   51.1846  156.8551   28.9044 C   0  0  0  0  0  0
   51.1250  155.7166   28.2683 N   0  0  0  0  0  0
   51.9759  155.6609   27.2544 C   0  0  0  0  0  0
   52.8009  156.7796   27.1779 C   0  0  0  0  0  0
   52.0597  154.4676   26.3493 C   0  0  0  0  0  0
   51.6255  153.2063   26.7814 C   0  0  0  0  0  0
   52.0161  152.0621   26.1013 C   0  0  0  0  0  0
   52.8550  152.1485   24.9949 C   0  0  0  0  0  0
   53.2036  153.3974   24.4868 C   0  0  0  0  0  0
   52.7893  154.5550   25.1449 C   0  0  0  0  0  0
   53.2495  151.0205   24.3653 F   0  0  0  0  0  0
   50.8624  153.0602   27.8864 F   0  0  0  0  0  0
   49.3212  156.8585   29.7515 H   0  0  0  0  0  0
   48.7791  161.3212   30.1031 H   0  0  0  0  0  0
   46.5196  161.1888   30.4854 H   0  0  0  0  0  0
   46.8537  161.0176   32.1905 H   0  0  0  0  0  0
   46.7590  158.6488   32.0964 H   0  0  0  0  0  0
   45.5654  159.0757   30.8684 H   0  0  0  0  0  0
   47.5759  157.4413   30.1913 H   0  0  0  0  0  0
   47.1718  158.7581   29.1025 H   0  0  0  0  0  0
   50.4901  160.9857   31.8973 H   0  0  0  0  0  0
   49.1521  161.9461   32.5186 H   0  0  0  0  0  0
   49.2569  160.2488   32.9231 H   0  0  0  0  0  0
   53.5709  157.0165   26.4665 H   0  0  0  0  0  0
   51.6242  151.1060   26.4240 H   0  0  0  0  0  0
   53.8059  153.4615   23.5934 H   0  0  0  0  0  0
   53.1305  155.5108   24.7777 H   0  0  0  0  0  0
  1  2  1  0  0  0
  1 10  1  0  0  0
  1 22  1  0  0  0
  2  3  2  0  0  0
  3  4  1  0  0  0
  3  7  1  0  0  0
  4  5  1  0  0  0
  4  8  1  0  0  0
  4 23  1  0  0  0
  5  6  1  0  0  0
  5 24  1  0  0  0
  5 25  1  0  0  0
  6  7  1  0  0  0
  6 26  1  0  0  0
  6 27  1  0  0  0
  7 28  1  0  0  0
  7 29  1  0  0  0
  8 30  1  0  0  0
  8 31  1  0  0  0
  8 32  1  0  0  0
  9 10  1  0  0  0
  9 13  1  0  0  0
 10 11  2  0  0  0
 11 12  1  0  0  0
 12 13  2  0  0  0
 12 14  1  0  0  0
 13 33  1  0  0  0
 14 15  1  0  0  0
 14 19  2  0  0  0
 15 16  2  0  0  0
 15 21  1  0  0  0
 16 17  1  0  0  0
 16 34  1  0  0  0
 17 18  2  0  0  0
 17 20  1  0  0  0
 18 19  1  0  0  0
 18 35  1  0  0  0
 19 36  1  0  0  0
M  END
> <s_m_entry_id>
10269

> <s_m_entry_name>
dock_pv.305

> <s_m_Source_Path>
/home/csk/Desktop/cluster/DUD-E-result/aofb

> <s_m_Source_File>
dock_pv.maegz

> <i_m_Source_File_Index>
305

> <chembl_id>
CHEMBL3264954

> <chembl_pref_name>
None

> <i_lp_mmshare_version>
53161

> <i_f3d_flags>
0

> <r_lp_tautomer_probability>
1

> <s_lp_Force_Field>
OPLS_2005

> <r_lp_Energy>
28.365674

> <b_lp_Chiralities_Consistent>
1

> <s_lp_Variant>
CHEMBL2039_lig1238-2

> <s_i_glide_gridfile>
glide-grid_1s3b

> <i_i_glide_lignum>
1423

> <i_i_glide_rotatable_bonds>
3

> <r_i_docking_score>
-7.40954997426915

> <r_i_glide_ligand_efficiency>
-0.352835713060436

> <r_i_glide_ligand_efficiency_sa>
-0.973446978065215

> <r_i_glide_ligand_efficiency_ln>
-1.83199625873255

> <r_i_glide_gscore>
-7.40954997426915

> <r_i_glide_lipo>
-4.05703771672748

> <r_i_glide_hbond>
0

> <r_i_glide_metal>
0

> <r_i_glide_rewards>
-3.41432450365399

> <r_i_glide_evdw>
-14.2144966125488

> <r_i_glide_ecoul>
1.23675799369812

> <r_i_glide_erotb>
0.587023377685041

> <r_i_glide_esite>
0

> <r_i_glide_emodel>
-27.8535725488931

> <r_i_glide_energy>
-12.9777386188507

> <r_i_glide_einternal>
2.64286518096924

> <i_i_glide_confnum>
24

> <i_i_glide_posenum>
312

> <r_i_glide_eff_state_penalty>
0

> <s_user_duplicate_titles>
CHEMBL2039_lig1238

> <s_m_subgroup_title>
dock_pv

> <s_m_subgroupid>
dock_pv

> <b_m_subgroup_collapsed>
1

$$$$
CHEMBL2039_lig497
                    3D
 Schrodinger Suite 2021-1.
 30 32  0  0  1  0            999 V2000
   50.5494  158.3726   29.7040 C   0  0  0  0  0  0
   51.4290  159.4440   29.9520 C   0  0  0  0  0  0
   51.0607  160.4856   30.8151 C   0  0  0  0  0  0
   49.2559  158.4279   30.2327 C   0  0  0  0  0  0
   48.8908  159.4734   31.0704 C   0  0  0  0  0  0
   49.7937  160.4641   31.3995 C   0  0  0  0  0  0
   49.2560  161.2904   32.3786 N   0  0  0  0  0  0
   47.9968  160.9495   32.7047 C   0  0  0  0  0  0
   47.6464  159.7569   31.7645 C   0  0  0  0  0  0
   46.5448  159.2129   31.7040 O   0  0  0  0  0  0
   47.2652  161.4440   33.5593 O   0  0  0  0  0  0
   50.8910  157.1935   29.0711 O   0  0  0  0  0  0
   52.1058  157.0901   28.3289 C   0  0  0  0  0  0
   52.0560  155.8441   27.4476 C   0  0  0  0  0  0
   51.6265  154.6252   27.9830 C   0  0  0  0  0  0
   51.5856  153.4863   27.1817 C   0  0  0  0  0  0
   51.9800  153.5666   25.8472 C   0  0  0  0  0  0
   52.4113  154.7750   25.3040 C   0  0  0  0  0  0
   52.4560  155.9132   26.1067 C   0  0  0  0  0  0
   52.4371  159.4275   29.5662 H   0  0  0  0  0  0
   51.7777  161.2545   31.0645 H   0  0  0  0  0  0
   48.5725  157.6096   30.0620 H   0  0  0  0  0  0
   49.7846  162.0004   32.8656 H   0  0  0  0  0  0
   52.9676  157.0220   28.9910 H   0  0  0  0  0  0
   52.2412  157.9729   27.7040 H   0  0  0  0  0  0
   51.3302  154.5589   29.0204 H   0  0  0  0  0  0
   51.2562  152.5448   27.5968 H   0  0  0  0  0  0
   51.9647  152.6804   25.2311 H   0  0  0  0  0  0
   52.7201  154.8228   24.2705 H   0  0  0  0  0  0
   52.7975  156.8461   25.6848 H   0  0  0  0  0  0
  1  4  1  0  0  0
  1 12  1  0  0  0
  1  2  2  0  0  0
  2  3  1  0  0  0
  2 20  1  0  0  0
  3  6  2  0  0  0
  3 21  1  0  0  0
  4  5  2  0  0  0
  4 22  1  0  0  0
  5  9  1  0  0  0
  5  6  1  0  0  0
  6  7  1  0  0  0
  7  8  1  0  0  0
  7 23  1  0  0  0
  8 11  2  0  0  0
  8  9  1  0  0  0
  9 10  2  0  0  0
 12 13  1  0  0  0
 13 14  1  0  0  0
 13 24  1  0  0  0
 13 25  1  0  0  0
 14 15  2  0  0  0
 14 19  1  0  0  0
 15 16  1  0  0  0
 15 26  1  0  0  0
 16 17  2  0  0  0
 16 27  1  0  0  0
 17 18  1  0  0  0
 17 28  1  0  0  0
 18 19  2  0  0  0
 18 29  1  0  0  0
 19 30  1  0  0  0
M  END
> <s_m_entry_id>
10270

> <s_m_entry_name>
dock_pv.306

> <s_m_Source_Path>
/home/csk/Desktop/cluster/DUD-E-result/aofb

> <s_m_Source_File>
dock_pv.maegz

> <i_m_Source_File_Index>
306

> <chembl_id>
CHEMBL1642670

> <chembl_pref_name>
None

> <i_lp_mmshare_version>
53161

> <i_f3d_flags>
0

> <r_lp_tautomer_probability>
1

> <s_lp_Force_Field>
OPLS_2005

> <r_lp_Energy>
37.619616

> <b_lp_Chiralities_Consistent>
1

> <s_lp_Variant>
CHEMBL2039_lig497-1

> <s_i_glide_gridfile>
glide-grid_1s3b

> <i_i_glide_lignum>
596

> <i_i_glide_rotatable_bonds>
3

> <r_i_docking_score>
-7.39666003072958

> <r_i_glide_ligand_efficiency>
-0.389297896354188

> <r_i_glide_ligand_efficiency_sa>
-1.03880314745594

> <r_i_glide_ligand_efficiency_ln>
-1.87521218348082

> <r_i_glide_gscore>
-7.39666003072958

> <r_i_glide_lipo>
-3.15392505848258

> <r_i_glide_hbond>
-0.025083228762228

> <r_i_glide_metal>
0

> <r_i_glide_rewards>
-2.87227983766644

> <r_i_glide_evdw>
-35.0496940612793

> <r_i_glide_ecoul>
-2.76308679580688

> <r_i_glide_erotb>
0.82157581661667

> <r_i_glide_esite>
0

> <r_i_glide_emodel>
-49.5600723869784

> <r_i_glide_energy>
-37.8127808570862

> <r_i_glide_einternal>
0.66249692440033

> <i_i_glide_confnum>
32

> <i_i_glide_posenum>
385

> <r_i_glide_eff_state_penalty>
0

> <s_user_duplicate_titles>
CHEMBL2039_lig497

> <s_m_subgroup_title>
dock_pv

> <s_m_subgroupid>
dock_pv

> <b_m_subgroup_collapsed>
1

$$$$
CHEMBL2039_lig2032
                    3D
 Schrodinger Suite 2021-1.
 33 35  0  0  1  0            999 V2000
   50.4915  161.0443   31.3030 C   0  0  0  0  0  0
   49.3389  160.2869   31.5133 C   0  0  0  0  0  0
   49.1771  159.0427   30.9082 C   0  0  0  0  0  0
   51.4921  160.6446   30.3999 C   0  0  0  0  0  0
   51.3148  159.3984   29.7950 C   0  0  0  0  0  0
   50.2210  158.5675   30.1040 C   0  0  0  0  0  0
   50.4564  157.2990   29.6590 N   0  0  0  0  0  0
   51.5309  157.3813   28.9040 C   0  0  0  0  0  0
   52.0552  158.6388   28.9138 N   0  0  0  0  0  0
   52.0559  156.4368   28.0278 N   0  0  0  0  0  0
   51.5892  155.1747   27.8989 C   0  0  0  0  0  0
   52.0478  154.3774   26.6968 C   0  0  0  0  0  0
   50.8455  154.6439   28.7231 O   0  0  0  0  0  0
   52.5577  154.9894   25.5384 C   0  0  0  0  0  0
   53.0691  154.2026   24.5054 C   0  0  0  0  0  0
   53.0235  152.8169   24.5941 C   0  0  0  0  0  0
   52.4578  152.2017   25.7034 C   0  0  0  0  0  0
   51.9702  152.9786   26.7471 C   0  0  0  0  0  0
   52.6459  161.3376   30.1039 O   0  0  0  0  0  0
   53.1327  162.2434   31.0818 C   0  0  0  0  0  0
   50.5939  161.9633   31.8578 H   0  0  0  0  0  0
   48.5875  160.6508   32.1992 H   0  0  0  0  0  0
   48.3300  158.4167   31.1465 H   0  0  0  0  0  0
   52.8861  158.9128   28.4027 H   0  0  0  0  0  0
   52.8554  156.7043   27.4783 H   0  0  0  0  0  0
   52.6153  156.0643   25.4486 H   0  0  0  0  0  0
   53.5314  154.6441   23.6422 H   0  0  0  0  0  0
   53.4232  152.2149   23.7908 H   0  0  0  0  0  0
   52.4101  151.1233   25.7602 H   0  0  0  0  0  0
   51.5590  152.4786   27.6135 H   0  0  0  0  0  0
   54.0775  162.6436   30.7282 H   0  0  0  0  0  0
   52.4578  163.0822   31.2472 H   0  0  0  0  0  0
   53.3196  161.7406   32.0318 H   0  0  0  0  0  0
  1  2  2  0  0  0
  1  4  1  0  0  0
  1 21  1  0  0  0
  2  3  1  0  0  0
  2 22  1  0  0  0
  3  6  2  0  0  0
  3 23  1  0  0  0
  4  5  2  0  0  0
  4 19  1  0  0  0
  5  6  1  0  0  0
  5  9  1  0  0  0
  6  7  1  0  0  0
  7  8  2  0  0  0
  8  9  1  0  0  0
  8 10  1  0  0  0
  9 24  1  0  0  0
 10 11  1  0  0  0
 10 25  1  0  0  0
 11 12  1  0  0  0
 11 13  2  0  0  0
 12 14  2  0  0  0
 12 18  1  0  0  0
 14 15  1  0  0  0
 14 26  1  0  0  0
 15 16  2  0  0  0
 15 27  1  0  0  0
 16 17  1  0  0  0
 16 28  1  0  0  0
 17 18  2  0  0  0
 17 29  1  0  0  0
 18 30  1  0  0  0
 19 20  1  0  0  0
 20 31  1  0  0  0
 20 32  1  0  0  0
 20 33  1  0  0  0
M  END
> <s_m_entry_id>
10271

> <s_m_entry_name>
dock_pv.307

> <s_m_Source_Path>
/home/csk/Desktop/cluster/DUD-E-result/aofb

> <s_m_Source_File>
dock_pv.maegz

> <i_m_Source_File_Index>
307

> <chembl_id>
CHEMBL4128696

> <chembl_pref_name>
None

> <i_lp_mmshare_version>
53161

> <i_f3d_flags>
0

> <r_lp_tautomer_probability>
1

> <s_lp_Force_Field>
OPLS_2005

> <r_lp_Energy>
20.041799

> <b_lp_Chiralities_Consistent>
1

> <s_lp_Variant>
CHEMBL2039_lig2032-1

> <s_i_glide_gridfile>
glide-grid_1s3b

> <i_i_glide_lignum>
2367

> <i_i_glide_rotatable_bonds>
4

> <r_i_docking_score>
-7.39293173449857

> <r_i_glide_ligand_efficiency>
-0.369646586724928

> <r_i_glide_ligand_efficiency_sa>
-1.00337520591837

> <r_i_glide_ligand_efficiency_ln>
-1.85020697793723

> <r_i_glide_gscore>
-7.39293173449857

> <r_i_glide_lipo>
-2.95203007679524

> <r_i_glide_hbond>
-0.563720766438663

> <r_i_glide_metal>
0

> <r_i_glide_rewards>
-2.73520929614561

> <r_i_glide_evdw>
-22.0094738006592

> <r_i_glide_ecoul>
-5.05849361419678

> <r_i_glide_erotb>
0.748714495761442

> <r_i_glide_esite>
-0.0314383587180189

> <r_i_glide_emodel>
-32.969687993145

> <r_i_glide_energy>
-27.067967414856

> <r_i_glide_einternal>
2.24008631706238

> <i_i_glide_confnum>
1

> <i_i_glide_posenum>
197

> <r_i_glide_eff_state_penalty>
0

> <s_user_duplicate_titles>
CHEMBL2039_lig2032

> <s_m_subgroup_title>
dock_pv

> <s_m_subgroupid>
dock_pv

> <b_m_subgroup_collapsed>
1

$$$$
CHEMBL2039_lig1743
                    3D
 Schrodinger Suite 2021-1.
 29 31  0  0  1  0            999 V2000
   51.6576  156.6440   28.2492 C   0  0  0  0  0  0
   52.4420  156.3130   27.0577 C   0  0  0  0  0  0
   52.0560  154.9679   26.6486 C   0  0  0  0  0  0
   51.6560  157.9295   28.6950 C   0  0  0  0  0  0
   51.3930  154.3432   27.6864 C   0  0  0  0  0  0
   50.9607  155.3661   28.7104 C   0  0  0  0  0  0
   53.2508  157.0440   26.5040 O   0  0  0  0  0  0
   50.8560  158.6542   29.7040 C   0  0  0  0  0  0
   52.4560  154.2828   25.5004 C   0  0  0  0  0  0
   51.2560  152.9577   27.6396 C   0  0  0  0  0  0
   51.3673  159.8597   30.1998 C   0  0  0  0  0  0
   49.5834  158.2440   30.1040 C   0  0  0  0  0  0
   52.2544  152.9102   25.4339 C   0  0  0  0  0  0
   51.6560  152.2458   26.5040 C   0  0  0  0  0  0
   48.8210  159.0371   30.9607 C   0  0  0  0  0  0
   50.6214  160.6440   31.0764 C   0  0  0  0  0  0
   49.3429  160.2344   31.4438 C   0  0  0  0  0  0
   52.3157  158.6095   28.1766 H   0  0  0  0  0  0
   51.2563  155.0440   29.7040 H   0  0  0  0  0  0
   49.8757  155.4614   28.7160 H   0  0  0  0  0  0
   52.9935  154.7793   24.7052 H   0  0  0  0  0  0
   50.8271  152.4184   28.4692 H   0  0  0  0  0  0
   52.3556  160.1902   29.9156 H   0  0  0  0  0  0
   49.1717  157.3126   29.7532 H   0  0  0  0  0  0
   52.5859  152.3570   24.5673 H   0  0  0  0  0  0
   51.5207  151.1744   26.4677 H   0  0  0  0  0  0
   47.8338  158.7168   31.2600 H   0  0  0  0  0  0
   51.0355  161.5589   31.4744 H   0  0  0  0  0  0
   48.7596  160.8415   32.1205 H   0  0  0  0  0  0
  1  2  1  0  0  0
  1  4  2  0  0  0
  1  6  1  0  0  0
  2  3  1  0  0  0
  2  7  2  0  0  0
  3  9  2  0  0  0
  3  5  1  0  0  0
  4  8  1  0  0  0
  4 18  1  0  0  0
  5  6  1  0  0  0
  5 10  2  0  0  0
  6 19  1  0  0  0
  6 20  1  0  0  0
  8 11  2  0  0  0
  8 12  1  0  0  0
  9 13  1  0  0  0
  9 21  1  0  0  0
 10 14  1  0  0  0
 10 22  1  0  0  0
 11 16  1  0  0  0
 11 23  1  0  0  0
 12 15  2  0  0  0
 12 24  1  0  0  0
 13 14  2  0  0  0
 13 25  1  0  0  0
 14 26  1  0  0  0
 15 17  1  0  0  0
 15 27  1  0  0  0
 16 17  2  0  0  0
 16 28  1  0  0  0
 17 29  1  0  0  0
M  END
> <s_m_entry_id>
10272

> <s_m_entry_name>
dock_pv.308

> <s_m_Source_Path>
/home/csk/Desktop/cluster/DUD-E-result/aofb

> <s_m_Source_File>
dock_pv.maegz

> <i_m_Source_File_Index>
308

> <chembl_id>
CHEMBL28591

> <chembl_pref_name>
None

> <i_lp_mmshare_version>
53161

> <i_f3d_flags>
0

> <r_lp_tautomer_probability>
1

> <s_lp_Force_Field>
OPLS_2005

> <r_lp_Energy>
25.437712

> <b_lp_Chiralities_Consistent>
1

> <s_lp_Variant>
CHEMBL2039_lig1743-1

> <s_i_glide_gridfile>
glide-grid_1s3b

> <i_i_glide_lignum>
2031

> <i_i_glide_rotatable_bonds>
1

> <r_i_docking_score>
-7.39070481417447

> <r_i_glide_ligand_efficiency>
-0.434747342010263

> <r_i_glide_ligand_efficiency_sa>
-1.11785783604288

> <r_i_glide_ligand_efficiency_ln>
-1.92807030311384

> <r_i_glide_gscore>
-7.39070481417447

> <r_i_glide_lipo>
-3.46166576982657

> <r_i_glide_hbond>
0

> <r_i_glide_metal>
0

> <r_i_glide_rewards>
-2.8101415705358

> <r_i_glide_evdw>
-19.143030166626

> <r_i_glide_ecoul>
-1.0783064365387

> <r_i_glide_erotb>
0

> <r_i_glide_esite>
0

> <r_i_glide_emodel>
-22.5390310720263

> <r_i_glide_energy>
-20.2213366031647

> <r_i_glide_einternal>
0.373824179172516

> <i_i_glide_confnum>
1

> <i_i_glide_posenum>
67

> <r_i_glide_eff_state_penalty>
0

> <s_user_duplicate_titles>
CHEMBL2039_lig1743

> <s_m_subgroup_title>
dock_pv

> <s_m_subgroupid>
dock_pv

> <b_m_subgroup_collapsed>
1

$$$$
CHEMBL2039_lig2062
                    3D
 Schrodinger Suite 2021-1.
 26 27  0  0  1  0            999 V2000
   52.2929  155.6733   26.4759 C   0  0  0  0  0  0
   52.0571  156.6430   27.4495 C   0  0  0  0  0  0
   51.2838  156.3371   28.5725 C   0  0  0  0  0  0
   50.8761  155.0181   28.7741 C   0  0  0  0  0  0
   51.1722  154.0297   27.8343 C   0  0  0  0  0  0
   51.8382  154.3681   26.6596 C   0  0  0  0  0  0
   50.8491  157.2703   29.4939 O   0  0  0  0  0  0
   51.0294  158.6767   29.3048 C   0  0  0  0  0  0
   50.0602  159.4134   30.2291 C   0  0  0  0  0  0
   48.7165  159.0235   30.3132 C   0  0  0  0  0  0
   47.8505  159.6378   31.2163 C   0  0  0  0  0  0
   48.3219  160.6455   32.0537 C   0  0  0  0  0  0
   49.6559  161.0441   31.9752 C   0  0  0  0  0  0
   50.5182  160.4440   31.0565 C   0  0  0  0  0  0
   46.5587  159.2451   31.2894 F   0  0  0  0  0  0
   53.2560  156.1208   24.9041 Br  0  0  0  0  0  0
   52.4300  157.6443   27.3024 H   0  0  0  0  0  0
   50.3145  154.7618   29.6601 H   0  0  0  0  0  0
   50.8556  153.0112   28.0027 H   0  0  0  0  0  0
   52.0432  153.6134   25.9149 H   0  0  0  0  0  0
   50.8557  159.0304   28.2888 H   0  0  0  0  0  0
   52.0565  158.9332   29.5577 H   0  0  0  0  0  0
   48.3388  158.2191   29.7041 H   0  0  0  0  0  0
   47.6541  161.1139   32.7612 H   0  0  0  0  0  0
   50.0285  161.8235   32.6244 H   0  0  0  0  0  0
   51.5524  160.7566   31.0230 H   0  0  0  0  0  0
  1  2  1  0  0  0
  1  6  2  0  0  0
  1 16  1  0  0  0
  2  3  2  0  0  0
  2 17  1  0  0  0
  3  4  1  0  0  0
  3  7  1  0  0  0
  4  5  2  0  0  0
  4 18  1  0  0  0
  5  6  1  0  0  0
  5 19  1  0  0  0
  6 20  1  0  0  0
  7  8  1  0  0  0
  8  9  1  0  0  0
  8 21  1  0  0  0
  8 22  1  0  0  0
  9 10  1  0  0  0
  9 14  2  0  0  0
 10 11  2  0  0  0
 10 23  1  0  0  0
 11 12  1  0  0  0
 11 15  1  0  0  0
 12 13  2  0  0  0
 12 24  1  0  0  0
 13 14  1  0  0  0
 13 25  1  0  0  0
 14 26  1  0  0  0
M  END
> <s_m_entry_id>
10273

> <s_m_entry_name>
dock_pv.309

> <s_m_Source_Path>
/home/csk/Desktop/cluster/DUD-E-result/aofb

> <s_m_Source_File>
dock_pv.maegz

> <i_m_Source_File_Index>
309

> <chembl_id>
CHEMBL4169065

> <chembl_pref_name>
None

> <i_lp_mmshare_version>
53161

> <i_f3d_flags>
0

> <r_lp_tautomer_probability>
1

> <s_lp_Force_Field>
OPLS_2005

> <r_lp_Energy>
14.516879

> <b_lp_Chiralities_Consistent>
1

> <s_lp_Variant>
CHEMBL2039_lig2062-1

> <s_i_glide_gridfile>
glide-grid_1s3b

> <i_i_glide_lignum>
2400

> <i_i_glide_rotatable_bonds>
3

> <r_i_docking_score>
-7.39005335532505

> <r_i_glide_ligand_efficiency>
-0.461878334707816

> <r_i_glide_ligand_efficiency_sa>
-1.1638604717019

> <r_i_glide_ligand_efficiency_ln>
-1.95888126149558

> <r_i_glide_gscore>
-7.39005335532505

> <r_i_glide_lipo>
-3.75108331782711

> <r_i_glide_hbond>
0

> <r_i_glide_metal>
0

> <r_i_glide_rewards>
-2.84143189567247

> <r_i_glide_evdw>
-24.9250011444092

> <r_i_glide_ecoul>
-1.58201456069946

> <r_i_glide_erotb>
0.686014099499898

> <r_i_glide_esite>
0

> <r_i_glide_emodel>
-34.8690750192335

> <r_i_glide_energy>
-26.5070157051086

> <r_i_glide_einternal>
1.1708927154541

> <i_i_glide_confnum>
32

> <i_i_glide_posenum>
78

> <r_i_glide_eff_state_penalty>
0

> <s_user_duplicate_titles>
CHEMBL2039_lig2062

> <s_m_subgroup_title>
dock_pv

> <s_m_subgroupid>
dock_pv

> <b_m_subgroup_collapsed>
1

$$$$
CHEMBL2039_lig2014
                    3D
 Schrodinger Suite 2021-1.
 31 33  0  0  1  0            999 V2000
   52.8522  153.5203   24.6144 C   0  0  0  0  0  0
   52.4846  152.3396   25.2537 C   0  0  0  0  0  0
   51.8309  152.3848   26.4757 C   0  0  0  0  0  0
   52.6320  154.7525   25.2257 C   0  0  0  0  0  0
   52.0560  154.8055   26.5010 C   0  0  0  0  0  0
   51.6559  153.6077   27.1011 C   0  0  0  0  0  0
   51.1429  153.5649   28.3640 O   0  0  0  0  0  0
   50.9020  154.7426   28.9693 C   0  0  0  0  0  0
   51.2698  155.9709   28.5460 C   0  0  0  0  0  0
   52.0560  156.0630   27.3022 C   0  0  0  0  0  0
   52.6699  157.0440   26.9040 O   0  0  0  0  0  0
   50.8560  157.1243   29.3040 C   0  0  0  0  0  0
   51.0850  158.3685   29.1437 N   0  0  0  0  0  0
   50.3727  159.2404   30.0000 C   0  0  0  0  0  0
   48.9796  159.1038   30.2249 C   0  0  0  0  0  0
   48.3018  159.8700   31.1678 C   0  0  0  0  0  0
   48.9960  160.8293   31.8899 C   0  0  0  0  0  0
   50.3428  161.0441   31.6163 C   0  0  0  0  0  0
   51.0214  160.2997   30.6585 C   0  0  0  0  0  0
   52.3308  160.6354   30.4135 O   0  0  0  0  0  0
   46.6161  159.6181   31.4464 Cl  0  0  0  0  0  0
   53.6560  153.4439   22.9040 Br  0  0  0  0  0  0
   52.6636  151.3893   24.7719 H   0  0  0  0  0  0
   51.5004  151.4733   26.9481 H   0  0  0  0  0  0
   52.9738  155.6534   24.7343 H   0  0  0  0  0  0
   50.3583  154.5687   29.8884 H   0  0  0  0  0  0
   50.2000  156.8008   30.1040 H   0  0  0  0  0  0
   48.4160  158.3460   29.7040 H   0  0  0  0  0  0
   48.4879  161.4359   32.6250 H   0  0  0  0  0  0
   50.8560  161.8540   32.1040 H   0  0  0  0  0  0
   52.6756  161.2702   31.0454 H   0  0  0  0  0  0
  1  2  2  0  0  0
  1  4  1  0  0  0
  1 22  1  0  0  0
  2  3  1  0  0  0
  2 23  1  0  0  0
  3  6  2  0  0  0
  3 24  1  0  0  0
  4  5  2  0  0  0
  4 25  1  0  0  0
  5  6  1  0  0  0
  5 10  1  0  0  0
  6  7  1  0  0  0
  7  8  1  0  0  0
  8  9  2  0  0  0
  8 26  1  0  0  0
  9 10  1  0  0  0
  9 12  1  0  0  0
 10 11  2  0  0  0
 12 13  2  0  0  0
 12 27  1  0  0  0
 13 14  1  0  0  0
 14 15  2  0  0  0
 14 19  1  0  0  0
 15 16  1  0  0  0
 15 28  1  0  0  0
 16 17  2  0  0  0
 16 21  1  0  0  0
 17 18  1  0  0  0
 17 29  1  0  0  0
 18 19  2  0  0  0
 18 30  1  0  0  0
 19 20  1  0  0  0
 20 31  1  0  0  0
M  END
> <s_m_entry_id>
10274

> <s_m_entry_name>
dock_pv.310

> <s_m_Source_Path>
/home/csk/Desktop/cluster/DUD-E-result/aofb

> <s_m_Source_File>
dock_pv.maegz

> <i_m_Source_File_Index>
310

> <chembl_id>
CHEMBL4105152

> <chembl_pref_name>
None

> <i_lp_mmshare_version>
53161

> <i_f3d_flags>
0

> <r_lp_tautomer_probability>
1

> <s_lp_Force_Field>
OPLS_2005

> <r_lp_Energy>
17.902931

> <b_lp_Chiralities_Consistent>
1

> <s_lp_Variant>
CHEMBL2039_lig2014-1

> <s_i_glide_gridfile>
glide-grid_1s3b

> <i_i_glide_lignum>
2349

> <i_i_glide_rotatable_bonds>
3

> <r_i_docking_score>
-7.38914667069123

> <r_i_glide_ligand_efficiency>
-0.335870303213238

> <r_i_glide_ligand_efficiency_sa>
-0.94112179863296

> <r_i_glide_ligand_efficiency_ln>
-1.80617697199048

> <r_i_glide_gscore>
-7.38914667069123

> <r_i_glide_lipo>
-4.34190248323501

> <r_i_glide_hbond>
-0.00114796340349318

> <r_i_glide_metal>
0

> <r_i_glide_rewards>
-1.99336328959435

> <r_i_glide_evdw>
-26.9689903259277

> <r_i_glide_ecoul>
0.168663740158081

> <r_i_glide_erotb>
0.270417020814303

> <r_i_glide_esite>
0

> <r_i_glide_emodel>
-27.4090385700467

> <r_i_glide_energy>
-26.8003265857697

> <r_i_glide_einternal>
3.07080626487732

> <i_i_glide_confnum>
2

> <i_i_glide_posenum>
8

> <r_i_glide_eff_state_penalty>
0

> <s_user_duplicate_titles>
CHEMBL2039_lig2014

> <s_m_subgroup_title>
dock_pv

> <s_m_subgroupid>
dock_pv

> <b_m_subgroup_collapsed>
1

$$$$
CHEMBL2039_lig338
                    3D
 Schrodinger Suite 2021-1.
 32 34  0  0  1  0            999 V2000
   47.3940  159.9163   31.8426 C   0  0  0  0  0  0
   48.2135  160.9459   32.3008 C   0  0  0  0  0  0
   49.5302  161.0440   31.8472 C   0  0  0  0  0  0
   47.9026  158.9577   30.9719 C   0  0  0  0  0  0
   49.2211  159.0547   30.5332 C   0  0  0  0  0  0
   50.0306  160.1338   30.9084 C   0  0  0  0  0  0
   51.4199  160.2184   30.3924 C   0  0  0  0  0  0
   51.7453  159.1847   29.3040 C   0  0  0  0  0  0
   51.0545  157.8439   29.5610 C   0  0  1  0  0  0
   49.6560  158.0450   29.7040 O   0  0  0  0  0  0
   51.4305  156.6741   28.6248 C   0  0  0  0  0  0
   52.3047  156.8462   27.5429 C   0  0  0  0  0  0
   51.8420  154.5961   26.8058 C   0  0  0  0  0  0
   51.0848  154.3729   27.9557 C   0  0  0  0  0  0
   52.4560  155.8339   26.6017 C   0  0  0  0  0  0
   50.8560  155.4179   28.8471 C   0  0  0  0  0  0
   52.2340  161.0400   30.8110 O   0  0  0  0  0  0
   46.1075  159.8440   32.2456 F   0  0  0  0  0  0
   52.0392  153.4836   25.7925 C   0  0  0  0  0  0
   47.8236  161.6734   32.9966 H   0  0  0  0  0  0
   50.1516  161.8513   32.2108 H   0  0  0  0  0  0
   47.2773  158.1430   30.6407 H   0  0  0  0  0  0
   52.8233  159.0440   29.2363 H   0  0  0  0  0  0
   51.2653  159.4440   28.3721 H   0  0  0  0  0  0
   51.2560  157.4442   30.5040 H   0  0  0  0  0  0
   52.7933  157.7917   27.3633 H   0  0  0  0  0  0
   50.6282  153.4103   28.1301 H   0  0  0  0  0  0
   53.0772  155.9975   25.7334 H   0  0  0  0  0  0
   50.2096  155.2557   29.6976 H   0  0  0  0  0  0
   51.6322  153.7784   24.8252 H   0  0  0  0  0  0
   51.5629  152.5531   26.1040 H   0  0  0  0  0  0
   53.1035  153.2895   25.6536 H   0  0  0  0  0  0
  1  2  2  0  0  0
  1  4  1  0  0  0
  1 18  1  0  0  0
  2  3  1  0  0  0
  2 20  1  0  0  0
  3  6  2  0  0  0
  3 21  1  0  0  0
  4  5  2  0  0  0
  4 22  1  0  0  0
  5  6  1  0  0  0
  5 10  1  0  0  0
  6  7  1  0  0  0
  7  8  1  0  0  0
  7 17  2  0  0  0
  8  9  1  0  0  0
  8 23  1  0  0  0
  8 24  1  0  0  0
  9 10  1  0  0  0
  9 11  1  0  0  0
  9 25  1  0  0  0
 11 12  2  0  0  0
 11 16  1  0  0  0
 12 15  1  0  0  0
 12 26  1  0  0  0
 13 14  1  0  0  0
 13 15  2  0  0  0
 13 19  1  0  0  0
 14 16  2  0  0  0
 14 27  1  0  0  0
 15 28  1  0  0  0
 16 29  1  0  0  0
 19 30  1  0  0  0
 19 31  1  0  0  0
 19 32  1  0  0  0
M  END
> <s_m_entry_id>
10275

> <s_m_entry_name>
dock_pv.311

> <s_m_Source_Path>
/home/csk/Desktop/cluster/DUD-E-result/aofb

> <s_m_Source_File>
dock_pv.maegz

> <i_m_Source_File_Index>
311

> <chembl_id>
CHEMBL598151

> <chembl_pref_name>
None

> <i_lp_mmshare_version>
53161

> <i_f3d_flags>
0

> <r_lp_tautomer_probability>
0.99995

> <s_lp_Force_Field>
OPLS_2005

> <r_lp_Energy>
18.803103

> <b_lp_Chiralities_Consistent>
1

> <s_lp_Variant>
CHEMBL2039_lig338-1

> <s_i_glide_gridfile>
glide-grid_1s3b

> <i_i_glide_lignum>
390

> <i_i_glide_rotatable_bonds>
1

> <r_i_docking_score>
-7.37081219182159

> <r_i_glide_ligand_efficiency>
-0.387937483780084

> <r_i_glide_ligand_efficiency_sa>
-1.03517302030382

> <r_i_glide_ligand_efficiency_ln>
-1.86865920115697

> <r_i_glide_gscore>
-7.37081219182159

> <r_i_glide_lipo>
-3.71318951731205

> <r_i_glide_hbond>
0

> <r_i_glide_metal>
0

> <r_i_glide_rewards>
-3.00970136078273

> <r_i_glide_evdw>
-16.4553089141846

> <r_i_glide_ecoul>
-0.623301327228546

> <r_i_glide_erotb>
0.268339331066704

> <r_i_glide_esite>
0

> <r_i_glide_emodel>
-18.2005597105839

> <r_i_glide_energy>
-17.0786102414131

> <r_i_glide_einternal>
1.65258502960205

> <i_i_glide_confnum>
1

> <i_i_glide_posenum>
203

> <r_i_glide_eff_state_penalty>
0

> <s_user_duplicate_titles>
CHEMBL2039_lig338,CHEMBL2039_lig362,601784

> <s_m_subgroup_title>
dock_pv

> <s_m_subgroupid>
dock_pv

> <b_m_subgroup_collapsed>
1

$$$$
CHEMBL2039_lig1029
                    3D
 Schrodinger Suite 2021-1.
 34 36  0  0  1  0            999 V2000
   47.4786  160.1441   31.8250 C   0  0  0  0  0  0
   47.1109  158.9776   31.1631 C   0  0  0  0  0  0
   48.0801  158.2317   30.5013 C   0  0  0  0  0  0
   49.4172  158.6366   30.4699 C   0  0  0  0  0  0
   49.7552  159.8446   31.1107 C   0  0  0  0  0  0
   48.8003  160.5808   31.8032 C   0  0  0  0  0  0
   50.4557  157.8861   29.7007 C   0  0  0  0  0  0
   51.4793  158.4662   29.2258 N   0  0  0  0  0  0
   52.1848  157.6163   28.3688 N   0  0  2  0  0  0
   51.7836  156.2399   28.5789 C   0  0  1  0  0  0
   50.4576  156.3751   29.3040 C   0  0  0  0  0  0
   51.8548  155.3110   27.3657 C   0  0  0  0  0  0
   51.6281  153.9446   27.5562 C   0  0  0  0  0  0
   51.8576  153.0420   26.5206 C   0  0  0  0  0  0
   52.3346  153.5091   25.2991 C   0  0  0  0  0  0
   52.4604  154.8714   25.0650 C   0  0  0  0  0  0
   52.2293  155.7744   26.0943 C   0  0  0  0  0  0
   53.6218  157.8409   28.4113 C   0  0  0  0  0  0
   52.7017  152.6402   24.3366 F   0  0  0  0  0  0
   46.7296  160.7170   32.3525 H   0  0  0  0  0  0
   46.0765  158.6663   31.1565 H   0  0  0  0  0  0
   47.7717  157.3386   29.9793 H   0  0  0  0  0  0
   50.7727  160.2076   31.0919 H   0  0  0  0  0  0
   49.0804  161.4901   32.3132 H   0  0  0  0  0  0
   52.4984  155.8079   29.2983 H   0  0  0  0  0  0
   49.6563  156.0113   28.6698 H   0  0  0  0  0  0
   50.4531  155.6592   30.1040 H   0  0  0  0  0  0
   51.3295  153.5824   28.5293 H   0  0  0  0  0  0
   51.7281  151.9844   26.6844 H   0  0  0  0  0  0
   52.7953  155.2180   24.1054 H   0  0  0  0  0  0
   52.3902  156.8239   25.9027 H   0  0  0  0  0  0
   54.1065  157.0445   28.9517 H   0  0  0  0  0  0
   54.0411  157.8442   27.4042 H   0  0  0  0  0  0
   53.8980  158.7671   28.9048 H   0  0  0  0  0  0
  1  2  2  0  0  0
  1  6  1  0  0  0
  1 20  1  0  0  0
  2  3  1  0  0  0
  2 21  1  0  0  0
  3  4  2  0  0  0
  3 22  1  0  0  0
  4  5  1  0  0  0
  4  7  1  0  0  0
  5  6  2  0  0  0
  5 23  1  0  0  0
  6 24  1  0  0  0
  7  8  2  0  0  0
  7 11  1  0  0  0
  8  9  1  0  0  0
  9 10  1  0  0  0
  9 18  1  0  0  0
 10 11  1  0  0  0
 10 12  1  0  0  0
 10 25  1  0  0  0
 11 26  1  0  0  0
 11 27  1  0  0  0
 12 13  2  0  0  0
 12 17  1  0  0  0
 13 14  1  0  0  0
 13 28  1  0  0  0
 14 15  2  0  0  0
 14 29  1  0  0  0
 15 16  1  0  0  0
 15 19  1  0  0  0
 16 17  2  0  0  0
 16 30  1  0  0  0
 17 31  1  0  0  0
 18 32  1  0  0  0
 18 33  1  0  0  0
 18 34  1  0  0  0
M  END
> <s_m_entry_id>
10277

> <s_m_entry_name>
dock_pv.313

> <s_m_Source_Path>
/home/csk/Desktop/cluster/DUD-E-result/aofb

> <s_m_Source_File>
dock_pv.maegz

> <i_m_Source_File_Index>
313

> <chembl_id>
CHEMBL2417759

> <chembl_pref_name>
None

> <i_lp_mmshare_version>
53161

> <i_f3d_flags>
0

> <r_lp_tautomer_probability>
1

> <s_lp_Force_Field>
OPLS_2005

> <r_lp_Energy>
23.407681

> <b_lp_Chiralities_Consistent>
1

> <s_lp_Variant>
CHEMBL2039_lig1029-2

> <s_i_glide_gridfile>
glide-grid_1s3b

> <i_i_glide_lignum>
1199

> <i_i_glide_rotatable_bonds>
2

> <r_i_docking_score>
-7.36862718138976

> <r_i_glide_ligand_efficiency>
-0.38782248323104

> <r_i_glide_ligand_efficiency_sa>
-1.03486615264945

> <r_i_glide_ligand_efficiency_ln>
-1.86810525408278

> <r_i_glide_gscore>
-7.36862718138976

> <r_i_glide_lipo>
-3.73557537075059

> <r_i_glide_hbond>
0

> <r_i_glide_metal>
0

> <r_i_glide_rewards>
-3.34309743628106

> <r_i_glide_evdw>
-20.5074615478516

> <r_i_glide_ecoul>
1.27718091011047

> <r_i_glide_erotb>
0.543841566517889

> <r_i_glide_esite>
0

> <r_i_glide_emodel>
-23.195027951641

> <r_i_glide_energy>
-19.2302806377411

> <r_i_glide_einternal>
2.90145635604858

> <i_i_glide_confnum>
4

> <i_i_glide_posenum>
322

> <r_i_glide_eff_state_penalty>
0

> <s_user_duplicate_titles>
CHEMBL2039_lig1029

> <s_m_subgroup_title>
dock_pv

> <s_m_subgroupid>
dock_pv

> <b_m_subgroup_collapsed>
1

$$$$
CHEMBL2039_lig1507
                    3D
 Schrodinger Suite 2021-1.
 35 37  0  0  1  0            999 V2000
   53.2050  153.8440   23.8828 N   0  0  0  0  0  0
   52.6927  154.2006   24.8577 C   0  0  0  0  0  0
   52.0564  154.6186   26.0978 C   0  0  0  0  0  0
   51.3923  153.6477   26.8362 C   0  0  0  0  0  0
   50.9317  153.9556   28.1040 C   0  0  0  0  0  0
   51.1015  155.2243   28.6496 C   0  0  0  0  0  0
   51.7604  156.2197   27.9209 C   0  0  0  0  0  0
   51.9991  157.6232   28.4963 C   0  0  0  0  0  0
   51.0259  158.0799   29.4992 N   0  0  2  0  0  0
   51.4142  159.3561   30.1040 C   0  0  1  0  0  0
   50.7983  160.6566   29.7040 C   0  0  0  0  0  0
   50.4393  160.0883   31.0346 C   0  0  1  0  0  0
   48.9603  159.8256   31.2656 C   0  0  0  0  0  0
   48.1571  159.2064   30.3011 C   0  0  0  0  0  0
   46.7884  159.0938   30.5040 C   0  0  0  0  0  0
   46.2255  159.6182   31.6607 C   0  0  0  0  0  0
   47.0160  160.2440   32.6181 C   0  0  0  0  0  0
   48.3865  160.3335   32.4306 C   0  0  0  0  0  0
   52.2308  155.9064   26.6315 C   0  0  0  0  0  0
   51.2681  152.6401   26.4623 H   0  0  0  0  0  0
   50.4565  153.1792   28.6658 H   0  0  0  0  0  0
   50.7327  155.4139   29.6459 H   0  0  0  0  0  0
   53.0017  157.5978   28.9184 H   0  0  0  0  0  0
   52.0560  158.3168   27.6718 H   0  0  0  0  0  0
   50.9457  157.3966   30.2363 H   0  0  0  0  0  0
   52.4560  159.4440   30.3763 H   0  0  0  0  0  0
   51.4151  161.5543   29.7040 H   0  0  0  0  0  0
   50.0560  160.6478   28.9040 H   0  0  0  0  0  0
   50.9266  160.5598   31.8905 H   0  0  0  0  0  0
   48.5784  158.8486   29.3760 H   0  0  0  0  0  0
   46.1593  158.6432   29.7516 H   0  0  0  0  0  0
   45.1613  159.5532   31.8113 H   0  0  0  0  0  0
   46.5686  160.6772   33.4975 H   0  0  0  0  0  0
   48.9914  160.8383   33.1701 H   0  0  0  0  0  0
   52.7745  156.6531   26.0700 H   0  0  0  0  0  0
  1  2  3  0  0  0
  2  3  1  0  0  0
  3  4  2  0  0  0
  3 19  1  0  0  0
  4  5  1  0  0  0
  4 20  1  0  0  0
  5  6  2  0  0  0
  5 21  1  0  0  0
  6  7  1  0  0  0
  6 22  1  0  0  0
  7  8  1  0  0  0
  7 19  2  0  0  0
  8  9  1  0  0  0
  8 23  1  0  0  0
  8 24  1  0  0  0
  9 10  1  0  0  0
  9 25  1  0  0  0
 10 11  1  0  0  0
 10 12  1  0  0  0
 10 26  1  0  0  0
 11 12  1  0  0  0
 11 27  1  0  0  0
 11 28  1  0  0  0
 12 13  1  0  0  0
 12 29  1  0  0  0
 13 14  2  0  0  0
 13 18  1  0  0  0
 14 15  1  0  0  0
 14 30  1  0  0  0
 15 16  2  0  0  0
 15 31  1  0  0  0
 16 17  1  0  0  0
 16 32  1  0  0  0
 17 18  2  0  0  0
 17 33  1  0  0  0
 18 34  1  0  0  0
 19 35  1  0  0  0
M  END
> <s_m_entry_id>
10278

> <s_m_entry_name>
dock_pv.314

> <s_m_Source_Path>
/home/csk/Desktop/cluster/DUD-E-result/aofb

> <s_m_Source_File>
dock_pv.maegz

> <i_m_Source_File_Index>
314

> <chembl_id>
CHEMBL3651118

> <chembl_pref_name>
None

> <i_lp_mmshare_version>
53161

> <i_f3d_flags>
0

> <r_lp_tautomer_probability>
1

> <s_lp_Force_Field>
OPLS_2005

> <r_lp_Energy>
23.295326

> <b_lp_Chiralities_Consistent>
1

> <s_lp_Variant>
CHEMBL2039_lig1507-1

> <s_i_glide_gridfile>
glide-grid_1s3b

> <i_i_glide_lignum>
1737

> <i_i_glide_rotatable_bonds>
4

> <r_i_docking_score>
-7.36515754325829

> <r_i_glide_ligand_efficiency>
-0.387639870697805

> <r_i_glide_ligand_efficiency_sa>
-1.03437886906516

> <r_i_glide_ligand_efficiency_ln>
-1.86722562629546

> <r_i_glide_gscore>
-7.36515754325829

> <r_i_glide_lipo>
-4.39862574099461

> <r_i_glide_hbond>
0

> <r_i_glide_metal>
0

> <r_i_glide_rewards>
-2.62577484472666

> <r_i_glide_evdw>
-29.8512306213379

> <r_i_glide_ecoul>
0.12538044154644

> <r_i_glide_erotb>
1.13299750729791

> <r_i_glide_esite>
0

> <r_i_glide_emodel>
-33.3250789257218

> <r_i_glide_energy>
-29.7258501797915

> <r_i_glide_einternal>
4.55745935440063

> <i_i_glide_confnum>
20

> <i_i_glide_posenum>
34

> <r_i_glide_eff_state_penalty>
0

> <s_user_duplicate_titles>
CHEMBL2039_lig1507

> <s_m_subgroup_title>
dock_pv

> <s_m_subgroupid>
dock_pv

> <b_m_subgroup_collapsed>
1

$$$$
CHEMBL2039_lig606
                    3D
 Schrodinger Suite 2021-1.
 30 31  0  0  1  0            999 V2000
   51.1825  155.3474   28.5040 C   0  0  0  0  0  0
   50.4560  156.3316   29.2728 C   0  0  0  0  0  0
   50.8147  157.6357   29.3814 C   0  0  0  0  0  0
   51.6560  155.8248   27.3371 N   0  0  0  0  0  0
   50.0560  158.6821   30.1040 C   0  0  0  0  0  0
   48.7220  158.5039   30.5039 C   0  0  0  0  0  0
   48.0814  159.4628   31.2835 C   0  0  0  0  0  0
   48.7803  160.5951   31.6901 C   0  0  0  0  0  0
   50.1045  160.7834   31.3040 C   0  0  0  0  0  0
   50.7321  159.8440   30.4927 C   0  0  0  0  0  0
   52.2477  155.1517   26.2696 C   0  0  0  0  0  0
   53.0378  155.9625   25.4597 C   0  0  0  0  0  0
   53.8616  155.3914   24.5040 C   0  0  0  0  0  0
   53.8282  154.0199   24.2805 C   0  0  0  0  0  0
   53.0248  153.1997   25.0649 C   0  0  0  0  0  0
   52.1887  153.7617   26.0390 C   0  0  0  0  0  0
   51.2560  154.1766   28.8626 O   0  0  0  0  0  0
   53.2560  151.3182   24.9040 Br  0  0  0  0  0  0
   49.5731  155.9364   29.7474 H   0  0  0  0  0  0
   51.7207  157.9803   28.8984 H   0  0  0  0  0  0
   51.6162  156.8245   27.2264 H   0  0  0  0  0  0
   48.1740  157.6184   30.2200 H   0  0  0  0  0  0
   47.0550  159.3190   31.5882 H   0  0  0  0  0  0
   48.2953  161.3297   32.3162 H   0  0  0  0  0  0
   50.6487  161.6509   31.6494 H   0  0  0  0  0  0
   51.7688  159.9916   30.2235 H   0  0  0  0  0  0
   53.0925  157.0277   25.6283 H   0  0  0  0  0  0
   54.5168  156.0165   23.9154 H   0  0  0  0  0  0
   54.4560  153.5795   23.5242 H   0  0  0  0  0  0
   51.6020  153.1115   26.6698 H   0  0  0  0  0  0
  1  2  1  0  0  0
  1  4  1  0  0  0
  1 17  2  0  0  0
  2  3  2  0  0  0
  2 19  1  0  0  0
  3  5  1  0  0  0
  3 20  1  0  0  0
  4 11  1  0  0  0
  4 21  1  0  0  0
  5  6  1  0  0  0
  5 10  2  0  0  0
  6  7  2  0  0  0
  6 22  1  0  0  0
  7  8  1  0  0  0
  7 23  1  0  0  0
  8  9  2  0  0  0
  8 24  1  0  0  0
  9 10  1  0  0  0
  9 25  1  0  0  0
 10 26  1  0  0  0
 11 12  1  0  0  0
 11 16  2  0  0  0
 12 13  2  0  0  0
 12 27  1  0  0  0
 13 14  1  0  0  0
 13 28  1  0  0  0
 14 15  2  0  0  0
 14 29  1  0  0  0
 15 16  1  0  0  0
 15 18  1  0  0  0
 16 30  1  0  0  0
M  END
> <s_m_entry_id>
10279

> <s_m_entry_name>
dock_pv.315

> <s_m_Source_Path>
/home/csk/Desktop/cluster/DUD-E-result/aofb

> <s_m_Source_File>
dock_pv.maegz

> <i_m_Source_File_Index>
315

> <chembl_id>
CHEMBL1830132

> <chembl_pref_name>
None

> <i_lp_mmshare_version>
53161

> <i_f3d_flags>
0

> <r_lp_tautomer_probability>
1

> <s_lp_Force_Field>
OPLS_2005

> <r_lp_Energy>
17.496682

> <b_lp_Chiralities_Consistent>
1

> <s_lp_Variant>
CHEMBL2039_lig606-1

> <s_i_glide_gridfile>
glide-grid_1s3b

> <i_i_glide_lignum>
715

> <i_i_glide_rotatable_bonds>
4

> <r_i_docking_score>
-7.36063049573732

> <r_i_glide_ligand_efficiency>
-0.408923916429851

> <r_i_glide_ligand_efficiency_sa>
-1.07168383383721

> <r_i_glide_ligand_efficiency_ln>
-1.8920121144715

> <r_i_glide_gscore>
-7.36063049573732

> <r_i_glide_lipo>
-3.7549796257352

> <r_i_glide_hbond>
0

> <r_i_glide_metal>
0

> <r_i_glide_rewards>
-2.6953013772309

> <r_i_glide_evdw>
-30.7474212646484

> <r_i_glide_ecoul>
1.49198961257935

> <r_i_glide_erotb>
0.403223128574299

> <r_i_glide_esite>
0

> <r_i_glide_emodel>
-38.7302758939437

> <r_i_glide_energy>
-29.2554316520691

> <r_i_glide_einternal>
2.98217105865479

> <i_i_glide_confnum>
2

> <i_i_glide_posenum>
219

> <r_i_glide_eff_state_penalty>
0

> <s_user_duplicate_titles>
CHEMBL2039_lig606

> <s_m_subgroup_title>
dock_pv

> <s_m_subgroupid>
dock_pv

> <b_m_subgroup_collapsed>
1

$$$$
CHEMBL2039_lig1742
                    3D
 Schrodinger Suite 2021-1.
 39 41  0  0  1  0            999 V2000
   52.4547  156.3158   27.0624 C   0  0  0  0  0  0
   51.6737  156.6503   28.2521 C   0  0  0  0  0  0
   50.9850  155.3682   28.7106 C   0  0  0  0  0  0
   51.4183  154.3533   27.7039 C   0  0  0  0  0  0
   51.2560  152.9791   27.6751 C   0  0  0  0  0  0
   51.5979  152.2616   26.5348 C   0  0  0  0  0  0
   52.2132  152.8954   25.4552 C   0  0  0  0  0  0
   52.4560  154.2646   25.5140 C   0  0  0  0  0  0
   52.0625  154.9688   26.6547 C   0  0  0  0  0  0
   53.2560  157.0440   26.5040 O   0  0  0  0  0  0
   51.6384  157.9345   28.7081 C   0  0  0  0  0  0
   50.7388  158.5672   29.7040 C   0  0  0  0  0  0
   51.0104  159.8440   30.2206 C   0  0  0  0  0  0
   50.1605  160.4109   31.1769 C   0  0  0  0  0  0
   49.0103  159.7192   31.5911 C   0  0  0  0  0  0
   48.6861  158.5164   30.9867 C   0  0  0  0  0  0
   49.5646  157.9336   30.1040 C   0  0  0  0  0  0
   51.2560  150.9412   26.4967 O   0  0  0  0  0  0
   48.1077  160.1487   32.7425 C   0  0  0  0  0  0
   46.6563  160.3413   32.2785 C   0  0  0  0  0  0
   48.5970  161.3647   33.5224 C   0  0  0  0  0  0
   51.2560  155.0441   29.7109 H   0  0  0  0  0  0
   49.9006  155.4104   28.6534 H   0  0  0  0  0  0
   50.8052  152.4587   28.5040 H   0  0  0  0  0  0
   52.5012  152.3370   24.5769 H   0  0  0  0  0  0
   52.9935  154.7466   24.7100 H   0  0  0  0  0  0
   52.2973  158.6440   28.2332 H   0  0  0  0  0  0
   51.9042  160.3730   29.9247 H   0  0  0  0  0  0
   50.4290  161.3618   31.6127 H   0  0  0  0  0  0
   47.8052  157.9653   31.2803 H   0  0  0  0  0  0
   49.2787  156.9725   29.7314 H   0  0  0  0  0  0
   51.5867  150.4969   25.7151 H   0  0  0  0  0  0
   48.1146  159.3183   33.4522 H   0  0  0  0  0  0
   46.1901  159.4107   31.9560 H   0  0  0  0  0  0
   46.6053  161.0426   31.4441 H   0  0  0  0  0  0
   46.0560  160.7321   33.0948 H   0  0  0  0  0  0
   49.6499  161.3008   33.7945 H   0  0  0  0  0  0
   48.4560  162.2440   32.9040 H   0  0  0  0  0  0
   48.0247  161.4636   34.4447 H   0  0  0  0  0  0
  1  2  1  0  0  0
  1  9  1  0  0  0
  1 10  2  0  0  0
  2  3  1  0  0  0
  2 11  2  0  0  0
  3  4  1  0  0  0
  3 22  1  0  0  0
  3 23  1  0  0  0
  4  5  1  0  0  0
  4  9  2  0  0  0
  5  6  2  0  0  0
  5 24  1  0  0  0
  6  7  1  0  0  0
  6 18  1  0  0  0
  7  8  2  0  0  0
  7 25  1  0  0  0
  8  9  1  0  0  0
  8 26  1  0  0  0
 11 12  1  0  0  0
 11 27  1  0  0  0
 12 13  1  0  0  0
 12 17  2  0  0  0
 13 14  2  0  0  0
 13 28  1  0  0  0
 14 15  1  0  0  0
 14 29  1  0  0  0
 15 16  2  0  0  0
 15 19  1  0  0  0
 16 17  1  0  0  0
 16 30  1  0  0  0
 17 31  1  0  0  0
 18 32  1  0  0  0
 19 20  1  0  0  0
 19 21  1  0  0  0
 19 33  1  0  0  0
 20 34  1  0  0  0
 20 35  1  0  0  0
 20 36  1  0  0  0
 21 37  1  0  0  0
 21 38  1  0  0  0
 21 39  1  0  0  0
M  END
> <s_m_entry_id>
10281

> <s_m_entry_name>
dock_pv.317

> <s_m_Source_Path>
/home/csk/Desktop/cluster/DUD-E-result/aofb

> <s_m_Source_File>
dock_pv.maegz

> <i_m_Source_File_Index>
317

> <chembl_id>
CHEMBL3909535

> <chembl_pref_name>
None

> <i_lp_mmshare_version>
53161

> <i_f3d_flags>
0

> <r_lp_tautomer_probability>
1

> <s_lp_Force_Field>
OPLS_2005

> <r_lp_Energy>
25.287957

> <b_lp_Chiralities_Consistent>
1

> <s_lp_Variant>
CHEMBL2039_lig1742-1

> <s_i_glide_gridfile>
glide-grid_1s3b

> <i_i_glide_lignum>
2030

> <i_i_glide_rotatable_bonds>
3

> <r_i_docking_score>
-7.35918228714493

> <r_i_glide_ligand_efficiency>
-0.350437251768806

> <r_i_glide_ligand_efficiency_sa>
-0.966829805228339

> <r_i_glide_ligand_efficiency_ln>
-1.81954294986858

> <r_i_glide_gscore>
-7.35918228714493

> <r_i_glide_lipo>
-4.33226561270064

> <r_i_glide_hbond>
0

> <r_i_glide_metal>
0

> <r_i_glide_rewards>
-2.52094363691645

> <r_i_glide_evdw>
-17.137149810791

> <r_i_glide_ecoul>
0.788259863853455

> <r_i_glide_erotb>
0.232645473433689

> <r_i_glide_esite>
0

> <r_i_glide_emodel>
-22.9194143593102

> <r_i_glide_energy>
-16.3488899469376

> <r_i_glide_einternal>
2.39788770675659

> <i_i_glide_confnum>
3

> <i_i_glide_posenum>
19

> <r_i_glide_eff_state_penalty>
0

> <s_user_duplicate_titles>
CHEMBL2039_lig1742

> <s_m_subgroup_title>
dock_pv

> <s_m_subgroupid>
dock_pv

> <b_m_subgroup_collapsed>
1

$$$$
CHEMBL2039_lig236
                    3D
 Schrodinger Suite 2021-1.
 34 36  0  0  1  0            999 V2000
   52.4181  155.4462   26.2971 C   0  0  0  0  0  0
   52.6593  153.1653   25.4166 C   0  0  0  0  0  0
   53.2201  155.9124   25.2703 O   0  0  0  0  0  0
   53.9631  155.0440   24.5040 C   0  0  0  0  0  0
   52.0560  154.0916   26.4143 C   0  0  0  0  0  0
   53.5651  153.6360   24.5337 C   0  0  0  0  0  0
   52.0560  156.3771   27.2663 C   0  0  0  0  0  0
   51.3339  153.6942   27.5462 C   0  0  0  0  0  0
   54.8560  155.5444   23.8234 O   0  0  0  0  0  0
   51.2868  155.9856   28.3664 C   0  0  0  0  0  0
   50.7615  156.8520   29.3040 O   0  0  0  0  0  0
   50.9605  154.6391   28.5040 C   0  0  0  0  0  0
   51.0542  158.2558   29.3025 C   0  0  0  0  0  0
   52.4370  151.6667   25.5303 C   0  0  0  0  0  0
   50.0652  159.0343   30.1782 C   0  0  0  0  0  0
   48.8026  158.5209   30.5039 C   0  0  0  0  0  0
   50.4795  160.2440   30.7450 C   0  0  0  0  0  0
   49.6560  160.9169   31.6446 C   0  0  0  0  0  0
   47.9644  159.2101   31.3764 C   0  0  0  0  0  0
   48.3976  160.4034   31.9483 C   0  0  0  0  0  0
   54.0558  152.9468   23.8650 H   0  0  0  0  0  0
   52.3658  157.4028   27.1409 H   0  0  0  0  0  0
   51.0858  152.6599   27.7265 H   0  0  0  0  0  0
   50.4251  154.3193   29.3824 H   0  0  0  0  0  0
   51.0557  158.7119   28.3175 H   0  0  0  0  0  0
   52.0560  158.3847   29.7040 H   0  0  0  0  0  0
   52.4595  151.1910   24.5504 H   0  0  0  0  0  0
   53.2539  151.2374   26.1040 H   0  0  0  0  0  0
   51.5062  151.3982   26.0276 H   0  0  0  0  0  0
   48.4758  157.5729   30.1040 H   0  0  0  0  0  0
   51.4599  160.6423   30.5263 H   0  0  0  0  0  0
   49.9949  161.8347   32.1040 H   0  0  0  0  0  0
   46.9926  158.8095   31.6255 H   0  0  0  0  0  0
   47.7567  160.9298   32.6403 H   0  0  0  0  0  0
  1  3  1  0  0  0
  1  5  2  0  0  0
  1  7  1  0  0  0
  2  5  1  0  0  0
  2  6  2  0  0  0
  2 14  1  0  0  0
  3  4  1  0  0  0
  4  9  2  0  0  0
  4  6  1  0  0  0
  5  8  1  0  0  0
  6 21  1  0  0  0
  7 10  2  0  0  0
  7 22  1  0  0  0
  8 12  2  0  0  0
  8 23  1  0  0  0
 10 11  1  0  0  0
 10 12  1  0  0  0
 11 13  1  0  0  0
 12 24  1  0  0  0
 13 15  1  0  0  0
 13 25  1  0  0  0
 13 26  1  0  0  0
 14 27  1  0  0  0
 14 28  1  0  0  0
 14 29  1  0  0  0
 15 16  2  0  0  0
 15 17  1  0  0  0
 16 19  1  0  0  0
 16 30  1  0  0  0
 17 18  2  0  0  0
 17 31  1  0  0  0
 18 20  1  0  0  0
 18 32  1  0  0  0
 19 20  2  0  0  0
 19 33  1  0  0  0
 20 34  1  0  0  0
M  END
> <s_m_entry_id>
10282

> <s_m_entry_name>
dock_pv.318

> <s_m_Source_Path>
/home/csk/Desktop/cluster/DUD-E-result/aofb

> <s_m_Source_File>
dock_pv.maegz

> <i_m_Source_File_Index>
318

> <chembl_id>
CHEMBL108660

> <chembl_pref_name>
None

> <i_lp_mmshare_version>
53161

> <i_f3d_flags>
0

> <r_lp_tautomer_probability>
1

> <s_lp_Force_Field>
OPLS_2005

> <r_lp_Energy>
21.460352

> <b_lp_Chiralities_Consistent>
1

> <s_lp_Variant>
CHEMBL2039_lig236-1

> <s_i_glide_gridfile>
glide-grid_1s3b

> <i_i_glide_lignum>
277

> <i_i_glide_rotatable_bonds>
3

> <r_i_docking_score>
-7.35567597273384

> <r_i_glide_ligand_efficiency>
-0.367783798636692

> <r_i_glide_ligand_efficiency_sa>
-0.998318821120732

> <r_i_glide_ligand_efficiency_ln>
-1.84088308954478

> <r_i_glide_gscore>
-7.35567597273384

> <r_i_glide_lipo>
-4.24950463478807

> <r_i_glide_hbond>
0

> <r_i_glide_metal>
0

> <r_i_glide_rewards>
-2.10445999330755

> <r_i_glide_evdw>
-30.7231178283691

> <r_i_glide_ecoul>
-1.46060812473297

> <r_i_glide_erotb>
0.753535765490181

> <r_i_glide_esite>
0

> <r_i_glide_emodel>
-37.2907658038492

> <r_i_glide_energy>
-32.1837259531021

> <r_i_glide_einternal>
3.14916849136353

> <i_i_glide_confnum>
17

> <i_i_glide_posenum>
186

> <r_i_glide_eff_state_penalty>
0

> <s_user_duplicate_titles>
CHEMBL2039_lig236

> <s_m_subgroup_title>
dock_pv

> <s_m_subgroupid>
dock_pv

> <b_m_subgroup_collapsed>
1

$$$$
CHEMBL2039_lig1063
                    3D
 Schrodinger Suite 2021-1.
 34 36  0  0  1  0            999 V2000
   48.9505  161.0063   32.0048 N   0  0  0  0  0  0
   46.7825  159.9608   31.7203 C   0  0  0  0  0  0
   47.6741  160.9962   32.4411 C   0  0  0  0  0  0
   47.5374  158.6408   31.4571 C   0  0  0  0  0  0
   48.9072  158.8953   30.8504 C   0  0  0  0  0  0
   49.5509  160.1069   31.1205 C   0  0  0  0  0  0
   50.8059  160.3741   30.5675 C   0  0  0  0  0  0
   51.4376  159.4066   29.7803 C   0  0  0  0  0  0
   49.5757  157.9329   30.1040 C   0  0  0  0  0  0
   50.8560  158.1522   29.5810 C   0  0  0  0  0  0
   47.2560  161.7529   33.3040 O   0  0  0  0  0  0
   51.5854  157.1883   28.9040 O   0  0  0  0  0  0
   51.0659  155.8541   28.7164 C   0  0  0  0  0  0
   51.6560  155.2077   27.4754 C   0  0  0  0  0  0
   52.4125  155.9563   26.5725 C   0  0  0  0  0  0
   52.9077  155.3641   25.4199 C   0  0  0  0  0  0
   52.6096  154.0344   25.1199 C   0  0  0  0  0  0
   51.8511  153.2816   26.0176 C   0  0  0  0  0  0
   51.3792  153.8634   27.1954 C   0  0  0  0  0  0
   54.0560  156.2440   24.5040 Cl  0  0  0  0  0  0
   49.5177  161.7366   32.4088 H   0  0  0  0  0  0
   45.8878  159.7887   32.3193 H   0  0  0  0  0  0
   46.4603  160.4141   30.7822 H   0  0  0  0  0  0
   46.9435  157.9973   30.8070 H   0  0  0  0  0  0
   47.6560  158.0974   32.3954 H   0  0  0  0  0  0
   51.3090  161.3080   30.7726 H   0  0  0  0  0  0
   52.4266  159.5893   29.3892 H   0  0  0  0  0  0
   49.0824  156.9813   30.0021 H   0  0  0  0  0  0
   49.9947  155.8440   28.5376 H   0  0  0  0  0  0
   51.2560  155.2249   29.5864 H   0  0  0  0  0  0
   52.6627  156.9864   26.7819 H   0  0  0  0  0  0
   53.0187  153.5707   24.2340 H   0  0  0  0  0  0
   51.6560  152.2399   25.8129 H   0  0  0  0  0  0
   50.7967  153.2717   27.8868 H   0  0  0  0  0  0
  1  3  1  0  0  0
  1  6  1  0  0  0
  1 21  1  0  0  0
  2  3  1  0  0  0
  2  4  1  0  0  0
  2 22  1  0  0  0
  2 23  1  0  0  0
  3 11  2  0  0  0
  4  5  1  0  0  0
  4 24  1  0  0  0
  4 25  1  0  0  0
  5  6  2  0  0  0
  5  9  1  0  0  0
  6  7  1  0  0  0
  7  8  2  0  0  0
  7 26  1  0  0  0
  8 10  1  0  0  0
  8 27  1  0  0  0
  9 10  2  0  0  0
  9 28  1  0  0  0
 10 12  1  0  0  0
 12 13  1  0  0  0
 13 14  1  0  0  0
 13 29  1  0  0  0
 13 30  1  0  0  0
 14 15  2  0  0  0
 14 19  1  0  0  0
 15 16  1  0  0  0
 15 31  1  0  0  0
 16 17  2  0  0  0
 16 20  1  0  0  0
 17 18  1  0  0  0
 17 32  1  0  0  0
 18 19  2  0  0  0
 18 33  1  0  0  0
 19 34  1  0  0  0
M  END
> <s_m_entry_id>
10283

> <s_m_entry_name>
dock_pv.319

> <s_m_Source_Path>
/home/csk/Desktop/cluster/DUD-E-result/aofb

> <s_m_Source_File>
dock_pv.maegz

> <i_m_Source_File_Index>
319

> <chembl_id>
CHEMBL2430702

> <chembl_pref_name>
None

> <i_lp_mmshare_version>
53161

> <i_f3d_flags>
0

> <r_lp_tautomer_probability>
1

> <s_lp_Force_Field>
OPLS_2005

> <r_lp_Energy>
24.263016

> <b_lp_Chiralities_Consistent>
1

> <s_lp_Variant>
CHEMBL2039_lig1063-1

> <s_i_glide_gridfile>
glide-grid_1s3b

> <i_i_glide_lignum>
1237

> <i_i_glide_rotatable_bonds>
3

> <r_i_docking_score>
-7.3527246094162

> <r_i_glide_ligand_efficiency>
-0.36763623047081

> <r_i_glide_ligand_efficiency_sa>
-0.997918259492013

> <r_i_glide_ligand_efficiency_ln>
-1.84014446064885

> <r_i_glide_gscore>
-7.3527246094162

> <r_i_glide_lipo>
-3.73338679284375

> <r_i_glide_hbond>
0

> <r_i_glide_metal>
0

> <r_i_glide_rewards>
-2.77186343932161

> <r_i_glide_evdw>
-28.1163921356201

> <r_i_glide_ecoul>
-0.669611811637878

> <r_i_glide_erotb>
0.658787001275844

> <r_i_glide_esite>
0

> <r_i_glide_emodel>
-35.4411987926661

> <r_i_glide_energy>
-28.786003947258

> <r_i_glide_einternal>
1.54770338535309

> <i_i_glide_confnum>
5

> <i_i_glide_posenum>
73

> <r_i_glide_eff_state_penalty>
0

> <s_user_duplicate_titles>
CHEMBL2039_lig1063

> <s_m_subgroup_title>
dock_pv

> <s_m_subgroupid>
dock_pv

> <b_m_subgroup_collapsed>
1

$$$$
CHEMBL2039_lig1215
                    3D
 Schrodinger Suite 2021-1.
 36 38  0  0  1  0            999 V2000
   50.4825  159.6192   30.3303 C   0  0  0  0  0  0
   50.4996  158.5035   29.7040 N   0  0  0  0  0  0
   51.6558  158.0468   29.0216 N   0  0  0  0  0  0
   51.7477  156.8253   28.3805 C   0  0  0  0  0  0
   52.3796  156.6470   27.2538 N   0  0  0  0  0  0
   52.1670  155.4545   26.7125 C   0  0  0  0  0  0
   51.4842  154.5557   27.5518 C   0  0  0  0  0  0
   50.8560  155.4440   28.9040 S   0  0  0  0  0  0
   52.8140  155.1107   25.3925 C   0  0  0  0  0  0
   53.8370  155.9260   24.9029 C   0  0  0  0  0  0
   54.7205  155.4605   23.9401 C   0  0  0  0  0  0
   52.5280  153.9208   24.7129 C   0  0  0  0  0  0
   53.3467  153.4838   23.6829 C   0  0  0  0  0  0
   54.4560  154.2440   23.3245 C   0  0  0  0  0  0
   49.2690  159.9864   31.0694 C   0  0  0  0  0  0
   48.1167  159.2995   30.8164 O   0  0  0  0  0  0
   47.1430  159.8060   31.6152 C   0  0  0  0  0  0
   47.6560  160.8215   32.4005 C   0  0  0  0  0  0
   48.9974  160.9487   32.0412 C   0  0  0  0  0  0
   51.2560  153.0766   27.4342 C   0  0  0  0  0  0
   51.6676  160.5719   30.5037 C   0  0  0  0  0  0
   52.3871  158.7376   28.9278 H   0  0  0  0  0  0
   54.0496  156.8883   25.3388 H   0  0  0  0  0  0
   55.5635  156.0647   23.6403 H   0  0  0  0  0  0
   51.7000  153.2933   24.9819 H   0  0  0  0  0  0
   53.1366  152.5545   23.1734 H   0  0  0  0  0  0
   55.0780  153.8858   22.5229 H   0  0  0  0  0  0
   46.1650  159.3560   31.5231 H   0  0  0  0  0  0
   47.1230  161.4043   33.1373 H   0  0  0  0  0  0
   49.7056  161.6515   32.4580 H   0  0  0  0  0  0
   52.1622  152.5467   27.1448 H   0  0  0  0  0  0
   50.9006  152.6202   28.3584 H   0  0  0  0  0  0
   50.5038  152.9069   26.6677 H   0  0  0  0  0  0
   51.4502  161.5426   30.0641 H   0  0  0  0  0  0
   51.8611  160.7504   31.5623 H   0  0  0  0  0  0
   52.5981  160.1975   30.0809 H   0  0  0  0  0  0
  1  2  2  0  0  0
  1 15  1  0  0  0
  1 21  1  0  0  0
  2  3  1  0  0  0
  3  4  1  0  0  0
  3 22  1  0  0  0
  4  5  2  0  0  0
  4  8  1  0  0  0
  5  6  1  0  0  0
  6  7  2  0  0  0
  6  9  1  0  0  0
  7  8  1  0  0  0
  7 20  1  0  0  0
  9 10  2  0  0  0
  9 12  1  0  0  0
 10 11  1  0  0  0
 10 23  1  0  0  0
 11 14  2  0  0  0
 11 24  1  0  0  0
 12 13  2  0  0  0
 12 25  1  0  0  0
 13 14  1  0  0  0
 13 26  1  0  0  0
 14 27  1  0  0  0
 15 16  1  0  0  0
 15 19  2  0  0  0
 16 17  1  0  0  0
 17 18  2  0  0  0
 17 28  1  0  0  0
 18 19  1  0  0  0
 18 29  1  0  0  0
 19 30  1  0  0  0
 20 31  1  0  0  0
 20 32  1  0  0  0
 20 33  1  0  0  0
 21 34  1  0  0  0
 21 35  1  0  0  0
 21 36  1  0  0  0
M  END
> <s_m_entry_id>
10284

> <s_m_entry_name>
dock_pv.320

> <s_m_Source_Path>
/home/csk/Desktop/cluster/DUD-E-result/aofb

> <s_m_Source_File>
dock_pv.maegz

> <i_m_Source_File_Index>
320

> <chembl_id>
CHEMBL3219198

> <chembl_pref_name>
None

> <i_lp_mmshare_version>
53161

> <i_f3d_flags>
0

> <r_lp_tautomer_probability>
1

> <s_lp_Force_Field>
OPLS_2005

> <r_lp_Energy>
13.594475

> <b_lp_Chiralities_Consistent>
1

> <s_lp_Variant>
CHEMBL2039_lig1215-1

> <s_i_glide_gridfile>
glide-grid_1s3b

> <i_i_glide_lignum>
1398

> <i_i_glide_rotatable_bonds>
4

> <r_i_docking_score>
-7.35025523299865

> <r_i_glide_ligand_efficiency>
-0.350012153952316

> <r_i_glide_ligand_efficiency_sa>
-0.965656992586289

> <r_i_glide_ligand_efficiency_ln>
-1.81733575376972

> <r_i_glide_gscore>
-7.35025523299865

> <r_i_glide_lipo>
-3.9377119283742

> <r_i_glide_hbond>
0

> <r_i_glide_metal>
0

> <r_i_glide_rewards>
-2.69276191455484

> <r_i_glide_evdw>
-26.304967880249

> <r_i_glide_ecoul>
-0.176790356636047

> <r_i_glide_erotb>
0.621985557438251

> <r_i_glide_esite>
0

> <r_i_glide_emodel>
-26.7248153695999

> <r_i_glide_energy>
-26.4817582368851

> <r_i_glide_einternal>
3.14755320549011

> <i_i_glide_confnum>
2

> <i_i_glide_posenum>
361

> <r_i_glide_eff_state_penalty>
0

> <s_user_duplicate_titles>
CHEMBL2039_lig1215

> <s_m_subgroup_title>
dock_pv

> <s_m_subgroupid>
dock_pv

> <b_m_subgroup_collapsed>
1

$$$$
CHEMBL2039_lig366
                    3D
 Schrodinger Suite 2021-1.
 32 34  0  0  1  0            999 V2000
   47.3057  159.7002   32.1698 C   0  0  0  0  0  0
   48.0387  160.8497   32.4787 C   0  0  0  0  0  0
   49.2971  161.0497   31.8868 C   0  0  0  0  0  0
   47.8634  158.7308   31.3508 C   0  0  0  0  0  0
   49.1189  158.9154   30.7889 C   0  0  0  0  0  0
   49.8234  160.1263   30.9548 C   0  0  0  0  0  0
   51.1252  160.3193   30.2529 C   0  0  0  0  0  0
   51.4073  159.2858   29.1539 C   0  0  0  0  0  0
   51.0270  157.8866   29.6677 C   0  0  1  0  0  0
   49.6578  157.8317   30.1032 O   0  0  0  0  0  0
   51.3772  156.6778   28.7501 C   0  0  0  0  0  0
   52.2852  156.8194   27.6708 C   0  0  0  0  0  0
   51.7506  154.5804   26.8991 C   0  0  0  0  0  0
   50.9730  154.3729   28.0387 C   0  0  0  0  0  0
   52.4274  155.8030   26.7217 C   0  0  0  0  0  0
   50.7705  155.4149   28.9477 C   0  0  0  0  0  0
   51.9039  161.2268   30.5663 O   0  0  0  0  0  0
   51.8322  153.4906   25.8302 C   0  0  0  0  0  0
   46.3416  159.5506   32.6108 H   0  0  0  0  0  0
   47.6288  161.5721   33.1760 H   0  0  0  0  0  0
   49.8553  161.9574   32.1355 H   0  0  0  0  0  0
   47.3046  157.8297   31.1660 H   0  0  0  0  0  0
   52.4580  159.2529   28.9080 H   0  0  0  0  0  0
   50.7724  159.4446   28.2708 H   0  0  0  0  0  0
   51.6824  157.8432   30.5039 H   0  0  0  0  0  0
   52.8316  157.7444   27.5000 H   0  0  0  0  0  0
   50.4677  153.4348   28.2021 H   0  0  0  0  0  0
   53.0809  155.9488   25.8964 H   0  0  0  0  0  0
   50.0721  155.3100   29.7486 H   0  0  0  0  0  0
   51.9472  153.9125   24.8213 H   0  0  0  0  0  0
   50.9146  152.9266   25.7989 H   0  0  0  0  0  0
   52.6816  152.8228   26.0057 H   0  0  0  0  0  0
  1  2  2  0  0  0
  1  4  1  0  0  0
  1 19  1  0  0  0
  2  3  1  0  0  0
  2 20  1  0  0  0
  3  6  2  0  0  0
  3 21  1  0  0  0
  4  5  2  0  0  0
  4 22  1  0  0  0
  5  6  1  0  0  0
  5 10  1  0  0  0
  6  7  1  0  0  0
  7  8  1  0  0  0
  7 17  2  0  0  0
  8  9  1  0  0  0
  8 23  1  0  0  0
  8 24  1  0  0  0
  9 10  1  0  0  0
  9 11  1  0  0  0
  9 25  1  0  0  0
 11 12  2  0  0  0
 11 16  1  0  0  0
 12 15  1  0  0  0
 12 26  1  0  0  0
 13 14  1  0  0  0
 13 15  2  0  0  0
 13 18  1  0  0  0
 14 16  2  0  0  0
 14 27  1  0  0  0
 15 28  1  0  0  0
 16 29  1  0  0  0
 18 30  1  0  0  0
 18 31  1  0  0  0
 18 32  1  0  0  0
M  END
> <s_m_entry_id>
10285

> <s_m_entry_name>
dock_pv.321

> <s_m_Source_Path>
/home/csk/Desktop/cluster/DUD-E-result/aofb

> <s_m_Source_File>
dock_pv.maegz

> <i_m_Source_File_Index>
321

> <chembl_id>
CHEMBL596690

> <chembl_pref_name>
None

> <i_lp_mmshare_version>
53161

> <i_f3d_flags>
0

> <r_lp_tautomer_probability>
0.99995

> <s_lp_Force_Field>
OPLS_2005

> <r_lp_Energy>
19.043748

> <b_lp_Chiralities_Consistent>
1

> <s_lp_Variant>
CHEMBL2039_lig366-2

> <s_i_glide_gridfile>
glide-grid_1s3b

> <i_i_glide_lignum>
432

> <i_i_glide_rotatable_bonds>
1

> <r_i_docking_score>
-7.35000001870586

> <r_i_glide_ligand_efficiency>
-0.408333334372548

> <r_i_glide_ligand_efficiency_sa>
-1.07013607099445

> <r_i_glide_ligand_efficiency_ln>
-1.8892796051657

> <r_i_glide_gscore>
-7.35000001870586

> <r_i_glide_lipo>
-3.83079971662417

> <r_i_glide_hbond>
0

> <r_i_glide_metal>
0

> <r_i_glide_rewards>
-2.84771998856075

> <r_i_glide_evdw>
-18.3784275054932

> <r_i_glide_ecoul>
-0.376709550619125

> <r_i_glide_erotb>
0.30394749434659

> <r_i_glide_esite>
0

> <r_i_glide_emodel>
-18.5466823206907

> <r_i_glide_energy>
-18.7551370561123

> <r_i_glide_einternal>
1.71010291576385

> <i_i_glide_confnum>
2

> <i_i_glide_posenum>
79

> <r_i_glide_eff_state_penalty>
0

> <s_user_duplicate_titles>
CHEMBL2039_lig366

> <s_m_subgroup_title>
dock_pv

> <s_m_subgroupid>
dock_pv

> <b_m_subgroup_collapsed>
1

$$$$
CHEMBL2039_lig537
                    3D
 Schrodinger Suite 2021-1.
 34 36  0  0  1  0            999 V2000
   52.2178  153.1381   25.3040 C   0  0  0  0  0  0
   52.8980  154.2618   24.8453 C   0  0  0  0  0  0
   52.8560  155.4440   25.5816 C   0  0  0  0  0  0
   51.4142  153.2211   26.4384 C   0  0  0  0  0  0
   51.3532  154.4140   27.1535 C   0  0  0  0  0  0
   52.1336  155.5116   26.7823 C   0  0  0  0  0  0
   52.3242  156.6548   27.7165 C   0  0  0  0  0  0
   51.2953  156.7560   28.7663 C   0  0  0  0  0  0
   50.8046  155.3803   29.2472 C   0  0  0  0  0  0
   50.4560  154.4864   28.1909 O   0  0  0  0  0  0
   53.2560  157.4440   27.5743 O   0  0  0  0  0  0
   50.9603  158.0224   29.1618 C   0  0  0  0  0  0
   49.9590  158.5916   30.1040 C   0  0  0  0  0  0
   48.7796  157.9478   30.4941 C   0  0  0  0  0  0
   47.8856  158.5592   31.3642 C   0  0  0  0  0  0
   48.1763  159.7999   31.9148 C   0  0  0  0  0  0
   49.3444  160.4669   31.5196 C   0  0  0  0  0  0
   50.2144  159.8715   30.6101 C   0  0  0  0  0  0
   47.2738  160.2740   32.8418 O   0  0  0  0  0  0
   47.6057  161.4440   33.5679 C   0  0  0  0  0  0
   52.2979  152.2101   24.7599 H   0  0  0  0  0  0
   53.5008  154.2002   23.9510 H   0  0  0  0  0  0
   53.4607  156.2786   25.2546 H   0  0  0  0  0  0
   50.8560  152.3595   26.7642 H   0  0  0  0  0  0
   51.6427  154.8664   29.7040 H   0  0  0  0  0  0
   49.9985  155.4194   29.9729 H   0  0  0  0  0  0
   51.4953  158.8254   28.6670 H   0  0  0  0  0  0
   48.5280  156.9771   30.1040 H   0  0  0  0  0  0
   46.9803  158.0464   31.6518 H   0  0  0  0  0  0
   49.6006  161.4383   31.9142 H   0  0  0  0  0  0
   51.1132  160.4027   30.3300 H   0  0  0  0  0  0
   46.8561  161.6086   34.3388 H   0  0  0  0  0  0
   47.6171  162.3076   32.9040 H   0  0  0  0  0  0
   48.5722  161.3553   34.0676 H   0  0  0  0  0  0
  1  2  2  0  0  0
  1  4  1  0  0  0
  1 21  1  0  0  0
  2  3  1  0  0  0
  2 22  1  0  0  0
  3  6  2  0  0  0
  3 23  1  0  0  0
  4  5  2  0  0  0
  4 24  1  0  0  0
  5  6  1  0  0  0
  5 10  1  0  0  0
  6  7  1  0  0  0
  7 11  2  0  0  0
  7  8  1  0  0  0
  8  9  1  0  0  0
  8 12  2  0  0  0
  9 10  1  0  0  0
  9 25  1  0  0  0
  9 26  1  0  0  0
 12 13  1  0  0  0
 12 27  1  0  0  0
 13 14  2  0  0  0
 13 18  1  0  0  0
 14 15  1  0  0  0
 14 28  1  0  0  0
 15 16  2  0  0  0
 15 29  1  0  0  0
 16 17  1  0  0  0
 16 19  1  0  0  0
 17 18  2  0  0  0
 17 30  1  0  0  0
 18 31  1  0  0  0
 19 20  1  0  0  0
 20 32  1  0  0  0
 20 33  1  0  0  0
 20 34  1  0  0  0
M  END
> <s_m_entry_id>
10286

> <s_m_entry_name>
dock_pv.322

> <s_m_Source_Path>
/home/csk/Desktop/cluster/DUD-E-result/aofb

> <s_m_Source_File>
dock_pv.maegz

> <i_m_Source_File_Index>
322

> <chembl_id>
CHEMBL511011

> <chembl_pref_name>
None

> <i_lp_mmshare_version>
53161

> <i_f3d_flags>
0

> <r_lp_tautomer_probability>
1

> <s_lp_Force_Field>
OPLS_2005

> <r_lp_Energy>
23.244993

> <b_lp_Chiralities_Consistent>
1

> <s_lp_Variant>
CHEMBL2039_lig537-1

> <s_i_glide_gridfile>
glide-grid_1s3b

> <i_i_glide_lignum>
639

> <i_i_glide_rotatable_bonds>
2

> <r_i_docking_score>
-7.34706444862336

> <r_i_glide_ligand_efficiency>
-0.367353222431168

> <r_i_glide_ligand_efficiency_sa>
-0.997150057484338

> <r_i_glide_ligand_efficiency_ln>
-1.838727909087

> <r_i_glide_gscore>
-7.34706444862336

> <r_i_glide_lipo>
-3.99867701873374

> <r_i_glide_hbond>
0

> <r_i_glide_metal>
0

> <r_i_glide_rewards>
-2.55324410180614

> <r_i_glide_evdw>
-26.9039478302002

> <r_i_glide_ecoul>
1.99250316619873

> <r_i_glide_erotb>
0.251178588496727

> <r_i_glide_esite>
0

> <r_i_glide_emodel>
-28.8559735833923

> <r_i_glide_energy>
-24.9114446640015

> <r_i_glide_einternal>
1.43327021598816

> <i_i_glide_confnum>
1

> <i_i_glide_posenum>
76

> <r_i_glide_eff_state_penalty>
0

> <s_user_duplicate_titles>
CHEMBL2039_lig537

> <s_m_subgroup_title>
dock_pv

> <s_m_subgroupid>
dock_pv

> <b_m_subgroup_collapsed>
1

$$$$
CHEMBL2039_lig1045
                    3D
 Schrodinger Suite 2021-1.
 28 29  0  0  1  0            999 V2000
   50.6998  158.6151   29.7040 C   0  0  0  0  0  0
   49.3558  158.5832   30.1106 C   0  0  0  0  0  0
   48.8208  159.5898   30.9119 C   0  0  0  0  0  0
   49.6285  160.6443   31.3255 C   0  0  0  0  0  0
   50.9595  160.7036   30.9188 C   0  0  0  0  0  0
   51.4851  159.7040   30.1041 C   0  0  0  0  0  0
   51.3281  157.5020   28.9486 C   0  0  0  0  0  0
   50.8576  156.2342   28.8876 C   0  0  0  0  0  0
   51.4069  155.1159   28.1040 C   0  0  0  0  0  0
   51.2558  153.9701   28.5218 O   0  0  0  0  0  0
   52.0548  155.3232   26.8007 C   0  0  0  0  0  0
   52.2297  154.2177   26.0217 O   0  0  0  0  0  0
   52.8999  154.5895   24.8996 C   0  0  0  0  0  0
   53.0933  155.9605   24.9189 C   0  0  0  0  0  0
   52.5456  156.4251   26.1145 C   0  0  0  0  0  0
   53.3031  153.4833   23.9587 C   0  0  0  0  0  0
   46.9992  159.5043   31.4600 Br  0  0  0  0  0  0
   48.7113  157.7600   29.8484 H   0  0  0  0  0  0
   49.2255  161.4197   31.9620 H   0  0  0  0  0  0
   51.5887  161.5170   31.2492 H   0  0  0  0  0  0
   52.5258  159.7552   29.8183 H   0  0  0  0  0  0
   52.2318  157.7731   28.4275 H   0  0  0  0  0  0
   49.9797  155.9642   29.4550 H   0  0  0  0  0  0
   53.5991  156.5529   24.1705 H   0  0  0  0  0  0
   52.5416  157.4442   26.4470 H   0  0  0  0  0  0
   53.9967  153.8381   23.1966 H   0  0  0  0  0  0
   52.4559  153.0455   23.4387 H   0  0  0  0  0  0
   53.8062  152.6757   24.4906 H   0  0  0  0  0  0
  1  2  2  0  0  0
  1  6  1  0  0  0
  1  7  1  0  0  0
  2  3  1  0  0  0
  2 18  1  0  0  0
  3  4  2  0  0  0
  3 17  1  0  0  0
  4  5  1  0  0  0
  4 19  1  0  0  0
  5  6  2  0  0  0
  5 20  1  0  0  0
  6 21  1  0  0  0
  7  8  2  0  0  0
  7 22  1  0  0  0
  8  9  1  0  0  0
  8 23  1  0  0  0
  9 10  2  0  0  0
  9 11  1  0  0  0
 11 12  1  0  0  0
 11 15  2  0  0  0
 12 13  1  0  0  0
 13 14  2  0  0  0
 13 16  1  0  0  0
 14 15  1  0  0  0
 14 24  1  0  0  0
 15 25  1  0  0  0
 16 26  1  0  0  0
 16 27  1  0  0  0
 16 28  1  0  0  0
M  END
> <s_m_entry_id>
10287

> <s_m_entry_name>
dock_pv.323

> <s_m_Source_Path>
/home/csk/Desktop/cluster/DUD-E-result/aofb

> <s_m_Source_File>
dock_pv.maegz

> <i_m_Source_File_Index>
323

> <chembl_id>
CHEMBL2420783

> <chembl_pref_name>
None

> <i_lp_mmshare_version>
53161

> <i_f3d_flags>
0

> <r_lp_tautomer_probability>
1

> <s_lp_Force_Field>
OPLS_2005

> <r_lp_Energy>
6.895261

> <b_lp_Chiralities_Consistent>
1

> <s_lp_Variant>
CHEMBL2039_lig1045-1

> <s_i_glide_gridfile>
glide-grid_1s3b

> <i_i_glide_lignum>
1218

> <i_i_glide_rotatable_bonds>
3

> <r_i_docking_score>
-7.3470000549524

> <r_i_glide_ligand_efficiency>
-0.432176473820729

> <r_i_glide_ligand_efficiency_sa>
-1.11124741000137

> <r_i_glide_ligand_efficiency_ln>
-1.91666870468993

> <r_i_glide_gscore>
-7.3470000549524

> <r_i_glide_lipo>
-3.35974893273614

> <r_i_glide_hbond>
0

> <r_i_glide_metal>
0

> <r_i_glide_rewards>
-2.77404586363636

> <r_i_glide_evdw>
-31.9715175628662

> <r_i_glide_ecoul>
-0.29946830868721

> <r_i_glide_erotb>
0.430290865866495

> <r_i_glide_esite>
0

> <r_i_glide_emodel>
-43.6296466536313

> <r_i_glide_energy>
-32.2709858715534

> <r_i_glide_einternal>
1.99499797821045

> <i_i_glide_confnum>
1

> <i_i_glide_posenum>
107

> <r_i_glide_eff_state_penalty>
0

> <s_user_duplicate_titles>
CHEMBL2039_lig1045

> <s_m_subgroup_title>
dock_pv

> <s_m_subgroupid>
dock_pv

> <b_m_subgroup_collapsed>
1

$$$$
CHEMBL2039_lig1919
                    3D
 Schrodinger Suite 2021-1.
 35 37  0  0  1  0            999 V2000
   52.6437  151.2842   25.3040 C   0  0  0  0  0  0
   53.2560  152.0539   24.3127 C   0  0  0  0  0  0
   53.1847  153.4438   24.3337 C   0  0  0  0  0  0
   51.8455  151.9158   26.2610 C   0  0  0  0  0  0
   51.8018  153.3024   26.3169 C   0  0  0  0  0  0
   52.4902  154.0605   25.3673 C   0  0  0  0  0  0
   52.5841  155.4322   25.4858 O   0  0  0  0  0  0
   52.4559  156.0082   26.7345 C   0  0  0  0  0  0
   51.5671  155.3171   27.7215 C   0  0  0  0  0  0
   51.2560  154.0216   27.4628 C   0  0  0  0  0  0
   53.0819  157.0440   26.9040 O   0  0  0  0  0  0
   50.9163  155.9980   28.8413 C   0  0  0  0  0  0
   51.2560  157.3065   28.9814 N   0  0  0  0  0  0
   50.0565  155.4440   29.5251 O   0  0  0  0  0  0
   50.6098  158.3287   29.7040 C   0  0  0  0  0  0
   51.3315  159.5076   29.8940 C   0  0  0  0  0  0
   50.7887  160.5670   30.6202 C   0  0  0  0  0  0
   49.4985  160.4700   31.1401 C   0  0  0  0  0  0
   48.7539  159.3101   30.9343 C   0  0  0  0  0  0
   49.3050  158.2450   30.2242 C   0  0  0  0  0  0
   52.7981  149.7729   25.2654 C   0  0  0  0  0  0
   47.4853  159.2071   31.4378 O   0  0  0  0  0  0
   53.7797  151.5677   23.5101 H   0  0  0  0  0  0
   53.7046  154.0275   23.5890 H   0  0  0  0  0  0
   51.3115  151.3325   26.9985 H   0  0  0  0  0  0
   50.5732  153.4844   28.1080 H   0  0  0  0  0  0
   52.0809  157.5998   28.4729 H   0  0  0  0  0  0
   52.3398  159.5909   29.5142 H   0  0  0  0  0  0
   51.3771  161.4551   30.7910 H   0  0  0  0  0  0
   49.0888  161.2943   31.7048 H   0  0  0  0  0  0
   48.7040  157.3582   30.1040 H   0  0  0  0  0  0
   52.2458  149.2787   26.0653 H   0  0  0  0  0  0
   52.4561  149.3598   24.3228 H   0  0  0  0  0  0
   53.8504  149.4991   25.3040 H   0  0  0  0  0  0
   47.2116  159.9954   31.9104 H   0  0  0  0  0  0
  1  2  2  0  0  0
  1  4  1  0  0  0
  1 21  1  0  0  0
  2  3  1  0  0  0
  2 23  1  0  0  0
  3  6  2  0  0  0
  3 24  1  0  0  0
  4  5  2  0  0  0
  4 25  1  0  0  0
  5  6  1  0  0  0
  5 10  1  0  0  0
  6  7  1  0  0  0
  7  8  1  0  0  0
  8  9  1  0  0  0
  8 11  2  0  0  0
  9 10  2  0  0  0
  9 12  1  0  0  0
 10 26  1  0  0  0
 12 13  1  0  0  0
 12 14  2  0  0  0
 13 15  1  0  0  0
 13 27  1  0  0  0
 15 16  2  0  0  0
 15 20  1  0  0  0
 16 17  1  0  0  0
 16 28  1  0  0  0
 17 18  2  0  0  0
 17 29  1  0  0  0
 18 19  1  0  0  0
 18 30  1  0  0  0
 19 20  2  0  0  0
 19 22  1  0  0  0
 20 31  1  0  0  0
 21 32  1  0  0  0
 21 33  1  0  0  0
 21 34  1  0  0  0
 22 35  1  0  0  0
M  END
> <s_m_entry_id>
10288

> <s_m_entry_name>
dock_pv.324

> <s_m_Source_Path>
/home/csk/Desktop/cluster/DUD-E-result/aofb

> <s_m_Source_File>
dock_pv.maegz

> <i_m_Source_File_Index>
324

> <chembl_id>
CHEMBL4074339

> <chembl_pref_name>
None

> <i_lp_mmshare_version>
53161

> <i_f3d_flags>
0

> <r_lp_tautomer_probability>
0.999999999997365

> <s_lp_Force_Field>
OPLS_2005

> <r_lp_Energy>
29.674127

> <b_lp_Chiralities_Consistent>
1

> <s_lp_Variant>
CHEMBL2039_lig1919-1

> <s_i_glide_gridfile>
glide-grid_1s3b

> <i_i_glide_lignum>
2254

> <i_i_glide_rotatable_bonds>
4

> <r_i_docking_score>
-7.34613926843109

> <r_i_glide_ligand_efficiency>
-0.333915421292322

> <r_i_glide_ligand_efficiency_sa>
-0.935644142609411

> <r_i_glide_ligand_efficiency_ln>
-1.79566439414499

> <r_i_glide_gscore>
-7.34613926843109

> <r_i_glide_lipo>
-4.20099599469965

> <r_i_glide_hbond>
0

> <r_i_glide_metal>
0

> <r_i_glide_rewards>
-2.56384209640525

> <r_i_glide_evdw>
-18.9907302856445

> <r_i_glide_ecoul>
-1.7430065870285

> <r_i_glide_erotb>
0.629686325010318

> <r_i_glide_esite>
0

> <r_i_glide_emodel>
-21.2747959444401

> <r_i_glide_energy>
-20.733736872673

> <r_i_glide_einternal>
2.91565752029419

> <i_i_glide_confnum>
1

> <i_i_glide_posenum>
328

> <r_i_glide_eff_state_penalty>
0

> <s_user_duplicate_titles>
CHEMBL2039_lig1919

> <s_m_subgroup_title>
dock_pv

> <s_m_subgroupid>
dock_pv

> <b_m_subgroup_collapsed>
1

$$$$
CHEMBL2039_lig612
                    3D
 Schrodinger Suite 2021-1.
 31 32  0  0  1  0            999 V2000
   50.4560  155.7402   29.0792 C   0  0  0  0  0  0
   51.1053  154.7566   28.2440 C   0  0  0  0  0  0
   51.5433  155.0337   26.9968 C   0  0  0  0  0  0
   49.4373  155.4440   29.6926 O   0  0  0  0  0  0
   51.0005  156.9824   29.0808 N   0  0  0  0  0  0
   52.1147  154.0997   26.0089 C   0  0  0  0  0  0
   52.1834  152.7052   26.1875 C   0  0  0  0  0  0
   52.7869  151.9034   25.2098 C   0  0  0  0  0  0
   53.2560  152.4734   24.0424 C   0  0  0  0  0  0
   53.2363  153.8439   23.8724 C   0  0  0  0  0  0
   52.6649  154.6566   24.8482 C   0  0  0  0  0  0
   52.8560  150.5426   25.3040 O   0  0  0  0  0  0
   50.5280  158.1636   29.7040 C   0  0  0  0  0  0
   49.2560  158.3206   30.2889 C   0  0  0  0  0  0
   48.9075  159.5135   30.9178 C   0  0  0  0  0  0
   49.8244  160.5586   30.9781 C   0  0  0  0  0  0
   51.0693  160.4323   30.3649 C   0  0  0  0  0  0
   51.4058  159.2496   29.7045 C   0  0  0  0  0  0
   47.1853  159.7087   31.7037 Br  0  0  0  0  0  0
   51.1701  153.7669   28.6705 H   0  0  0  0  0  0
   51.4425  156.0486   26.6354 H   0  0  0  0  0  0
   51.8934  157.0752   28.6209 H   0  0  0  0  0  0
   51.7705  152.2465   27.0731 H   0  0  0  0  0  0
   53.6560  151.8440   23.2650 H   0  0  0  0  0  0
   53.6563  154.2440   22.9654 H   0  0  0  0  0  0
   52.6525  155.7256   24.6906 H   0  0  0  0  0  0
   52.6075  150.2297   26.1804 H   0  0  0  0  0  0
   48.5221  157.5318   30.2749 H   0  0  0  0  0  0
   49.5677  161.4632   31.5037 H   0  0  0  0  0  0
   51.7776  161.2463   30.4129 H   0  0  0  0  0  0
   52.3886  159.1553   29.2650 H   0  0  0  0  0  0
  1  2  1  0  0  0
  1  4  2  0  0  0
  1  5  1  0  0  0
  2  3  2  0  0  0
  2 20  1  0  0  0
  3  6  1  0  0  0
  3 21  1  0  0  0
  5 13  1  0  0  0
  5 22  1  0  0  0
  6  7  1  0  0  0
  6 11  2  0  0  0
  7  8  2  0  0  0
  7 23  1  0  0  0
  8  9  1  0  0  0
  8 12  1  0  0  0
  9 10  2  0  0  0
  9 24  1  0  0  0
 10 11  1  0  0  0
 10 25  1  0  0  0
 11 26  1  0  0  0
 12 27  1  0  0  0
 13 14  1  0  0  0
 13 18  2  0  0  0
 14 15  2  0  0  0
 14 28  1  0  0  0
 15 16  1  0  0  0
 15 19  1  0  0  0
 16 17  2  0  0  0
 16 29  1  0  0  0
 17 18  1  0  0  0
 17 30  1  0  0  0
 18 31  1  0  0  0
M  END
> <s_m_entry_id>
10289

> <s_m_entry_name>
dock_pv.325

> <s_m_Source_Path>
/home/csk/Desktop/cluster/DUD-E-result/aofb

> <s_m_Source_File>
dock_pv.maegz

> <i_m_Source_File_Index>
325

> <chembl_id>
CHEMBL1830142

> <chembl_pref_name>
None

> <i_lp_mmshare_version>
53161

> <i_f3d_flags>
0

> <r_lp_tautomer_probability>
1

> <s_lp_Force_Field>
OPLS_2005

> <r_lp_Energy>
16.891623

> <b_lp_Chiralities_Consistent>
1

> <s_lp_Variant>
CHEMBL2039_lig612-1

> <s_i_glide_gridfile>
glide-grid_1s3b

> <i_i_glide_lignum>
721

> <i_i_glide_rotatable_bonds>
5

> <r_i_docking_score>
-7.34167848542409

> <r_i_glide_ligand_efficiency>
-0.386404130811794

> <r_i_glide_ligand_efficiency_sa>
-1.03108141871918

> <r_i_glide_ligand_efficiency_ln>
-1.86127318085057

> <r_i_glide_gscore>
-7.34167848542409

> <r_i_glide_lipo>
-3.82909620485009

> <r_i_glide_hbond>
-0.299021621888156

> <r_i_glide_metal>
0

> <r_i_glide_rewards>
-2.21081657432026

> <r_i_glide_evdw>
-20.707540512085

> <r_i_glide_ecoul>
-3.46539282798767

> <r_i_glide_erotb>
0.552441865436813

> <r_i_glide_esite>
0

> <r_i_glide_emodel>
-29.8946562424293

> <r_i_glide_energy>
-24.1729333400726

> <r_i_glide_einternal>
2.86557483673096

> <i_i_glide_confnum>
7

> <i_i_glide_posenum>
392

> <r_i_glide_eff_state_penalty>
0

> <s_user_duplicate_titles>
CHEMBL2039_lig612

> <s_m_subgroup_title>
dock_pv

> <s_m_subgroupid>
dock_pv

> <b_m_subgroup_collapsed>
1

$$$$
CHEMBL2039_lig128
                    3D
 Schrodinger Suite 2021-1.
 37 39  0  0  1  0            999 V2000
   52.3270  156.2300   26.5154 C   0  0  0  0  0  0
   51.7839  155.5477   27.5541 C   0  0  0  0  0  0
   51.6560  154.0748   27.4654 C   0  0  0  0  0  0
   52.1491  153.5028   26.1910 C   0  0  0  0  0  0
   52.2226  152.1187   26.0200 C   0  0  0  0  0  0
   52.8560  151.5811   24.9040 C   0  0  0  0  0  0
   53.2560  152.4268   23.8762 C   0  0  0  0  0  0
   53.2324  153.8039   24.0495 C   0  0  0  0  0  0
   52.6927  154.3371   25.2081 C   0  0  0  0  0  0
   52.7685  155.7019   25.3523 O   0  0  0  0  0  0
   51.2041  156.2501   28.6770 C   0  0  0  0  0  0
   50.2846  155.7302   29.3041 O   0  0  0  0  0  0
   51.5961  157.5388   28.9040 N   0  0  0  0  0  0
   51.2578  153.3215   28.3523 O   0  0  0  0  0  0
   50.9372  158.5204   29.7036 C   0  0  0  0  0  0
   49.5935  158.4287   30.1040 C   0  0  0  0  0  0
   49.0150  159.3747   30.9511 C   0  0  0  0  0  0
   49.7861  160.4573   31.3922 C   0  0  0  0  0  0
   51.0917  160.6181   30.9171 C   0  0  0  0  0  0
   51.6560  159.6621   30.0738 C   0  0  0  0  0  0
   47.5775  159.1759   31.4165 C   0  0  0  0  0  0
   49.2456  161.4336   32.4192 C   0  0  0  0  0  0
   52.4163  157.3062   26.4802 H   0  0  0  0  0  0
   51.7970  151.4476   26.7531 H   0  0  0  0  0  0
   52.9193  150.5095   24.7815 H   0  0  0  0  0  0
   53.6560  152.0147   22.9641 H   0  0  0  0  0  0
   53.6587  154.4489   23.3041 H   0  0  0  0  0  0
   52.4877  157.8208   28.5279 H   0  0  0  0  0  0
   48.9797  157.5954   29.8144 H   0  0  0  0  0  0
   51.6927  161.4552   31.2428 H   0  0  0  0  0  0
   52.6802  159.7857   29.7542 H   0  0  0  0  0  0
   47.1451  158.2443   31.0491 H   0  0  0  0  0  0
   46.9518  160.0021   31.0775 H   0  0  0  0  0  0
   47.5334  159.1539   32.5056 H   0  0  0  0  0  0
   49.9509  162.2440   32.5706 H   0  0  0  0  0  0
   48.2872  161.8440   32.1041 H   0  0  0  0  0  0
   49.0883  160.9323   33.3742 H   0  0  0  0  0  0
  1  2  2  0  0  0
  1 10  1  0  0  0
  1 23  1  0  0  0
  2  3  1  0  0  0
  2 11  1  0  0  0
  3  4  1  0  0  0
  3 14  2  0  0  0
  4  5  1  0  0  0
  4  9  2  0  0  0
  5  6  2  0  0  0
  5 24  1  0  0  0
  6  7  1  0  0  0
  6 25  1  0  0  0
  7  8  2  0  0  0
  7 26  1  0  0  0
  8  9  1  0  0  0
  8 27  1  0  0  0
  9 10  1  0  0  0
 11 12  2  0  0  0
 11 13  1  0  0  0
 13 15  1  0  0  0
 13 28  1  0  0  0
 15 16  1  0  0  0
 15 20  2  0  0  0
 16 17  2  0  0  0
 16 29  1  0  0  0
 17 18  1  0  0  0
 17 21  1  0  0  0
 18 19  2  0  0  0
 18 22  1  0  0  0
 19 20  1  0  0  0
 19 30  1  0  0  0
 20 31  1  0  0  0
 21 32  1  0  0  0
 21 33  1  0  0  0
 21 34  1  0  0  0
 22 35  1  0  0  0
 22 36  1  0  0  0
 22 37  1  0  0  0
M  END
> <s_m_entry_id>
10290

> <s_m_entry_name>
dock_pv.326

> <s_m_Source_Path>
/home/csk/Desktop/cluster/DUD-E-result/aofb

> <s_m_Source_File>
dock_pv.maegz

> <i_m_Source_File_Index>
326

> <chembl_id>
CHEMBL4209203

> <chembl_pref_name>
None

> <i_lp_mmshare_version>
53161

> <i_f3d_flags>
0

> <r_lp_tautomer_probability>
1

> <s_lp_Force_Field>
OPLS_2005

> <r_lp_Energy>
26.137321

> <b_lp_Chiralities_Consistent>
1

> <s_lp_Variant>
CHEMBL2039_lig128-1

> <s_i_glide_gridfile>
glide-grid_1s3b

> <i_i_glide_lignum>
154

> <i_i_glide_rotatable_bonds>
3

> <r_i_docking_score>
-7.34097343516874

> <r_i_glide_ligand_efficiency>
-0.333680610689488

> <r_i_glide_ligand_efficiency_sa>
-0.934986194065693

> <r_i_glide_ligand_efficiency_ln>
-1.79440167606732

> <r_i_glide_gscore>
-7.34097343516874

> <r_i_glide_lipo>
-4.02537518387908

> <r_i_glide_hbond>
0

> <r_i_glide_metal>
0

> <r_i_glide_rewards>
-2.33510152795018

> <r_i_glide_evdw>
-26.4162101745605

> <r_i_glide_ecoul>
-1.97858273983002

> <r_i_glide_erotb>
0.637101196363056

> <r_i_glide_esite>
0

> <r_i_glide_emodel>
-32.9444027451952

> <r_i_glide_energy>
-28.3947929143906

> <r_i_glide_einternal>
3.28771376609802

> <i_i_glide_confnum>
3

> <i_i_glide_posenum>
135

> <r_i_glide_eff_state_penalty>
0

> <s_user_duplicate_titles>
CHEMBL2039_lig128

> <s_m_subgroup_title>
dock_pv

> <s_m_subgroupid>
dock_pv

> <b_m_subgroup_collapsed>
1

$$$$
CHEMBL2039_lig1596
                    3D
 Schrodinger Suite 2021-1.
 33 35  0  0  1  0            999 V2000
   51.1296  158.8623   29.3040 C   0  0  0  0  0  0
   50.1266  159.5511   30.2317 C   0  0  0  0  0  0
   48.7538  159.2965   30.1184 C   0  0  0  0  0  0
   47.8449  159.8815   31.0009 C   0  0  0  0  0  0
   48.2966  160.7497   31.9923 C   0  0  0  0  0  0
   49.6560  161.0440   32.0908 C   0  0  0  0  0  0
   50.5663  160.4497   31.2127 C   0  0  0  0  0  0
   52.4560  157.0522   27.4402 C   0  0  0  0  0  0
   51.6554  156.6138   28.5040 C   0  0  0  0  0  0
   51.2976  155.2676   28.5406 C   0  0  0  0  0  0
   52.6844  156.2440   26.3266 C   0  0  0  0  0  0
   52.3153  154.8991   26.3576 C   0  0  0  0  0  0
   51.6560  154.4122   27.5027 C   0  0  0  0  0  0
   51.3797  153.0748   27.7012 O   0  0  0  0  0  0
   51.3241  152.3045   26.5041 C   0  0  0  0  0  0
   52.5740  152.4996   25.6408 C   0  0  0  0  0  0
   52.6436  153.9684   25.2406 C   0  0  0  0  0  0
   53.0139  154.3447   24.1321 O   0  0  0  0  0  0
   51.0827  157.4440   29.4581 O   0  0  0  0  0  0
   46.5256  159.6032   30.8985 F   0  0  0  0  0  0
   50.8560  159.1245   28.2847 H   0  0  0  0  0  0
   52.1426  159.2255   29.4814 H   0  0  0  0  0  0
   48.3776  158.6440   29.3498 H   0  0  0  0  0  0
   47.5919  161.1995   32.6757 H   0  0  0  0  0  0
   50.0123  161.7207   32.8541 H   0  0  0  0  0  0
   51.6190  160.6717   31.3192 H   0  0  0  0  0  0
   52.7996  158.0706   27.4177 H   0  0  0  0  0  0
   50.7326  154.8846   29.3770 H   0  0  0  0  0  0
   53.2279  156.6441   25.4823 H   0  0  0  0  0  0
   51.1821  151.2520   26.7518 H   0  0  0  0  0  0
   50.4560  152.6441   25.9545 H   0  0  0  0  0  0
   53.4477  152.2450   26.2396 H   0  0  0  0  0  0
   52.4985  151.8801   24.7478 H   0  0  0  0  0  0
  1  2  1  0  0  0
  1 19  1  0  0  0
  1 21  1  0  0  0
  1 22  1  0  0  0
  2  3  2  0  0  0
  2  7  1  0  0  0
  3  4  1  0  0  0
  3 23  1  0  0  0
  4  5  2  0  0  0
  4 20  1  0  0  0
  5  6  1  0  0  0
  5 24  1  0  0  0
  6  7  2  0  0  0
  6 25  1  0  0  0
  7 26  1  0  0  0
  8  9  2  0  0  0
  8 11  1  0  0  0
  8 27  1  0  0  0
  9 10  1  0  0  0
  9 19  1  0  0  0
 10 13  2  0  0  0
 10 28  1  0  0  0
 11 12  2  0  0  0
 11 29  1  0  0  0
 12 13  1  0  0  0
 12 17  1  0  0  0
 13 14  1  0  0  0
 14 15  1  0  0  0
 15 16  1  0  0  0
 15 30  1  0  0  0
 15 31  1  0  0  0
 16 17  1  0  0  0
 16 32  1  0  0  0
 16 33  1  0  0  0
 17 18  2  0  0  0
M  END
> <s_m_entry_id>
10291

> <s_m_entry_name>
dock_pv.327

> <s_m_Source_Path>
/home/csk/Desktop/cluster/DUD-E-result/aofb

> <s_m_Source_File>
dock_pv.maegz

> <i_m_Source_File_Index>
327

> <chembl_id>
CHEMBL1682816

> <chembl_pref_name>
None

> <i_lp_mmshare_version>
53161

> <i_f3d_flags>
0

> <r_lp_tautomer_probability>
0.99995

> <s_lp_Force_Field>
OPLS_2005

> <r_lp_Energy>
22.459219

> <b_lp_Chiralities_Consistent>
1

> <s_lp_Variant>
CHEMBL2039_lig1596-1

> <s_i_glide_gridfile>
glide-grid_1s3b

> <i_i_glide_lignum>
1857

> <i_i_glide_rotatable_bonds>
3

> <r_i_docking_score>
-7.33900871498872

> <r_i_glide_ligand_efficiency>
-0.366950435749436

> <r_i_glide_ligand_efficiency_sa>
-0.996056726220807

> <r_i_glide_ligand_efficiency_ln>
-1.83671182465412

> <r_i_glide_gscore>
-7.33900871498872

> <r_i_glide_lipo>
-3.4465119332884

> <r_i_glide_hbond>
0

> <r_i_glide_metal>
0

> <r_i_glide_rewards>
-3.21917258780748

> <r_i_glide_evdw>
-25.6595897674561

> <r_i_glide_ecoul>
-0.769951701164246

> <r_i_glide_erotb>
0.725148049654601

> <r_i_glide_esite>
0

> <r_i_glide_emodel>
-30.5890282263676

> <r_i_glide_energy>
-26.4295414686203

> <r_i_glide_einternal>
2.05163550376892

> <i_i_glide_confnum>
12

> <i_i_glide_posenum>
165

> <r_i_glide_eff_state_penalty>
0

> <s_user_duplicate_titles>
CHEMBL2039_lig1596

> <s_m_subgroup_title>
dock_pv

> <s_m_subgroupid>
dock_pv

> <b_m_subgroup_collapsed>
1

$$$$
CHEMBL2039_lig2404 
                    3D
 Schrodinger Suite 2021-1.
 46 48  0  0  1  0            999 V2000
   47.7107  160.0299   31.4712 C   0  0  0  0  0  0
   48.2695  160.9948   32.3126 C   0  0  0  0  0  0
   49.6253  161.2998   32.2240 C   0  0  0  0  0  0
   50.4377  160.6428   31.3047 C   0  0  0  0  0  0
   49.8997  159.6389   30.4966 C   0  0  0  0  0  0
   48.5347  159.3466   30.5699 C   0  0  0  0  0  0
   50.7991  158.8489   29.5666 C   0  0  0  0  0  0
   50.5423  157.4488   29.7168 O   0  0  0  0  0  0
   51.1942  156.5583   28.9037 C   0  0  0  0  0  0
   52.1346  156.9671   27.9533 C   0  0  0  0  0  0
   51.2219  154.3269   27.9230 C   0  0  0  0  0  0
   50.8012  155.2152   28.9171 C   0  0  0  0  0  0
   51.9880  154.8083   26.8566 C   0  0  0  0  0  0
   52.4556  156.1170   26.9147 C   0  0  0  0  0  0
   53.2556  156.6445   25.9360 O   0  0  0  0  0  0
   53.6554  155.9672   24.8383 C   0  0  0  0  0  0
   53.1007  154.6465   24.6678 C   0  0  0  0  0  0
   52.3571  154.0703   25.6329 C   0  0  0  0  0  0
   54.4542  156.5401   24.1042 O   0  0  0  0  0  0
   46.2292  159.7216   31.5940 C   0  0  0  0  0  0
   45.6599  159.0435   30.5038 O   0  0  0  0  0  0
   51.8828  152.6665   25.4361 C   0  0  0  0  0  0
   52.8552  151.6194   25.7078 N   0  0  0  0  0  0
   54.0583  151.7121   24.9223 C   0  0  0  0  0  0
   52.3045  150.2916   25.5397 C   0  0  0  0  0  0
   47.6531  161.5154   33.0307 H   0  0  0  0  0  0
   50.0507  162.0461   32.8735 H   0  0  0  0  0  0
   51.4898  160.8860   31.2598 H   0  0  0  0  0  0
   48.1214  158.5748   29.9369 H   0  0  0  0  0  0
   51.8470  159.0588   29.7908 H   0  0  0  0  0  0
   50.6018  159.1784   28.5453 H   0  0  0  0  0  0
   52.5125  157.9766   27.9209 H   0  0  0  0  0  0
   50.8759  153.3055   27.9569 H   0  0  0  0  0  0
   50.1131  154.8749   29.6772 H   0  0  0  0  0  0
   53.3423  154.0940   23.7716 H   0  0  0  0  0  0
   46.0585  159.1655   32.5046 H   0  0  0  0  0  0
   45.6754  160.6439   31.6943 H   0  0  0  0  0  0
   44.7023  159.0429   30.6376 H   0  0  0  0  0  0
   51.6613  152.6434   24.3775 H   0  0  0  0  0  0
   50.9538  152.5088   25.9853 H   0  0  0  0  0  0
   54.7313  150.9033   25.2016 H   0  0  0  0  0  0
   54.5965  152.6319   25.1478 H   0  0  0  0  0  0
   53.8367  151.6612   23.8549 H   0  0  0  0  0  0
   53.0272  149.4968   25.7040 H   0  0  0  0  0  0
   51.4145  150.1214   26.1474 H   0  0  0  0  0  0
   52.0698  150.2006   24.5040 H   0  0  0  0  0  0
  1  2  2  0  0  0
  1  6  1  0  0  0
  1 20  1  0  0  0
  2  3  1  0  0  0
  2 26  1  0  0  0
  3  4  2  0  0  0
  3 27  1  0  0  0
  4  5  1  0  0  0
  4 28  1  0  0  0
  5  6  2  0  0  0
  5  7  1  0  0  0
  6 29  1  0  0  0
  7  8  1  0  0  0
  7 30  1  0  0  0
  7 31  1  0  0  0
  8  9  1  0  0  0
  9 10  2  0  0  0
  9 12  1  0  0  0
 10 14  1  0  0  0
 10 32  1  0  0  0
 11 13  1  0  0  0
 11 12  2  0  0  0
 11 33  1  0  0  0
 12 34  1  0  0  0
 13 14  2  0  0  0
 13 18  1  0  0  0
 14 15  1  0  0  0
 15 16  1  0  0  0
 16 17  1  0  0  0
 16 19  2  0  0  0
 17 18  2  0  0  0
 17 35  1  0  0  0
 18 22  1  0  0  0
 20 21  1  0  0  0
 20 36  1  0  0  0
 20 37  1  0  0  0
 21 38  1  0  0  0
 22 23  1  0  0  0
 22 39  1  0  0  0
 22 40  1  0  0  0
 23 24  1  0  0  0
 23 25  1  0  0  0
 24 41  1  0  0  0
 24 42  1  0  0  0
 24 43  1  0  0  0
 25 44  1  0  0  0
 25 45  1  0  0  0
 25 46  1  0  0  0
M  END
> <s_m_entry_id>
10292

> <s_m_entry_name>
dock_pv.328

> <s_m_Source_Path>
/home/csk/Desktop/cluster/DUD-E-result/aofb

> <s_m_Source_File>
dock_pv.maegz

> <i_m_Source_File_Index>
328

> <chembl_id>
CHEMBL4451675

> <chembl_pref_name>
None

> <i_lp_mmshare_version>
53161

> <i_f3d_flags>
0

> <r_lp_tautomer_probability>
1

> <s_lp_Force_Field>
OPLS_2005

> <r_lp_Energy>
25.445585

> <b_lp_Chiralities_Consistent>
1

> <s_lp_Variant>
CHEMBL2039_lig2404 -1

> <s_i_glide_gridfile>
glide-grid_1s3b

> <i_i_glide_lignum>
2796

> <i_i_glide_rotatable_bonds>
7

> <r_i_docking_score>
-7.33266383153618

> <r_i_glide_ligand_efficiency>
-0.293306553261447

> <r_i_glide_ligand_efficiency_sa>
-0.857633563550343

> <r_i_glide_ligand_efficiency_ln>
-1.738061070277

> <r_i_glide_gscore>
-7.33266383153618

> <r_i_glide_lipo>
-4.42969611379336

> <r_i_glide_hbond>
-0.320453889808227

> <r_i_glide_metal>
0

> <r_i_glide_rewards>
-1.93058839311196

> <r_i_glide_evdw>
-16.5974578857422

> <r_i_glide_ecoul>
-4.29023122787476

> <r_i_glide_erotb>
0.821482143645693

> <r_i_glide_esite>
0

> <r_i_glide_emodel>
-18.7233423046216

> <r_i_glide_energy>
-20.8876891136169

> <r_i_glide_einternal>
9.18638038635254

> <i_i_glide_confnum>
163

> <i_i_glide_posenum>
74

> <r_i_glide_eff_state_penalty>
0

> <s_user_duplicate_titles>
CHEMBL2039_lig2404 

> <s_m_subgroup_title>
dock_pv

> <s_m_subgroupid>
dock_pv

> <b_m_subgroup_collapsed>
1

$$$$
CHEMBL2039_lig1718
                    3D
 Schrodinger Suite 2021-1.
 27 29  0  0  1  0            999 V2000
   49.1852  158.6842   30.1616 S   0  0  0  0  0  0
   52.3772  156.2844   25.8026 O   0  0  0  0  0  0
   51.2551  153.8282   28.9050 O   0  0  0  0  0  0
   51.9782  154.0592   26.6773 C   0  0  0  0  0  0
   51.5407  154.5979   27.9974 C   0  0  0  0  0  0
   51.5728  156.0669   28.1423 C   0  0  0  0  0  0
   52.4554  154.9165   25.6835 C   0  0  0  0  0  0
   52.4602  156.7976   27.1421 C   0  0  0  0  0  0
   50.8222  156.6451   29.1202 C   0  0  0  0  0  0
   52.0629  152.6727   26.4629 C   0  0  0  0  0  0
   50.6915  158.0479   29.5474 C   0  0  0  0  0  0
   53.0951  154.4027   24.5519 C   0  0  0  0  0  0
   52.7357  152.1634   25.3491 C   0  0  0  0  0  0
   53.2457  153.0305   24.3899 C   0  0  0  0  0  0
   51.6557  159.0440   29.5359 C   0  0  0  0  0  0
   49.9015  160.2264   30.4779 C   0  0  0  0  0  0
   51.2326  160.2508   30.1042 C   0  0  0  0  0  0
   52.1715  157.8435   27.1086 H   0  0  0  0  0  0
   53.4972  156.7835   27.4776 H   0  0  0  0  0  0
   50.2067  155.9971   29.7267 H   0  0  0  0  0  0
   51.6642  151.9799   27.1923 H   0  0  0  0  0  0
   53.5398  155.0438   23.8167 H   0  0  0  0  0  0
   52.8338  151.0958   25.2189 H   0  0  0  0  0  0
   53.7447  152.6417   23.5154 H   0  0  0  0  0  0
   52.6628  158.8864   29.1819 H   0  0  0  0  0  0
   49.3220  161.0221   30.9229 H   0  0  0  0  0  0
   51.8708  161.1145   30.2212 H   0  0  0  0  0  0
  1 11  1  0  0  0
  1 16  1  0  0  0
  2  7  1  0  0  0
  2  8  1  0  0  0
  3  5  2  0  0  0
  4  5  1  0  0  0
  4  7  1  0  0  0
  4 10  2  0  0  0
  5  6  1  0  0  0
  6  8  1  0  0  0
  6  9  2  0  0  0
  7 12  2  0  0  0
  8 18  1  0  0  0
  8 19  1  0  0  0
  9 11  1  0  0  0
  9 20  1  0  0  0
 10 13  1  0  0  0
 10 21  1  0  0  0
 11 15  2  0  0  0
 12 14  1  0  0  0
 12 22  1  0  0  0
 13 14  2  0  0  0
 13 23  1  0  0  0
 14 24  1  0  0  0
 15 17  1  0  0  0
 15 25  1  0  0  0
 16 17  2  0  0  0
 16 26  1  0  0  0
 17 27  1  0  0  0
M  END
> <s_m_entry_id>
10293

> <s_m_entry_name>
dock_pv.329

> <s_m_Source_Path>
/home/csk/Desktop/cluster/DUD-E-result/aofb

> <s_m_Source_File>
dock_pv.maegz

> <i_m_Source_File_Index>
329

> <chembl_id>
CHEMBL1384621

> <chembl_pref_name>
None

> <i_lp_mmshare_version>
53161

> <i_f3d_flags>
0

> <r_lp_tautomer_probability>
1

> <s_lp_Force_Field>
OPLS_2005

> <r_lp_Energy>
13.883075

> <b_lp_Chiralities_Consistent>
1

> <s_lp_Variant>
CHEMBL2039_lig1718-1

> <s_i_glide_gridfile>
glide-grid_1s3b

> <i_i_glide_lignum>
2006

> <i_i_glide_rotatable_bonds>
1

> <r_i_docking_score>
-7.31350393025444

> <r_i_glide_ligand_efficiency>
-0.430206113544379

> <r_i_glide_ligand_efficiency_sa>
-1.10618105890061

> <r_i_glide_ligand_efficiency_ln>
-1.90793031167826

> <r_i_glide_gscore>
-7.31350393025444

> <r_i_glide_lipo>
-3.26031249748302

> <r_i_glide_hbond>
0

> <r_i_glide_metal>
0

> <r_i_glide_rewards>
-2.98385804187987

> <r_i_glide_evdw>
-21.2217540740967

> <r_i_glide_ecoul>
-0.0549712479114532

> <r_i_glide_erotb>
0

> <r_i_glide_esite>
0

> <r_i_glide_emodel>
-29.3739741838848

> <r_i_glide_energy>
-21.2767253220081

> <r_i_glide_einternal>
2.41674327850342

> <i_i_glide_confnum>
1

> <i_i_glide_posenum>
1

> <r_i_glide_eff_state_penalty>
0

> <s_user_duplicate_titles>
CHEMBL2039_lig1718

> <s_m_subgroup_title>
dock_pv

> <s_m_subgroupid>
dock_pv

> <b_m_subgroup_collapsed>
1

$$$$
CHEMBL2039_lig2312 
                    3D
 Schrodinger Suite 2021-1.
 39 42  0  0  1  0            999 V2000
   53.3912  151.1533   24.5808 C   0  0  0  0  0  0
   52.7756  151.8438   25.6793 N   0  0  0  0  0  0
   52.5537  153.0363   25.3040 C   0  0  0  0  0  0
   52.8560  153.2875   23.9860 N   0  0  0  0  0  0
   53.2143  152.0560   23.3644 C   0  0  0  0  0  0
   52.0560  154.0890   26.1786 C   0  0  0  0  0  0
   52.4246  155.3961   25.8558 C   0  0  0  0  0  0
   52.2562  156.3936   26.7854 C   0  0  0  0  0  0
   51.6690  156.1215   28.0214 C   0  0  0  0  0  0
   51.2553  154.8260   28.3346 C   0  0  0  0  0  0
   51.4488  153.8035   27.4101 C   0  0  0  0  0  0
   51.4491  157.2885   28.9040 C   0  0  0  0  0  0
   50.4137  157.4121   29.7040 N   0  0  0  0  0  0
   50.4555  158.6820   29.9948 C   0  0  0  0  0  0
   51.5954  159.2903   29.6081 O   0  0  0  0  0  0
   52.2645  158.3039   28.9040 N   0  0  0  0  0  0
   49.5119  159.4441   30.8256 C   0  0  0  0  0  0
   50.0311  160.4847   31.5916 C   0  0  0  0  0  0
   49.2176  161.1211   32.5041 C   0  0  0  0  0  0
   47.8805  160.7624   32.6074 C   0  0  0  0  0  0
   47.3379  159.7605   31.8022 C   0  0  0  0  0  0
   48.1646  159.0859   30.9124 C   0  0  0  0  0  0
   47.0364  161.4746   33.6199 C   0  0  0  0  0  0
   54.4331  151.0000   24.8733 H   0  0  0  0  0  0
   52.9087  150.1844   24.4450 H   0  0  0  0  0  0
   52.2941  153.8091   23.3277 H   0  0  0  0  0  0
   52.4560  151.6416   22.7067 H   0  0  0  0  0  0
   54.0560  152.2440   22.7280 H   0  0  0  0  0  0
   52.9264  155.6453   24.9316 H   0  0  0  0  0  0
   52.5746  157.3923   26.5297 H   0  0  0  0  0  0
   50.8021  154.6098   29.2914 H   0  0  0  0  0  0
   51.1875  152.7901   27.6810 H   0  0  0  0  0  0
   51.0777  160.7533   31.5461 H   0  0  0  0  0  0
   49.6483  161.8596   33.1582 H   0  0  0  0  0  0
   46.2956  159.4866   31.8837 H   0  0  0  0  0  0
   47.7681  158.2782   30.3138 H   0  0  0  0  0  0
   46.0560  161.0440   33.6896 H   0  0  0  0  0  0
   46.9039  162.5088   33.3040 H   0  0  0  0  0  0
   47.4992  161.4440   34.6057 H   0  0  0  0  0  0
  1  2  1  0  0  0
  1  5  1  0  0  0
  1 24  1  0  0  0
  1 25  1  0  0  0
  2  3  2  0  0  0
  3  4  1  0  0  0
  3  6  1  0  0  0
  4  5  1  0  0  0
  4 26  1  0  0  0
  5 27  1  0  0  0
  5 28  1  0  0  0
  6  7  2  0  0  0
  6 11  1  0  0  0
  7  8  1  0  0  0
  7 29  1  0  0  0
  8  9  2  0  0  0
  8 30  1  0  0  0
  9 10  1  0  0  0
  9 12  1  0  0  0
 10 11  2  0  0  0
 10 31  1  0  0  0
 11 32  1  0  0  0
 12 13  1  0  0  0
 12 16  2  0  0  0
 13 14  2  0  0  0
 14 15  1  0  0  0
 14 17  1  0  0  0
 15 16  1  0  0  0
 17 18  2  0  0  0
 17 22  1  0  0  0
 18 19  1  0  0  0
 18 33  1  0  0  0
 19 20  2  0  0  0
 19 34  1  0  0  0
 20 21  1  0  0  0
 20 23  1  0  0  0
 21 22  2  0  0  0
 21 35  1  0  0  0
 22 36  1  0  0  0
 23 37  1  0  0  0
 23 38  1  0  0  0
 23 39  1  0  0  0
M  END
> <s_m_entry_id>
10294

> <s_m_entry_name>
dock_pv.330

> <s_m_Source_Path>
/home/csk/Desktop/cluster/DUD-E-result/aofb

> <s_m_Source_File>
dock_pv.maegz

> <i_m_Source_File_Index>
330

> <chembl_id>
CHEMBL4447183

> <chembl_pref_name>
None

> <i_lp_mmshare_version>
53161

> <i_f3d_flags>
0

> <r_lp_tautomer_probability>
0.499999999998415

> <s_lp_Force_Field>
OPLS_2005

> <r_lp_Energy>
30.45718

> <b_lp_Chiralities_Consistent>
1

> <s_lp_Variant>
CHEMBL2039_lig2312 -1

> <s_i_glide_gridfile>
glide-grid_1s3b

> <i_i_glide_lignum>
2686

> <i_i_glide_rotatable_bonds>
3

> <r_i_docking_score>
-7.30935710730993

> <r_i_glide_ligand_efficiency>
-0.317798135100432

> <r_i_glide_ligand_efficiency_sa>
-0.90377562172593

> <r_i_glide_ligand_efficiency_ln>
-1.76746882613344

> <r_i_glide_gscore>
-7.30935710730993

> <r_i_glide_lipo>
-3.98293384859196

> <r_i_glide_hbond>
-0.0673432739234389

> <r_i_glide_metal>
0

> <r_i_glide_rewards>
-2.7563890003909

> <r_i_glide_evdw>
-23.2509937286377

> <r_i_glide_ecoul>
0.588543057441711

> <r_i_glide_erotb>
0.597264895739459

> <r_i_glide_esite>
-0.0256876523274629

> <r_i_glide_emodel>
-32.0435886732885

> <r_i_glide_energy>
-22.662450671196

> <r_i_glide_einternal>
0.820914387702942

> <i_i_glide_confnum>
8

> <i_i_glide_posenum>
30

> <r_i_glide_eff_state_penalty>
0

> <s_user_duplicate_titles>
CHEMBL2039_lig2312 

> <s_m_subgroup_title>
dock_pv

> <s_m_subgroupid>
dock_pv

> <b_m_subgroup_collapsed>
1

$$$$
CHEMBL2039_lig883
                    3D
 Schrodinger Suite 2021-1.
 39 41  0  0  1  0            999 V2000
   52.8839  153.0500   24.9693 N   0  0  0  0  0  0
   53.5397  154.0425   24.2636 C   0  0  0  0  0  0
   53.5687  155.2722   24.8806 N   0  0  0  0  0  0
   52.0237  153.1638   26.0415 C   0  0  0  0  0  0
   52.0560  154.5155   26.5727 C   0  0  0  0  0  0
   52.8001  155.5451   26.0105 C   0  0  0  0  0  0
   52.6974  156.6431   26.8807 C   0  0  0  0  0  0
   51.8233  156.3116   27.9061 C   0  0  0  0  0  0
   51.4559  154.9923   27.7192 N   0  0  0  0  0  0
   50.5600  154.2279   28.5645 C   0  0  0  0  0  0
   51.1959  157.1277   28.9389 C   0  0  0  0  0  0
   51.2386  158.4583   29.1262 C   0  0  0  0  0  0
   50.3787  159.1730   30.0993 C   0  0  0  0  0  0
   50.8211  160.3541   30.7004 C   0  0  0  0  0  0
   50.0585  160.9524   31.7040 C   0  0  0  0  0  0
   48.8560  160.3681   32.1040 C   0  0  0  0  0  0
   48.3742  159.2362   31.4673 C   0  0  0  0  0  0
   49.1334  158.6438   30.4725 C   0  0  0  0  0  0
   54.0560  153.8440   23.1624 O   0  0  0  0  0  0
   54.5322  156.2632   24.3723 C   0  0  0  0  0  0
   51.3806  152.2217   26.5040 O   0  0  0  0  0  0
   53.0604  151.6841   24.4195 C   0  0  0  0  0  0
   47.8782  161.0440   33.5817 Br  0  0  0  0  0  0
   53.2060  157.5865   26.8030 H   0  0  0  0  0  0
   50.9056  153.2001   28.6516 H   0  0  0  0  0  0
   50.5132  154.6021   29.5830 H   0  0  0  0  0  0
   49.5728  154.2440   28.1040 H   0  0  0  0  0  0
   50.5578  156.5937   29.6172 H   0  0  0  0  0  0
   51.8890  159.0440   28.5040 H   0  0  0  0  0  0
   51.7766  160.7814   30.4325 H   0  0  0  0  0  0
   50.4258  161.8374   32.2024 H   0  0  0  0  0  0
   47.4399  158.7912   31.7767 H   0  0  0  0  0  0
   48.7516  157.7362   30.0339 H   0  0  0  0  0  0
   54.4560  156.4545   23.3040 H   0  0  0  0  0  0
   54.4560  157.2171   24.8880 H   0  0  0  0  0  0
   55.5479  155.8915   24.5040 H   0  0  0  0  0  0
   54.0883  151.3637   24.5660 H   0  0  0  0  0  0
   52.4361  150.9189   24.8809 H   0  0  0  0  0  0
   52.8560  151.6572   23.3474 H   0  0  0  0  0  0
  1  2  1  0  0  0
  1  4  1  0  0  0
  1 22  1  0  0  0
  2  3  1  0  0  0
  2 19  2  0  0  0
  3  6  1  0  0  0
  3 20  1  0  0  0
  4  5  1  0  0  0
  4 21  2  0  0  0
  5  6  2  0  0  0
  5  9  1  0  0  0
  6  7  1  0  0  0
  7  8  2  0  0  0
  7 24  1  0  0  0
  8  9  1  0  0  0
  8 11  1  0  0  0
  9 10  1  0  0  0
 10 25  1  0  0  0
 10 26  1  0  0  0
 10 27  1  0  0  0
 11 12  2  0  0  0
 11 28  1  0  0  0
 12 13  1  0  0  0
 12 29  1  0  0  0
 13 14  2  0  0  0
 13 18  1  0  0  0
 14 15  1  0  0  0
 14 30  1  0  0  0
 15 16  2  0  0  0
 15 31  1  0  0  0
 16 17  1  0  0  0
 16 23  1  0  0  0
 17 18  2  0  0  0
 17 32  1  0  0  0
 18 33  1  0  0  0
 20 34  1  0  0  0
 20 35  1  0  0  0
 20 36  1  0  0  0
 22 37  1  0  0  0
 22 38  1  0  0  0
 22 39  1  0  0  0
M  END
> <s_m_entry_id>
10295

> <s_m_entry_name>
dock_pv.331

> <s_m_Source_Path>
/home/csk/Desktop/cluster/DUD-E-result/aofb

> <s_m_Source_File>
dock_pv.maegz

> <i_m_Source_File_Index>
331

> <chembl_id>
CHEMBL2312989

> <chembl_pref_name>
None

> <i_lp_mmshare_version>
53161

> <i_f3d_flags>
0

> <r_lp_tautomer_probability>
1

> <s_lp_Force_Field>
OPLS_2005

> <r_lp_Energy>
39.996997

> <b_lp_Chiralities_Consistent>
1

> <s_lp_Variant>
CHEMBL2039_lig883-1

> <s_i_glide_gridfile>
glide-grid_1s3b

> <i_i_glide_lignum>
1016

> <i_i_glide_rotatable_bonds>
2

> <r_i_docking_score>
-7.30922087169622

> <r_i_glide_ligand_efficiency>
-0.317792211812879

> <r_i_glide_ligand_efficiency_sa>
-0.903758776684065

> <r_i_glide_ligand_efficiency_ln>
-1.76743588312673

> <r_i_glide_gscore>
-7.30922087169622

> <r_i_glide_lipo>
-4.13625833768637

> <r_i_glide_hbond>
0

> <r_i_glide_metal>
0

> <r_i_glide_rewards>
-1.60907721482221

> <r_i_glide_evdw>
-35.0587043762207

> <r_i_glide_ecoul>
-0.580326497554779

> <r_i_glide_erotb>
0.276098874256607

> <r_i_glide_esite>
0

> <r_i_glide_emodel>
-37.8890656997135

> <r_i_glide_energy>
-35.6390308737755

> <r_i_glide_einternal>
4.13314867019653

> <i_i_glide_confnum>
2

> <i_i_glide_posenum>
16

> <r_i_glide_eff_state_penalty>
0

> <s_user_duplicate_titles>
CHEMBL2039_lig883

> <s_m_subgroup_title>
dock_pv

> <s_m_subgroupid>
dock_pv

> <b_m_subgroup_collapsed>
1

$$$$
CHEMBL2039_lig74
                    3D
 Schrodinger Suite 2021-1.
 31 32  0  0  1  0            999 V2000
   47.5526  159.3791   31.4274 C   0  0  0  0  0  0
   47.0213  160.2777   32.5216 C   0  0  0  0  0  0
   48.9402  159.6020   30.9491 C   0  0  0  0  0  0
   49.4879  158.6085   30.1521 C   0  0  0  0  0  0
   50.8013  158.6589   29.7398 C   0  0  0  0  0  0
   51.5858  159.7790   30.0167 C   0  0  0  0  0  0
   51.0554  160.7907   30.8166 C   0  0  0  0  0  0
   49.7442  160.6966   31.2971 C   0  0  0  0  0  0
   51.2577  157.4651   29.2845 O   0  0  0  0  0  0
   52.2360  157.3817   28.2802 C   0  0  0  0  0  0
   52.0557  156.0058   27.6669 C   0  0  0  0  0  0
   52.2424  155.8021   26.2963 C   0  0  0  0  0  0
   52.1135  154.5181   25.7699 C   0  0  0  0  0  0
   51.8295  153.4611   26.6345 C   0  0  0  0  0  0
   51.5658  153.6671   27.9768 C   0  0  0  0  0  0
   51.6745  154.9406   28.4932 C   0  0  0  0  0  0
   51.8749  151.8449   26.1040 Cl  0  0  0  0  0  0
   46.8557  158.4430   31.0392 O   0  0  0  0  0  0
   47.2000  161.3220   32.2746 H   0  0  0  0  0  0
   47.5346  160.0620   33.4547 H   0  0  0  0  0  0
   45.9495  160.1289   32.6518 H   0  0  0  0  0  0
   48.9298  157.7156   29.9099 H   0  0  0  0  0  0
   52.6230  159.7968   29.7198 H   0  0  0  0  0  0
   51.6775  161.6232   31.1091 H   0  0  0  0  0  0
   49.3815  161.4765   31.9488 H   0  0  0  0  0  0
   52.0553  158.1608   27.5401 H   0  0  0  0  0  0
   53.2449  157.4983   28.6811 H   0  0  0  0  0  0
   52.5097  156.6244   25.6516 H   0  0  0  0  0  0
   52.2996  154.3364   24.7248 H   0  0  0  0  0  0
   51.3040  152.8404   28.6227 H   0  0  0  0  0  0
   51.4860  155.0665   29.5472 H   0  0  0  0  0  0
  1  2  1  0  0  0
  1  3  1  0  0  0
  1 18  2  0  0  0
  2 19  1  0  0  0
  2 20  1  0  0  0
  2 21  1  0  0  0
  3  4  1  0  0  0
  3  8  2  0  0  0
  4  5  2  0  0  0
  4 22  1  0  0  0
  5  6  1  0  0  0
  5  9  1  0  0  0
  6  7  2  0  0  0
  6 23  1  0  0  0
  7  8  1  0  0  0
  7 24  1  0  0  0
  8 25  1  0  0  0
  9 10  1  0  0  0
 10 11  1  0  0  0
 10 26  1  0  0  0
 10 27  1  0  0  0
 11 12  1  0  0  0
 11 16  2  0  0  0
 12 13  2  0  0  0
 12 28  1  0  0  0
 13 14  1  0  0  0
 13 29  1  0  0  0
 14 15  2  0  0  0
 14 17  1  0  0  0
 15 16  1  0  0  0
 15 30  1  0  0  0
 16 31  1  0  0  0
M  END
> <s_m_entry_id>
10296

> <s_m_entry_name>
dock_pv.332

> <s_m_Source_Path>
/home/csk/Desktop/cluster/DUD-E-result/aofb

> <s_m_Source_File>
dock_pv.maegz

> <i_m_Source_File_Index>
332

> <chembl_id>
CHEMBL3771110

> <chembl_pref_name>
None

> <i_lp_mmshare_version>
53161

> <i_f3d_flags>
0

> <r_lp_tautomer_probability>
0.99995

> <s_lp_Force_Field>
OPLS_2005

> <r_lp_Energy>
22.764299

> <b_lp_Chiralities_Consistent>
1

> <s_lp_Variant>
CHEMBL2039_lig74-1

> <s_i_glide_gridfile>
glide-grid_1s3b

> <i_i_glide_lignum>
97

> <i_i_glide_rotatable_bonds>
4

> <r_i_docking_score>
-7.30695356899047

> <r_i_glide_ligand_efficiency>
-0.405941864943915

> <r_i_glide_ligand_efficiency_sa>
-1.06386864807588

> <r_i_glide_ligand_efficiency_ln>
-1.87821473723167

> <r_i_glide_gscore>
-7.30695356899047

> <r_i_glide_lipo>
-3.82695417350345

> <r_i_glide_hbond>
0

> <r_i_glide_metal>
0

> <r_i_glide_rewards>
-2.68028608123578

> <r_i_glide_evdw>
-27.5237483978271

> <r_i_glide_ecoul>
-1.3671692609787

> <r_i_glide_erotb>
0.781549494786924

> <r_i_glide_esite>
0

> <r_i_glide_emodel>
-26.3851914905479

> <r_i_glide_energy>
-28.8909176588058

> <r_i_glide_einternal>
6.82573843002319

> <i_i_glide_confnum>
8

> <i_i_glide_posenum>
134

> <r_i_glide_eff_state_penalty>
0

> <s_user_duplicate_titles>
CHEMBL2039_lig74

> <s_m_subgroup_title>
dock_pv

> <s_m_subgroupid>
dock_pv

> <b_m_subgroup_collapsed>
1

$$$$
CHEMBL2039_lig2310 
                    3D
 Schrodinger Suite 2021-1.
 36 39  0  0  1  0            999 V2000
   49.4938  159.4812   30.6480 C   0  0  0  0  0  0
   50.5239  160.4196   30.5549 C   0  0  0  0  0  0
   51.6964  160.0871   29.8992 C   0  0  0  0  0  0
   51.8372  158.8348   29.3044 C   0  0  0  0  0  0
   50.8587  157.8554   29.4470 C   0  0  0  0  0  0
   49.6732  158.2048   30.1049 C   0  0  0  0  0  0
   48.2604  159.8123   31.3424 C   0  0  0  0  0  0
   48.2300  160.8261   32.2773 N   0  0  0  0  0  0
   47.0308  160.6421   33.0309 C   0  0  0  0  0  0
   46.2182  159.8543   32.0212 C   0  0  0  0  0  0
   47.1693  159.1655   31.2122 N   0  0  0  0  0  0
   51.0799  156.4717   28.9036 C   0  0  0  0  0  0
   51.9061  156.2335   27.8970 N   0  0  0  0  0  0
   51.6128  154.9980   27.5761 C   0  0  0  0  0  0
   50.7254  154.4286   28.4220 O   0  0  0  0  0  0
   50.3682  155.4431   29.3041 N   0  0  0  0  0  0
   52.0560  154.2171   26.3835 C   0  0  0  0  0  0
   52.6587  154.8835   25.3046 C   0  0  0  0  0  0
   53.2694  154.1591   24.2802 C   0  0  0  0  0  0
   53.2522  152.7734   24.2970 C   0  0  0  0  0  0
   52.6425  152.0991   25.3464 C   0  0  0  0  0  0
   52.0355  152.8140   26.3847 C   0  0  0  0  0  0
   52.6202  150.3748   25.3037 Cl  0  0  0  0  0  0
   50.4324  161.4052   30.9898 H   0  0  0  0  0  0
   52.4972  160.8072   29.8387 H   0  0  0  0  0  0
   52.7680  158.6006   28.8083 H   0  0  0  0  0  0
   48.8929  157.4623   30.2021 H   0  0  0  0  0  0
   48.9609  161.0283   32.9438 H   0  0  0  0  0  0
   46.5916  161.5876   33.3383 H   0  0  0  0  0  0
   47.2558  160.0357   33.9098 H   0  0  0  0  0  0
   45.4874  159.1951   32.4875 H   0  0  0  0  0  0
   45.6552  160.5223   31.3682 H   0  0  0  0  0  0
   52.7135  155.9629   25.2917 H   0  0  0  0  0  0
   53.7812  154.6437   23.4676 H   0  0  0  0  0  0
   53.6851  152.2197   23.4788 H   0  0  0  0  0  0
   51.5873  152.2775   27.2089 H   0  0  0  0  0  0
  1  2  2  0  0  0
  1  6  1  0  0  0
  1  7  1  0  0  0
  2  3  1  0  0  0
  2 24  1  0  0  0
  3  4  2  0  0  0
  3 25  1  0  0  0
  4  5  1  0  0  0
  4 26  1  0  0  0
  5  6  2  0  0  0
  5 12  1  0  0  0
  6 27  1  0  0  0
  7  8  1  0  0  0
  7 11  2  0  0  0
  8  9  1  0  0  0
  8 28  1  0  0  0
  9 10  1  0  0  0
  9 29  1  0  0  0
  9 30  1  0  0  0
 10 11  1  0  0  0
 10 31  1  0  0  0
 10 32  1  0  0  0
 12 13  1  0  0  0
 12 16  2  0  0  0
 13 14  2  0  0  0
 14 15  1  0  0  0
 14 17  1  0  0  0
 15 16  1  0  0  0
 17 18  2  0  0  0
 17 22  1  0  0  0
 18 19  1  0  0  0
 18 33  1  0  0  0
 19 20  2  0  0  0
 19 34  1  0  0  0
 20 21  1  0  0  0
 20 35  1  0  0  0
 21 22  2  0  0  0
 21 23  1  0  0  0
 22 36  1  0  0  0
M  END
> <s_m_entry_id>
10297

> <s_m_entry_name>
dock_pv.333

> <s_m_Source_Path>
/home/csk/Desktop/cluster/DUD-E-result/aofb

> <s_m_Source_File>
dock_pv.maegz

> <i_m_Source_File_Index>
333

> <chembl_id>
CHEMBL4538263

> <chembl_pref_name>
None

> <i_lp_mmshare_version>
53161

> <i_f3d_flags>
0

> <r_lp_tautomer_probability>
0.499999999998415

> <s_lp_Force_Field>
OPLS_2005

> <r_lp_Energy>
28.462657

> <b_lp_Chiralities_Consistent>
1

> <s_lp_Variant>
CHEMBL2039_lig2310 -1

> <s_i_glide_gridfile>
glide-grid_1s3b

> <i_i_glide_lignum>
2681

> <i_i_glide_rotatable_bonds>
3

> <r_i_docking_score>
-7.30661183779298

> <r_i_glide_ligand_efficiency>
-0.317678775556217

> <r_i_glide_ligand_efficiency_sa>
-0.903436179059761

> <r_i_glide_ligand_efficiency_ln>
-1.76680499507152

> <r_i_glide_gscore>
-7.30661183779298

> <r_i_glide_lipo>
-3.70960601205785

> <r_i_glide_hbond>
0

> <r_i_glide_metal>
0

> <r_i_glide_rewards>
-2.71601984696388

> <r_i_glide_evdw>
-26.5180950164795

> <r_i_glide_ecoul>
-0.58593612909317

> <r_i_glide_erotb>
0.532809191416699

> <r_i_glide_esite>
0

> <r_i_glide_emodel>
-32.3562858326603

> <r_i_glide_energy>
-27.1040311455727

> <r_i_glide_einternal>
1.45985400676727

> <i_i_glide_confnum>
10

> <i_i_glide_posenum>
38

> <r_i_glide_eff_state_penalty>
0

> <s_user_duplicate_titles>
CHEMBL2039_lig2310 

> <s_m_subgroup_title>
dock_pv

> <s_m_subgroupid>
dock_pv

> <b_m_subgroup_collapsed>
1

$$$$
CHEMBL2039_lig2264
                    3D
 Schrodinger Suite 2021-1.
 25 27  0  0  1  0            999 V2000
   52.1624  154.2195   25.6672 C   0  0  0  0  0  0
   51.4625  153.4454   26.5927 C   0  0  0  0  0  0
   51.0356  153.9869   27.8056 C   0  0  0  0  0  0
   52.5326  155.5415   25.9547 C   0  0  0  0  0  0
   52.1644  156.0908   27.1955 C   0  0  0  0  0  0
   51.3513  155.3289   28.0598 C   0  0  0  0  0  0
   50.8559  156.1143   29.0611 O   0  0  0  0  0  0
   51.4252  157.3534   28.9040 C   0  0  0  0  0  0
   52.3986  157.3093   27.9099 C   0  0  0  0  0  0
   50.8566  158.4875   29.7006 C   0  0  0  0  0  0
   51.6446  159.6025   30.0168 C   0  0  0  0  0  0
   51.1308  160.6439   30.7902 C   0  0  0  0  0  0
   49.8095  160.6024   31.2267 C   0  0  0  0  0  0
   49.0041  159.5108   30.8971 C   0  0  0  0  0  0
   49.5301  158.4607   30.1473 C   0  0  0  0  0  0
   47.1953  159.4465   31.4740 Br  0  0  0  0  0  0
   52.4626  153.7770   24.7289 H   0  0  0  0  0  0
   51.2258  152.4176   26.3562 H   0  0  0  0  0  0
   50.4563  153.4107   28.5041 H   0  0  0  0  0  0
   53.1291  156.1096   25.2594 H   0  0  0  0  0  0
   53.0221  158.1377   27.6200 H   0  0  0  0  0  0
   52.6776  159.6358   29.7013 H   0  0  0  0  0  0
   51.7619  161.4758   31.0656 H   0  0  0  0  0  0
   49.4116  161.4082   31.8246 H   0  0  0  0  0  0
   48.9066  157.6039   29.9470 H   0  0  0  0  0  0
  1  2  2  0  0  0
  1  4  1  0  0  0
  1 17  1  0  0  0
  2  3  1  0  0  0
  2 18  1  0  0  0
  3  6  2  0  0  0
  3 19  1  0  0  0
  4  5  2  0  0  0
  4 20  1  0  0  0
  5  6  1  0  0  0
  5  9  1  0  0  0
  6  7  1  0  0  0
  7  8  1  0  0  0
  8  9  2  0  0  0
  8 10  1  0  0  0
  9 21  1  0  0  0
 10 11  2  0  0  0
 10 15  1  0  0  0
 11 12  1  0  0  0
 11 22  1  0  0  0
 12 13  2  0  0  0
 12 23  1  0  0  0
 13 14  1  0  0  0
 13 24  1  0  0  0
 14 15  2  0  0  0
 14 16  1  0  0  0
 15 25  1  0  0  0
M  END
> <s_m_entry_id>
10298

> <s_m_entry_name>
dock_pv.334

> <s_m_Source_Path>
/home/csk/Desktop/cluster/DUD-E-result/aofb

> <s_m_Source_File>
dock_pv.maegz

> <i_m_Source_File_Index>
334

> <chembl_id>
CHEMBL4280234

> <chembl_pref_name>
None

> <i_lp_mmshare_version>
53161

> <i_f3d_flags>
0

> <r_lp_tautomer_probability>
1

> <s_lp_Force_Field>
OPLS_2005

> <r_lp_Energy>
9.123557

> <b_lp_Chiralities_Consistent>
1

> <s_lp_Variant>
CHEMBL2039_lig2264-1

> <s_i_glide_gridfile>
glide-grid_1s3b

> <i_i_glide_lignum>
2624

> <i_i_glide_rotatable_bonds>
1

> <r_i_docking_score>
-7.30476778550008

> <r_i_glide_ligand_efficiency>
-0.456547986593755

> <r_i_glide_ligand_efficiency_sa>
-1.15042883612997

> <r_i_glide_ligand_efficiency_ln>
-1.93627461759554

> <r_i_glide_gscore>
-7.30476778550008

> <r_i_glide_lipo>
-3.78929832590457

> <r_i_glide_hbond>
0

> <r_i_glide_metal>
0

> <r_i_glide_rewards>
-2.44687731818182

> <r_i_glide_evdw>
-22.8701705932617

> <r_i_glide_ecoul>
-1.10328590869904

> <r_i_glide_erotb>
0.240409274554252

> <r_i_glide_esite>
0

> <r_i_glide_emodel>
-26.8918552008791

> <r_i_glide_energy>
-23.9734565019608

> <r_i_glide_einternal>
1.26080477237701

> <i_i_glide_confnum>
1

> <i_i_glide_posenum>
276

> <r_i_glide_eff_state_penalty>
0

> <s_user_duplicate_titles>
CHEMBL2039_lig2264

> <s_m_subgroup_title>
dock_pv

> <s_m_subgroupid>
dock_pv

> <b_m_subgroup_collapsed>
1

$$$$
CHEMBL2039_lig729
                    3D
 Schrodinger Suite 2021-1.
 31 33  0  0  1  0            999 V2000
   51.8889  159.8636   30.1040 C   0  0  0  0  0  0
   51.8744  161.0027   30.8894 C   0  0  0  0  0  0
   50.7078  161.3438   31.5442 C   0  0  0  0  0  0
   50.7650  159.0336   29.9744 C   0  0  0  0  0  0
   49.5675  159.4086   30.6342 C   0  0  0  0  0  0
   49.5666  160.5792   31.4092 C   0  0  0  0  0  0
   48.4632  161.0423   32.0984 O   0  0  0  0  0  0
   47.3230  160.3225   32.0215 C   0  0  0  0  0  0
   47.1926  159.1772   31.3380 C   0  0  0  0  0  0
   48.3122  158.5897   30.6261 C   0  0  0  0  0  0
   48.2170  157.4904   30.1040 O   0  0  0  0  0  0
   50.8491  157.8183   29.3040 O   0  0  0  0  0  0
   52.0481  157.4440   28.5995 C   0  0  0  0  0  0
   51.8677  156.1314   27.8462 C   0  0  0  0  0  0
   52.2055  156.0555   26.4904 C   0  0  0  0  0  0
   52.0560  154.8573   25.7957 C   0  0  0  0  0  0
   51.5924  153.7282   26.4658 C   0  0  0  0  0  0
   51.2560  153.7949   27.8158 C   0  0  0  0  0  0
   51.3800  154.9994   28.5040 C   0  0  0  0  0  0
   52.8324  159.5965   29.6583 H   0  0  0  0  0  0
   52.7604  161.6122   30.9969 H   0  0  0  0  0  0
   50.6714  162.2577   32.1040 H   0  0  0  0  0  0
   46.5177  160.7754   32.5819 H   0  0  0  0  0  0
   46.2396  158.6739   31.3294 H   0  0  0  0  0  0
   52.8561  157.2871   29.3040 H   0  0  0  0  0  0
   52.3454  158.2350   27.9113 H   0  0  0  0  0  0
   52.5815  156.9246   25.9717 H   0  0  0  0  0  0
   52.3156  154.7989   24.7489 H   0  0  0  0  0  0
   51.4909  152.7934   25.9354 H   0  0  0  0  0  0
   50.8942  152.9159   28.3289 H   0  0  0  0  0  0
   51.1133  155.0440   29.5500 H   0  0  0  0  0  0
  1  2  2  0  0  0
  1  4  1  0  0  0
  1 20  1  0  0  0
  2  3  1  0  0  0
  2 21  1  0  0  0
  3  6  2  0  0  0
  3 22  1  0  0  0
  4 12  1  0  0  0
  4  5  2  0  0  0
  5  6  1  0  0  0
  5 10  1  0  0  0
  6  7  1  0  0  0
  7  8  1  0  0  0
  8  9  2  0  0  0
  8 23  1  0  0  0
  9 10  1  0  0  0
  9 24  1  0  0  0
 10 11  2  0  0  0
 12 13  1  0  0  0
 13 14  1  0  0  0
 13 25  1  0  0  0
 13 26  1  0  0  0
 14 15  2  0  0  0
 14 19  1  0  0  0
 15 16  1  0  0  0
 15 27  1  0  0  0
 16 17  2  0  0  0
 16 28  1  0  0  0
 17 18  1  0  0  0
 17 29  1  0  0  0
 18 19  2  0  0  0
 18 30  1  0  0  0
 19 31  1  0  0  0
M  END
> <s_m_entry_id>
10299

> <s_m_entry_name>
dock_pv.335

> <s_m_Source_Path>
/home/csk/Desktop/cluster/DUD-E-result/aofb

> <s_m_Source_File>
dock_pv.maegz

> <i_m_Source_File_Index>
335

> <chembl_id>
CHEMBL2062880

> <chembl_pref_name>
None

> <i_lp_mmshare_version>
53161

> <i_f3d_flags>
0

> <r_lp_tautomer_probability>
1

> <s_lp_Force_Field>
OPLS_2005

> <r_lp_Energy>
19.025412

> <b_lp_Chiralities_Consistent>
1

> <s_lp_Variant>
CHEMBL2039_lig729-1

> <s_i_glide_gridfile>
glide-grid_1s3b

> <i_i_glide_lignum>
858

> <i_i_glide_rotatable_bonds>
3

> <r_i_docking_score>
-7.30426956113654

> <r_i_glide_ligand_efficiency>
-0.384435240059818

> <r_i_glide_ligand_efficiency_sa>
-1.02582762739561

> <r_i_glide_ligand_efficiency_ln>
-1.85178921507365

> <r_i_glide_gscore>
-7.30426956113654

> <r_i_glide_lipo>
-4.01551916924818

> <r_i_glide_hbond>
0

> <r_i_glide_metal>
0

> <r_i_glide_rewards>
-2.58910445454546

> <r_i_glide_evdw>
-24.266960144043

> <r_i_glide_ecoul>
-2.08936738967896

> <r_i_glide_erotb>
0.82710717831108

> <r_i_glide_esite>
0

> <r_i_glide_emodel>
-35.0797070350229

> <r_i_glide_energy>
-26.3563275337219

> <r_i_glide_einternal>
0.709470510482788

> <i_i_glide_confnum>
8

> <i_i_glide_posenum>
28

> <r_i_glide_eff_state_penalty>
0

> <s_user_duplicate_titles>
CHEMBL2039_lig729

> <s_m_subgroup_title>
dock_pv

> <s_m_subgroupid>
dock_pv

> <b_m_subgroup_collapsed>
1

$$$$
CHEMBL2039_lig1445
                    3D
 Schrodinger Suite 2021-1.
 47 48  0  0  1  0            999 V2000
   52.4560  156.3562   28.0223 C   0  0  0  0  0  0
   51.4514  155.4589   28.3350 C   0  0  0  0  0  0
   50.4560  155.8687   29.2274 C   0  0  0  0  0  0
   50.4560  157.1943   29.7040 C   0  0  0  0  0  0
   51.4328  158.1167   29.3065 C   0  0  0  0  0  0
   52.4560  157.6483   28.4947 C   0  0  0  0  0  0
   51.5247  159.4728   29.7040 N   0  0  0  0  0  0
   50.9182  160.2010   30.8326 C   0  0  0  0  0  0
   49.3915  160.2088   30.9546 C   0  0  0  0  0  0
   51.5332  154.0483   27.7391 C   0  0  0  0  0  0
   51.4944  153.8953   26.1658 C   0  0  2  0  0  0
   52.2768  152.6851   25.7863 N   0  0  2  0  0  0
   51.9666  155.1315   25.3519 C   0  0  0  0  0  0
   52.8560  152.6676   24.4289 C   0  0  0  0  0  0
   51.5666  151.4691   26.2392 C   0  0  0  0  0  0
   52.0560  150.1747   25.7040 C   0  0  0  0  0  0
   52.4699  149.0962   25.3040 C   0  0  0  0  0  0
   48.7567  160.7297   32.0987 C   0  0  0  0  0  0
   47.3864  160.5472   32.2914 C   0  0  0  0  0  0
   46.6361  159.8430   31.3533 C   0  0  0  0  0  0
   47.2560  159.3888   30.1947 C   0  0  0  0  0  0
   48.5940  159.6468   29.9584 C   0  0  0  0  0  0
   49.4293  161.4440   33.0513 O   0  0  0  0  0  0
   46.5882  158.6440   29.3054 F   0  0  0  0  0  0
   53.2560  156.0553   27.3804 H   0  0  0  0  0  0
   49.6840  155.1817   29.5405 H   0  0  0  0  0  0
   49.6873  157.4741   30.4021 H   0  0  0  0  0  0
   53.3015  158.2441   28.2107 H   0  0  0  0  0  0
   52.4263  159.8440   29.4488 H   0  0  0  0  0  0
   51.3561  159.8440   31.7620 H   0  0  0  0  0  0
   51.2386  161.2400   30.7478 H   0  0  0  0  0  0
   50.7362  153.4441   28.1712 H   0  0  0  0  0  0
   52.4559  153.6183   28.1351 H   0  0  0  0  0  0
   50.4563  153.7145   25.8830 H   0  0  0  0  0  0
   51.4901  156.0402   25.7040 H   0  0  0  0  0  0
   53.0448  155.2818   25.4047 H   0  0  0  0  0  0
   51.6960  155.0448   24.2994 H   0  0  0  0  0  0
   53.6101  153.4462   24.3180 H   0  0  0  0  0  0
   53.3746  151.7418   24.1836 H   0  0  0  0  0  0
   52.0857  152.8447   23.6859 H   0  0  0  0  0  0
   50.4908  151.5092   26.1040 H   0  0  0  0  0  0
   51.6559  151.4440   27.3100 H   0  0  0  0  0  0
   52.8529  148.1622   24.9552 H   0  0  0  0  0  0
   46.9093  160.9330   33.1806 H   0  0  0  0  0  0
   45.5848  159.6542   31.5178 H   0  0  0  0  0  0
   49.0224  159.3011   29.0311 H   0  0  0  0  0  0
   50.3725  161.5700   32.9040 H   0  0  0  0  0  0
  1  2  2  0  0  0
  1  6  1  0  0  0
  1 25  1  0  0  0
  2  3  1  0  0  0
  2 10  1  0  0  0
  3  4  2  0  0  0
  3 26  1  0  0  0
  4  5  1  0  0  0
  4 27  1  0  0  0
  5  6  2  0  0  0
  5  7  1  0  0  0
  6 28  1  0  0  0
  7  8  1  0  0  0
  7 29  1  0  0  0
  8  9  1  0  0  0
  8 30  1  0  0  0
  8 31  1  0  0  0
  9 18  2  0  0  0
  9 22  1  0  0  0
 10 11  1  0  0  0
 10 32  1  0  0  0
 10 33  1  0  0  0
 11 12  1  0  0  0
 11 13  1  0  0  0
 11 34  1  0  0  0
 12 14  1  0  0  0
 12 15  1  0  0  0
 13 35  1  0  0  0
 13 36  1  0  0  0
 13 37  1  0  0  0
 14 38  1  0  0  0
 14 39  1  0  0  0
 14 40  1  0  0  0
 15 16  1  0  0  0
 15 41  1  0  0  0
 15 42  1  0  0  0
 16 17  3  0  0  0
 17 43  1  0  0  0
 18 19  1  0  0  0
 18 23  1  0  0  0
 19 20  2  0  0  0
 19 44  1  0  0  0
 20 21  1  0  0  0
 20 45  1  0  0  0
 21 22  2  0  0  0
 21 24  1  0  0  0
 22 46  1  0  0  0
 23 47  1  0  0  0
M  END
> <s_m_entry_id>
10300

> <s_m_entry_name>
dock_pv.336

> <s_m_Source_Path>
/home/csk/Desktop/cluster/DUD-E-result/aofb

> <s_m_Source_File>
dock_pv.maegz

> <i_m_Source_File_Index>
336

> <chembl_id>
CHEMBL3585854

> <chembl_pref_name>
None

> <i_lp_mmshare_version>
53161

> <i_f3d_flags>
0

> <r_lp_tautomer_probability>
0.999999999997365

> <s_lp_Force_Field>
OPLS_2005

> <r_lp_Energy>
22.384551

> <b_lp_Chiralities_Consistent>
1

> <s_lp_Variant>
CHEMBL2039_lig1445-1

> <s_i_glide_gridfile>
glide-grid_1s3b

> <i_i_glide_lignum>
1669

> <i_i_glide_rotatable_bonds>
9

> <r_i_docking_score>
-7.29337179499635

> <r_i_glide_ligand_efficiency>
-0.303890491458181

> <r_i_glide_ligand_efficiency_sa>
-0.876571860523541

> <r_i_glide_ligand_efficiency_ln>
-1.74563854156684

> <r_i_glide_gscore>
-7.29337179499635

> <r_i_glide_lipo>
-4.68461858420056

> <r_i_glide_hbond>
-0.323275269001755

> <r_i_glide_metal>
0

> <r_i_glide_rewards>
-2.01042797199782

> <r_i_glide_evdw>
-20.9695682525635

> <r_i_glide_ecoul>
-4.23194026947021

> <r_i_glide_erotb>
1.40821948325248

> <r_i_glide_esite>
0

> <r_i_glide_emodel>
-24.6089349335099

> <r_i_glide_energy>
-25.2015085220337

> <r_i_glide_einternal>
12.6332759857178

> <i_i_glide_confnum>
68

> <i_i_glide_posenum>
123

> <r_i_glide_eff_state_penalty>
0

> <s_user_duplicate_titles>
CHEMBL2039_lig1445

> <s_m_subgroup_title>
dock_pv

> <s_m_subgroupid>
dock_pv

> <b_m_subgroup_collapsed>
1

$$$$
CHEMBL2039_lig2297
                    3D
 Schrodinger Suite 2021-1.
 35 37  0  0  1  0            999 V2000
   50.4609  155.4440   29.2032 S   0  0  0  0  0  0
   52.8855  156.4132   24.9040 O   0  0  0  0  0  0
   51.7381  159.5007   29.6463 O   0  0  0  0  0  0
   51.3925  153.6932   27.4854 N   0  0  0  0  0  0
   51.9227  155.9295   26.9729 N   0  0  0  0  0  0
   52.4968  154.1230   25.3950 C   0  0  0  0  0  0
   51.9883  153.2062   26.3218 C   0  0  0  0  0  0
   52.4560  155.6043   25.7214 C   0  0  0  0  0  0
   51.4049  155.0461   27.7324 C   0  0  0  0  0  0
   53.1120  153.6615   24.2278 C   0  0  0  0  0  0
   52.1159  151.8440   26.1040 C   0  0  0  0  0  0
   53.2560  152.2925   24.0366 C   0  0  0  0  0  0
   52.8560  151.3841   25.0109 C   0  0  0  0  0  0
   50.6351  157.2633   29.4529 C   0  0  0  0  0  0
   50.5885  160.0802   30.1583 C   0  0  0  0  0  0
   51.7030  158.2486   28.9126 C   0  0  0  0  0  0
   50.6692  160.6319   31.4369 C   0  0  0  0  0  0
   49.3613  160.1007   29.4842 C   0  0  0  0  0  0
   49.5168  161.0440   32.1030 C   0  0  0  0  0  0
   48.2065  160.5193   30.1412 C   0  0  0  0  0  0
   48.2831  160.9585   31.4614 C   0  0  0  0  0  0
   51.0027  153.0633   28.1666 H   0  0  0  0  0  0
   53.5053  154.3344   23.4813 H   0  0  0  0  0  0
   51.6560  151.1462   26.7877 H   0  0  0  0  0  0
   53.6828  151.9306   23.1176 H   0  0  0  0  0  0
   52.9797  150.3234   24.8481 H   0  0  0  0  0  0
   50.7081  157.3882   30.5040 H   0  0  0  0  0  0
   49.6579  157.6786   29.3041 H   0  0  0  0  0  0
   51.6560  158.4394   27.8457 H   0  0  0  0  0  0
   52.6800  157.7833   29.0277 H   0  0  0  0  0  0
   51.6203  160.6599   31.9496 H   0  0  0  0  0  0
   49.2957  159.7449   28.4678 H   0  0  0  0  0  0
   49.5848  161.4237   33.1124 H   0  0  0  0  0  0
   47.2560  160.4933   29.6323 H   0  0  0  0  0  0
   47.3869  161.2722   31.9761 H   0  0  0  0  0  0
  1 14  1  0  0  0
  1  9  1  0  0  0
  2  8  2  0  0  0
  3 15  1  0  0  0
  3 16  1  0  0  0
  4  7  1  0  0  0
  4 22  1  0  0  0
  4  9  1  0  0  0
  5  9  2  0  0  0
  5  8  1  0  0  0
  6  8  1  0  0  0
  6 10  1  0  0  0
  6  7  2  0  0  0
  7 11  1  0  0  0
 10 23  1  0  0  0
 10 12  2  0  0  0
 11 13  2  0  0  0
 11 24  1  0  0  0
 12 25  1  0  0  0
 12 13  1  0  0  0
 13 26  1  0  0  0
 14 16  1  0  0  0
 14 27  1  0  0  0
 14 28  1  0  0  0
 15 17  2  0  0  0
 15 18  1  0  0  0
 16 29  1  0  0  0
 16 30  1  0  0  0
 17 19  1  0  0  0
 17 31  1  0  0  0
 18 20  2  0  0  0
 18 32  1  0  0  0
 19 21  2  0  0  0
 19 33  1  0  0  0
 20 21  1  0  0  0
 20 34  1  0  0  0
 21 35  1  0  0  0
M  END
> <s_m_entry_id>
10301

> <s_m_entry_name>
dock_pv.337

> <s_m_Source_Path>
/home/csk/Desktop/cluster/DUD-E-result/aofb

> <s_m_Source_File>
dock_pv.maegz

> <i_m_Source_File_Index>
337

> <chembl_id>
CHEMBL1543726

> <chembl_pref_name>
None

> <i_lp_mmshare_version>
53161

> <i_f3d_flags>
0

> <r_lp_tautomer_probability>
0.116051

> <s_lp_Force_Field>
OPLS_2005

> <r_lp_Energy>
16.681633

> <b_lp_Chiralities_Consistent>
1

> <s_lp_Variant>
CHEMBL2039_lig2297-2

> <s_i_glide_gridfile>
glide-grid_1s3b

> <i_i_glide_lignum>
2668

> <i_i_glide_rotatable_bonds>
5

> <r_i_docking_score>
-7.28822733318757

> <r_i_glide_ligand_efficiency>
-0.347058444437503

> <r_i_glide_ligand_efficiency_sa>
-0.957507932004134

> <r_i_glide_ligand_efficiency_ln>
-1.80199948088061

> <r_i_glide_gscore>
-7.28822733318757

> <r_i_glide_lipo>
-4.18771478030694

> <r_i_glide_hbond>
0

> <r_i_glide_metal>
0

> <r_i_glide_rewards>
-2.17728345518042

> <r_i_glide_evdw>
-24.5407371520996

> <r_i_glide_ecoul>
-2.09728264808655

> <r_i_glide_erotb>
0.618400157117753

> <r_i_glide_esite>
0

> <r_i_glide_emodel>
-20.4787759725911

> <r_i_glide_energy>
-26.6380198001862

> <r_i_glide_einternal>
12.3607749938965

> <i_i_glide_confnum>
17

> <i_i_glide_posenum>
359

> <r_i_glide_eff_state_penalty>
0

> <s_user_duplicate_titles>
CHEMBL2039_lig2297

> <s_m_subgroup_title>
dock_pv

> <s_m_subgroupid>
dock_pv

> <b_m_subgroup_collapsed>
1

$$$$
CHEMBL2039_lig2633 
                    3D
 Schrodinger Suite 2021-1.
 31 33  0  0  1  0            999 V2000
   52.8369  156.6148   25.3647 O   0  0  0  0  0  0
   52.4560  155.7076   26.1040 C   0  0  0  0  0  0
   52.4560  154.2954   25.6222 C   0  0  0  0  0  0
   53.0725  153.9340   24.4182 C   0  0  0  0  0  0
   53.2560  152.5934   24.0987 C   0  0  0  0  0  0
   52.8560  151.5949   24.9796 C   0  0  0  0  0  0
   52.1038  151.9424   26.1040 C   0  0  0  0  0  0
   51.9404  153.2802   26.4359 C   0  0  0  0  0  0
   51.3212  153.5455   27.6319 O   0  0  0  0  0  0
   51.5268  154.7689   28.1665 C   0  0  0  0  0  0
   52.0560  155.8439   27.5268 C   0  0  0  0  0  0
   52.2607  157.0851   28.2472 C   0  0  0  0  0  0
   51.1849  157.4294   28.9798 N   0  0  0  0  0  0
   50.8096  158.5768   29.7040 C   0  0  0  0  0  0
   49.4926  158.5871   30.1793 C   0  0  0  0  0  0
   49.0488  159.6005   31.0206 C   0  0  0  0  0  0
   49.9264  160.6083   31.3983 C   0  0  0  0  0  0
   51.2228  160.6440   30.8921 C   0  0  0  0  0  0
   51.6560  159.6389   30.0299 C   0  0  0  0  0  0
   53.2857  157.7451   28.1342 O   0  0  0  0  0  0
   49.5230  161.5287   32.2987 F   0  0  0  0  0  0
   53.4806  154.6744   23.7484 H   0  0  0  0  0  0
   53.7360  152.3280   23.1693 H   0  0  0  0  0  0
   53.0105  150.5556   24.7288 H   0  0  0  0  0  0
   51.6560  151.1840   26.7291 H   0  0  0  0  0  0
   51.2128  154.7659   29.2031 H   0  0  0  0  0  0
   50.4387  156.7584   28.9120 H   0  0  0  0  0  0
   48.8122  157.7772   29.9647 H   0  0  0  0  0  0
   48.0458  159.5800   31.4203 H   0  0  0  0  0  0
   51.8988  161.4281   31.2010 H   0  0  0  0  0  0
   52.6822  159.6446   29.6974 H   0  0  0  0  0  0
  1  2  2  0  0  0
  2  3  1  0  0  0
  2 11  1  0  0  0
  3  4  2  0  0  0
  3  8  1  0  0  0
  4  5  1  0  0  0
  4 22  1  0  0  0
  5  6  2  0  0  0
  5 23  1  0  0  0
  6  7  1  0  0  0
  6 24  1  0  0  0
  7  8  2  0  0  0
  7 25  1  0  0  0
  8  9  1  0  0  0
  9 10  1  0  0  0
 10 11  2  0  0  0
 10 26  1  0  0  0
 11 12  1  0  0  0
 12 13  1  0  0  0
 12 20  2  0  0  0
 13 14  1  0  0  0
 13 27  1  0  0  0
 14 15  2  0  0  0
 14 19  1  0  0  0
 15 16  1  0  0  0
 15 28  1  0  0  0
 16 17  2  0  0  0
 16 29  1  0  0  0
 17 18  1  0  0  0
 17 21  1  0  0  0
 18 19  2  0  0  0
 18 30  1  0  0  0
 19 31  1  0  0  0
M  END
> <s_m_entry_id>
10302

> <s_m_entry_name>
dock_pv.338

> <s_m_Source_Path>
/home/csk/Desktop/cluster/DUD-E-result/aofb

> <s_m_Source_File>
dock_pv.maegz

> <i_m_Source_File_Index>
338

> <chembl_id>
CHEMBL4588031

> <chembl_pref_name>
None

> <i_lp_mmshare_version>
53161

> <i_f3d_flags>
0

> <r_lp_tautomer_probability>
1

> <s_lp_Force_Field>
OPLS_2005

> <r_lp_Energy>
24.404026

> <b_lp_Chiralities_Consistent>
1

> <s_lp_Variant>
CHEMBL2039_lig2633 -1

> <s_i_glide_gridfile>
glide-grid_1s3b

> <i_i_glide_lignum>
3052

> <i_i_glide_rotatable_bonds>
3

> <r_i_docking_score>
-7.28772195909664

> <r_i_glide_ligand_efficiency>
-0.347034379004602

> <r_i_glide_ligand_efficiency_sa>
-0.957441537299554

> <r_i_glide_ligand_efficiency_ln>
-1.80187452815783

> <r_i_glide_gscore>
-7.28772195909664

> <r_i_glide_lipo>
-3.94349204866821

> <r_i_glide_hbond>
0

> <r_i_glide_metal>
0

> <r_i_glide_rewards>
-2.83407484961226

> <r_i_glide_evdw>
-24.3554763793945

> <r_i_glide_ecoul>
0.203749030828476

> <r_i_glide_erotb>
0.677056403529292

> <r_i_glide_esite>
0

> <r_i_glide_emodel>
-22.0530128199358

> <r_i_glide_energy>
-24.1517273485661

> <r_i_glide_einternal>
9.28665065765381

> <i_i_glide_confnum>
9

> <i_i_glide_posenum>
336

> <r_i_glide_eff_state_penalty>
0

> <s_user_duplicate_titles>
CHEMBL2039_lig2633 

> <s_m_subgroup_title>
dock_pv

> <s_m_subgroupid>
dock_pv

> <b_m_subgroup_collapsed>
1

$$$$
CHEMBL2039_lig1560
                    3D
 Schrodinger Suite 2021-1.
 28 29  0  0  1  0            999 V2000
   50.9065  159.5522   30.1040 C   0  0  0  0  0  0
   50.9888  158.2386   29.4566 C   0  0  0  0  0  0
   52.0087  157.8504   28.6652 C   0  0  0  0  0  0
   51.8545  160.3400   30.1040 O   0  0  0  0  0  0
   52.0559  156.5515   27.9750 C   0  0  0  0  0  0
   52.4896  156.5255   26.6549 C   0  0  0  0  0  0
   52.4560  155.3493   25.9197 C   0  0  0  0  0  0
   52.0560  154.1600   26.5354 C   0  0  0  0  0  0
   51.5615  154.1863   27.8403 C   0  0  0  0  0  0
   51.5329  155.3846   28.5394 C   0  0  0  0  0  0
   49.6672  159.8981   30.8099 C   0  0  0  0  0  0
   49.4863  160.9032   31.7603 C   0  0  0  0  0  0
   48.1726  160.9939   32.2334 C   0  0  0  0  0  0
   47.3303  160.0709   31.6364 C   0  0  0  0  0  0
   48.1579  159.0686   30.5040 S   0  0  0  0  0  0
   45.6560  159.8436   31.8848 Cl  0  0  0  0  0  0
   52.2228  152.8348   25.8154 C   0  0  0  0  0  0
   51.2561  152.0022   26.1841 F   0  0  0  0  0  0
   52.1899  153.0440   24.5040 F   0  0  0  0  0  0
   53.3800  152.2440   26.1040 F   0  0  0  0  0  0
   50.1743  157.5535   29.6250 H   0  0  0  0  0  0
   52.8537  158.5050   28.5040 H   0  0  0  0  0  0
   52.8567  157.4250   26.1976 H   0  0  0  0  0  0
   52.8319  155.3519   24.9071 H   0  0  0  0  0  0
   51.2237  153.2821   28.3266 H   0  0  0  0  0  0
   51.1302  155.3817   29.5401 H   0  0  0  0  0  0
   50.2846  161.5474   32.1039 H   0  0  0  0  0  0
   47.8475  161.7116   32.9717 H   0  0  0  0  0  0
  1  2  1  0  0  0
  1  4  2  0  0  0
  1 11  1  0  0  0
  2  3  2  0  0  0
  2 21  1  0  0  0
  3  5  1  0  0  0
  3 22  1  0  0  0
  5  6  1  0  0  0
  5 10  2  0  0  0
  6  7  2  0  0  0
  6 23  1  0  0  0
  7  8  1  0  0  0
  7 24  1  0  0  0
  8  9  2  0  0  0
  8 17  1  0  0  0
  9 10  1  0  0  0
  9 25  1  0  0  0
 10 26  1  0  0  0
 11 12  2  0  0  0
 11 15  1  0  0  0
 12 13  1  0  0  0
 12 27  1  0  0  0
 13 14  2  0  0  0
 13 28  1  0  0  0
 14 15  1  0  0  0
 14 16  1  0  0  0
 17 18  1  0  0  0
 17 19  1  0  0  0
 17 20  1  0  0  0
M  END
> <s_m_entry_id>
10303

> <s_m_entry_name>
dock_pv.339

> <s_m_Source_Path>
/home/csk/Desktop/cluster/DUD-E-result/aofb

> <s_m_Source_File>
dock_pv.maegz

> <i_m_Source_File_Index>
339

> <chembl_id>
CHEMBL3734767

> <chembl_pref_name>
None

> <i_lp_mmshare_version>
53161

> <i_f3d_flags>
0

> <r_lp_tautomer_probability>
1

> <s_lp_Force_Field>
OPLS_2005

> <r_lp_Energy>
7.609776

> <b_lp_Chiralities_Consistent>
1

> <s_lp_Variant>
CHEMBL2039_lig1560-1

> <s_i_glide_gridfile>
glide-grid_1s3b

> <i_i_glide_lignum>
1821

> <i_i_glide_rotatable_bonds>
4

> <r_i_docking_score>
-7.28348986437222

> <r_i_glide_ligand_efficiency>
-0.364174493218611

> <r_i_glide_ligand_efficiency_sa>
-0.988521658920005

> <r_i_glide_ligand_efficiency_ln>
-1.82281728747906

> <r_i_glide_gscore>
-7.28348986437222

> <r_i_glide_lipo>
-3.50014157397741

> <r_i_glide_hbond>
0

> <r_i_glide_metal>
0

> <r_i_glide_rewards>
-2.56206174245878

> <r_i_glide_evdw>
-29.0769786834717

> <r_i_glide_ecoul>
-0.673879742622375

> <r_i_glide_erotb>
0.371244688321367

> <r_i_glide_esite>
-0.0376003406904598

> <r_i_glide_emodel>
-36.2607858119193

> <r_i_glide_energy>
-29.7508584260941

> <r_i_glide_einternal>
5.86018991470337

> <i_i_glide_confnum>
3

> <i_i_glide_posenum>
334

> <r_i_glide_eff_state_penalty>
0

> <s_user_duplicate_titles>
CHEMBL2039_lig1560

> <s_m_subgroup_title>
dock_pv

> <s_m_subgroupid>
dock_pv

> <b_m_subgroup_collapsed>
1

$$$$
CHEMBL2039_lig1741
                    3D
 Schrodinger Suite 2021-1.
 38 40  0  0  1  0            999 V2000
   52.4558  156.2947   27.0364 C   0  0  0  0  0  0
   51.6813  156.6167   28.2216 C   0  0  0  0  0  0
   50.9875  155.3496   28.6966 C   0  0  0  0  0  0
   51.4164  154.3337   27.6840 C   0  0  0  0  0  0
   51.2560  152.9589   27.6572 C   0  0  0  0  0  0
   51.5870  152.2440   26.5096 C   0  0  0  0  0  0
   52.1921  152.8812   25.4266 C   0  0  0  0  0  0
   52.4487  154.2466   25.4872 C   0  0  0  0  0  0
   52.0598  154.9490   26.6297 C   0  0  0  0  0  0
   53.2560  157.0440   26.4997 O   0  0  0  0  0  0
   51.6727  157.8956   28.6630 C   0  0  0  0  0  0
   50.8351  158.5518   29.6653 C   0  0  0  0  0  0
   49.6386  157.9946   30.1040 C   0  0  0  0  0  0
   48.8083  158.6855   30.9601 C   0  0  0  0  0  0
   49.1998  159.9271   31.4577 C   0  0  0  0  0  0
   50.3965  160.4994   30.9967 C   0  0  0  0  0  0
   51.2069  159.8195   30.1040 C   0  0  0  0  0  0
   51.2560  150.9188   26.4674 O   0  0  0  0  0  0
   48.4173  160.5693   32.4371 N   0  0  0  0  0  0
   49.0191  161.6511   33.1793 C   0  0  0  0  0  0
   47.2975  159.8983   33.0722 C   0  0  0  0  0  0
   51.2609  155.0440   29.7040 H   0  0  0  0  0  0
   49.9027  155.4196   28.6568 H   0  0  0  0  0  0
   50.8129  152.4484   28.4970 H   0  0  0  0  0  0
   52.4691  152.3158   24.5492 H   0  0  0  0  0  0
   52.9845  154.7269   24.6811 H   0  0  0  0  0  0
   52.3280  158.5951   28.1650 H   0  0  0  0  0  0
   49.3069  157.0280   29.7776 H   0  0  0  0  0  0
   47.8913  158.2096   31.2688 H   0  0  0  0  0  0
   50.7367  161.4615   31.3408 H   0  0  0  0  0  0
   52.1273  160.2750   29.7700 H   0  0  0  0  0  0
   51.1629  150.5440   27.3472 H   0  0  0  0  0  0
   48.9969  162.5036   32.5040 H   0  0  0  0  0  0
   50.0525  161.4440   33.4568 H   0  0  0  0  0  0
   48.4806  161.8440   34.1039 H   0  0  0  0  0  0
   46.5373  159.5944   32.3516 H   0  0  0  0  0  0
   47.6560  159.0151   33.5986 H   0  0  0  0  0  0
   46.8560  160.5646   33.8060 H   0  0  0  0  0  0
  1  2  1  0  0  0
  1  9  1  0  0  0
  1 10  2  0  0  0
  2  3  1  0  0  0
  2 11  2  0  0  0
  3  4  1  0  0  0
  3 22  1  0  0  0
  3 23  1  0  0  0
  4  5  1  0  0  0
  4  9  2  0  0  0
  5  6  2  0  0  0
  5 24  1  0  0  0
  6  7  1  0  0  0
  6 18  1  0  0  0
  7  8  2  0  0  0
  7 25  1  0  0  0
  8  9  1  0  0  0
  8 26  1  0  0  0
 11 12  1  0  0  0
 11 27  1  0  0  0
 12 13  1  0  0  0
 12 17  2  0  0  0
 13 14  2  0  0  0
 13 28  1  0  0  0
 14 15  1  0  0  0
 14 29  1  0  0  0
 15 16  2  0  0  0
 15 19  1  0  0  0
 16 17  1  0  0  0
 16 30  1  0  0  0
 17 31  1  0  0  0
 18 32  1  0  0  0
 19 20  1  0  0  0
 19 21  1  0  0  0
 20 33  1  0  0  0
 20 34  1  0  0  0
 20 35  1  0  0  0
 21 36  1  0  0  0
 21 37  1  0  0  0
 21 38  1  0  0  0
M  END
> <s_m_entry_id>
10304

> <s_m_entry_name>
dock_pv.340

> <s_m_Source_Path>
/home/csk/Desktop/cluster/DUD-E-result/aofb

> <s_m_Source_File>
dock_pv.maegz

> <i_m_Source_File_Index>
340

> <chembl_id>
CHEMBL3979733

> <chembl_pref_name>
None

> <i_lp_mmshare_version>
53161

> <i_f3d_flags>
0

> <r_lp_tautomer_probability>
1

> <s_lp_Force_Field>
OPLS_2005

> <r_lp_Energy>
28.566733

> <b_lp_Chiralities_Consistent>
1

> <s_lp_Variant>
CHEMBL2039_lig1741-1

> <s_i_glide_gridfile>
glide-grid_1s3b

> <i_i_glide_lignum>
2029

> <i_i_glide_rotatable_bonds>
3

> <r_i_docking_score>
-7.28238849434878

> <r_i_glide_ligand_efficiency>
-0.346780404492799

> <r_i_glide_ligand_efficiency_sa>
-0.956740840879468

> <r_i_glide_ligand_efficiency_ln>
-1.8005558397762

> <r_i_glide_gscore>
-7.28238849434878

> <r_i_glide_lipo>
-3.77190111904693

> <r_i_glide_hbond>
-0.0605861671228945

> <r_i_glide_metal>
0

> <r_i_glide_rewards>
-2.66728073334723

> <r_i_glide_evdw>
-14.9411191940308

> <r_i_glide_ecoul>
-1.77855491638184

> <r_i_glide_erotb>
0.231218722327089

> <r_i_glide_esite>
0

> <r_i_glide_emodel>
-25.6712404480786

> <r_i_glide_energy>
-16.7196741104126

> <r_i_glide_einternal>
2.74293184280396

> <i_i_glide_confnum>
2

> <i_i_glide_posenum>
55

> <r_i_glide_eff_state_penalty>
0

> <s_user_duplicate_titles>
CHEMBL2039_lig1741

> <s_m_subgroup_title>
dock_pv

> <s_m_subgroupid>
dock_pv

> <b_m_subgroup_collapsed>
1

$$$$
CHEMBL2039_lig518
                    3D
 Schrodinger Suite 2021-1.
 32 34  0  0  1  0            999 V2000
   51.3896  155.0439   29.1179 C   0  0  0  0  0  0
   51.1939  156.2956   28.2792 C   0  0  2  0  0  0
   52.0560  156.1065   27.0068 C   0  0  0  0  0  0
   52.0644  154.7322   26.4266 C   0  0  0  0  0  0
   52.8560  154.3775   25.3039 C   0  0  0  0  0  0
   53.0054  153.0439   24.9328 C   0  0  0  0  0  0
   52.4416  152.0402   25.7040 C   0  0  0  0  0  0
   51.6560  152.3700   26.8055 C   0  0  0  0  0  0
   51.4963  153.6986   27.1839 C   0  0  0  0  0  0
   50.8563  153.9281   28.3882 O   0  0  0  0  0  0
   52.7899  156.9828   26.5677 O   0  0  0  0  0  0
   51.5257  157.6969   28.9040 C   0  0  0  0  0  0
   50.4863  158.4687   29.7058 C   0  0  0  0  0  0
   50.8130  159.7691   30.1040 C   0  0  0  0  0  0
   49.9447  160.4960   30.9118 C   0  0  0  0  0  0
   48.7264  159.9437   31.2949 C   0  0  0  0  0  0
   48.3782  158.6597   30.8851 C   0  0  0  0  0  0
   49.2654  157.9215   30.1041 C   0  0  0  0  0  0
   47.6559  160.8486   32.3022 Cl  0  0  0  0  0  0
   52.7358  150.3883   25.3040 Cl  0  0  0  0  0  0
   53.8860  155.4882   24.4670 Cl  0  0  0  0  0  0
   52.4560  154.9740   29.3040 H   0  0  0  0  0  0
   50.8560  155.0950   30.0687 H   0  0  0  0  0  0
   50.1394  156.2439   28.0802 H   0  0  0  0  0  0
   53.6403  152.7817   24.0980 H   0  0  0  0  0  0
   51.2328  151.5859   27.4148 H   0  0  0  0  0  0
   51.7327  158.4175   28.1108 H   0  0  0  0  0  0
   52.4560  157.6296   29.4508 H   0  0  0  0  0  0
   51.7642  160.2001   29.8268 H   0  0  0  0  0  0
   50.2273  161.4755   31.2591 H   0  0  0  0  0  0
   47.4380  158.2279   31.1953 H   0  0  0  0  0  0
   49.0048  156.9060   29.8462 H   0  0  0  0  0  0
  1 10  1  0  0  0
  1  2  1  0  0  0
  1 22  1  0  0  0
  1 23  1  0  0  0
  2 12  1  0  0  0
  2  3  1  0  0  0
  2 24  1  0  0  0
  3  4  1  0  0  0
  3 11  2  0  0  0
  4  5  1  0  0  0
  4  9  2  0  0  0
  5  6  2  0  0  0
  5 21  1  0  0  0
  6  7  1  0  0  0
  6 25  1  0  0  0
  7  8  2  0  0  0
  7 20  1  0  0  0
  8  9  1  0  0  0
  8 26  1  0  0  0
  9 10  1  0  0  0
 12 13  1  0  0  0
 12 27  1  0  0  0
 12 28  1  0  0  0
 13 14  1  0  0  0
 13 18  2  0  0  0
 14 15  2  0  0  0
 14 29  1  0  0  0
 15 16  1  0  0  0
 15 30  1  0  0  0
 16 17  2  0  0  0
 16 19  1  0  0  0
 17 18  1  0  0  0
 17 31  1  0  0  0
 18 32  1  0  0  0
M  END
> <s_m_entry_id>
10305

> <s_m_entry_name>
dock_pv.341

> <s_m_Source_Path>
/home/csk/Desktop/cluster/DUD-E-result/aofb

> <s_m_Source_File>
dock_pv.maegz

> <i_m_Source_File_Index>
341

> <chembl_id>
CHEMBL1766626

> <chembl_pref_name>
None

> <i_lp_mmshare_version>
53161

> <i_f3d_flags>
0

> <r_lp_tautomer_probability>
0.99995

> <s_lp_Force_Field>
OPLS_2005

> <r_lp_Energy>
20.621768

> <b_lp_Chiralities_Consistent>
1

> <s_lp_Variant>
CHEMBL2039_lig518-1

> <s_i_glide_gridfile>
glide-grid_1s3b

> <i_i_glide_lignum>
617

> <i_i_glide_rotatable_bonds>
2

> <r_i_docking_score>
-7.28158899855656

> <r_i_glide_ligand_efficiency>
-0.346742333264598

> <r_i_glide_ligand_efficiency_sa>
-0.956635805247666

> <r_i_glide_ligand_efficiency_ln>
-1.80035816605711

> <r_i_glide_gscore>
-7.28158899855656

> <r_i_glide_lipo>
-4.06988202374361

> <r_i_glide_hbond>
0

> <r_i_glide_metal>
0

> <r_i_glide_rewards>
-2.3182978339108

> <r_i_glide_evdw>
-17.9197978973389

> <r_i_glide_ecoul>
-2.14811992645264

> <r_i_glide_erotb>
0.324798742932694

> <r_i_glide_esite>
0

> <r_i_glide_emodel>
-27.5493092397699

> <r_i_glide_energy>
-20.0679178237915

> <r_i_glide_einternal>
3.9647364616394

> <i_i_glide_confnum>
5

> <i_i_glide_posenum>
321

> <r_i_glide_eff_state_penalty>
0

> <s_user_duplicate_titles>
CHEMBL2039_lig518

> <s_m_subgroup_title>
dock_pv

> <s_m_subgroupid>
dock_pv

> <b_m_subgroup_collapsed>
1

$$$$
CHEMBL2039_lig183
                    3D
 Schrodinger Suite 2021-1.
 32 35  0  0  1  0            999 V2000
   51.4971  155.5090   27.8868 C   0  0  0  0  0  0
   52.3910  156.2305   27.1277 C   0  0  0  0  0  0
   51.4157  154.1359   27.3571 C   0  0  0  0  0  0
   48.0724  160.7820   32.8277 N   0  3  0  0  0  0
   52.8378  157.4440   27.5096 N   0  0  0  0  0  0
   52.1875  154.1851   26.1040 C   0  0  0  0  0  0
   52.7672  155.4441   25.9505 C   0  0  0  0  0  0
   52.2014  158.0866   28.5040 N   0  0  0  0  0  0
   50.8560  156.1631   28.9377 C   0  0  0  0  0  0
   51.1568  157.5267   29.1680 C   0  0  0  0  0  0
   48.7944  160.0642   31.7629 C   0  0  0  0  0  0
   46.8560  160.6440   32.9040 O   0  5  0  0  0  0
   48.7313  161.4440   33.6170 O   0  0  0  0  0  0
   50.8560  153.1646   27.8396 O   0  0  0  0  0  0
   50.3051  158.4728   29.9904 C   0  0  0  0  0  0
   50.0345  160.5159   31.2942 C   0  0  0  0  0  0
   48.2640  158.8791   31.2610 C   0  0  0  0  0  0
   50.7654  159.7433   30.3917 C   0  0  0  0  0  0
   49.0174  158.0972   30.4024 C   0  0  0  0  0  0
   52.4761  153.1561   25.2099 C   0  0  0  0  0  0
   53.6560  155.6855   24.9040 C   0  0  0  0  0  0
   53.3990  153.3845   24.1916 C   0  0  0  0  0  0
   54.0252  154.6273   24.0767 C   0  0  0  0  0  0
   50.0874  155.6543   29.4995 H   0  0  0  0  0  0
   50.4576  161.4404   31.6643 H   0  0  0  0  0  0
   47.3012  158.5175   31.5945 H   0  0  0  0  0  0
   51.7428  160.0903   30.0895 H   0  0  0  0  0  0
   48.5975  157.1504   30.1040 H   0  0  0  0  0  0
   52.0560  152.1688   25.3320 H   0  0  0  0  0  0
   54.1359  156.6460   24.7945 H   0  0  0  0  0  0
   53.6560  152.5845   23.5128 H   0  0  0  0  0  0
   54.7638  154.7821   23.3040 H   0  0  0  0  0  0
  1  2  1  0  0  0
  1  3  1  0  0  0
  1  9  2  0  0  0
  2  5  2  0  0  0
  2  7  1  0  0  0
  3  6  1  0  0  0
  3 14  2  0  0  0
  4 11  1  0  0  0
  4 12  1  0  0  0
  4 13  2  0  0  0
  5  8  1  0  0  0
  6 20  2  0  0  0
  6  7  1  0  0  0
  7 21  2  0  0  0
  8 10  2  0  0  0
  9 10  1  0  0  0
  9 24  1  0  0  0
 10 15  1  0  0  0
 11 17  2  0  0  0
 11 16  1  0  0  0
 15 18  1  0  0  0
 15 19  2  0  0  0
 16 18  2  0  0  0
 16 25  1  0  0  0
 17 19  1  0  0  0
 17 26  1  0  0  0
 18 27  1  0  0  0
 19 28  1  0  0  0
 20 22  1  0  0  0
 20 29  1  0  0  0
 21 23  1  0  0  0
 21 30  1  0  0  0
 22 23  2  0  0  0
 22 31  1  0  0  0
 23 32  1  0  0  0
M  CHG  2   4   1  12  -1
M  END
> <s_m_entry_id>
10306

> <s_m_entry_name>
dock_pv.342

> <s_m_Source_Path>
/home/csk/Desktop/cluster/DUD-E-result/aofb

> <s_m_Source_File>
dock_pv.maegz

> <i_m_Source_File_Index>
342

> <chembl_id>
CHEMBL124935

> <chembl_pref_name>
None

> <i_lp_mmshare_version>
53161

> <i_f3d_flags>
0

> <r_lp_tautomer_probability>
1

> <s_lp_Force_Field>
OPLS_2005

> <r_lp_Energy>
46.840993

> <b_lp_Chiralities_Consistent>
1

> <s_lp_Variant>
CHEMBL2039_lig183-1

> <s_i_glide_gridfile>
glide-grid_1s3b

> <i_i_glide_lignum>
224

> <i_i_glide_rotatable_bonds>
2

> <r_i_docking_score>
-7.27461816934384

> <r_i_glide_ligand_efficiency>
-0.31628774649321

> <r_i_glide_ligand_efficiency_sa>
-0.899480277443599

> <r_i_glide_ligand_efficiency_ln>
-1.75906863593797

> <r_i_glide_gscore>
-7.27461816934384

> <r_i_glide_lipo>
-3.86257642640129

> <r_i_glide_hbond>
0

> <r_i_glide_metal>
0

> <r_i_glide_rewards>
-2.91393668055833

> <r_i_glide_evdw>
-16.025821685791

> <r_i_glide_ecoul>
0.699343800544739

> <r_i_glide_erotb>
0.200325646494174

> <r_i_glide_esite>
-0.00204119467054902

> <r_i_glide_emodel>
-29.1230587500815

> <r_i_glide_energy>
-15.3264778852463

> <r_i_glide_einternal>
1.18755257129669

> <i_i_glide_confnum>
4

> <i_i_glide_posenum>
58

> <r_i_glide_eff_state_penalty>
0

> <s_user_duplicate_titles>
CHEMBL2039_lig183,207546

> <s_m_subgroup_title>
dock_pv

> <s_m_subgroupid>
dock_pv

> <b_m_subgroup_collapsed>
1

$$$$
CHEMBL2039_lig1950
                    3D
 Schrodinger Suite 2021-1.
 35 37  0  0  1  0            999 V2000
   53.6159  155.7454   24.9004 C   0  0  0  0  0  0
   52.9744  154.4196   24.9040 C   0  0  0  0  0  0
   52.2014  154.0231   25.9392 C   0  0  0  0  0  0
   53.2560  156.6252   25.8917 O   0  0  0  0  0  0
   52.4560  156.2408   26.9476 C   0  0  0  0  0  0
   51.8931  154.9604   27.0252 C   0  0  0  0  0  0
   51.0750  154.6346   28.1064 C   0  0  0  0  0  0
   50.7337  155.6174   29.0167 C   0  0  0  0  0  0
   51.2560  156.9055   28.9040 C   0  0  0  0  0  0
   52.2043  157.1912   27.9261 C   0  0  0  0  0  0
   54.4560  156.1651   24.1040 O   0  0  0  0  0  0
   50.7077  157.8441   29.7352 O   0  0  0  0  0  0
   50.5936  159.1916   29.3040 C   0  0  0  0  0  0
   49.6510  159.8817   30.2722 C   0  0  0  0  0  0
   50.1492  160.5220   31.4105 C   0  0  0  0  0  0
   49.2650  161.0440   32.3572 C   0  0  0  0  0  0
   47.8878  160.9505   32.1637 C   0  0  0  0  0  0
   47.3880  160.3379   31.0148 C   0  0  0  0  0  0
   48.2672  159.8058   30.0710 C   0  0  0  0  0  0
   52.0320  160.6440   31.7040 Br  0  0  0  0  0  0
   51.6738  152.6111   26.1040 C   0  0  0  0  0  0
   53.1953  153.5528   23.8041 C   0  0  0  0  0  0
   53.2560  152.8378   22.9040 N   0  0  0  0  0  0
   50.6295  153.6582   28.2180 H   0  0  0  0  0  0
   50.0156  155.3906   29.7888 H   0  0  0  0  0  0
   52.6421  158.1742   27.8486 H   0  0  0  0  0  0
   51.5657  159.6806   29.2581 H   0  0  0  0  0  0
   50.1700  159.2743   28.3064 H   0  0  0  0  0  0
   49.6560  161.5190   33.2453 H   0  0  0  0  0  0
   47.2120  161.3533   32.9035 H   0  0  0  0  0  0
   46.3206  160.2622   30.8641 H   0  0  0  0  0  0
   47.8697  159.3063   29.1991 H   0  0  0  0  0  0
   50.5857  152.6133   26.1040 H   0  0  0  0  0  0
   52.0060  152.2229   27.0642 H   0  0  0  0  0  0
   52.0560  151.9243   25.3471 H   0  0  0  0  0  0
  1  2  1  0  0  0
  1  4  1  0  0  0
  1 11  2  0  0  0
  2  3  2  0  0  0
  2 22  1  0  0  0
  3  6  1  0  0  0
  3 21  1  0  0  0
  4  5  1  0  0  0
  5  6  2  0  0  0
  5 10  1  0  0  0
  6  7  1  0  0  0
  7  8  2  0  0  0
  7 24  1  0  0  0
  8  9  1  0  0  0
  8 25  1  0  0  0
  9 10  2  0  0  0
  9 12  1  0  0  0
 10 26  1  0  0  0
 12 13  1  0  0  0
 13 14  1  0  0  0
 13 27  1  0  0  0
 13 28  1  0  0  0
 14 15  2  0  0  0
 14 19  1  0  0  0
 15 16  1  0  0  0
 15 20  1  0  0  0
 16 17  2  0  0  0
 16 29  1  0  0  0
 17 18  1  0  0  0
 17 30  1  0  0  0
 18 19  2  0  0  0
 18 31  1  0  0  0
 19 32  1  0  0  0
 21 33  1  0  0  0
 21 34  1  0  0  0
 21 35  1  0  0  0
 22 23  3  0  0  0
M  END
> <s_m_entry_id>
10307

> <s_m_entry_name>
dock_pv.343

> <s_m_Source_Path>
/home/csk/Desktop/cluster/DUD-E-result/aofb

> <s_m_Source_File>
dock_pv.maegz

> <i_m_Source_File_Index>
343

> <chembl_id>
CHEMBL4090150

> <chembl_pref_name>
None

> <i_lp_mmshare_version>
53161

> <i_f3d_flags>
0

> <r_lp_tautomer_probability>
1

> <s_lp_Force_Field>
OPLS_2005

> <r_lp_Energy>
23.893204

> <b_lp_Chiralities_Consistent>
1

> <s_lp_Variant>
CHEMBL2039_lig1950-1

> <s_i_glide_gridfile>
glide-grid_1s3b

> <i_i_glide_lignum>
2285

> <i_i_glide_rotatable_bonds>
3

> <r_i_docking_score>
-7.27114479291358

> <r_i_glide_ligand_efficiency>
-0.316136730126678

> <r_i_glide_ligand_efficiency_sa>
-0.899050806985848

> <r_i_glide_ligand_efficiency_ln>
-1.75822874202229

> <r_i_glide_gscore>
-7.27114479291358

> <r_i_glide_lipo>
-4.23780190397806

> <r_i_glide_hbond>
0

> <r_i_glide_metal>
0

> <r_i_glide_rewards>
-2.08914148395622

> <r_i_glide_evdw>
-29.1743431091309

> <r_i_glide_ecoul>
0.615070044994354

> <r_i_glide_erotb>
0.422255243728084

> <r_i_glide_esite>
0

> <r_i_glide_emodel>
-28.4996296156516

> <r_i_glide_energy>
-28.5592730641365

> <r_i_glide_einternal>
6.68995571136475

> <i_i_glide_confnum>
24

> <i_i_glide_posenum>
22

> <r_i_glide_eff_state_penalty>
0

> <s_user_duplicate_titles>
CHEMBL2039_lig1950

> <s_m_subgroup_title>
dock_pv

> <s_m_subgroupid>
dock_pv

> <b_m_subgroup_collapsed>
1

$$$$
CHEMBL2039_lig1598
                    3D
 Schrodinger Suite 2021-1.
 33 35  0  0  1  0            999 V2000
   51.3250  152.3026   26.5042 C   0  0  0  0  0  0
   52.5740  152.4933   25.6374 C   0  0  0  0  0  0
   52.6432  153.9598   25.2271 C   0  0  0  0  0  0
   52.3151  154.8975   26.3387 C   0  0  0  0  0  0
   52.6818  156.2439   26.3016 C   0  0  0  0  0  0
   52.4560  157.0529   27.4147 C   0  0  0  0  0  0
   51.6560  156.6163   28.4797 C   0  0  0  0  0  0
   51.2974  155.2719   28.5211 C   0  0  0  0  0  0
   51.6560  154.4146   27.4865 C   0  0  0  0  0  0
   51.3846  153.0783   27.6958 O   0  0  0  0  0  0
   53.0119  154.3284   24.1155 O   0  0  0  0  0  0
   51.1076  157.4440   29.4439 O   0  0  0  0  0  0
   51.1424  158.8584   29.3040 C   0  0  0  0  0  0
   50.1449  159.4904   30.2732 C   0  0  0  0  0  0
   50.5479  160.5258   31.1224 C   0  0  0  0  0  0
   49.6560  161.0440   32.0595 C   0  0  0  0  0  0
   48.3563  160.5487   32.1331 C   0  0  0  0  0  0
   47.9384  159.5375   31.2726 C   0  0  0  0  0  0
   48.8334  159.0091   30.3468 C   0  0  0  0  0  0
   47.2593  161.1830   33.3041 Cl  0  0  0  0  0  0
   51.1808  151.2515   26.7564 H   0  0  0  0  0  0
   50.4560  152.6441   25.9563 H   0  0  0  0  0  0
   53.4489  152.2445   26.2367 H   0  0  0  0  0  0
   52.4982  151.8679   24.7486 H   0  0  0  0  0  0
   53.2237  156.6439   25.4561 H   0  0  0  0  0  0
   52.8019  158.0702   27.3934 H   0  0  0  0  0  0
   50.7379  154.8906   29.3620 H   0  0  0  0  0  0
   50.8548  159.1395   28.2944 H   0  0  0  0  0  0
   52.1542  159.2244   29.4831 H   0  0  0  0  0  0
   51.5589  160.9062   31.0880 H   0  0  0  0  0  0
   49.9807  161.8268   32.7299 H   0  0  0  0  0  0
   46.9304  159.1537   31.3322 H   0  0  0  0  0  0
   48.5103  158.2069   29.7040 H   0  0  0  0  0  0
  1  2  1  0  0  0
  1 10  1  0  0  0
  1 21  1  0  0  0
  1 22  1  0  0  0
  2  3  1  0  0  0
  2 23  1  0  0  0
  2 24  1  0  0  0
  3  4  1  0  0  0
  3 11  2  0  0  0
  4  5  1  0  0  0
  4  9  2  0  0  0
  5  6  2  0  0  0
  5 25  1  0  0  0
  6  7  1  0  0  0
  6 26  1  0  0  0
  7  8  2  0  0  0
  7 12  1  0  0  0
  8  9  1  0  0  0
  8 27  1  0  0  0
  9 10  1  0  0  0
 12 13  1  0  0  0
 13 14  1  0  0  0
 13 28  1  0  0  0
 13 29  1  0  0  0
 14 15  1  0  0  0
 14 19  2  0  0  0
 15 16  2  0  0  0
 15 30  1  0  0  0
 16 17  1  0  0  0
 16 31  1  0  0  0
 17 18  2  0  0  0
 17 20  1  0  0  0
 18 19  1  0  0  0
 18 32  1  0  0  0
 19 33  1  0  0  0
M  END
> <s_m_entry_id>
10308

> <s_m_entry_name>
dock_pv.344

> <s_m_Source_Path>
/home/csk/Desktop/cluster/DUD-E-result/aofb

> <s_m_Source_File>
dock_pv.maegz

> <i_m_Source_File_Index>
344

> <chembl_id>
CHEMBL3741418

> <chembl_pref_name>
None

> <i_lp_mmshare_version>
53161

> <i_f3d_flags>
0

> <r_lp_tautomer_probability>
0.99995

> <s_lp_Force_Field>
OPLS_2005

> <r_lp_Energy>
22.463075

> <b_lp_Chiralities_Consistent>
1

> <s_lp_Variant>
CHEMBL2039_lig1598-1

> <s_i_glide_gridfile>
glide-grid_1s3b

> <i_i_glide_lignum>
1859

> <i_i_glide_rotatable_bonds>
3

> <r_i_docking_score>
-7.27025554362859

> <r_i_glide_ligand_efficiency>
-0.363512777181429

> <r_i_glide_ligand_efficiency_sa>
-0.986725485253289

> <r_i_glide_ligand_efficiency_ln>
-1.81950517349404

> <r_i_glide_gscore>
-7.27025554362859

> <r_i_glide_lipo>
-3.76145871563411

> <r_i_glide_hbond>
0

> <r_i_glide_metal>
0

> <r_i_glide_rewards>
-2.66083875839051

> <r_i_glide_evdw>
-27.4204254150391

> <r_i_glide_ecoul>
-0.878757655620575

> <r_i_glide_erotb>
0.654876849491072

> <r_i_glide_esite>
0

> <r_i_glide_emodel>
-33.2232762340484

> <r_i_glide_energy>
-28.2991830706596

> <r_i_glide_einternal>
2.64984226226807

> <i_i_glide_confnum>
3

> <i_i_glide_posenum>
394

> <r_i_glide_eff_state_penalty>
0

> <s_user_duplicate_titles>
CHEMBL2039_lig1598

> <s_m_subgroup_title>
dock_pv

> <s_m_subgroupid>
dock_pv

> <b_m_subgroup_collapsed>
1

$$$$
CHEMBL2039_lig2142
                    3D
 Schrodinger Suite 2021-1.
 33 34  0  0  1  0            999 V2000
   47.2560  158.2440   31.2303 F   0  0  0  0  0  0
   47.7017  159.4892   31.3773 C   0  0  0  0  0  0
   47.5457  159.8429   32.6544 F   0  0  0  0  0  0
   52.8560  152.6440   24.9461 C   0  0  0  0  0  0
   52.2708  153.6955   25.8632 C   0  0  0  0  0  0
   52.4560  155.0601   25.6066 C   0  0  0  0  0  0
   52.1447  156.0078   26.5729 C   0  0  0  0  0  0
   51.5978  155.6269   27.8091 C   0  0  0  0  0  0
   51.3190  154.2770   28.0246 C   0  0  0  0  0  0
   51.6560  153.3184   27.0674 C   0  0  0  0  0  0
   52.9849  151.4755   25.3040 O   0  0  0  0  0  0
   53.2560  153.0308   23.7337 N   0  0  0  0  0  0
   51.2561  156.5182   28.8186 O   0  0  0  0  0  0
   51.7887  157.8469   28.7564 C   0  0  0  0  0  0
   51.0983  158.8263   29.7040 C   0  0  0  0  0  0
   49.7639  158.6751   30.1040 C   0  0  0  0  0  0
   49.1603  159.6180   30.9502 C   0  0  0  0  0  0
   49.9170  160.6977   31.4142 C   0  0  0  0  0  0
   51.2391  160.8605   31.0127 C   0  0  0  0  0  0
   51.8143  159.9412   30.1433 C   0  0  0  0  0  0
   46.9572  160.2950   30.6215 F   0  0  0  0  0  0
   52.9297  155.4067   24.7005 H   0  0  0  0  0  0
   52.3638  157.0337   26.3309 H   0  0  0  0  0  0
   50.8788  153.9662   28.9606 H   0  0  0  0  0  0
   51.4869  152.2754   27.2974 H   0  0  0  0  0  0
   53.7198  152.3614   23.1373 H   0  0  0  0  0  0
   53.0274  153.9462   23.3852 H   0  0  0  0  0  0
   52.8678  157.8114   28.9042 H   0  0  0  0  0  0
   51.6560  158.2957   27.7789 H   0  0  0  0  0  0
   49.2021  157.8220   29.7579 H   0  0  0  0  0  0
   49.4804  161.4262   32.0828 H   0  0  0  0  0  0
   51.8159  161.6982   31.3786 H   0  0  0  0  0  0
   52.8454  160.0693   29.8487 H   0  0  0  0  0  0
  1  2  1  0  0  0
  2  3  1  0  0  0
  2 17  1  0  0  0
  2 21  1  0  0  0
  4  5  1  0  0  0
  4 11  2  0  0  0
  4 12  1  0  0  0
  5  6  1  0  0  0
  5 10  2  0  0  0
  6  7  2  0  0  0
  6 22  1  0  0  0
  7  8  1  0  0  0
  7 23  1  0  0  0
  8  9  2  0  0  0
  8 13  1  0  0  0
  9 10  1  0  0  0
  9 24  1  0  0  0
 10 25  1  0  0  0
 12 26  1  0  0  0
 12 27  1  0  0  0
 13 14  1  0  0  0
 14 15  1  0  0  0
 14 28  1  0  0  0
 14 29  1  0  0  0
 15 16  1  0  0  0
 15 20  2  0  0  0
 16 17  2  0  0  0
 16 30  1  0  0  0
 17 18  1  0  0  0
 18 19  2  0  0  0
 18 31  1  0  0  0
 19 20  1  0  0  0
 19 32  1  0  0  0
 20 33  1  0  0  0
M  END
> <s_m_entry_id>
10309

> <s_m_entry_name>
dock_pv.345

> <s_m_Source_Path>
/home/csk/Desktop/cluster/DUD-E-result/aofb

> <s_m_Source_File>
dock_pv.maegz

> <i_m_Source_File_Index>
345

> <chembl_id>
CHEMBL4206777

> <chembl_pref_name>
None

> <i_lp_mmshare_version>
53161

> <i_f3d_flags>
0

> <r_lp_tautomer_probability>
1

> <s_lp_Force_Field>
OPLS_2005

> <r_lp_Energy>
17.299357

> <b_lp_Chiralities_Consistent>
1

> <s_lp_Variant>
CHEMBL2039_lig2142-1

> <s_i_glide_gridfile>
glide-grid_1s3b

> <i_i_glide_lignum>
2501

> <i_i_glide_rotatable_bonds>
5

> <r_i_docking_score>
-7.26995596433757

> <r_i_glide_ligand_efficiency>
-0.34618837925417

> <r_i_glide_ligand_efficiency_sa>
-0.955107488137245

> <r_i_glide_ligand_efficiency_ln>
-1.79748192185322

> <r_i_glide_gscore>
-7.26995596433757

> <r_i_glide_lipo>
-3.25635383537179

> <r_i_glide_hbond>
-0.0362742401008118

> <r_i_glide_metal>
0

> <r_i_glide_rewards>
-2.61291026112845

> <r_i_glide_evdw>
-34.0343437194824

> <r_i_glide_ecoul>
-1.95006310939789

> <r_i_glide_erotb>
0.629809024647281

> <r_i_glide_esite>
0

> <r_i_glide_emodel>
-46.4656301623107

> <r_i_glide_energy>
-35.9844068288803

> <r_i_glide_einternal>
5.97023439407349

> <i_i_glide_confnum>
44

> <i_i_glide_posenum>
39

> <r_i_glide_eff_state_penalty>
0

> <s_user_duplicate_titles>
CHEMBL2039_lig2142

> <s_m_subgroup_title>
dock_pv

> <s_m_subgroupid>
dock_pv

> <b_m_subgroup_collapsed>
1

$$$$
CHEMBL2039_lig1262
                    3D
 Schrodinger Suite 2021-1.
 38 40  0  0  1  0            999 V2000
   50.6222  160.1313   30.5999 C   0  0  0  0  0  0
   54.0291  154.6496   24.2856 C   0  0  0  0  0  0
   52.0560  156.2440   27.1329 C   0  0  0  0  0  0
   47.7086  160.9756   32.8801 C   0  0  0  0  0  0
   49.8136  160.7885   31.5170 C   0  0  0  0  0  0
   51.0382  154.5112   28.4346 C   0  0  0  0  0  0
   51.3421  155.8532   28.2744 C   0  0  0  0  0  0
   52.0560  153.9728   26.2946 C   0  0  0  0  0  0
   53.1930  155.7983   24.9040 C   0  0  0  0  0  0
   51.3998  153.5768   27.4698 C   0  0  0  0  0  0
   50.2281  158.8882   30.1040 C   0  0  0  0  0  0
   53.1161  153.4437   24.0252 C   0  0  0  0  0  0
   52.5637  152.9220   25.3546 C   0  0  0  0  0  0
   51.2103  158.0980   29.2532 C   0  0  0  0  0  0
   48.5857  160.2366   31.8926 C   0  0  0  0  0  0
   48.1639  159.0241   31.3500 C   0  0  0  0  0  0
   48.9904  158.3467   30.4702 C   0  0  0  0  0  0
   50.8560  156.7099   29.2459 O   0  0  0  0  0  0
   52.4050  155.3335   26.1285 C   0  0  0  0  0  0
   52.5629  151.7284   25.6536 O   0  0  0  0  0  0
   46.4686  160.4918   32.9040 F   0  0  0  0  0  0
   47.6560  162.2440   32.5040 F   0  0  0  0  0  0
   48.2264  160.9004   34.1040 F   0  0  0  0  0  0
   51.5821  160.5511   30.3357 H   0  0  0  0  0  0
   54.4864  154.9780   23.3518 H   0  0  0  0  0  0
   54.8579  154.3709   24.9359 H   0  0  0  0  0  0
   52.3378  157.2746   26.9913 H   0  0  0  0  0  0
   50.1473  161.7247   31.9432 H   0  0  0  0  0  0
   50.5146  154.1999   29.3247 H   0  0  0  0  0  0
   52.4670  156.1653   24.1783 H   0  0  0  0  0  0
   53.8344  156.6440   25.1481 H   0  0  0  0  0  0
   51.1698  152.5361   27.6533 H   0  0  0  0  0  0
   52.2822  153.8013   23.4225 H   0  0  0  0  0  0
   53.6589  152.6500   23.5122 H   0  0  0  0  0  0
   51.2560  158.5694   28.2732 H   0  0  0  0  0  0
   52.1970  158.1852   29.6821 H   0  0  0  0  0  0
   47.2180  158.5830   31.6297 H   0  0  0  0  0  0
   48.6769  157.3807   30.1040 H   0  0  0  0  0  0
  1  5  2  0  0  0
  1 11  1  0  0  0
  1 24  1  0  0  0
  2  9  1  0  0  0
  2 12  1  0  0  0
  2 25  1  0  0  0
  2 26  1  0  0  0
  3 19  2  0  0  0
  3  7  1  0  0  0
  3 27  1  0  0  0
  4 15  1  0  0  0
  4 21  1  0  0  0
  4 22  1  0  0  0
  4 23  1  0  0  0
  5 15  1  0  0  0
  5 28  1  0  0  0
  6  7  2  0  0  0
  6 10  1  0  0  0
  6 29  1  0  0  0
  7 18  1  0  0  0
  8 13  1  0  0  0
  8 10  2  0  0  0
  8 19  1  0  0  0
  9 19  1  0  0  0
  9 30  1  0  0  0
  9 31  1  0  0  0
 10 32  1  0  0  0
 11 17  2  0  0  0
 11 14  1  0  0  0
 12 13  1  0  0  0
 12 33  1  0  0  0
 12 34  1  0  0  0
 13 20  2  0  0  0
 14 18  1  0  0  0
 14 35  1  0  0  0
 14 36  1  0  0  0
 15 16  2  0  0  0
 16 17  1  0  0  0
 16 37  1  0  0  0
 17 38  1  0  0  0
M  END
> <s_m_entry_id>
10310

> <s_m_entry_name>
dock_pv.346

> <s_m_Source_Path>
/home/csk/Desktop/cluster/DUD-E-result/aofb

> <s_m_Source_File>
dock_pv.maegz

> <i_m_Source_File_Index>
346

> <chembl_id>
CHEMBL3288303

> <chembl_pref_name>
None

> <i_lp_mmshare_version>
53161

> <i_f3d_flags>
0

> <r_lp_tautomer_probability>
0.99995

> <s_lp_Force_Field>
OPLS_2005

> <r_lp_Energy>
23.969515

> <b_lp_Chiralities_Consistent>
1

> <s_lp_Variant>
CHEMBL2039_lig1262-1

> <s_i_glide_gridfile>
glide-grid_1s3b

> <i_i_glide_lignum>
1454

> <i_i_glide_rotatable_bonds>
4

> <r_i_docking_score>
-7.26647682003696

> <r_i_glide_ligand_efficiency>
-0.315933774784216

> <r_i_glide_ligand_efficiency_sa>
-0.898473628989639

> <r_i_glide_ligand_efficiency_ln>
-1.75709998385389

> <r_i_glide_gscore>
-7.26647682003696

> <r_i_glide_lipo>
-4.63961537113851

> <r_i_glide_hbond>
0

> <r_i_glide_metal>
0

> <r_i_glide_rewards>
-1.42596657392008

> <r_i_glide_evdw>
-31.0881690979004

> <r_i_glide_ecoul>
-1.28294718265533

> <r_i_glide_erotb>
0.545955657314948

> <r_i_glide_esite>
0

> <r_i_glide_emodel>
-39.2415566076108

> <r_i_glide_energy>
-32.3711162805557

> <r_i_glide_einternal>
1.40077769756317

> <i_i_glide_confnum>
18

> <i_i_glide_posenum>
376

> <r_i_glide_eff_state_penalty>
0

> <s_user_duplicate_titles>
CHEMBL2039_lig1262

> <s_m_subgroup_title>
dock_pv

> <s_m_subgroupid>
dock_pv

> <b_m_subgroup_collapsed>
1

$$$$
CHEMBL2039_lig190
                    3D
 Schrodinger Suite 2021-1.
 30 33  0  0  1  0            999 V2000
   51.4340  155.1626   27.8979 C   0  0  0  0  0  0
   52.1589  155.7912   26.9090 C   0  0  0  0  0  0
   51.5181  153.7041   27.6589 C   0  0  0  0  0  0
   52.6429  157.0440   27.0518 N   0  0  0  0  0  0
   52.0910  153.5826   26.3062 C   0  0  0  0  0  0
   52.4560  154.8414   25.8448 C   0  0  0  0  0  0
   52.2445  157.7762   28.1040 N   0  0  0  0  0  0
   50.8882  155.9636   28.9040 C   0  0  0  0  0  0
   51.2560  157.3294   28.9168 C   0  0  0  0  0  0
   51.2560  152.7842   28.4184 O   0  0  0  0  0  0
   50.5869  158.4028   29.7322 C   0  0  0  0  0  0
   51.2560  159.5935   30.0770 C   0  0  0  0  0  0
   49.2798  158.2390   30.2193 C   0  0  0  0  0  0
   49.3823  160.3273   31.3992 C   0  0  0  0  0  0
   48.6786  159.1860   31.0401 C   0  0  0  0  0  0
   50.6645  160.5471   30.9041 C   0  0  0  0  0  0
   48.6708  161.4440   32.5040 Cl  0  0  0  0  0  0
   52.4560  152.4388   25.5954 C   0  0  0  0  0  0
   53.1816  154.9786   24.6653 C   0  0  0  0  0  0
   53.1842  152.5739   24.4116 C   0  0  0  0  0  0
   53.5407  153.8398   23.9443 C   0  0  0  0  0  0
   50.2205  155.5539   29.6473 H   0  0  0  0  0  0
   52.2693  159.7636   29.7433 H   0  0  0  0  0  0
   48.7252  157.3363   30.0150 H   0  0  0  0  0  0
   47.6853  159.0142   31.4282 H   0  0  0  0  0  0
   51.2144  161.4315   31.1926 H   0  0  0  0  0  0
   52.2181  151.4513   25.9656 H   0  0  0  0  0  0
   53.5270  155.9506   24.3472 H   0  0  0  0  0  0
   53.4815  151.6958   23.8577 H   0  0  0  0  0  0
   54.1245  153.9296   23.0403 H   0  0  0  0  0  0
  1  2  1  0  0  0
  1  3  1  0  0  0
  1  8  2  0  0  0
  2  4  2  0  0  0
  2  6  1  0  0  0
  3  5  1  0  0  0
  3 10  2  0  0  0
  4  7  1  0  0  0
  5 18  2  0  0  0
  5  6  1  0  0  0
  6 19  2  0  0  0
  7  9  2  0  0  0
  8  9  1  0  0  0
  8 22  1  0  0  0
  9 11  1  0  0  0
 11 12  2  0  0  0
 11 13  1  0  0  0
 12 16  1  0  0  0
 12 23  1  0  0  0
 13 15  2  0  0  0
 13 24  1  0  0  0
 14 15  1  0  0  0
 14 17  1  0  0  0
 14 16  2  0  0  0
 15 25  1  0  0  0
 16 26  1  0  0  0
 18 20  1  0  0  0
 18 27  1  0  0  0
 19 21  1  0  0  0
 19 28  1  0  0  0
 20 21  2  0  0  0
 20 29  1  0  0  0
 21 30  1  0  0  0
M  END
> <s_m_entry_id>
10311

> <s_m_entry_name>
dock_pv.347

> <s_m_Source_Path>
/home/csk/Desktop/cluster/DUD-E-result/aofb

> <s_m_Source_File>
dock_pv.maegz

> <i_m_Source_File_Index>
347

> <chembl_id>
CHEMBL127517

> <chembl_pref_name>
None

> <i_lp_mmshare_version>
53161

> <i_f3d_flags>
0

> <r_lp_tautomer_probability>
1

> <s_lp_Force_Field>
OPLS_2005

> <r_lp_Energy>
43.069531

> <b_lp_Chiralities_Consistent>
1

> <s_lp_Variant>
CHEMBL2039_lig190-1

> <s_i_glide_gridfile>
glide-grid_1s3b

> <i_i_glide_lignum>
231

> <i_i_glide_rotatable_bonds>
1

> <r_i_docking_score>
-7.2643897713941

> <r_i_glide_ligand_efficiency>
-0.345923322447338

> <r_i_glide_ligand_efficiency_sa>
-0.954376216505503

> <r_i_glide_ligand_efficiency_ln>
-1.7961056918955

> <r_i_glide_gscore>
-7.2643897713941

> <r_i_glide_lipo>
-4.03856812773942

> <r_i_glide_hbond>
0

> <r_i_glide_metal>
0

> <r_i_glide_rewards>
-2.54287962128431

> <r_i_glide_evdw>
-22.1836719512939

> <r_i_glide_ecoul>
1.42077970504761

> <r_i_glide_erotb>
0.21312461943719

> <r_i_glide_esite>
0

> <r_i_glide_emodel>
-30.5349348693242

> <r_i_glide_energy>
-20.7628922462463

> <r_i_glide_einternal>
0.478113055229187

> <i_i_glide_confnum>
1

> <i_i_glide_posenum>
250

> <r_i_glide_eff_state_penalty>
0

> <s_user_duplicate_titles>
CHEMBL2039_lig190,207375

> <s_m_subgroup_title>
dock_pv

> <s_m_subgroupid>
dock_pv

> <b_m_subgroup_collapsed>
1

$$$$
CHEMBL2039_lig979
                    3D
 Schrodinger Suite 2021-1.
 33 35  0  0  1  0            999 V2000
   50.4538  159.5954   29.8965 C   0  0  0  0  0  0
   51.0106  160.5107   30.7921 C   0  0  0  0  0  0
   50.2266  161.0440   31.8172 C   0  0  0  0  0  0
   49.0949  159.2834   30.0053 C   0  0  0  0  0  0
   48.3384  159.8137   31.0374 C   0  0  0  0  0  0
   48.8979  160.6619   31.9569 C   0  0  0  0  0  0
   47.8424  161.0156   32.9546 C   0  0  0  0  0  0
   46.6877  160.3232   32.5040 O   0  0  0  0  0  0
   46.9199  159.6546   31.3571 C   0  0  0  0  0  0
   46.0541  159.0440   30.7455 O   0  0  0  0  0  0
   51.2422  159.0676   28.9040 O   0  0  0  0  0  0
   51.4061  157.6641   28.9040 C   0  0  0  0  0  0
   52.2740  157.1897   27.7329 C   0  0  0  0  0  0
   52.0386  155.7478   27.2921 C   0  0  0  0  0  0
   52.2169  155.4050   25.9474 C   0  0  0  0  0  0
   52.0560  154.0827   25.5370 C   0  0  0  0  0  0
   51.7294  153.1057   26.4748 C   0  0  0  0  0  0
   51.5107  153.4440   27.8042 C   0  0  0  0  0  0
   51.6560  154.7645   28.2133 C   0  0  0  0  0  0
   51.6560  151.8100   26.1040 F   0  0  0  0  0  0
   52.0503  160.7899   30.7039 H   0  0  0  0  0  0
   50.6460  161.7496   32.5040 H   0  0  0  0  0  0
   48.6110  158.6440   29.3040 H   0  0  0  0  0  0
   48.1023  160.6993   33.9656 H   0  0  0  0  0  0
   47.6443  162.0874   32.9743 H   0  0  0  0  0  0
   50.4560  157.1350   28.9538 H   0  0  0  0  0  0
   51.9644  157.4440   29.7827 H   0  0  0  0  0  0
   53.3312  157.3383   27.9584 H   0  0  0  0  0  0
   52.0560  157.8440   26.9039 H   0  0  0  0  0  0
   52.5032  156.1553   25.2250 H   0  0  0  0  0  0
   52.2210  153.8070   24.5061 H   0  0  0  0  0  0
   51.2560  152.6762   28.5190 H   0  0  0  0  0  0
   51.5191  154.9995   29.2583 H   0  0  0  0  0  0
  1  2  2  0  0  0
  1  4  1  0  0  0
  1 11  1  0  0  0
  2  3  1  0  0  0
  2 21  1  0  0  0
  3  6  2  0  0  0
  3 22  1  0  0  0
  4  5  2  0  0  0
  4 23  1  0  0  0
  5  6  1  0  0  0
  5  9  1  0  0  0
  6  7  1  0  0  0
  7  8  1  0  0  0
  7 24  1  0  0  0
  7 25  1  0  0  0
  8  9  1  0  0  0
  9 10  2  0  0  0
 11 12  1  0  0  0
 12 13  1  0  0  0
 12 26  1  0  0  0
 12 27  1  0  0  0
 13 14  1  0  0  0
 13 28  1  0  0  0
 13 29  1  0  0  0
 14 15  2  0  0  0
 14 19  1  0  0  0
 15 16  1  0  0  0
 15 30  1  0  0  0
 16 17  2  0  0  0
 16 31  1  0  0  0
 17 18  1  0  0  0
 17 20  1  0  0  0
 18 19  2  0  0  0
 18 32  1  0  0  0
 19 33  1  0  0  0
M  END
> <s_m_entry_id>
10312

> <s_m_entry_name>
dock_pv.348

> <s_m_Source_Path>
/home/csk/Desktop/cluster/DUD-E-result/aofb

> <s_m_Source_File>
dock_pv.maegz

> <i_m_Source_File_Index>
348

> <chembl_id>
CHEMBL2391874

> <chembl_pref_name>
None

> <i_lp_mmshare_version>
53161

> <i_f3d_flags>
0

> <r_lp_tautomer_probability>
1

> <s_lp_Force_Field>
OPLS_2005

> <r_lp_Energy>
28.162305

> <b_lp_Chiralities_Consistent>
1

> <s_lp_Variant>
CHEMBL2039_lig979-1

> <s_i_glide_gridfile>
glide-grid_1s3b

> <i_i_glide_lignum>
1126

> <i_i_glide_rotatable_bonds>
4

> <r_i_docking_score>
-7.26298322606572

> <r_i_glide_ligand_efficiency>
-0.363149161303286

> <r_i_glide_ligand_efficiency_sa>
-0.985738479908969

> <r_i_glide_ligand_efficiency_ln>
-1.81768515226514

> <r_i_glide_gscore>
-7.26298322606572

> <r_i_glide_lipo>
-4.12826972168737

> <r_i_glide_hbond>
0

> <r_i_glide_metal>
0

> <r_i_glide_rewards>
-1.86794241081249

> <r_i_glide_evdw>
-32.2036743164062

> <r_i_glide_ecoul>
-0.933462738990784

> <r_i_glide_erotb>
0.483432033103067

> <r_i_glide_esite>
0

> <r_i_glide_emodel>
-35.827023981177

> <r_i_glide_energy>
-33.137137055397

> <r_i_glide_einternal>
10.4213018417358

> <i_i_glide_confnum>
5

> <i_i_glide_posenum>
54

> <r_i_glide_eff_state_penalty>
0

> <s_user_duplicate_titles>
CHEMBL2039_lig979

> <s_m_subgroup_title>
dock_pv

> <s_m_subgroupid>
dock_pv

> <b_m_subgroup_collapsed>
1

$$$$
CHEMBL2039_lig1600
                    3D
 Schrodinger Suite 2021-1.
 33 35  0  0  1  0            999 V2000
   46.5698  159.4604   31.6116 C   0  0  0  0  0  0
   47.2560  160.2262   32.7564 C   0  0  0  0  0  0
   48.5825  160.7842   32.2537 C   0  0  0  0  0  0
   49.3083  159.9236   31.2988 C   0  0  0  0  0  0
   50.5775  160.2551   30.8003 C   0  0  0  0  0  0
   51.2560  159.3703   29.9586 C   0  0  0  0  0  0
   50.7115  158.1197   29.6516 C   0  0  0  0  0  0
   49.4144  157.8440   30.1040 C   0  0  0  0  0  0
   48.6990  158.7463   30.8667 C   0  0  0  0  0  0
   47.4147  158.3723   31.2203 O   0  0  0  0  0  0
   49.0464  161.8440   32.6304 O   0  0  0  0  0  0
   51.4747  157.2287   28.9040 O   0  0  0  0  0  0
   51.0384  155.8628   28.7291 C   0  0  0  0  0  0
   51.6560  155.2056   27.5031 C   0  0  0  0  0  0
   51.5702  153.8152   27.3788 C   0  0  0  0  0  0
   52.0270  153.1897   26.2231 C   0  0  0  0  0  0
   52.5693  153.9581   25.1968 C   0  0  0  0  0  0
   52.6501  155.3443   25.3040 C   0  0  0  0  0  0
   52.1959  155.9685   26.4626 C   0  0  0  0  0  0
   53.2560  153.0963   23.6544 Br  0  0  0  0  0  0
   46.3658  160.1206   30.7648 H   0  0  0  0  0  0
   45.6097  159.0658   31.9429 H   0  0  0  0  0  0
   46.6122  161.0440   33.0758 H   0  0  0  0  0  0
   47.4528  159.5354   33.5755 H   0  0  0  0  0  0
   51.0606  161.1788   31.0902 H   0  0  0  0  0  0
   52.2491  159.6125   29.6110 H   0  0  0  0  0  0
   48.9251  156.9073   29.9006 H   0  0  0  0  0  0
   49.9707  155.7877   28.5462 H   0  0  0  0  0  0
   51.2560  155.2659   29.6152 H   0  0  0  0  0  0
   51.1391  153.2196   28.1711 H   0  0  0  0  0  0
   51.9705  152.1153   26.1269 H   0  0  0  0  0  0
   53.0768  155.9298   24.5040 H   0  0  0  0  0  0
   52.2510  157.0440   26.5415 H   0  0  0  0  0  0
  1  2  1  0  0  0
  1 10  1  0  0  0
  1 21  1  0  0  0
  1 22  1  0  0  0
  2  3  1  0  0  0
  2 23  1  0  0  0
  2 24  1  0  0  0
  3  4  1  0  0  0
  3 11  2  0  0  0
  4  5  1  0  0  0
  4  9  2  0  0  0
  5  6  2  0  0  0
  5 25  1  0  0  0
  6  7  1  0  0  0
  6 26  1  0  0  0
  7  8  2  0  0  0
  7 12  1  0  0  0
  8  9  1  0  0  0
  8 27  1  0  0  0
  9 10  1  0  0  0
 12 13  1  0  0  0
 13 14  1  0  0  0
 13 28  1  0  0  0
 13 29  1  0  0  0
 14 15  1  0  0  0
 14 19  2  0  0  0
 15 16  2  0  0  0
 15 30  1  0  0  0
 16 17  1  0  0  0
 16 31  1  0  0  0
 17 18  2  0  0  0
 17 20  1  0  0  0
 18 19  1  0  0  0
 18 32  1  0  0  0
 19 33  1  0  0  0
M  END
> <s_m_entry_id>
10313

> <s_m_entry_name>
dock_pv.349

> <s_m_Source_Path>
/home/csk/Desktop/cluster/DUD-E-result/aofb

> <s_m_Source_File>
dock_pv.maegz

> <i_m_Source_File_Index>
349

> <chembl_id>
CHEMBL3741156

> <chembl_pref_name>
None

> <i_lp_mmshare_version>
53161

> <i_f3d_flags>
0

> <r_lp_tautomer_probability>
0.99995

> <s_lp_Force_Field>
OPLS_2005

> <r_lp_Energy>
22.188853

> <b_lp_Chiralities_Consistent>
1

> <s_lp_Variant>
CHEMBL2039_lig1600-1

> <s_i_glide_gridfile>
glide-grid_1s3b

> <i_i_glide_lignum>
1861

> <i_i_glide_rotatable_bonds>
3

> <r_i_docking_score>
-7.26282087937938

> <r_i_glide_ligand_efficiency>
-0.363141043968969

> <r_i_glide_ligand_efficiency_sa>
-0.985716446073721

> <r_i_glide_ligand_efficiency_ln>
-1.8176445222441

> <r_i_glide_gscore>
-7.26282087937938

> <r_i_glide_lipo>
-4.00174220413601

> <r_i_glide_hbond>
0

> <r_i_glide_metal>
0

> <r_i_glide_rewards>
-2.48585734340231

> <r_i_glide_evdw>
-29.4373302459717

> <r_i_glide_ecoul>
1.24917006492615

> <r_i_glide_erotb>
0.509269670718601

> <r_i_glide_esite>
0

> <r_i_glide_emodel>
-36.7473728905993

> <r_i_glide_energy>
-28.1881601810455

> <r_i_glide_einternal>
1.60738050937653

> <i_i_glide_confnum>
38

> <i_i_glide_posenum>
387

> <r_i_glide_eff_state_penalty>
0

> <s_user_duplicate_titles>
CHEMBL2039_lig1600

> <s_m_subgroup_title>
dock_pv

> <s_m_subgroupid>
dock_pv

> <b_m_subgroup_collapsed>
1

$$$$
CHEMBL2039_lig2012
                    3D
 Schrodinger Suite 2021-1.
 31 33  0  0  1  0            999 V2000
   52.8679  153.2985   24.5432 C   0  0  0  0  0  0
   52.4560  152.2073   25.3040 C   0  0  0  0  0  0
   51.7729  152.4149   26.5040 C   0  0  0  0  0  0
   52.7122  154.5894   25.0276 C   0  0  0  0  0  0
   52.1429  154.7974   26.2870 C   0  0  0  0  0  0
   51.6402  153.7058   26.9984 C   0  0  0  0  0  0
   51.0686  153.8482   28.2388 O   0  0  0  0  0  0
   51.1077  155.0741   28.8142 C   0  0  0  0  0  0
   51.6631  156.1918   28.2848 C   0  0  0  0  0  0
   52.2842  156.1056   26.9660 C   0  0  0  0  0  0
   52.9349  157.0035   26.4490 O   0  0  0  0  0  0
   51.6560  157.4842   28.9040 C   0  0  0  0  0  0
   50.6356  157.8326   29.5712 N   0  0  0  0  0  0
   50.4232  159.0972   30.1256 C   0  0  0  0  0  0
   51.4634  160.0021   30.4084 C   0  0  0  0  0  0
   51.2823  161.0440   31.3040 C   0  0  0  0  0  0
   50.0505  161.2249   31.9198 C   0  0  0  0  0  0
   48.9814  160.3928   31.6158 C   0  0  0  0  0  0
   49.1632  159.3372   30.7167 C   0  0  0  0  0  0
   48.1237  158.4640   30.4924 O   0  0  0  0  0  0
   47.4751  160.6440   32.4272 Cl  0  0  0  0  0  0
   53.6560  153.0440   22.8423 Br  0  0  0  0  0  0
   52.5907  151.2047   24.9248 H   0  0  0  0  0  0
   51.3788  151.5812   27.0654 H   0  0  0  0  0  0
   53.1168  155.4158   24.4606 H   0  0  0  0  0  0
   50.6197  155.0477   29.7794 H   0  0  0  0  0  0
   52.5284  158.1069   28.7174 H   0  0  0  0  0  0
   52.4600  159.8440   30.0259 H   0  0  0  0  0  0
   52.1079  161.6947   31.5547 H   0  0  0  0  0  0
   49.9306  162.0233   32.6353 H   0  0  0  0  0  0
   48.4319  157.7354   29.9470 H   0  0  0  0  0  0
  1  2  2  0  0  0
  1  4  1  0  0  0
  1 22  1  0  0  0
  2  3  1  0  0  0
  2 23  1  0  0  0
  3  6  2  0  0  0
  3 24  1  0  0  0
  4  5  2  0  0  0
  4 25  1  0  0  0
  5  6  1  0  0  0
  5 10  1  0  0  0
  6  7  1  0  0  0
  7  8  1  0  0  0
  8  9  2  0  0  0
  8 26  1  0  0  0
  9 10  1  0  0  0
  9 12  1  0  0  0
 10 11  2  0  0  0
 12 13  2  0  0  0
 12 27  1  0  0  0
 13 14  1  0  0  0
 14 15  2  0  0  0
 14 19  1  0  0  0
 15 16  1  0  0  0
 15 28  1  0  0  0
 16 17  2  0  0  0
 16 29  1  0  0  0
 17 18  1  0  0  0
 17 30  1  0  0  0
 18 19  2  0  0  0
 18 21  1  0  0  0
 19 20  1  0  0  0
 20 31  1  0  0  0
M  END
> <s_m_entry_id>
10314

> <s_m_entry_name>
dock_pv.350

> <s_m_Source_Path>
/home/csk/Desktop/cluster/DUD-E-result/aofb

> <s_m_Source_File>
dock_pv.maegz

> <i_m_Source_File_Index>
350

> <chembl_id>
CHEMBL4101899

> <chembl_pref_name>
None

> <i_lp_mmshare_version>
53161

> <i_f3d_flags>
0

> <r_lp_tautomer_probability>
1

> <s_lp_Force_Field>
OPLS_2005

> <r_lp_Energy>
18.393768

> <b_lp_Chiralities_Consistent>
1

> <s_lp_Variant>
CHEMBL2039_lig2012-1

> <s_i_glide_gridfile>
glide-grid_1s3b

> <i_i_glide_lignum>
2347

> <i_i_glide_rotatable_bonds>
3

> <r_i_docking_score>
-7.26218673481775

> <r_i_glide_ligand_efficiency>
-0.330099397037171

> <r_i_glide_ligand_efficiency_sa>
-0.924951492570759

> <r_i_glide_ligand_efficiency_ln>
-1.77514333268682

> <r_i_glide_gscore>
-7.26218673481775

> <r_i_glide_lipo>
-4.01573447376248

> <r_i_glide_hbond>
0

> <r_i_glide_metal>
0

> <r_i_glide_rewards>
-1.83396383438651

> <r_i_glide_evdw>
-26.244026184082

> <r_i_glide_ecoul>
-2.47136092185974

> <r_i_glide_erotb>
0.270417020814303

> <r_i_glide_esite>
0

> <r_i_glide_emodel>
-27.0510831200506

> <r_i_glide_energy>
-28.7153871059418

> <r_i_glide_einternal>
10.3587961196899

> <i_i_glide_confnum>
3

> <i_i_glide_posenum>
151

> <r_i_glide_eff_state_penalty>
0

> <s_user_duplicate_titles>
CHEMBL2039_lig2012

> <s_m_subgroup_title>
dock_pv

> <s_m_subgroupid>
dock_pv

> <b_m_subgroup_collapsed>
1

$$$$
CHEMBL2039_lig531
                    3D
 Schrodinger Suite 2021-1.
 38 40  0  0  1  0            999 V2000
   52.4560  152.2810   25.4076 C   0  0  0  0  0  0
   53.0504  153.2926   24.6571 C   0  0  0  0  0  0
   52.9376  154.6181   25.0734 C   0  0  0  0  0  0
   51.6554  152.6035   26.5039 C   0  0  0  0  0  0
   51.5235  153.9323   26.8986 C   0  0  0  0  0  0
   52.2421  154.9373   26.2529 C   0  0  0  0  0  0
   52.4560  156.2440   26.9309 C   0  0  0  0  0  0
   51.7311  156.4669   28.1931 C   0  0  0  0  0  0
   51.1989  155.1922   28.8641 C   0  0  0  0  0  0
   50.6937  154.2129   27.9591 O   0  0  0  0  0  0
   53.2560  157.0440   26.4762 O   0  0  0  0  0  0
   51.6499  157.7637   28.6109 C   0  0  0  0  0  0
   50.8503  158.4330   29.6581 C   0  0  0  0  0  0
   51.2480  159.6967   30.1040 C   0  0  0  0  0  0
   50.4634  160.3991   31.0156 C   0  0  0  0  0  0
   49.2560  159.8564   31.4856 C   0  0  0  0  0  0
   48.8231  158.6436   30.9548 C   0  0  0  0  0  0
   49.6351  157.9200   30.1040 C   0  0  0  0  0  0
   48.4964  160.4743   32.5049 N   0  0  0  0  0  0
   47.5744  159.6713   33.2894 C   0  0  0  0  0  0
   49.0428  161.6141   33.1992 C   0  0  0  0  0  0
   52.5693  151.2493   25.1084 H   0  0  0  0  0  0
   53.6410  153.0446   23.7867 H   0  0  0  0  0  0
   53.4959  155.3737   24.5388 H   0  0  0  0  0  0
   51.1518  151.8213   27.0517 H   0  0  0  0  0  0
   52.0560  154.7066   29.3040 H   0  0  0  0  0  0
   50.4991  155.3513   29.6785 H   0  0  0  0  0  0
   52.1953  158.5051   28.0517 H   0  0  0  0  0  0
   52.1762  160.1304   29.7624 H   0  0  0  0  0  0
   50.8288  161.3494   31.3738 H   0  0  0  0  0  0
   47.8811  158.2038   31.2423 H   0  0  0  0  0  0
   49.2548  156.9848   29.7297 H   0  0  0  0  0  0
   48.0554  158.7430   33.6054 H   0  0  0  0  0  0
   46.6895  159.4440   32.6956 H   0  0  0  0  0  0
   47.2560  160.1882   34.1923 H   0  0  0  0  0  0
   50.0560  161.4440   33.5424 H   0  0  0  0  0  0
   49.0497  162.4440   32.5040 H   0  0  0  0  0  0
   48.4561  161.8440   34.0839 H   0  0  0  0  0  0
  1  2  2  0  0  0
  1  4  1  0  0  0
  1 22  1  0  0  0
  2  3  1  0  0  0
  2 23  1  0  0  0
  3  6  2  0  0  0
  3 24  1  0  0  0
  4  5  2  0  0  0
  4 25  1  0  0  0
  5  6  1  0  0  0
  5 10  1  0  0  0
  6  7  1  0  0  0
  7 11  2  0  0  0
  7  8  1  0  0  0
  8 12  2  0  0  0
  8  9  1  0  0  0
  9 10  1  0  0  0
  9 26  1  0  0  0
  9 27  1  0  0  0
 12 13  1  0  0  0
 12 28  1  0  0  0
 13 14  2  0  0  0
 13 18  1  0  0  0
 14 15  1  0  0  0
 14 29  1  0  0  0
 15 16  2  0  0  0
 15 30  1  0  0  0
 16 17  1  0  0  0
 16 19  1  0  0  0
 17 18  2  0  0  0
 17 31  1  0  0  0
 18 32  1  0  0  0
 19 20  1  0  0  0
 19 21  1  0  0  0
 20 33  1  0  0  0
 20 34  1  0  0  0
 20 35  1  0  0  0
 21 36  1  0  0  0
 21 37  1  0  0  0
 21 38  1  0  0  0
M  END
> <s_m_entry_id>
10315

> <s_m_entry_name>
dock_pv.351

> <s_m_Source_Path>
/home/csk/Desktop/cluster/DUD-E-result/aofb

> <s_m_Source_File>
dock_pv.maegz

> <i_m_Source_File_Index>
351

> <chembl_id>
CHEMBL452001

> <chembl_pref_name>
None

> <i_lp_mmshare_version>
53161

> <i_f3d_flags>
0

> <r_lp_tautomer_probability>
1

> <s_lp_Force_Field>
OPLS_2005

> <r_lp_Energy>
23.303092

> <b_lp_Chiralities_Consistent>
1

> <s_lp_Variant>
CHEMBL2039_lig531-1

> <s_i_glide_gridfile>
glide-grid_1s3b

> <i_i_glide_lignum>
633

> <i_i_glide_rotatable_bonds>
2

> <r_i_docking_score>
-7.26094353952521

> <r_i_glide_ligand_efficiency>
-0.345759216167867

> <r_i_glide_ligand_efficiency_sa>
-0.953923459724035

> <r_i_glide_ligand_efficiency_ln>
-1.79525361802968

> <r_i_glide_gscore>
-7.26094353952521

> <r_i_glide_lipo>
-3.89058792807851

> <r_i_glide_hbond>
0

> <r_i_glide_metal>
0

> <r_i_glide_rewards>
-2.59334526883238

> <r_i_glide_evdw>
-18.2405776977539

> <r_i_glide_ecoul>
-0.641334533691406

> <r_i_glide_erotb>
0.231218722327089

> <r_i_glide_esite>
0

> <r_i_glide_emodel>
-30.4295604247074

> <r_i_glide_energy>
-18.8819122314453

> <r_i_glide_einternal>
1.62587261199951

> <i_i_glide_confnum>
4

> <i_i_glide_posenum>
54

> <r_i_glide_eff_state_penalty>
0

> <s_user_duplicate_titles>
CHEMBL2039_lig531

> <s_m_subgroup_title>
dock_pv

> <s_m_subgroupid>
dock_pv

> <b_m_subgroup_collapsed>
1

$$$$
CHEMBL2039_lig993
                    3D
 Schrodinger Suite 2021-1.
 36 38  0  0  1  0            999 V2000
   49.1431  159.2635   30.9405 N   0  0  0  0  0  0
   49.9316  158.5728   30.0792 C   0  0  0  0  0  0
   51.2234  158.9732   29.7040 C   0  0  0  0  0  0
   51.7021  160.1640   30.2659 C   0  0  0  0  0  0
   50.9284  160.8710   31.1883 C   0  0  0  0  0  0
   49.6551  160.3884   31.4972 C   0  0  0  0  0  0
   52.0756  153.0583   25.0553 C   0  0  0  0  0  0
   53.2941  153.9356   24.7225 C   0  0  2  0  0  0
   52.9697  155.4229   25.0330 C   0  0  0  0  0  0
   51.6316  153.1920   26.5040 C   0  0  0  0  0  0
   51.6561  154.5638   27.0498 C   0  0  0  0  0  0
   52.3615  155.6118   26.4241 C   0  0  0  0  0  0
   52.5835  156.7843   27.0790 N   0  0  0  0  0  0
   51.9834  156.9591   28.2820 C   0  0  0  0  0  0
   51.2284  156.0269   28.9040 N   0  0  0  0  0  0
   51.1339  154.8194   28.3177 C   0  0  0  0  0  0
   52.0560  158.2440   28.8300 N   0  0  0  0  0  0
   51.2560  152.2439   27.1815 O   0  0  0  0  0  0
   53.6631  153.7086   23.2554 C   0  0  0  0  0  0
   48.7725  161.0778   32.5189 C   0  0  0  0  0  0
   49.4976  157.6632   29.7040 H   0  0  0  0  0  0
   52.7014  160.5066   30.0456 H   0  0  0  0  0  0
   51.3179  161.7592   31.6658 H   0  0  0  0  0  0
   51.2561  153.4440   24.4581 H   0  0  0  0  0  0
   52.3090  152.0146   24.8445 H   0  0  0  0  0  0
   54.1579  153.6178   25.3040 H   0  0  0  0  0  0
   52.2355  155.7870   24.3143 H   0  0  0  0  0  0
   53.8545  156.0480   24.9049 H   0  0  0  0  0  0
   50.6183  154.0600   28.8881 H   0  0  0  0  0  0
   52.7568  158.8102   28.3682 H   0  0  0  0  0  0
   52.7967  153.8440   22.6112 H   0  0  0  0  0  0
   54.4591  154.3766   22.9259 H   0  0  0  0  0  0
   54.0003  152.6874   23.0872 H   0  0  0  0  0  0
   49.3241  161.8437   33.0635 H   0  0  0  0  0  0
   48.3995  160.3587   33.2496 H   0  0  0  0  0  0
   47.9168  161.5458   32.0320 H   0  0  0  0  0  0
  1  6  2  0  0  0
  1  2  1  0  0  0
  2  3  2  0  0  0
  2 21  1  0  0  0
  3  4  1  0  0  0
  3 17  1  0  0  0
  4  5  2  0  0  0
  4 22  1  0  0  0
  5  6  1  0  0  0
  5 23  1  0  0  0
  6 20  1  0  0  0
  7  8  1  0  0  0
  7 10  1  0  0  0
  7 24  1  0  0  0
  7 25  1  0  0  0
  8  9  1  0  0  0
  8 19  1  0  0  0
  8 26  1  0  0  0
  9 12  1  0  0  0
  9 27  1  0  0  0
  9 28  1  0  0  0
 10 11  1  0  0  0
 10 18  2  0  0  0
 11 12  2  0  0  0
 11 16  1  0  0  0
 12 13  1  0  0  0
 13 14  2  0  0  0
 14 15  1  0  0  0
 14 17  1  0  0  0
 15 16  2  0  0  0
 16 29  1  0  0  0
 17 30  1  0  0  0
 19 31  1  0  0  0
 19 32  1  0  0  0
 19 33  1  0  0  0
 20 34  1  0  0  0
 20 35  1  0  0  0
 20 36  1  0  0  0
M  END
> <s_m_entry_id>
10316

> <s_m_entry_name>
dock_pv.352

> <s_m_Source_Path>
/home/csk/Desktop/cluster/DUD-E-result/aofb

> <s_m_Source_File>
dock_pv.maegz

> <i_m_Source_File_Index>
352

> <chembl_id>
CHEMBL2408575

> <chembl_pref_name>
None

> <i_lp_mmshare_version>
53161

> <i_f3d_flags>
0

> <r_lp_tautomer_probability>
0.999949999999999

> <s_lp_Force_Field>
OPLS_2005

> <r_lp_Energy>
4.717079

> <b_lp_Chiralities_Consistent>
1

> <s_lp_Variant>
CHEMBL2039_lig993-1

> <s_i_glide_gridfile>
glide-grid_1s3b

> <i_i_glide_lignum>
1140

> <i_i_glide_rotatable_bonds>
2

> <r_i_docking_score>
-7.25443195867864

> <r_i_glide_ligand_efficiency>
-0.362721597933932

> <r_i_glide_ligand_efficiency_sa>
-0.984577894368143

> <r_i_glide_ligand_efficiency_ln>
-1.81554505207783

> <r_i_glide_gscore>
-7.25443195867864

> <r_i_glide_lipo>
-2.77233567404152

> <r_i_glide_hbond>
-0.32

> <r_i_glide_metal>
0

> <r_i_glide_rewards>
-3.12179171195705

> <r_i_glide_evdw>
-27.2958431243896

> <r_i_glide_ecoul>
-0.970609545707703

> <r_i_glide_erotb>
0.495832793159692

> <r_i_glide_esite>
-0.0257537777641179

> <r_i_glide_emodel>
-32.7974392674902

> <r_i_glide_energy>
-28.2664526700974

> <r_i_glide_einternal>
6.85376358032227

> <i_i_glide_confnum>
6

> <i_i_glide_posenum>
315

> <r_i_glide_eff_state_penalty>
0

> <s_user_duplicate_titles>
CHEMBL2039_lig993

> <s_m_subgroup_title>
dock_pv

> <s_m_subgroupid>
dock_pv

> <b_m_subgroup_collapsed>
1

$$$$
CHEMBL2039_lig593
                    3D
 Schrodinger Suite 2021-1.
 34 36  0  0  1  0            999 V2000
   52.0652  155.8521   28.3013 C   0  0  0  0  0  0
   50.8698  155.1812   28.5849 C   0  0  0  0  0  0
   49.8990  155.8440   29.3040 C   0  0  0  0  0  0
   52.2336  157.2051   28.5876 C   0  0  0  0  0  0
   51.2386  157.8680   29.3040 C   0  0  0  0  0  0
   50.0916  157.1768   29.7040 C   0  0  0  0  0  0
   49.0150  157.8364   30.2835 O   0  0  0  0  0  0
   49.0697  159.1513   30.6565 C   0  0  0  0  0  0
   50.3819  159.8440   30.5040 C   0  0  0  0  0  0
   51.3544  159.2470   29.7671 C   0  0  0  0  0  0
   48.0086  159.5892   31.1027 O   0  0  0  0  0  0
   50.6607  161.0034   31.3275 C   0  0  0  0  0  0
   51.9499  161.4440   31.2936 O   0  0  0  0  0  0
   49.8460  161.4871   32.1046 O   0  0  0  0  0  0
   50.4973  153.9473   28.1040 O   0  0  0  0  0  0
   51.4533  152.9978   27.6696 C   0  0  0  0  0  0
   51.9605  153.2382   26.2580 C   0  0  0  0  0  0
   51.8819  154.4991   25.6670 C   0  0  0  0  0  0
   52.8198  154.8692   24.7240 C   0  0  0  0  0  0
   53.5956  153.8911   24.1035 C   0  0  0  0  0  0
   53.4732  152.5629   24.5170 C   0  0  0  0  0  0
   52.7109  152.2440   25.6350 C   0  0  0  0  0  0
   53.1008  156.5575   24.5040 Cl  0  0  0  0  0  0
   52.8560  155.3515   27.7827 H   0  0  0  0  0  0
   48.9609  155.3570   29.5174 H   0  0  0  0  0  0
   53.1494  157.7102   28.3117 H   0  0  0  0  0  0
   52.3375  159.6936   29.6998 H   0  0  0  0  0  0
   52.0560  162.0894   32.0023 H   0  0  0  0  0  0
   52.2975  152.9750   28.3621 H   0  0  0  0  0  0
   50.9837  152.0151   27.7204 H   0  0  0  0  0  0
   51.2567  155.2767   26.0675 H   0  0  0  0  0  0
   54.3083  154.1564   23.3368 H   0  0  0  0  0  0
   54.0549  151.7888   24.0479 H   0  0  0  0  0  0
   52.7490  151.2435   26.0403 H   0  0  0  0  0  0
  1  2  2  0  0  0
  1  4  1  0  0  0
  1 24  1  0  0  0
  2  3  1  0  0  0
  2 15  1  0  0  0
  3  6  2  0  0  0
  3 25  1  0  0  0
  4  5  2  0  0  0
  4 26  1  0  0  0
  5 10  1  0  0  0
  5  6  1  0  0  0
  6  7  1  0  0  0
  7  8  1  0  0  0
  8 11  2  0  0  0
  8  9  1  0  0  0
  9 12  1  0  0  0
  9 10  2  0  0  0
 10 27  1  0  0  0
 12 13  1  0  0  0
 12 14  2  0  0  0
 13 28  1  0  0  0
 15 16  1  0  0  0
 16 17  1  0  0  0
 16 29  1  0  0  0
 16 30  1  0  0  0
 17 18  2  0  0  0
 17 22  1  0  0  0
 18 19  1  0  0  0
 18 31  1  0  0  0
 19 20  2  0  0  0
 19 23  1  0  0  0
 20 21  1  0  0  0
 20 32  1  0  0  0
 21 22  2  0  0  0
 21 33  1  0  0  0
 22 34  1  0  0  0
M  END
> <s_m_entry_id>
10317

> <s_m_entry_name>
dock_pv.353

> <s_m_Source_Path>
/home/csk/Desktop/cluster/DUD-E-result/aofb

> <s_m_Source_File>
dock_pv.maegz

> <i_m_Source_File_Index>
353

> <chembl_id>
CHEMBL1830825

> <chembl_pref_name>
None

> <i_lp_mmshare_version>
53161

> <i_f3d_flags>
0

> <r_lp_tautomer_probability>
1

> <s_lp_Force_Field>
OPLS_2005

> <r_lp_Energy>
28.367243

> <b_lp_Chiralities_Consistent>
1

> <s_lp_Variant>
CHEMBL2039_lig593-1

> <s_i_glide_gridfile>
glide-grid_1s3b

> <i_i_glide_lignum>
702

> <i_i_glide_rotatable_bonds>
5

> <r_i_docking_score>
-7.25404984795174

> <r_i_glide_ligand_efficiency>
-0.315393471650076

> <r_i_glide_ligand_efficiency_sa>
-0.896937078748954

> <r_i_glide_ligand_efficiency_ln>
-1.75409502932213

> <r_i_glide_gscore>
-7.25404984795174

> <r_i_glide_lipo>
-3.82672992810686

> <r_i_glide_hbond>
0

> <r_i_glide_metal>
0

> <r_i_glide_rewards>
-2.31070289184595

> <r_i_glide_evdw>
-17.6851711273193

> <r_i_glide_ecoul>
-6.13556051254272

> <r_i_glide_erotb>
0.687975605248448

> <r_i_glide_esite>
0

> <r_i_glide_emodel>
-26.0010729887258

> <r_i_glide_energy>
-23.8207316398621

> <r_i_glide_einternal>
2.02199411392212

> <i_i_glide_confnum>
53

> <i_i_glide_posenum>
82

> <r_i_glide_eff_state_penalty>
0

> <s_user_duplicate_titles>
CHEMBL2039_lig593

> <s_m_subgroup_title>
dock_pv

> <s_m_subgroupid>
dock_pv

> <b_m_subgroup_collapsed>
1

$$$$
CHEMBL2039_lig2025
                    3D
 Schrodinger Suite 2021-1.
 33 35  0  0  1  0            999 V2000
   53.4730  154.1563   24.4383 C   0  0  0  0  0  0
   52.8963  152.9217   24.7339 C   0  0  0  0  0  0
   52.0560  152.7975   25.8341 C   0  0  0  0  0  0
   53.1637  155.2850   25.2015 C   0  0  0  0  0  0
   52.3584  155.1600   26.3399 C   0  0  0  0  0  0
   51.8028  153.9059   26.6319 C   0  0  0  0  0  0
   51.0804  153.6755   27.7745 O   0  0  0  0  0  0
   50.8560  154.7268   28.5916 C   0  0  0  0  0  0
   51.3377  155.9796   28.4613 C   0  0  0  0  0  0
   52.2837  156.2440   27.3675 C   0  0  0  0  0  0
   53.0046  157.2342   27.2946 O   0  0  0  0  0  0
   50.8560  157.0361   29.3040 C   0  0  0  0  0  0
   51.1633  158.2724   29.3040 N   0  0  0  0  0  0
   50.4266  159.1720   30.1040 C   0  0  0  0  0  0
   49.0766  158.9694   30.2783 N   0  0  0  0  0  0
   48.3864  159.7620   31.1319 C   0  0  0  0  0  0
   48.9898  160.7972   31.8359 C   0  0  0  0  0  0
   50.3425  161.0440   31.6084 C   0  0  0  0  0  0
   51.0667  160.2585   30.7168 C   0  0  0  0  0  0
   52.3983  160.5238   30.5139 O   0  0  0  0  0  0
   54.5226  154.2496   23.3593 C   0  0  0  0  0  0
   53.1396  152.0495   24.1438 H   0  0  0  0  0  0
   51.6435  151.8369   26.1040 H   0  0  0  0  0  0
   53.6561  156.2235   24.9841 H   0  0  0  0  0  0
   50.1651  154.4485   29.3724 H   0  0  0  0  0  0
   50.0944  156.6598   29.9809 H   0  0  0  0  0  0
   47.3342  159.5474   31.2508 H   0  0  0  0  0  0
   48.4223  161.4125   32.5186 H   0  0  0  0  0  0
   50.8341  161.8655   32.1040 H   0  0  0  0  0  0
   52.8413  159.7466   30.1492 H   0  0  0  0  0  0
   54.4567  155.1851   22.8240 H   0  0  0  0  0  0
   55.5002  154.2440   23.8393 H   0  0  0  0  0  0
   54.4529  153.4440   22.6274 H   0  0  0  0  0  0
  1  2  2  0  0  0
  1  4  1  0  0  0
  1 21  1  0  0  0
  2  3  1  0  0  0
  2 22  1  0  0  0
  3  6  2  0  0  0
  3 23  1  0  0  0
  4  5  2  0  0  0
  4 24  1  0  0  0
  5  6  1  0  0  0
  5 10  1  0  0  0
  6  7  1  0  0  0
  7  8  1  0  0  0
  8  9  2  0  0  0
  8 25  1  0  0  0
  9 10  1  0  0  0
  9 12  1  0  0  0
 10 11  2  0  0  0
 12 13  2  0  0  0
 12 26  1  0  0  0
 13 14  1  0  0  0
 14 15  2  0  0  0
 14 19  1  0  0  0
 15 16  1  0  0  0
 16 17  2  0  0  0
 16 27  1  0  0  0
 17 18  1  0  0  0
 17 28  1  0  0  0
 18 19  2  0  0  0
 18 29  1  0  0  0
 19 20  1  0  0  0
 20 30  1  0  0  0
 21 31  1  0  0  0
 21 32  1  0  0  0
 21 33  1  0  0  0
M  END
> <s_m_entry_id>
10318

> <s_m_entry_name>
dock_pv.354

> <s_m_Source_Path>
/home/csk/Desktop/cluster/DUD-E-result/aofb

> <s_m_Source_File>
dock_pv.maegz

> <i_m_Source_File_Index>
354

> <chembl_id>
CHEMBL4092886

> <chembl_pref_name>
None

> <i_lp_mmshare_version>
53161

> <i_f3d_flags>
0

> <r_lp_tautomer_probability>
1

> <s_lp_Force_Field>
OPLS_2005

> <r_lp_Energy>
17.302635

> <b_lp_Chiralities_Consistent>
1

> <s_lp_Variant>
CHEMBL2039_lig2025-1

> <s_i_glide_gridfile>
glide-grid_1s3b

> <i_i_glide_lignum>
2360

> <i_i_glide_rotatable_bonds>
3

> <r_i_docking_score>
-7.24647176076546

> <r_i_glide_ligand_efficiency>
-0.345070083845974

> <r_i_glide_ligand_efficiency_sa>
-0.952022195902368

> <r_i_glide_ligand_efficiency_ln>
-1.79167549997432

> <r_i_glide_gscore>
-7.24647176076546

> <r_i_glide_lipo>
-3.62256276108026

> <r_i_glide_hbond>
-0.199548359824529

> <r_i_glide_metal>
0

> <r_i_glide_rewards>
-2.66225162529247

> <r_i_glide_evdw>
-21.6222496032715

> <r_i_glide_ecoul>
-0.93819671869278

> <r_i_glide_erotb>
0.459732973399292

> <r_i_glide_esite>
0

> <r_i_glide_emodel>
-22.4031495898492

> <r_i_glide_energy>
-22.5604463219643

> <r_i_glide_einternal>
3.86725306510925

> <i_i_glide_confnum>
3

> <i_i_glide_posenum>
26

> <r_i_glide_eff_state_penalty>
0

> <s_user_duplicate_titles>
CHEMBL2039_lig2025

> <s_m_subgroup_title>
dock_pv

> <s_m_subgroupid>
dock_pv

> <b_m_subgroup_collapsed>
1

$$$$
CHEMBL2039_lig367
                    3D
 Schrodinger Suite 2021-1.
 29 31  0  0  1  0            999 V2000
   47.8601  160.9305   32.4207 C   0  0  0  0  0  0
   49.1448  161.0376   31.8899 C   0  0  0  0  0  0
   47.5790  158.8052   31.3099 C   0  0  0  0  0  0
   48.8700  158.9037   30.7917 C   0  0  0  0  0  0
   49.6348  160.0623   31.0099 C   0  0  0  0  0  0
   50.9812  160.1836   30.4049 C   0  0  0  0  0  0
   51.2560  159.1632   29.3040 C   0  0  0  0  0  0
   50.7146  157.7830   29.6840 C   0  0  1  0  0  0
   49.3304  157.7916   30.1040 O   0  0  0  0  0  0
   51.1414  156.5959   28.7940 C   0  0  0  0  0  0
   52.0560  156.7665   27.7421 C   0  0  0  0  0  0
   51.6560  154.5159   26.9946 C   0  0  0  0  0  0
   50.8566  154.2877   28.1040 C   0  0  0  0  0  0
   52.2599  155.7549   26.8105 C   0  0  0  0  0  0
   50.5662  155.3329   28.9809 C   0  0  0  0  0  0
   51.7920  161.0440   30.7437 O   0  0  0  0  0  0
   51.8711  153.5203   26.1050 F   0  0  0  0  0  0
   47.0655  159.8306   32.1040 C   0  0  0  0  0  0
   47.4780  161.7046   33.0697 H   0  0  0  0  0  0
   49.7483  161.8984   32.1430 H   0  0  0  0  0  0
   46.9841  157.9267   31.1113 H   0  0  0  0  0  0
   52.3332  159.1034   29.1531 H   0  0  0  0  0  0
   50.7092  159.4440   28.4085 H   0  0  0  0  0  0
   51.2560  157.4508   30.5040 H   0  0  0  0  0  0
   52.5446  157.7130   27.5691 H   0  0  0  0  0  0
   50.4560  153.3003   28.2533 H   0  0  0  0  0  0
   52.9127  155.9142   25.9657 H   0  0  0  0  0  0
   49.8849  155.1586   29.8001 H   0  0  0  0  0  0
   46.0649  159.7563   32.5040 H   0  0  0  0  0  0
  1  2  1  0  0  0
  1 18  2  0  0  0
  1 19  1  0  0  0
  2  5  2  0  0  0
  2 20  1  0  0  0
  3  4  2  0  0  0
  3 18  1  0  0  0
  3 21  1  0  0  0
  4  5  1  0  0  0
  4  9  1  0  0  0
  5  6  1  0  0  0
  6  7  1  0  0  0
  6 16  2  0  0  0
  7  8  1  0  0  0
  7 22  1  0  0  0
  7 23  1  0  0  0
  8  9  1  0  0  0
  8 10  1  0  0  0
  8 24  1  0  0  0
 10 11  2  0  0  0
 10 15  1  0  0  0
 11 14  1  0  0  0
 11 25  1  0  0  0
 12 13  1  0  0  0
 12 14  2  0  0  0
 12 17  1  0  0  0
 13 15  2  0  0  0
 13 26  1  0  0  0
 14 27  1  0  0  0
 15 28  1  0  0  0
 18 29  1  0  0  0
M  END
> <s_m_entry_id>
10319

> <s_m_entry_name>
dock_pv.355

> <s_m_Source_Path>
/home/csk/Desktop/cluster/DUD-E-result/aofb

> <s_m_Source_File>
dock_pv.maegz

> <i_m_Source_File_Index>
355

> <chembl_id>
CHEMBL60720

> <chembl_pref_name>
None

> <i_lp_mmshare_version>
53161

> <i_f3d_flags>
0

> <r_lp_tautomer_probability>
0.99995

> <s_lp_Force_Field>
OPLS_2005

> <r_lp_Energy>
18.212313

> <b_lp_Chiralities_Consistent>
1

> <s_lp_Variant>
CHEMBL2039_lig367-2

> <s_i_glide_gridfile>
glide-grid_1s3b

> <i_i_glide_lignum>
434

> <i_i_glide_rotatable_bonds>
1

> <r_i_docking_score>
-7.2448438363831

> <r_i_glide_ligand_efficiency>
-0.402491324243505

> <r_i_glide_ligand_efficiency_sa>
-1.05482567323863

> <r_i_glide_ligand_efficiency_ln>
-1.86224975072844

> <r_i_glide_gscore>
-7.2448438363831

> <r_i_glide_lipo>
-3.63322058407568

> <r_i_glide_hbond>
0

> <r_i_glide_metal>
0

> <r_i_glide_rewards>
-3.13727137278183

> <r_i_glide_evdw>
-14.7682418823242

> <r_i_glide_ecoul>
-0.209673568606377

> <r_i_glide_erotb>
0.295511249881575

> <r_i_glide_esite>
0

> <r_i_glide_emodel>
-14.8318490189476

> <r_i_glide_energy>
-14.9779154509306

> <r_i_glide_einternal>
1.74786233901978

> <i_i_glide_confnum>
2

> <i_i_glide_posenum>
329

> <r_i_glide_eff_state_penalty>
0

> <s_user_duplicate_titles>
CHEMBL2039_lig367

> <s_m_subgroup_title>
dock_pv

> <s_m_subgroupid>
dock_pv

> <b_m_subgroup_collapsed>
1

$$$$
CHEMBL2039_lig548
                    3D
 Schrodinger Suite 2021-1.
 44 46  0  0  1  0            999 V2000
   50.3871  160.4176   31.0275 N   0  0  0  0  0  0
   49.0855  159.9595   31.0902 C   0  0  0  0  0  0
   48.9490  158.6694   30.6640 N   0  0  0  0  0  0
   51.4292  160.0222   30.2038 C   0  0  0  0  0  0
   51.1385  158.6941   29.6867 C   0  0  0  0  0  0
   49.9937  158.0082   30.0385 C   0  0  0  0  0  0
   50.0560  156.7374   29.7040 N   0  0  0  0  0  0
   51.1236  156.6286   28.9383 C   0  0  0  0  0  0
   51.8569  157.7906   28.9041 N   0  0  0  0  0  0
   50.6538  161.5217   31.9486 C   0  0  0  0  0  0
   47.6272  158.0400   30.7220 C   0  0  0  0  0  0
   48.1276  160.6431   31.4716 O   0  0  0  0  0  0
   52.4873  160.6450   30.1040 O   0  0  0  0  0  0
   53.2171  157.8441   28.4183 C   0  0  0  0  0  0
   51.6215  155.4320   28.4793 O   0  0  0  0  0  0
   50.8562  154.2679   28.7753 C   0  0  0  0  0  0
   51.3734  153.0390   28.0145 C   0  0  0  0  0  0
   51.0580  153.0520   26.5035 C   0  0  0  0  0  0
   52.0560  153.8485   25.6893 C   0  0  0  0  0  0
   53.0503  153.1840   24.9750 C   0  0  0  0  0  0
   54.0560  153.9302   24.3795 C   0  0  0  0  0  0
   54.0792  155.3120   24.4938 C   0  0  0  0  0  0
   53.0388  155.9752   25.1128 C   0  0  0  0  0  0
   52.0291  155.2430   25.7038 C   0  0  0  0  0  0
   51.5262  162.1292   31.7019 H   0  0  0  0  0  0
   49.8233  162.2119   32.1040 H   0  0  0  0  0  0
   50.8530  161.0458   32.9039 H   0  0  0  0  0  0
   46.8057  158.7586   30.6927 H   0  0  0  0  0  0
   47.4981  157.3810   29.8654 H   0  0  0  0  0  0
   47.5388  157.4567   31.6397 H   0  0  0  0  0  0
   53.7725  158.6441   28.9032 H   0  0  0  0  0  0
   53.6914  156.9023   28.6638 H   0  0  0  0  0  0
   53.2217  157.9535   27.3378 H   0  0  0  0  0  0
   49.8131  154.4381   28.5032 H   0  0  0  0  0  0
   50.8895  154.0814   29.8506 H   0  0  0  0  0  0
   50.9065  152.1560   28.4530 H   0  0  0  0  0  0
   52.4445  152.9268   28.1884 H   0  0  0  0  0  0
   50.0577  153.4440   26.3322 H   0  0  0  0  0  0
   51.0424  152.0277   26.1293 H   0  0  0  0  0  0
   53.0822  152.1050   24.9304 H   0  0  0  0  0  0
   54.8539  153.4474   23.8625 H   0  0  0  0  0  0
   54.8878  155.8740   24.0496 H   0  0  0  0  0  0
   53.0247  157.0440   25.1577 H   0  0  0  0  0  0
   51.2559  155.7842   26.2134 H   0  0  0  0  0  0
  1  2  1  0  0  0
  1  4  1  0  0  0
  1 10  1  0  0  0
  2 12  2  0  0  0
  2  3  1  0  0  0
  3  6  1  0  0  0
  3 11  1  0  0  0
  4 13  2  0  0  0
  4  5  1  0  0  0
  5  9  1  0  0  0
  5  6  2  0  0  0
  6  7  1  0  0  0
  7  8  2  0  0  0
  8 15  1  0  0  0
  8  9  1  0  0  0
  9 14  1  0  0  0
 10 25  1  0  0  0
 10 26  1  0  0  0
 10 27  1  0  0  0
 11 28  1  0  0  0
 11 29  1  0  0  0
 11 30  1  0  0  0
 14 31  1  0  0  0
 14 32  1  0  0  0
 14 33  1  0  0  0
 15 16  1  0  0  0
 16 17  1  0  0  0
 16 34  1  0  0  0
 16 35  1  0  0  0
 17 18  1  0  0  0
 17 36  1  0  0  0
 17 37  1  0  0  0
 18 19  1  0  0  0
 18 38  1  0  0  0
 18 39  1  0  0  0
 19 20  2  0  0  0
 19 24  1  0  0  0
 20 21  1  0  0  0
 20 40  1  0  0  0
 21 22  2  0  0  0
 21 41  1  0  0  0
 22 23  1  0  0  0
 22 42  1  0  0  0
 23 24  2  0  0  0
 23 43  1  0  0  0
 24 44  1  0  0  0
M  END
> <s_m_entry_id>
10320

> <s_m_entry_name>
dock_pv.356

> <s_m_Source_Path>
/home/csk/Desktop/cluster/DUD-E-result/aofb

> <s_m_Source_File>
dock_pv.maegz

> <i_m_Source_File_Index>
356

> <chembl_id>
CHEMBL1806758

> <chembl_pref_name>
None

> <i_lp_mmshare_version>
53161

> <i_f3d_flags>
0

> <r_lp_tautomer_probability>
1

> <s_lp_Force_Field>
OPLS_2005

> <r_lp_Energy>
35.012784

> <b_lp_Chiralities_Consistent>
1

> <s_lp_Variant>
CHEMBL2039_lig548-1

> <s_i_glide_gridfile>
glide-grid_1s3b

> <i_i_glide_lignum>
650

> <i_i_glide_rotatable_bonds>
5

> <r_i_docking_score>
-7.24255312861188

> <r_i_glide_ligand_efficiency>
-0.301773047025495

> <r_i_glide_ligand_efficiency_sa>
-0.870464093883628

> <r_i_glide_ligand_efficiency_ln>
-1.73347530278439

> <r_i_glide_gscore>
-7.24255312861188

> <r_i_glide_lipo>
-2.7533691638386

> <r_i_glide_hbond>
-0.175177165296129

> <r_i_glide_metal>
0

> <r_i_glide_rewards>
-3.71012344187482

> <r_i_glide_evdw>
-14.9263582229614

> <r_i_glide_ecoul>
-3.64352345466614

> <r_i_glide_erotb>
0.696712497700924

> <r_i_glide_esite>
-0.00774942595525931

> <r_i_glide_emodel>
-41.5181799863139

> <r_i_glide_energy>
-18.5698816776276

> <r_i_glide_einternal>
4.19765901565552

> <i_i_glide_confnum>
31

> <i_i_glide_posenum>
157

> <r_i_glide_eff_state_penalty>
0

> <s_user_duplicate_titles>
CHEMBL2039_lig548

> <s_m_subgroup_title>
dock_pv

> <s_m_subgroupid>
dock_pv

> <b_m_subgroup_collapsed>
1

$$$$
CHEMBL2039_lig1522
                    3D
 Schrodinger Suite 2021-1.
 38 41  0  0  1  0            999 V2000
   51.9669  157.8284   28.6039 C   0  0  0  0  0  0
   51.0539  158.1431   29.6988 N   0  0  1  0  0  0
   51.4107  159.4448   30.2475 C   0  0  1  0  0  0
   50.8168  160.7044   29.7091 C   0  0  0  0  0  0
   50.3972  160.2228   31.0739 C   0  0  1  0  0  0
   48.9210  159.9114   31.2733 C   0  0  0  0  0  0
   48.1597  159.2359   30.3098 C   0  0  0  0  0  0
   46.7984  159.0481   30.5038 C   0  0  0  0  0  0
   46.1942  159.5615   31.6423 C   0  0  0  0  0  0
   46.9399  160.2456   32.5934 C   0  0  0  0  0  0
   48.3058  160.4068   32.4218 C   0  0  0  0  0  0
   51.8503  156.4180   28.0216 C   0  0  0  0  0  0
   51.2660  155.3462   28.7068 C   0  0  0  0  0  0
   51.2320  154.0576   28.1729 C   0  0  0  0  0  0
   51.7285  153.8857   26.8816 C   0  0  0  0  0  0
   51.8649  152.7551   26.1044 N   0  0  0  0  0  0
   52.4742  153.0746   24.9150 C   0  0  0  0  0  0
   52.7255  154.4285   24.8888 C   0  0  0  0  0  0
   52.2796  154.9665   26.1334 C   0  0  0  0  0  0
   52.3444  156.2323   26.7261 C   0  0  0  0  0  0
   53.0063  157.9774   28.8998 H   0  0  0  0  0  0
   51.7499  158.5332   27.8041 H   0  0  0  0  0  0
   50.1216  158.2026   29.3239 H   0  0  0  0  0  0
   52.4544  159.5232   30.5553 H   0  0  0  0  0  0
   51.4172  161.6129   29.7040 H   0  0  0  0  0  0
   50.0807  160.6503   28.9049 H   0  0  0  0  0  0
   50.8387  160.7598   31.9157 H   0  0  0  0  0  0
   48.5925  158.8790   29.3913 H   0  0  0  0  0  0
   46.2053  158.5452   29.7554 H   0  0  0  0  0  0
   45.1339  159.4453   31.7860 H   0  0  0  0  0  0
   46.4561  160.6762   33.4521 H   0  0  0  0  0  0
   48.8741  160.9510   33.1625 H   0  0  0  0  0  0
   50.8567  155.4958   29.6969 H   0  0  0  0  0  0
   50.8556  153.2275   28.7488 H   0  0  0  0  0  0
   51.6012  151.8109   26.3478 H   0  0  0  0  0  0
   52.6879  152.3031   24.1874 H   0  0  0  0  0  0
   53.2296  154.9621   24.1035 H   0  0  0  0  0  0
   52.8007  157.0443   26.1870 H   0  0  0  0  0  0
  1  2  1  0  0  0
  1 12  1  0  0  0
  1 21  1  0  0  0
  1 22  1  0  0  0
  2  3  1  0  0  0
  2 23  1  0  0  0
  3  4  1  0  0  0
  3  5  1  0  0  0
  3 24  1  0  0  0
  4  5  1  0  0  0
  4 25  1  0  0  0
  4 26  1  0  0  0
  5  6  1  0  0  0
  5 27  1  0  0  0
  6  7  2  0  0  0
  6 11  1  0  0  0
  7  8  1  0  0  0
  7 28  1  0  0  0
  8  9  2  0  0  0
  8 29  1  0  0  0
  9 10  1  0  0  0
  9 30  1  0  0  0
 10 11  2  0  0  0
 10 31  1  0  0  0
 11 32  1  0  0  0
 12 13  2  0  0  0
 12 20  1  0  0  0
 13 14  1  0  0  0
 13 33  1  0  0  0
 14 15  2  0  0  0
 14 34  1  0  0  0
 15 16  1  0  0  0
 15 19  1  0  0  0
 16 17  1  0  0  0
 16 35  1  0  0  0
 17 18  2  0  0  0
 17 36  1  0  0  0
 18 19  1  0  0  0
 18 37  1  0  0  0
 19 20  2  0  0  0
 20 38  1  0  0  0
M  END
> <s_m_entry_id>
10321

> <s_m_entry_name>
dock_pv.357

> <s_m_Source_Path>
/home/csk/Desktop/cluster/DUD-E-result/aofb

> <s_m_Source_File>
dock_pv.maegz

> <i_m_Source_File_Index>
357

> <chembl_id>
CHEMBL3651146

> <chembl_pref_name>
None

> <i_lp_mmshare_version>
53161

> <i_f3d_flags>
0

> <r_lp_tautomer_probability>
1

> <s_lp_Force_Field>
OPLS_2005

> <r_lp_Energy>
23.889272

> <b_lp_Chiralities_Consistent>
1

> <s_lp_Variant>
CHEMBL2039_lig1522-1

> <s_i_glide_gridfile>
glide-grid_1s3b

> <i_i_glide_lignum>
1761

> <i_i_glide_rotatable_bonds>
4

> <r_i_docking_score>
-7.23641343465353

> <r_i_glide_ligand_efficiency>
-0.361820671732677

> <r_i_glide_ligand_efficiency_sa>
-0.982132404418645

> <r_i_glide_ligand_efficiency_ln>
-1.81103560980504

> <r_i_glide_gscore>
-7.23641343465353

> <r_i_glide_lipo>
-4.44930011215691

> <r_i_glide_hbond>
0

> <r_i_glide_metal>
0

> <r_i_glide_rewards>
-2.34735807102289

> <r_i_glide_evdw>
-29.606517791748

> <r_i_glide_ecoul>
0.0644189491868019

> <r_i_glide_erotb>
1.03090779573565

> <r_i_glide_esite>
0

> <r_i_glide_emodel>
-32.019887841896

> <r_i_glide_energy>
-29.5420988425612

> <r_i_glide_einternal>
7.20007610321045

> <i_i_glide_confnum>
111

> <i_i_glide_posenum>
348

> <r_i_glide_eff_state_penalty>
0

> <s_user_duplicate_titles>
CHEMBL2039_lig1522

> <s_m_subgroup_title>
dock_pv

> <s_m_subgroupid>
dock_pv

> <b_m_subgroup_collapsed>
1

$$$$
CHEMBL2039_lig1351
                    3D
 Schrodinger Suite 2021-1.
 33 35  0  0  1  0            999 V2000
   50.8058  158.7872   29.7040 C   0  0  0  0  0  0
   51.6560  159.8440   30.1040 C   0  0  0  0  0  0
   51.2274  160.7973   31.0404 C   0  0  0  0  0  0
   49.4879  158.7474   30.1878 C   0  0  0  0  0  0
   49.0899  159.6972   31.1173 C   0  0  0  0  0  0
   49.9351  160.6777   31.5423 C   0  0  0  0  0  0
   49.2981  161.4440   32.4691 O   0  0  0  0  0  0
   48.1152  160.7552   32.7751 C   0  0  0  0  0  0
   47.8960  159.8176   31.7557 O   0  0  0  0  0  0
   51.1660  157.7234   28.9040 O   0  0  0  0  0  0
   52.5034  157.4526   28.5040 C   0  0  0  0  0  0
   52.4810  156.7877   27.1300 C   0  0  0  0  0  0
   51.6560  155.6472   27.2186 O   0  0  0  0  0  0
   51.9361  154.5516   26.4495 C   0  0  0  0  0  0
   51.3936  153.3710   26.9318 C   0  0  0  0  0  0
   51.7541  152.1695   26.3550 C   0  0  0  0  0  0
   52.6673  152.1496   25.3040 C   0  0  0  0  0  0
   53.1340  153.3354   24.7423 C   0  0  0  0  0  0
   52.7493  154.5502   25.3040 C   0  0  0  0  0  0
   53.2560  150.4718   24.6377 Br  0  0  0  0  0  0
   52.6737  159.9003   29.7563 H   0  0  0  0  0  0
   51.8928  161.5767   31.3821 H   0  0  0  0  0  0
   48.8200  157.9517   29.9005 H   0  0  0  0  0  0
   47.2742  161.4440   32.8577 H   0  0  0  0  0  0
   48.2418  160.2299   33.7245 H   0  0  0  0  0  0
   53.1608  158.3119   28.4838 H   0  0  0  0  0  0
   52.9405  156.7599   29.2220 H   0  0  0  0  0  0
   52.0560  157.4440   26.3778 H   0  0  0  0  0  0
   53.5058  156.5704   26.8348 H   0  0  0  0  0  0
   50.7452  153.3857   27.7958 H   0  0  0  0  0  0
   51.3584  151.2453   26.7512 H   0  0  0  0  0  0
   53.8166  153.3100   23.9052 H   0  0  0  0  0  0
   53.1464  155.4672   24.8979 H   0  0  0  0  0  0
  1  2  2  0  0  0
  1  4  1  0  0  0
  1 10  1  0  0  0
  2  3  1  0  0  0
  2 21  1  0  0  0
  3  6  2  0  0  0
  3 22  1  0  0  0
  4  5  2  0  0  0
  4 23  1  0  0  0
  5  6  1  0  0  0
  5  9  1  0  0  0
  6  7  1  0  0  0
  7  8  1  0  0  0
  8  9  1  0  0  0
  8 24  1  0  0  0
  8 25  1  0  0  0
 10 11  1  0  0  0
 11 12  1  0  0  0
 11 26  1  0  0  0
 11 27  1  0  0  0
 12 13  1  0  0  0
 12 28  1  0  0  0
 12 29  1  0  0  0
 13 14  1  0  0  0
 14 15  2  0  0  0
 14 19  1  0  0  0
 15 16  1  0  0  0
 15 30  1  0  0  0
 16 17  2  0  0  0
 16 31  1  0  0  0
 17 18  1  0  0  0
 17 20  1  0  0  0
 18 19  2  0  0  0
 18 32  1  0  0  0
 19 33  1  0  0  0
M  END
> <s_m_entry_id>
10322

> <s_m_entry_name>
dock_pv.358

> <s_m_Source_Path>
/home/csk/Desktop/cluster/DUD-E-result/aofb

> <s_m_Source_File>
dock_pv.maegz

> <i_m_Source_File_Index>
358

> <chembl_id>
CHEMBL3402194

> <chembl_pref_name>
None

> <i_lp_mmshare_version>
53161

> <i_f3d_flags>
0

> <r_lp_tautomer_probability>
1

> <s_lp_Force_Field>
OPLS_2005

> <r_lp_Energy>
28.228246

> <b_lp_Chiralities_Consistent>
1

> <s_lp_Variant>
CHEMBL2039_lig1351-1

> <s_i_glide_gridfile>
glide-grid_1s3b

> <i_i_glide_lignum>
1572

> <i_i_glide_rotatable_bonds>
5

> <r_i_docking_score>
-7.23632265508645

> <r_i_glide_ligand_efficiency>
-0.361816132754322

> <r_i_glide_ligand_efficiency_sa>
-0.982120083735851

> <r_i_glide_ligand_efficiency_ln>
-1.81101289067351

> <r_i_glide_gscore>
-7.23632265508645

> <r_i_glide_lipo>
-3.53276457714834

> <r_i_glide_hbond>
0

> <r_i_glide_metal>
0

> <r_i_glide_rewards>
-2.42864125154754

> <r_i_glide_evdw>
-29.488037109375

> <r_i_glide_ecoul>
-1.9944554567337

> <r_i_glide_erotb>
0.498653347588237

> <r_i_glide_esite>
0

> <r_i_glide_emodel>
-38.2000508217299

> <r_i_glide_energy>
-31.4824925661087

> <r_i_glide_einternal>
7.87433624267578

> <i_i_glide_confnum>
1

> <i_i_glide_posenum>
149

> <r_i_glide_eff_state_penalty>
0

> <s_user_duplicate_titles>
CHEMBL2039_lig1351

> <s_m_subgroup_title>
dock_pv

> <s_m_subgroupid>
dock_pv

> <b_m_subgroup_collapsed>
1

$$$$
CHEMBL2039_lig1542
                    3D
 Schrodinger Suite 2021-1.
 37 41  0  0  1  0            999 V2000
   47.3517  160.5416   33.3042 C   0  0  0  0  0  0
   48.3619  161.4443   33.0130 O   0  0  0  0  0  0
   49.0859  160.7960   32.0785 C   0  0  0  0  0  0
   50.3690  161.0701   31.6718 C   0  0  0  0  0  0
   50.9318  160.2401   30.7116 C   0  0  0  0  0  0
   50.2447  159.0929   30.2260 C   0  0  0  0  0  0
   48.9065  158.8891   30.6250 C   0  0  0  0  0  0
   48.3697  159.7548   31.5673 C   0  0  0  0  0  0
   47.1680  159.7132   32.1894 O   0  0  0  0  0  0
   50.9868  158.0452   29.4590 C   0  0  0  0  0  0
   52.2223  158.3033   28.9012 C   0  0  0  0  0  0
   52.7854  157.4441   27.9687 C   0  0  0  0  0  0
   52.1089  156.2670   27.6628 C   0  0  0  0  0  0
   52.4558  155.4438   26.5842 C   0  0  0  0  0  0
   51.9197  154.1607   26.5165 C   0  0  0  0  0  0
   50.9932  153.7428   27.4689 C   0  0  0  0  0  0
   50.4915  154.6441   28.4029 C   0  0  0  0  0  0
   51.0292  155.9117   28.5042 C   0  0  0  0  0  0
   50.4560  156.7986   29.3572 N   0  0  0  0  0  0
   52.4110  153.2780   25.5510 N   0  0  0  0  0  0
   52.8561  153.5841   24.2934 C   0  0  0  0  0  0
   53.2561  152.3859   23.7477 C   0  0  0  0  0  0
   53.1847  151.3892   24.6105 N   0  0  0  0  0  0
   52.5817  151.9188   25.6463 C   0  0  0  0  0  0
   46.4512  161.0657   33.5621 H   0  0  0  0  0  0
   47.6560  159.9438   34.1634 H   0  0  0  0  0  0
   50.9194  161.8901   32.1039 H   0  0  0  0  0  0
   51.9588  160.4487   30.4647 H   0  0  0  0  0  0
   48.3433  158.0328   30.2861 H   0  0  0  0  0  0
   52.7464  159.2116   29.1065 H   0  0  0  0  0  0
   53.6846  157.7189   27.4370 H   0  0  0  0  0  0
   53.2552  155.7520   25.9248 H   0  0  0  0  0  0
   50.6523  152.7262   27.4727 H   0  0  0  0  0  0
   49.6567  154.4329   29.0333 H   0  0  0  0  0  0
   52.8208  154.5902   23.9078 H   0  0  0  0  0  0
   53.6560  152.2523   22.7546 H   0  0  0  0  0  0
   52.2007  151.3898   26.5023 H   0  0  0  0  0  0
  1  2  1  0  0  0
  1  9  1  0  0  0
  1 25  1  0  0  0
  1 26  1  0  0  0
  2  3  1  0  0  0
  3  4  2  0  0  0
  3  8  1  0  0  0
  4  5  1  0  0  0
  4 27  1  0  0  0
  5  6  2  0  0  0
  5 28  1  0  0  0
  6  7  1  0  0  0
  6 10  1  0  0  0
  7  8  2  0  0  0
  7 29  1  0  0  0
  8  9  1  0  0  0
 10 11  2  0  0  0
 10 19  1  0  0  0
 11 12  1  0  0  0
 11 30  1  0  0  0
 12 13  2  0  0  0
 12 31  1  0  0  0
 13 14  1  0  0  0
 13 18  1  0  0  0
 14 15  2  0  0  0
 14 32  1  0  0  0
 15 16  1  0  0  0
 15 20  1  0  0  0
 16 17  2  0  0  0
 16 33  1  0  0  0
 17 18  1  0  0  0
 17 34  1  0  0  0
 18 19  2  0  0  0
 20 21  1  0  0  0
 20 24  1  0  0  0
 21 22  2  0  0  0
 21 35  1  0  0  0
 22 23  1  0  0  0
 22 36  1  0  0  0
 23 24  2  0  0  0
 24 37  1  0  0  0
M  END
> <s_m_entry_id>
10323

> <s_m_entry_name>
dock_pv.359

> <s_m_Source_Path>
/home/csk/Desktop/cluster/DUD-E-result/aofb

> <s_m_Source_File>
dock_pv.maegz

> <i_m_Source_File_Index>
359

> <chembl_id>
CHEMBL3652420

> <chembl_pref_name>
None

> <i_lp_mmshare_version>
53161

> <i_f3d_flags>
0

> <r_lp_tautomer_probability>
1

> <s_lp_Force_Field>
OPLS_2005

> <r_lp_Energy>
33.514677

> <b_lp_Chiralities_Consistent>
1

> <s_lp_Variant>
CHEMBL2039_lig1542-1

> <s_i_glide_gridfile>
glide-grid_1s3b

> <i_i_glide_lignum>
1793

> <i_i_glide_rotatable_bonds>
2

> <r_i_docking_score>
-7.23404621288725

> <r_i_glide_ligand_efficiency>
-0.301418592203635

> <r_i_glide_ligand_efficiency_sa>
-0.86944166925567

> <r_i_glide_ligand_efficiency_ln>
-1.73143920749456

> <r_i_glide_gscore>
-7.23404621288725

> <r_i_glide_lipo>
-3.91784062469629

> <r_i_glide_hbond>
0

> <r_i_glide_metal>
0

> <r_i_glide_rewards>
-3.17887359212828

> <r_i_glide_evdw>
-6.07638645172119

> <r_i_glide_ecoul>
-1.38443410396576

> <r_i_glide_erotb>
0.374152442118243

> <r_i_glide_esite>
0

> <r_i_glide_emodel>
-28.2118164202935

> <r_i_glide_energy>
-7.46082055568695

> <r_i_glide_einternal>
0.870205402374268

> <i_i_glide_confnum>
11

> <i_i_glide_posenum>
11

> <r_i_glide_eff_state_penalty>
0

> <s_user_duplicate_titles>
CHEMBL2039_lig1542

> <s_m_subgroup_title>
dock_pv

> <s_m_subgroupid>
dock_pv

> <b_m_subgroup_collapsed>
1

$$$$
CHEMBL2039_lig2779
                    3D
 Schrodinger Suite 2021-1.
 36 38  0  0  1  0            999 V2000
   49.8867  160.6440   31.5549 C   0  0  0  0  0  0
   51.1190  160.5782   30.8918 C   0  0  0  0  0  0
   51.3787  159.4976   30.0425 C   0  0  0  0  0  0
   50.4560  158.4544   29.9103 C   0  0  0  0  0  0
   49.1905  158.5950   30.5040 C   0  0  0  0  0  0
   48.9048  159.6878   31.3166 C   0  0  0  0  0  0
   49.6560  161.6007   32.5040 O   0  0  0  0  0  0
   50.8560  155.0365   28.7616 N   0  0  2  0  0  0
   50.1614  156.0956   29.3041 N   0  0  0  0  0  0
   50.8560  157.1696   29.3040 C   0  0  0  0  0  0
   52.0992  156.9976   28.4445 C   0  0  0  0  0  0
   52.0255  155.5137   28.0825 C   0  0  2  0  0  0
   52.1119  155.0443   26.6255 C   0  0  0  0  0  0
   51.7937  153.7109   26.3262 C   0  0  0  0  0  0
   52.3010  153.1131   25.1791 C   0  0  0  0  0  0
   53.0967  153.8440   24.3057 C   0  0  0  0  0  0
   53.3805  155.1789   24.5708 C   0  0  0  0  0  0
   52.8560  155.7923   25.7040 C   0  0  0  0  0  0
   52.0665  161.5521   31.1096 O   0  0  0  0  0  0
   53.3424  161.0994   31.5528 C   0  0  0  0  0  0
   52.3511  159.4273   29.5782 H   0  0  0  0  0  0
   48.4467  157.8165   30.4090 H   0  0  0  0  0  0
   47.9531  159.7489   31.8240 H   0  0  0  0  0  0
   50.4845  162.0305   32.7607 H   0  0  0  0  0  0
   50.2169  154.4517   28.2429 H   0  0  0  0  0  0
   52.0560  157.6568   27.5800 H   0  0  0  0  0  0
   53.0159  157.2069   28.9894 H   0  0  0  0  0  0
   52.8558  155.0123   28.5822 H   0  0  0  0  0  0
   51.2690  153.0893   27.0366 H   0  0  0  0  0  0
   52.1167  152.0672   24.9903 H   0  0  0  0  0  0
   53.5189  153.3646   23.4341 H   0  0  0  0  0  0
   54.0560  155.7272   23.9322 H   0  0  0  0  0  0
   53.1774  156.7959   25.9317 H   0  0  0  0  0  0
   53.9174  161.9523   31.9123 H   0  0  0  0  0  0
   53.2606  160.3844   32.3745 H   0  0  0  0  0  0
   53.9121  160.6440   30.7425 H   0  0  0  0  0  0
  1  2  1  0  0  0
  1  6  2  0  0  0
  1  7  1  0  0  0
  2  3  2  0  0  0
  2 19  1  0  0  0
  3  4  1  0  0  0
  3 21  1  0  0  0
  4  5  2  0  0  0
  4 10  1  0  0  0
  5  6  1  0  0  0
  5 22  1  0  0  0
  6 23  1  0  0  0
  7 24  1  0  0  0
  8  9  1  0  0  0
  8 12  1  0  0  0
  8 25  1  0  0  0
  9 10  2  0  0  0
 10 11  1  0  0  0
 11 12  1  0  0  0
 11 26  1  0  0  0
 11 27  1  0  0  0
 12 13  1  0  0  0
 12 28  1  0  0  0
 13 14  1  0  0  0
 13 18  2  0  0  0
 14 15  2  0  0  0
 14 29  1  0  0  0
 15 16  1  0  0  0
 15 30  1  0  0  0
 16 17  2  0  0  0
 16 31  1  0  0  0
 17 18  1  0  0  0
 17 32  1  0  0  0
 18 33  1  0  0  0
 19 20  1  0  0  0
 20 34  1  0  0  0
 20 35  1  0  0  0
 20 36  1  0  0  0
M  END
> <s_m_entry_id>
10324

> <s_m_entry_name>
dock_pv.360

> <s_m_Source_Path>
/home/csk/Desktop/cluster/DUD-E-result/aofb

> <s_m_Source_File>
dock_pv.maegz

> <i_m_Source_File_Index>
360

> <chembl_id>
CHEMBL3780212

> <chembl_pref_name>
None

> <i_lp_mmshare_version>
53161

> <i_f3d_flags>
0

> <r_lp_tautomer_probability>
1

> <s_lp_Force_Field>
OPLS_2005

> <r_lp_Energy>
27.59676

> <b_lp_Chiralities_Consistent>
1

> <s_lp_Variant>
CHEMBL2039_lig2779-2

> <s_i_glide_gridfile>
glide-grid_1s3b

> <i_i_glide_lignum>
3244

> <i_i_glide_rotatable_bonds>
4

> <r_i_docking_score>
-7.23062612994493

> <r_i_glide_ligand_efficiency>
-0.361531306497246

> <r_i_glide_ligand_efficiency_sa>
-0.981346946326747

> <r_i_glide_ligand_efficiency_ln>
-1.80958723831456

> <r_i_glide_gscore>
-7.23062612994493

> <r_i_glide_lipo>
-3.44336519577827

> <r_i_glide_hbond>
0

> <r_i_glide_metal>
0

> <r_i_glide_rewards>
-2.59373802302992

> <r_i_glide_evdw>
-18.7964630126953

> <r_i_glide_ecoul>
-4.9969539642334

> <r_i_glide_erotb>
0.495843334133043

> <r_i_glide_esite>
0

> <r_i_glide_emodel>
-35.7354381322841

> <r_i_glide_energy>
-23.7934169769287

> <r_i_glide_einternal>
5.08583927154541

> <i_i_glide_confnum>
4

> <i_i_glide_posenum>
336

> <r_i_glide_eff_state_penalty>
0

> <s_user_duplicate_titles>
CHEMBL2039_lig2779

> <s_m_subgroup_title>
dock_pv

> <s_m_subgroupid>
dock_pv

> <b_m_subgroup_collapsed>
1

$$$$
CHEMBL2039_lig345
                    3D
 Schrodinger Suite 2021-1.
 33 35  0  0  1  0            999 V2000
   47.6495  159.9673   31.6543 C   0  0  0  0  0  0
   48.4803  160.9950   32.1040 C   0  0  0  0  0  0
   49.8101  161.0440   31.7000 C   0  0  0  0  0  0
   48.1718  158.9170   30.8980 C   0  0  0  0  0  0
   49.5061  158.9627   30.5040 C   0  0  0  0  0  0
   50.3075  160.0709   30.8238 C   0  0  0  0  0  0
   51.6560  160.1306   30.2179 C   0  0  0  0  0  0
   52.0333  159.0440   29.3676 C   0  0  0  0  0  0
   51.2735  157.9304   29.2925 C   0  0  0  0  0  0
   50.0234  157.8613   29.8357 O   0  0  0  0  0  0
   51.6165  156.7034   28.5040 C   0  0  0  0  0  0
   51.0254  155.4707   28.8244 C   0  0  0  0  0  0
   51.8336  154.5183   26.7657 C   0  0  0  0  0  0
   52.4560  155.7271   26.4553 C   0  0  0  0  0  0
   51.1642  154.3743   27.9787 C   0  0  0  0  0  0
   52.4254  156.7826   27.3619 C   0  0  0  0  0  0
   52.7830  161.3458   30.5040 S   0  0  0  0  0  0
   46.1842  160.0151   31.9871 C   0  0  0  0  0  0
   51.9213  153.3565   25.7944 C   0  0  0  0  0  0
   48.0894  161.7861   32.7273 H   0  0  0  0  0  0
   50.4208  161.8665   32.0423 H   0  0  0  0  0  0
   47.5505  158.0851   30.6018 H   0  0  0  0  0  0
   53.0116  159.0440   28.9188 H   0  0  0  0  0  0
   50.4199  155.3671   29.7118 H   0  0  0  0  0  0
   53.0109  155.8306   25.5345 H   0  0  0  0  0  0
   50.6988  153.4357   28.2385 H   0  0  0  0  0  0
   52.9234  157.7038   27.1058 H   0  0  0  0  0  0
   45.7467  159.0322   32.1040 H   0  0  0  0  0  0
   46.0559  160.5559   32.9216 H   0  0  0  0  0  0
   45.6560  160.5207   31.1824 H   0  0  0  0  0  0
   51.5919  153.6707   24.8039 H   0  0  0  0  0  0
   52.9548  153.0202   25.7040 H   0  0  0  0  0  0
   51.3013  152.5146   26.1041 H   0  0  0  0  0  0
  1  2  2  0  0  0
  1  4  1  0  0  0
  1 18  1  0  0  0
  2  3  1  0  0  0
  2 20  1  0  0  0
  3  6  2  0  0  0
  3 21  1  0  0  0
  4  5  2  0  0  0
  4 22  1  0  0  0
  5  6  1  0  0  0
  5 10  1  0  0  0
  6  7  1  0  0  0
  7  8  1  0  0  0
  7 17  2  0  0  0
  8  9  2  0  0  0
  8 23  1  0  0  0
  9 10  1  0  0  0
  9 11  1  0  0  0
 11 12  2  0  0  0
 11 16  1  0  0  0
 12 15  1  0  0  0
 12 24  1  0  0  0
 13 14  1  0  0  0
 13 15  2  0  0  0
 13 19  1  0  0  0
 14 16  2  0  0  0
 14 25  1  0  0  0
 15 26  1  0  0  0
 16 27  1  0  0  0
 18 28  1  0  0  0
 18 29  1  0  0  0
 18 30  1  0  0  0
 19 31  1  0  0  0
 19 32  1  0  0  0
 19 33  1  0  0  0
M  END
> <s_m_entry_id>
10325

> <s_m_entry_name>
dock_pv.361

> <s_m_Source_Path>
/home/csk/Desktop/cluster/DUD-E-result/aofb

> <s_m_Source_File>
dock_pv.maegz

> <i_m_Source_File_Index>
361

> <chembl_id>
CHEMBL592642

> <chembl_pref_name>
None

> <i_lp_mmshare_version>
53161

> <i_f3d_flags>
0

> <r_lp_tautomer_probability>
1

> <s_lp_Force_Field>
OPLS_2005

> <r_lp_Energy>
15.124555

> <b_lp_Chiralities_Consistent>
1

> <s_lp_Variant>
CHEMBL2039_lig345-1

> <s_i_glide_gridfile>
glide-grid_1s3b

> <i_i_glide_lignum>
397

> <i_i_glide_rotatable_bonds>
1

> <r_i_docking_score>
-7.22684358788973

> <r_i_glide_ligand_efficiency>
-0.380360188836302

> <r_i_glide_ligand_efficiency_sa>
-1.01495375400282

> <r_i_glide_ligand_efficiency_ln>
-1.83216006789816

> <r_i_glide_gscore>
-7.22684358788973

> <r_i_glide_lipo>
-4.07439123349281

> <r_i_glide_hbond>
0

> <r_i_glide_metal>
0

> <r_i_glide_rewards>
-2.17634383333333

> <r_i_glide_evdw>
-20.1973648071289

> <r_i_glide_ecoul>
-1.41710734367371

> <r_i_glide_erotb>
0.251069156962327

> <r_i_glide_esite>
-0.00474333611841619

> <r_i_glide_emodel>
-21.7453564464789

> <r_i_glide_energy>
-21.6144721508026

> <r_i_glide_einternal>
1.73000466823578

> <i_i_glide_confnum>
2

> <i_i_glide_posenum>
93

> <r_i_glide_eff_state_penalty>
0

> <s_user_duplicate_titles>
CHEMBL2039_lig345

> <s_m_subgroup_title>
dock_pv

> <s_m_subgroupid>
dock_pv

> <b_m_subgroup_collapsed>
1

$$$$
CHEMBL2039_lig208
                    3D
 Schrodinger Suite 2021-1.
 37 39  0  0  1  0            999 V2000
   49.5717  159.6698   30.4326 C   0  0  0  0  0  0
   47.7494  160.7266   32.2875 C   0  0  0  0  0  0
   53.6360  155.7057   24.8886 C   0  0  0  0  0  0
   52.2856  153.8925   25.8828 C   0  0  0  0  0  0
   47.2921  159.9251   31.2435 C   0  0  0  0  0  0
   49.1035  161.0436   32.3751 C   0  0  0  0  0  0
   53.0640  154.3320   24.8617 C   0  0  0  0  0  0
   48.1958  159.4082   30.3128 C   0  0  0  0  0  0
   50.0134  160.5182   31.4553 C   0  0  0  0  0  0
   53.2103  156.5524   25.8900 O   0  0  0  0  0  0
   52.4238  156.1135   26.9378 C   0  0  0  0  0  0
   51.9307  154.8029   26.9932 C   0  0  0  0  0  0
   50.5785  158.9955   29.5005 C   0  0  0  0  0  0
   52.0870  157.0440   27.9205 C   0  0  0  0  0  0
   51.1463  154.4215   28.0870 C   0  0  0  0  0  0
   54.4560  156.1959   24.1042 O   0  0  0  0  0  0
   46.8832  161.1955   33.2167 F   0  0  0  0  0  0
   45.9729  159.6393   31.1379 F   0  0  0  0  0  0
   49.5391  161.8439   33.3692 F   0  0  0  0  0  0
   50.5175  157.5923   29.7357 O   0  0  0  0  0  0
   47.7197  158.6442   29.3042 F   0  0  0  0  0  0
   51.3288  160.8124   31.5818 F   0  0  0  0  0  0
   51.1553  156.6982   28.9040 C   0  0  0  0  0  0
   50.7363  155.3745   29.0079 C   0  0  0  0  0  0
   51.7705  152.4663   26.0059 C   0  0  0  0  0  0
   53.5129  153.4816   23.6713 C   0  0  0  0  0  0
   50.3107  159.2410   28.4763 H   0  0  0  0  0  0
   51.5954  159.3549   29.6672 H   0  0  0  0  0  0
   52.4544  158.0548   27.8375 H   0  0  0  0  0  0
   50.7773  153.4139   28.1990 H   0  0  0  0  0  0
   50.0449  155.0891   29.7863 H   0  0  0  0  0  0
   52.0561  151.8161   25.1842 H   0  0  0  0  0  0
   52.1738  152.0135   26.9040 H   0  0  0  0  0  0
   50.6875  152.4675   26.1040 H   0  0  0  0  0  0
   53.6561  152.4373   23.9405 H   0  0  0  0  0  0
   52.7570  153.5171   22.8879 H   0  0  0  0  0  0
   54.4558  153.8190   23.2369 H   0  0  0  0  0  0
  1  8  2  0  0  0
  1  9  1  0  0  0
  1 13  1  0  0  0
  2  6  1  0  0  0
  2 17  1  0  0  0
  2  5  2  0  0  0
  3 10  1  0  0  0
  3 16  2  0  0  0
  3  7  1  0  0  0
  4 12  1  0  0  0
  4  7  2  0  0  0
  4 25  1  0  0  0
  5  8  1  0  0  0
  5 18  1  0  0  0
  6  9  2  0  0  0
  6 19  1  0  0  0
  7 26  1  0  0  0
  8 21  1  0  0  0
  9 22  1  0  0  0
 10 11  1  0  0  0
 11 14  2  0  0  0
 11 12  1  0  0  0
 12 15  2  0  0  0
 13 20  1  0  0  0
 13 27  1  0  0  0
 13 28  1  0  0  0
 14 23  1  0  0  0
 14 29  1  0  0  0
 15 24  1  0  0  0
 15 30  1  0  0  0
 20 23  1  0  0  0
 23 24  2  0  0  0
 24 31  1  0  0  0
 25 32  1  0  0  0
 25 33  1  0  0  0
 25 34  1  0  0  0
 26 35  1  0  0  0
 26 36  1  0  0  0
 26 37  1  0  0  0
M  END
> <s_m_entry_id>
10326

> <s_m_entry_name>
dock_pv.362

> <s_m_Source_Path>
/home/csk/Desktop/cluster/DUD-E-result/aofb

> <s_m_Source_File>
dock_pv.maegz

> <i_m_Source_File_Index>
362

> <chembl_id>
CHEMBL357614

> <chembl_pref_name>
None

> <i_lp_mmshare_version>
53161

> <i_f3d_flags>
0

> <r_lp_tautomer_probability>
1

> <s_lp_Force_Field>
OPLS_2005

> <r_lp_Energy>
23.570101

> <b_lp_Chiralities_Consistent>
1

> <s_lp_Variant>
CHEMBL2039_lig208-1

> <s_i_glide_gridfile>
glide-grid_1s3b

> <i_i_glide_lignum>
249

> <i_i_glide_rotatable_bonds>
3

> <r_i_docking_score>
-7.21935632844766

> <r_i_glide_ligand_efficiency>
-0.277667551094141

> <r_i_glide_ligand_efficiency_sa>
-0.822589027547337

> <r_i_glide_ligand_efficiency_ln>
-1.69544214509569

> <r_i_glide_gscore>
-7.21935632844766

> <r_i_glide_lipo>
-4.53361672538181

> <r_i_glide_hbond>
0

> <r_i_glide_metal>
0

> <r_i_glide_rewards>
-1.46967184448329

> <r_i_glide_evdw>
-28.4708995819092

> <r_i_glide_ecoul>
-1.24026608467102

> <r_i_glide_erotb>
0.422105696739345

> <r_i_glide_esite>
-0.0285885635257964

> <r_i_glide_emodel>
-32.6330765297812

> <r_i_glide_energy>
-29.7111656665802

> <r_i_glide_einternal>
6.00243234634399

> <i_i_glide_confnum>
10

> <i_i_glide_posenum>
86

> <r_i_glide_eff_state_penalty>
0

> <s_user_duplicate_titles>
CHEMBL2039_lig208

> <s_m_subgroup_title>
dock_pv

> <s_m_subgroupid>
dock_pv

> <b_m_subgroup_collapsed>
1

$$$$
CHEMBL2039_lig844
                    3D
 Schrodinger Suite 2021-1.
 31 32  0  0  1  0            999 V2000
   52.4560  153.3430   25.6406 C   0  0  0  0  0  0
   52.0120  154.3757   26.5830 C   0  0  0  0  0  0
   52.4068  155.7318   26.4812 C   0  0  0  0  0  0
   53.2109  156.2432   25.3700 C   0  0  0  0  0  0
   52.0605  156.6299   27.5008 C   0  0  0  0  0  0
   51.2318  156.2327   28.5548 C   0  0  0  0  0  0
   50.8586  154.8970   28.6509 C   0  0  0  0  0  0
   51.2560  153.9706   27.6886 C   0  0  0  0  0  0
   52.8360  152.5345   24.9040 N   0  0  0  0  0  0
   53.8589  156.6440   24.5040 N   0  0  0  0  0  0
   50.4560  157.3810   29.7040 S   0  0  0  0  0  0
   50.8602  159.0832   29.3019 C   0  0  0  0  0  0
   49.6755  160.0543   29.2970 C   0  0  0  0  0  0
   48.9013  160.1511   30.5963 C   0  0  0  0  0  0
   49.4892  160.7651   31.7040 C   0  0  0  0  0  0
   48.7461  160.9538   32.8624 C   0  0  0  0  0  0
   47.4297  160.5068   32.9108 C   0  0  0  0  0  0
   46.8488  159.8571   31.8237 C   0  0  0  0  0  0
   47.5874  159.6808   30.6594 C   0  0  0  0  0  0
   52.4016  157.6495   27.4253 H   0  0  0  0  0  0
   50.2346  154.5871   29.4742 H   0  0  0  0  0  0
   50.9574  152.9382   27.8113 H   0  0  0  0  0  0
   51.6582  159.4269   29.9612 H   0  0  0  0  0  0
   51.2561  159.0713   28.2983 H   0  0  0  0  0  0
   50.0560  161.0440   29.0829 H   0  0  0  0  0  0
   48.9984  159.8230   28.4742 H   0  0  0  0  0  0
   50.5071  161.1261   31.6602 H   0  0  0  0  0  0
   49.1919  161.4440   33.7148 H   0  0  0  0  0  0
   46.8560  160.6661   33.8081 H   0  0  0  0  0  0
   45.8260  159.5118   31.8771 H   0  0  0  0  0  0
   47.1318  159.2001   29.8056 H   0  0  0  0  0  0
  1  2  1  0  0  0
  1  9  3  0  0  0
  2  3  1  0  0  0
  2  8  2  0  0  0
  3  4  1  0  0  0
  3  5  2  0  0  0
  4 10  3  0  0  0
  5  6  1  0  0  0
  5 20  1  0  0  0
  6  7  2  0  0  0
  6 11  1  0  0  0
  7  8  1  0  0  0
  7 21  1  0  0  0
  8 22  1  0  0  0
 11 12  1  0  0  0
 12 13  1  0  0  0
 12 23  1  0  0  0
 12 24  1  0  0  0
 13 14  1  0  0  0
 13 25  1  0  0  0
 13 26  1  0  0  0
 14 15  1  0  0  0
 14 19  2  0  0  0
 15 16  2  0  0  0
 15 27  1  0  0  0
 16 17  1  0  0  0
 16 28  1  0  0  0
 17 18  2  0  0  0
 17 29  1  0  0  0
 18 19  1  0  0  0
 18 30  1  0  0  0
 19 31  1  0  0  0
M  END
> <s_m_entry_id>
10327

> <s_m_entry_name>
dock_pv.363

> <s_m_Source_Path>
/home/csk/Desktop/cluster/DUD-E-result/aofb

> <s_m_Source_File>
dock_pv.maegz

> <i_m_Source_File_Index>
363

> <chembl_id>
CHEMBL2204762

> <chembl_pref_name>
None

> <i_lp_mmshare_version>
53161

> <i_f3d_flags>
0

> <r_lp_tautomer_probability>
1

> <s_lp_Force_Field>
OPLS_2005

> <r_lp_Energy>
12.491087

> <b_lp_Chiralities_Consistent>
1

> <s_lp_Variant>
CHEMBL2039_lig844-1

> <s_i_glide_gridfile>
glide-grid_1s3b

> <i_i_glide_lignum>
977

> <i_i_glide_rotatable_bonds>
4

> <r_i_docking_score>
-7.21924461315148

> <r_i_glide_ligand_efficiency>
-0.379960242797446

> <r_i_glide_ligand_efficiency_sa>
-1.01388653733439

> <r_i_glide_ligand_efficiency_ln>
-1.830233564591

> <r_i_glide_gscore>
-7.21924461315148

> <r_i_glide_lipo>
-4.02886952135695

> <r_i_glide_hbond>
0

> <r_i_glide_metal>
0

> <r_i_glide_rewards>
-2.70189556087805

> <r_i_glide_evdw>
-19.4088153839111

> <r_i_glide_ecoul>
-1.8744865655899

> <r_i_glide_erotb>
0.763134223117562

> <r_i_glide_esite>
0

> <r_i_glide_emodel>
-24.6947736696773

> <r_i_glide_energy>
-21.283301949501

> <r_i_glide_einternal>
2.47587180137634

> <i_i_glide_confnum>
1

> <i_i_glide_posenum>
81

> <r_i_glide_eff_state_penalty>
0

> <s_user_duplicate_titles>
CHEMBL2039_lig844

> <s_m_subgroup_title>
dock_pv

> <s_m_subgroupid>
dock_pv

> <b_m_subgroup_collapsed>
1

$$$$
CHEMBL2039_lig1250
                    3D
 Schrodinger Suite 2021-1.
 35 37  0  0  1  0            999 V2000
   52.4560  157.0447   27.6012 C   0  0  0  0  0  0
   51.5551  156.3944   28.4405 C   0  0  0  0  0  0
   51.2311  155.0656   28.1595 C   0  0  0  0  0  0
   52.8559  156.4634   26.4095 C   0  0  0  0  0  0
   52.4561  155.1685   26.0707 C   0  0  0  0  0  0
   51.6708  154.4333   26.9875 C   0  0  0  0  0  0
   51.3663  152.9654   26.7122 C   0  0  0  0  0  0
   52.4757  152.3001   25.8714 C   0  0  0  0  0  0
   52.6704  153.1025   24.5735 C   0  0  0  0  0  0
   53.1460  154.5127   24.9039 C   0  0  0  0  0  0
   54.0837  155.0443   24.3081 O   0  0  0  0  0  0
   50.8559  157.0462   29.4393 O   0  0  0  0  0  0
   50.8562  158.4856   29.4946 C   0  0  0  0  0  0
   49.7057  159.0223   30.3535 C   0  0  0  0  0  0
   49.8631  160.2440   31.0165 C   0  0  0  0  0  0
   48.8469  160.7306   31.8349 C   0  0  0  0  0  0
   47.6602  160.0145   31.9677 C   0  0  0  0  0  0
   47.4893  158.8040   31.3019 C   0  0  0  0  0  0
   48.5141  158.3033   30.5040 C   0  0  0  0  0  0
   52.7841  158.0503   27.8132 H   0  0  0  0  0  0
   50.5742  154.5368   28.8339 H   0  0  0  0  0  0
   53.5291  157.0210   25.7748 H   0  0  0  0  0  0
   51.1924  152.4137   27.6373 H   0  0  0  0  0  0
   50.4560  152.9305   26.1238 H   0  0  0  0  0  0
   53.4083  152.2439   26.4368 H   0  0  0  0  0  0
   52.1986  151.2711   25.6384 H   0  0  0  0  0  0
   53.3913  152.6071   23.9224 H   0  0  0  0  0  0
   51.6940  153.1913   24.1042 H   0  0  0  0  0  0
   50.7526  158.9325   28.5041 H   0  0  0  0  0  0
   51.8094  158.8210   29.9046 H   0  0  0  0  0  0
   50.7808  160.8067   30.9200 H   0  0  0  0  0  0
   48.9798  161.6644   32.3620 H   0  0  0  0  0  0
   46.8693  160.3966   32.5966 H   0  0  0  0  0  0
   46.5709  158.2489   31.4129 H   0  0  0  0  0  0
   48.3838  157.3457   30.0256 H   0  0  0  0  0  0
  1  2  2  0  0  0
  1  4  1  0  0  0
  1 20  1  0  0  0
  2  3  1  0  0  0
  2 12  1  0  0  0
  3  6  2  0  0  0
  3 21  1  0  0  0
  4  5  2  0  0  0
  4 22  1  0  0  0
  5  6  1  0  0  0
  5 10  1  0  0  0
  6  7  1  0  0  0
  7  8  1  0  0  0
  7 23  1  0  0  0
  7 24  1  0  0  0
  8  9  1  0  0  0
  8 25  1  0  0  0
  8 26  1  0  0  0
  9 10  1  0  0  0
  9 27  1  0  0  0
  9 28  1  0  0  0
 10 11  2  0  0  0
 12 13  1  0  0  0
 13 14  1  0  0  0
 13 29  1  0  0  0
 13 30  1  0  0  0
 14 15  2  0  0  0
 14 19  1  0  0  0
 15 16  1  0  0  0
 15 31  1  0  0  0
 16 17  2  0  0  0
 16 32  1  0  0  0
 17 18  1  0  0  0
 17 33  1  0  0  0
 18 19  2  0  0  0
 18 34  1  0  0  0
 19 35  1  0  0  0
M  END
> <s_m_entry_id>
10328

> <s_m_entry_name>
dock_pv.364

> <s_m_Source_Path>
/home/csk/Desktop/cluster/DUD-E-result/aofb

> <s_m_Source_File>
dock_pv.maegz

> <i_m_Source_File_Index>
364

> <chembl_id>
CHEMBL3288291

> <chembl_pref_name>
None

> <i_lp_mmshare_version>
53161

> <i_f3d_flags>
0

> <r_lp_tautomer_probability>
0.99995

> <s_lp_Force_Field>
OPLS_2005

> <r_lp_Energy>
23.359132

> <b_lp_Chiralities_Consistent>
1

> <s_lp_Variant>
CHEMBL2039_lig1250-1

> <s_i_glide_gridfile>
glide-grid_1s3b

> <i_i_glide_lignum>
1442

> <i_i_glide_rotatable_bonds>
3

> <r_i_docking_score>
-7.2147989467322

> <r_i_glide_ligand_efficiency>
-0.379726260354326

> <r_i_glide_ligand_efficiency_sa>
-1.01326217819801

> <r_i_glide_ligand_efficiency_ln>
-1.82910649266955

> <r_i_glide_gscore>
-7.2147989467322

> <r_i_glide_lipo>
-4.01708853457557

> <r_i_glide_hbond>
0

> <r_i_glide_metal>
0

> <r_i_glide_rewards>
-2.57649734830688

> <r_i_glide_evdw>
-28.6192588806152

> <r_i_glide_ecoul>
-0.114100441336632

> <r_i_glide_erotb>
0.826864946381499

> <r_i_glide_esite>
0

> <r_i_glide_emodel>
-34.8084705583281

> <r_i_glide_energy>
-28.7333593219519

> <r_i_glide_einternal>
1.29746949672699

> <i_i_glide_confnum>
1

> <i_i_glide_posenum>
281

> <r_i_glide_eff_state_penalty>
0

> <s_user_duplicate_titles>
CHEMBL2039_lig1250

> <s_m_subgroup_title>
dock_pv

> <s_m_subgroupid>
dock_pv

> <b_m_subgroup_collapsed>
1

$$$$
CHEMBL2039_lig983
                    3D
 Schrodinger Suite 2021-1.
 33 35  0  0  1  0            999 V2000
   50.6759  158.5582   29.7040 C   0  0  0  0  0  0
   51.6472  159.5388   29.9835 C   0  0  0  0  0  0
   51.3700  160.5799   30.8733 C   0  0  0  0  0  0
   49.3932  158.6975   30.2466 C   0  0  0  0  0  0
   49.1229  159.7442   31.1236 C   0  0  0  0  0  0
   50.1091  160.6442   31.4633 C   0  0  0  0  0  0
   49.5519  161.5565   32.5018 C   0  0  0  0  0  0
   48.1908  161.1746   32.6358 O   0  0  0  0  0  0
   47.8946  160.1050   31.8573 C   0  0  0  0  0  0
   46.7804  159.5871   31.8298 O   0  0  0  0  0  0
   50.9292  157.3782   29.0418 O   0  0  0  0  0  0
   52.1414  157.2296   28.3187 C   0  0  0  0  0  0
   52.0559  156.0019   27.4306 C   0  0  0  0  0  0
   52.4560  156.1019   26.0983 C   0  0  0  0  0  0
   52.5021  154.9679   25.3026 C   0  0  0  0  0  0
   52.1575  153.7311   25.8412 C   0  0  0  0  0  0
   51.6561  153.6360   27.1422 C   0  0  0  0  0  0
   51.6257  154.7744   27.9461 C   0  0  0  0  0  0
   52.4569  152.4966   25.0274 C   0  0  0  0  0  0
   52.6488  159.4452   29.5953 H   0  0  0  0  0  0
   52.1455  161.2852   31.1353 H   0  0  0  0  0  0
   48.6420  157.9483   30.0463 H   0  0  0  0  0  0
   50.0554  161.4449   33.4619 H   0  0  0  0  0  0
   49.6571  162.5890   32.1844 H   0  0  0  0  0  0
   52.9908  157.1034   28.9872 H   0  0  0  0  0  0
   52.3286  158.1106   27.7051 H   0  0  0  0  0  0
   52.7832  157.0435   25.6882 H   0  0  0  0  0  0
   52.8836  155.0374   24.2956 H   0  0  0  0  0  0
   51.3795  152.6790   27.5614 H   0  0  0  0  0  0
   51.3112  154.6929   28.9766 H   0  0  0  0  0  0
   52.0564  152.6440   24.0288 H   0  0  0  0  0  0
   53.5349  152.3778   24.9188 H   0  0  0  0  0  0
   52.0560  151.5839   25.4650 H   0  0  0  0  0  0
  1  2  2  0  0  0
  1  4  1  0  0  0
  1 11  1  0  0  0
  2  3  1  0  0  0
  2 20  1  0  0  0
  3  6  2  0  0  0
  3 21  1  0  0  0
  4  5  2  0  0  0
  4 22  1  0  0  0
  5  6  1  0  0  0
  5  9  1  0  0  0
  6  7  1  0  0  0
  7  8  1  0  0  0
  7 23  1  0  0  0
  7 24  1  0  0  0
  8  9  1  0  0  0
  9 10  2  0  0  0
 11 12  1  0  0  0
 12 13  1  0  0  0
 12 25  1  0  0  0
 12 26  1  0  0  0
 13 14  2  0  0  0
 13 18  1  0  0  0
 14 15  1  0  0  0
 14 27  1  0  0  0
 15 16  2  0  0  0
 15 28  1  0  0  0
 16 17  1  0  0  0
 16 19  1  0  0  0
 17 18  2  0  0  0
 17 29  1  0  0  0
 18 30  1  0  0  0
 19 31  1  0  0  0
 19 32  1  0  0  0
 19 33  1  0  0  0
M  END
> <s_m_entry_id>
10329

> <s_m_entry_name>
dock_pv.365

> <s_m_Source_Path>
/home/csk/Desktop/cluster/DUD-E-result/aofb

> <s_m_Source_File>
dock_pv.maegz

> <i_m_Source_File_Index>
365

> <chembl_id>
CHEMBL2391870

> <chembl_pref_name>
None

> <i_lp_mmshare_version>
53161

> <i_f3d_flags>
0

> <r_lp_tautomer_probability>
1

> <s_lp_Force_Field>
OPLS_2005

> <r_lp_Energy>
31.125125

> <b_lp_Chiralities_Consistent>
1

> <s_lp_Variant>
CHEMBL2039_lig983-1

> <s_i_glide_gridfile>
glide-grid_1s3b

> <i_i_glide_lignum>
1130

> <i_i_glide_rotatable_bonds>
3

> <r_i_docking_score>
-7.21347296627547

> <r_i_glide_ligand_efficiency>
-0.379656471909235

> <r_i_glide_ligand_efficiency_sa>
-1.01307595459625

> <r_i_glide_ligand_efficiency_ln>
-1.82877032814432

> <r_i_glide_gscore>
-7.21347296627547

> <r_i_glide_lipo>
-3.15499839128366

> <r_i_glide_hbond>
0

> <r_i_glide_metal>
0

> <r_i_glide_rewards>
-3.020120998397

> <r_i_glide_evdw>
-30.251651763916

> <r_i_glide_ecoul>
-2.27768039703369

> <r_i_glide_erotb>
0.815881071156047

> <r_i_glide_esite>
0

> <r_i_glide_emodel>
-40.0817906849903

> <r_i_glide_energy>
-32.5293321609497

> <r_i_glide_einternal>
0.82718962430954

> <i_i_glide_confnum>
3

> <i_i_glide_posenum>
38

> <r_i_glide_eff_state_penalty>
0

> <s_user_duplicate_titles>
CHEMBL2039_lig983

> <s_m_subgroup_title>
dock_pv

> <s_m_subgroupid>
dock_pv

> <b_m_subgroup_collapsed>
1

$$$$
CHEMBL2039_lig708
                    3D
 Schrodinger Suite 2021-1.
 26 28  0  0  1  0            999 V2000
   48.8936  159.3013   30.6769 C   0  0  0  0  0  0
   49.8995  160.2034   30.6744 N   0  0  0  0  0  0
   51.0688  159.8386   30.1445 C   0  0  0  0  0  0
   50.7725  158.4931   29.7040 C   0  0  0  0  0  0
   49.5100  158.2440   30.1040 N   0  0  0  0  0  0
   52.0989  160.5082   30.1039 O   0  0  0  0  0  0
   47.3409  159.4440   31.2369 S   0  0  0  0  0  0
   51.6497  157.7080   29.0260 C   0  0  0  0  0  0
   50.8560  154.1701   28.2155 N   0  0  0  0  0  0
   50.7653  155.2712   29.0250 C   0  0  0  0  0  0
   51.4773  156.3388   28.5040 C   0  0  0  0  0  0
   52.0335  155.8118   27.2849 C   0  0  0  0  0  0
   52.8560  156.3594   26.3127 C   0  0  0  0  0  0
   52.7739  154.2927   25.0438 C   0  0  0  0  0  0
   51.9444  153.6917   25.9909 C   0  0  0  0  0  0
   51.6087  154.4614   27.1115 C   0  0  0  0  0  0
   53.2560  155.5855   25.2283 C   0  0  0  0  0  0
   54.6317  156.2440   24.1040 Br  0  0  0  0  0  0
   49.7489  161.1089   31.0919 H   0  0  0  0  0  0
   49.0163  157.3781   29.9480 H   0  0  0  0  0  0
   52.6274  158.1138   28.8030 H   0  0  0  0  0  0
   50.4043  153.2940   28.4408 H   0  0  0  0  0  0
   50.1924  155.1768   29.9313 H   0  0  0  0  0  0
   53.2781  157.3273   26.5040 H   0  0  0  0  0  0
   53.1135  153.7175   24.1941 H   0  0  0  0  0  0
   51.6231  152.6677   25.8816 H   0  0  0  0  0  0
  1  2  1  0  0  0
  1  5  1  0  0  0
  1  7  2  0  0  0
  2  3  1  0  0  0
  2 19  1  0  0  0
  3  4  1  0  0  0
  3  6  2  0  0  0
  4  5  1  0  0  0
  4  8  2  0  0  0
  5 20  1  0  0  0
  8 11  1  0  0  0
  8 21  1  0  0  0
  9 10  1  0  0  0
  9 16  1  0  0  0
  9 22  1  0  0  0
 10 11  2  0  0  0
 10 23  1  0  0  0
 11 12  1  0  0  0
 12 13  1  0  0  0
 12 16  2  0  0  0
 13 17  2  0  0  0
 13 24  1  0  0  0
 14 17  1  0  0  0
 14 15  2  0  0  0
 14 25  1  0  0  0
 15 16  1  0  0  0
 15 26  1  0  0  0
 17 18  1  0  0  0
M  END
> <s_m_entry_id>
10330

> <s_m_entry_name>
dock_pv.366

> <s_m_Source_Path>
/home/csk/Desktop/cluster/DUD-E-result/aofb

> <s_m_Source_File>
dock_pv.maegz

> <i_m_Source_File_Index>
366

> <chembl_id>
CHEMBL2058695

> <chembl_pref_name>
None

> <i_lp_mmshare_version>
53161

> <i_f3d_flags>
0

> <r_lp_tautomer_probability>
1

> <s_lp_Force_Field>
OPLS_2005

> <r_lp_Energy>
26.70878

> <b_lp_Chiralities_Consistent>
1

> <s_lp_Variant>
CHEMBL2039_lig708-1

> <s_i_glide_gridfile>
glide-grid_1s3b

> <i_i_glide_lignum>
835

> <i_i_glide_rotatable_bonds>
1

> <r_i_docking_score>
-7.21102646395712

> <r_i_glide_ligand_efficiency>
-0.400612581330951

> <r_i_glide_ligand_efficiency_sa>
-1.04990197392337

> <r_i_glide_ligand_efficiency_ln>
-1.85355716952271

> <r_i_glide_gscore>
-7.21102646395712

> <r_i_glide_lipo>
-2.08357843718229

> <r_i_glide_hbond>
-0.0465174303085339

> <r_i_glide_metal>
0

> <r_i_glide_rewards>
-2.99573274242424

> <r_i_glide_evdw>
-34.437629699707

> <r_i_glide_ecoul>
-2.42210912704468

> <r_i_glide_erotb>
0

> <r_i_glide_esite>
0

> <r_i_glide_emodel>
-48.757595810377

> <r_i_glide_energy>
-36.8597388267517

> <r_i_glide_einternal>
0.27141860127449

> <i_i_glide_confnum>
1

> <i_i_glide_posenum>
52

> <r_i_glide_eff_state_penalty>
0

> <s_user_duplicate_titles>
CHEMBL2039_lig708

> <s_m_subgroup_title>
dock_pv

> <s_m_subgroupid>
dock_pv

> <b_m_subgroup_collapsed>
1

$$$$
CHEMBL2039_lig1740
                    3D
 Schrodinger Suite 2021-1.
 34 36  0  0  1  0            999 V2000
   51.4032  154.8024   27.8464 C   0  0  0  0  0  0
   51.4785  156.2197   28.2031 C   0  0  0  0  0  0
   52.4417  156.8860   27.2407 C   0  0  0  0  0  0
   52.6581  155.8444   26.1639 C   0  0  0  0  0  0
   53.4629  155.8620   25.0227 C   0  0  0  0  0  0
   53.7294  154.6647   24.3545 C   0  0  0  0  0  0
   53.0515  153.4931   24.6857 C   0  0  0  0  0  0
   52.1842  153.4896   25.7751 C   0  0  0  0  0  0
   52.0549  154.6521   26.5399 C   0  0  0  0  0  0
   50.8563  153.9302   28.5043 O   0  0  0  0  0  0
   50.7096  156.7372   29.1962 C   0  0  0  0  0  0
   50.6050  158.1304   29.7038 C   0  0  0  0  0  0
   51.6560  159.0428   29.5938 C   0  0  0  0  0  0
   51.6200  160.2818   30.2282 C   0  0  0  0  0  0
   50.4681  160.6442   30.9360 C   0  0  0  0  0  0
   49.3660  159.7938   30.9706 C   0  0  0  0  0  0
   49.4341  158.5447   30.3555 C   0  0  0  0  0  0
   54.6986  154.6417   23.3958 O   0  0  0  0  0  0
   52.7382  161.0810   30.1156 O   0  0  0  0  0  0
   53.1212  161.8307   31.2638 C   0  0  0  0  0  0
   52.0583  157.8422   26.9035 H   0  0  0  0  0  0
   53.3885  157.1004   27.7389 H   0  0  0  0  0  0
   54.0043  156.7527   24.7423 H   0  0  0  0  0  0
   53.2312  152.5784   24.1403 H   0  0  0  0  0  0
   51.7058  152.5668   26.0718 H   0  0  0  0  0  0
   50.0585  156.0417   29.7044 H   0  0  0  0  0  0
   52.5669  158.7620   29.0917 H   0  0  0  0  0  0
   50.4133  161.5878   31.4544 H   0  0  0  0  0  0
   48.4730  160.0876   31.5025 H   0  0  0  0  0  0
   48.5895  157.8753   30.4349 H   0  0  0  0  0  0
   54.9635  153.7345   23.2036 H   0  0  0  0  0  0
   54.1235  162.2295   31.1093 H   0  0  0  0  0  0
   52.4553  162.6747   31.4444 H   0  0  0  0  0  0
   53.1608  161.1984   32.1507 H   0  0  0  0  0  0
  1  2  1  0  0  0
  1  9  1  0  0  0
  1 10  2  0  0  0
  2  3  1  0  0  0
  2 11  2  0  0  0
  3  4  1  0  0  0
  3 21  1  0  0  0
  3 22  1  0  0  0
  4  5  1  0  0  0
  4  9  2  0  0  0
  5  6  2  0  0  0
  5 23  1  0  0  0
  6  7  1  0  0  0
  6 18  1  0  0  0
  7  8  2  0  0  0
  7 24  1  0  0  0
  8  9  1  0  0  0
  8 25  1  0  0  0
 11 12  1  0  0  0
 11 26  1  0  0  0
 12 13  1  0  0  0
 12 17  2  0  0  0
 13 14  2  0  0  0
 13 27  1  0  0  0
 14 15  1  0  0  0
 14 19  1  0  0  0
 15 16  2  0  0  0
 15 28  1  0  0  0
 16 17  1  0  0  0
 16 29  1  0  0  0
 17 30  1  0  0  0
 18 31  1  0  0  0
 19 20  1  0  0  0
 20 32  1  0  0  0
 20 33  1  0  0  0
 20 34  1  0  0  0
M  END
> <s_m_entry_id>
10331

> <s_m_entry_name>
dock_pv.367

> <s_m_Source_Path>
/home/csk/Desktop/cluster/DUD-E-result/aofb

> <s_m_Source_File>
dock_pv.maegz

> <i_m_Source_File_Index>
367

> <chembl_id>
CHEMBL3918471

> <chembl_pref_name>
None

> <i_lp_mmshare_version>
53161

> <i_f3d_flags>
0

> <r_lp_tautomer_probability>
1

> <s_lp_Force_Field>
OPLS_2005

> <r_lp_Energy>
28.145012

> <b_lp_Chiralities_Consistent>
1

> <s_lp_Variant>
CHEMBL2039_lig1740-1

> <s_i_glide_gridfile>
glide-grid_1s3b

> <i_i_glide_lignum>
2028

> <i_i_glide_rotatable_bonds>
3

> <r_i_docking_score>
-7.20879917318313

> <r_i_glide_ligand_efficiency>
-0.360439958659156

> <r_i_glide_ligand_efficiency_sa>
-0.978384572532161

> <r_i_glide_ligand_efficiency_ln>
-1.8041246709383

> <r_i_glide_gscore>
-7.20879917318313

> <r_i_glide_lipo>
-3.26860082846826

> <r_i_glide_hbond>
-0.579846528011995

> <r_i_glide_metal>
0

> <r_i_glide_rewards>
-1.84141176334627

> <r_i_glide_evdw>
-22.1123962402344

> <r_i_glide_ecoul>
-4.42999219894409

> <r_i_glide_erotb>
0.251178588496727

> <r_i_glide_esite>
0

> <r_i_glide_emodel>
-26.7323698280018

> <r_i_glide_energy>
-26.5423884391785

> <r_i_glide_einternal>
5.79187393188477

> <i_i_glide_confnum>
1

> <i_i_glide_posenum>
36

> <r_i_glide_eff_state_penalty>
0

> <s_user_duplicate_titles>
CHEMBL2039_lig1740

> <s_m_subgroup_title>
dock_pv

> <s_m_subgroupid>
dock_pv

> <b_m_subgroup_collapsed>
1

$$$$
CHEMBL2039_lig1734
                    3D
 Schrodinger Suite 2021-1.
 33 35  0  0  1  0            999 V2000
   51.4099  154.7844   27.8230 C   0  0  0  0  0  0
   51.4824  156.2002   28.1908 C   0  0  0  0  0  0
   52.4378  156.8877   27.2382 C   0  0  0  0  0  0
   52.6690  155.8484   26.1580 C   0  0  0  0  0  0
   53.4925  155.8723   25.0293 C   0  0  0  0  0  0
   53.7798  154.6761   24.3670 C   0  0  0  0  0  0
   53.0911  153.5047   24.6742 C   0  0  0  0  0  0
   52.1966  153.4967   25.7410 C   0  0  0  0  0  0
   52.0560  154.6527   26.5134 C   0  0  0  0  0  0
   50.8560  153.9052   28.4707 O   0  0  0  0  0  0
   50.6950  156.6805   29.1822 C   0  0  0  0  0  0
   50.4560  158.0483   29.7040 C   0  0  0  0  0  0
   49.2095  158.2440   30.3159 C   0  0  0  0  0  0
   48.9401  159.3769   31.0587 C   0  0  0  0  0  0
   49.9264  160.3403   31.1979 C   0  0  0  0  0  0
   51.1213  160.2426   30.4734 C   0  0  0  0  0  0
   51.3776  159.0985   29.7040 C   0  0  0  0  0  0
   54.7879  154.6440   23.4492 O   0  0  0  0  0  0
   49.6822  161.4444   32.2002 C   0  0  0  0  0  0
   52.0560  157.8439   26.9040 H   0  0  0  0  0  0
   53.3756  157.1106   27.7493 H   0  0  0  0  0  0
   54.0416  156.7640   24.7674 H   0  0  0  0  0  0
   53.2896  152.5909   24.1333 H   0  0  0  0  0  0
   51.7164  152.5708   26.0249 H   0  0  0  0  0  0
   50.0991  155.9422   29.7040 H   0  0  0  0  0  0
   48.4604  157.4654   30.2915 H   0  0  0  0  0  0
   48.0028  159.4603   31.5899 H   0  0  0  0  0  0
   51.8809  161.0047   30.5676 H   0  0  0  0  0  0
   52.3397  158.9836   29.2267 H   0  0  0  0  0  0
   55.0767  153.7348   23.3026 H   0  0  0  0  0  0
   48.6767  161.8440   32.0868 H   0  0  0  0  0  0
   49.7172  161.0510   33.2146 H   0  0  0  0  0  0
   50.4103  162.2464   32.1040 H   0  0  0  0  0  0
  1  2  1  0  0  0
  1  9  1  0  0  0
  1 10  2  0  0  0
  2  3  1  0  0  0
  2 11  2  0  0  0
  3  4  1  0  0  0
  3 20  1  0  0  0
  3 21  1  0  0  0
  4  5  1  0  0  0
  4  9  2  0  0  0
  5  6  2  0  0  0
  5 22  1  0  0  0
  6  7  1  0  0  0
  6 18  1  0  0  0
  7  8  2  0  0  0
  7 23  1  0  0  0
  8  9  1  0  0  0
  8 24  1  0  0  0
 11 12  1  0  0  0
 11 25  1  0  0  0
 12 13  1  0  0  0
 12 17  2  0  0  0
 13 14  2  0  0  0
 13 26  1  0  0  0
 14 15  1  0  0  0
 14 27  1  0  0  0
 15 16  2  0  0  0
 15 19  1  0  0  0
 16 17  1  0  0  0
 16 28  1  0  0  0
 17 29  1  0  0  0
 18 30  1  0  0  0
 19 31  1  0  0  0
 19 32  1  0  0  0
 19 33  1  0  0  0
M  END
> <s_m_entry_id>
10332

> <s_m_entry_name>
dock_pv.368

> <s_m_Source_Path>
/home/csk/Desktop/cluster/DUD-E-result/aofb

> <s_m_Source_File>
dock_pv.maegz

> <i_m_Source_File_Index>
368

> <chembl_id>
CHEMBL3986834

> <chembl_pref_name>
None

> <i_lp_mmshare_version>
53161

> <i_f3d_flags>
0

> <r_lp_tautomer_probability>
1

> <s_lp_Force_Field>
OPLS_2005

> <r_lp_Energy>
25.147984

> <b_lp_Chiralities_Consistent>
1

> <s_lp_Variant>
CHEMBL2039_lig1734-1

> <s_i_glide_gridfile>
glide-grid_1s3b

> <i_i_glide_lignum>
2022

> <i_i_glide_rotatable_bonds>
2

> <r_i_docking_score>
-7.19536647869512

> <r_i_glide_ligand_efficiency>
-0.37870349887869

> <r_i_glide_ligand_efficiency_sa>
-1.01053303979285

> <r_i_glide_ligand_efficiency_ln>
-1.82417994465101

> <r_i_glide_gscore>
-7.19536647869512

> <r_i_glide_lipo>
-3.15615553399883

> <r_i_glide_hbond>
-0.32

> <r_i_glide_metal>
0

> <r_i_glide_rewards>
-2.60094829815378

> <r_i_glide_evdw>
-20.9292526245117

> <r_i_glide_ecoul>
-2.34160327911377

> <r_i_glide_erotb>
0.27944047655014

> <r_i_glide_esite>
0

> <r_i_glide_emodel>
-28.2216466722598

> <r_i_glide_energy>
-23.2708559036255

> <r_i_glide_einternal>
0.516600906848907

> <i_i_glide_confnum>
1

> <i_i_glide_posenum>
70

> <r_i_glide_eff_state_penalty>
0

> <s_user_duplicate_titles>
CHEMBL2039_lig1734

> <s_m_subgroup_title>
dock_pv

> <s_m_subgroupid>
dock_pv

> <b_m_subgroup_collapsed>
1

$$$$
CHEMBL2039_lig833
                    3D
 Schrodinger Suite 2021-1.
 30 31  0  0  1  0            999 V2000
   52.5113  151.5710   25.6503 C   0  0  0  0  0  0
   52.1201  152.8952   26.0648 C   0  0  0  0  0  0
   51.6748  153.1360   27.3694 C   0  0  0  0  0  0
   51.6486  154.4444   27.8383 C   0  0  0  0  0  0
   52.0535  155.4705   26.9836 C   0  0  0  0  0  0
   52.3372  155.2394   25.6442 C   0  0  0  0  0  0
   52.3617  153.9398   25.1750 C   0  0  0  0  0  0
   52.8530  150.5209   25.3041 N   0  0  0  0  0  0
   52.4607  157.0444   27.6081 S   0  0  0  0  0  0
   51.3240  157.5773   28.9220 C   0  0  0  0  0  0
   50.9227  159.0676   29.0000 C   0  0  0  0  0  0
   50.0390  159.4833   30.1779 C   0  0  0  0  0  0
   50.4526  160.5266   31.0153 C   0  0  0  0  0  0
   49.6333  160.9650   32.0535 C   0  0  0  0  0  0
   48.3961  160.3578   32.2564 C   0  0  0  0  0  0
   47.9718  159.3237   31.4277 C   0  0  0  0  0  0
   48.7912  158.8911   30.3885 C   0  0  0  0  0  0
   51.4699  152.3243   28.0531 H   0  0  0  0  0  0
   51.4432  154.6329   28.8816 H   0  0  0  0  0  0
   52.6368  156.0511   24.9960 H   0  0  0  0  0  0
   52.6892  153.7561   24.1583 H   0  0  0  0  0  0
   50.4941  156.8792   29.0694 H   0  0  0  0  0  0
   52.0279  157.4461   29.7086 H   0  0  0  0  0  0
   51.8448  159.6518   29.0299 H   0  0  0  0  0  0
   50.3991  159.3954   28.1123 H   0  0  0  0  0  0
   51.4079  161.0075   30.8662 H   0  0  0  0  0  0
   49.9650  161.7634   32.6965 H   0  0  0  0  0  0
   47.7640  160.6960   33.0639 H   0  0  0  0  0  0
   47.0057  158.8640   31.5853 H   0  0  0  0  0  0
   48.4450  158.1005   29.7465 H   0  0  0  0  0  0
  1  2  1  0  0  0
  1  8  3  0  0  0
  2  3  1  0  0  0
  2  7  2  0  0  0
  3  4  2  0  0  0
  3 18  1  0  0  0
  4  5  1  0  0  0
  4 19  1  0  0  0
  5  6  2  0  0  0
  5  9  1  0  0  0
  6  7  1  0  0  0
  6 20  1  0  0  0
  7 21  1  0  0  0
  9 10  1  0  0  0
 10 11  1  0  0  0
 10 22  1  0  0  0
 10 23  1  0  0  0
 11 12  1  0  0  0
 11 24  1  0  0  0
 11 25  1  0  0  0
 12 13  1  0  0  0
 12 17  2  0  0  0
 13 14  2  0  0  0
 13 26  1  0  0  0
 14 15  1  0  0  0
 14 27  1  0  0  0
 15 16  2  0  0  0
 15 28  1  0  0  0
 16 17  1  0  0  0
 16 29  1  0  0  0
 17 30  1  0  0  0
M  END
> <s_m_entry_id>
10333

> <s_m_entry_name>
dock_pv.369

> <s_m_Source_Path>
/home/csk/Desktop/cluster/DUD-E-result/aofb

> <s_m_Source_File>
dock_pv.maegz

> <i_m_Source_File_Index>
369

> <chembl_id>
CHEMBL2204774

> <chembl_pref_name>
None

> <i_lp_mmshare_version>
53161

> <i_f3d_flags>
0

> <r_lp_tautomer_probability>
1

> <s_lp_Force_Field>
OPLS_2005

> <r_lp_Energy>
10.256682

> <b_lp_Chiralities_Consistent>
1

> <s_lp_Variant>
CHEMBL2039_lig833-1

> <s_i_glide_gridfile>
glide-grid_1s3b

> <i_i_glide_lignum>
966

> <i_i_glide_rotatable_bonds>
4

> <r_i_docking_score>
-7.18626640500277

> <r_i_glide_ligand_efficiency>
-0.422721553235457

> <r_i_glide_ligand_efficiency_sa>
-1.08693614678228

> <r_i_glide_ligand_efficiency_ln>
-1.87473687478048

> <r_i_glide_gscore>
-7.18626640500277

> <r_i_glide_lipo>
-3.9891030023081

> <r_i_glide_hbond>
0

> <r_i_glide_metal>
0

> <r_i_glide_rewards>
-2.92476064801594

> <r_i_glide_evdw>
-26.1823120117188

> <r_i_glide_ecoul>
0.878092646598816

> <r_i_glide_erotb>
0.904998948917391

> <r_i_glide_esite>
0

> <r_i_glide_emodel>
-27.5499727044977

> <r_i_glide_energy>
-25.3042193651199

> <r_i_glide_einternal>
4.71241235733032

> <i_i_glide_confnum>
12

> <i_i_glide_posenum>
227

> <r_i_glide_eff_state_penalty>
0

> <s_user_duplicate_titles>
CHEMBL2039_lig833

> <s_m_subgroup_title>
dock_pv

> <s_m_subgroupid>
dock_pv

> <b_m_subgroup_collapsed>
1

$$$$
CHEMBL2039_lig447
                    3D
 Schrodinger Suite 2021-1.
 33 35  0  0  1  0            999 V2000
   48.0109  159.2798   31.6978 C   0  0  0  0  0  0
   48.1388  160.4525   32.4092 C   0  0  0  0  0  0
   49.2004  159.1217   30.9230 C   0  0  0  0  0  0
   49.9900  160.2852   31.1378 C   0  0  0  0  0  0
   51.2147  160.4866   30.5084 C   0  0  0  0  0  0
   51.6728  159.4440   29.7112 C   0  0  0  0  0  0
   50.9805  158.2517   29.5411 C   0  0  0  0  0  0
   49.7029  158.1068   30.1040 C   0  0  0  0  0  0
   51.2671  156.0022   28.5040 C   0  0  0  0  0  0
   51.8394  155.4170   27.2302 C   0  0  0  0  0  0
   50.4560  155.3642   29.1768 O   0  0  0  0  0  0
   47.2560  161.0970   33.4227 C   0  0  0  0  0  0
   51.6270  154.0652   26.9119 C   0  0  0  0  0  0
   52.1064  153.5278   25.7159 C   0  0  0  0  0  0
   52.8386  154.3239   24.8360 C   0  0  0  0  0  0
   53.0718  155.6640   25.1430 C   0  0  0  0  0  0
   52.5487  156.2115   26.3118 C   0  0  0  0  0  0
   54.0576  156.6440   24.1186 Cl  0  0  0  0  0  0
   49.3234  161.0440   32.0651 N   0  0  0  0  0  0
   51.6560  157.2681   28.7903 N   0  0  0  0  0  0
   47.1809  158.5944   31.7732 H   0  0  0  0  0  0
   51.8136  161.3681   30.6855 H   0  0  0  0  0  0
   52.6671  159.5255   29.3040 H   0  0  0  0  0  0
   49.1301  157.2015   29.9890 H   0  0  0  0  0  0
   46.2298  160.7542   33.3040 H   0  0  0  0  0  0
   47.5737  160.8770   34.4420 H   0  0  0  0  0  0
   47.2386  162.1799   33.3040 H   0  0  0  0  0  0
   51.0773  153.4233   27.5869 H   0  0  0  0  0  0
   51.9416  152.4856   25.4889 H   0  0  0  0  0  0
   53.2413  153.8948   23.9299 H   0  0  0  0  0  0
   52.7414  157.2551   26.5040 H   0  0  0  0  0  0
   49.6360  161.9097   32.4787 H   0  0  0  0  0  0
   52.4621  157.6114   28.2930 H   0  0  0  0  0  0
  1  3  1  0  0  0
  1  2  2  0  0  0
  1 21  1  0  0  0
  2 12  1  0  0  0
  2 19  1  0  0  0
  3  4  2  0  0  0
  3  8  1  0  0  0
  4  5  1  0  0  0
  4 19  1  0  0  0
  5  6  2  0  0  0
  5 22  1  0  0  0
  6  7  1  0  0  0
  6 23  1  0  0  0
  7  8  2  0  0  0
  7 20  1  0  0  0
  8 24  1  0  0  0
  9 10  1  0  0  0
  9 11  2  0  0  0
  9 20  1  0  0  0
 10 13  2  0  0  0
 10 17  1  0  0  0
 12 25  1  0  0  0
 12 26  1  0  0  0
 12 27  1  0  0  0
 13 14  1  0  0  0
 13 28  1  0  0  0
 14 15  2  0  0  0
 14 29  1  0  0  0
 15 16  1  0  0  0
 15 30  1  0  0  0
 16 17  2  0  0  0
 16 18  1  0  0  0
 17 31  1  0  0  0
 19 32  1  0  0  0
 20 33  1  0  0  0
M  END
> <s_m_entry_id>
10334

> <s_m_entry_name>
dock_pv.370

> <s_m_Source_Path>
/home/csk/Desktop/cluster/DUD-E-result/aofb

> <s_m_Source_File>
dock_pv.maegz

> <i_m_Source_File_Index>
370

> <chembl_id>
CHEMBL1253604

> <chembl_pref_name>
None

> <i_lp_mmshare_version>
53161

> <i_f3d_flags>
0

> <r_lp_tautomer_probability>
1

> <s_lp_Force_Field>
OPLS_2005

> <r_lp_Energy>
18.398089

> <b_lp_Chiralities_Consistent>
1

> <s_lp_Variant>
CHEMBL2039_lig447-1

> <s_i_glide_gridfile>
glide-grid_1s3b

> <i_i_glide_lignum>
542

> <i_i_glide_rotatable_bonds>
3

> <r_i_docking_score>
-7.18610616117082

> <r_i_glide_ligand_efficiency>
-0.359305308058541

> <r_i_glide_ligand_efficiency_sa>
-0.975304656956247

> <r_i_glide_ligand_efficiency_ln>
-1.79844535849725

> <r_i_glide_gscore>
-7.18610616117082

> <r_i_glide_lipo>
-3.74568411575402

> <r_i_glide_hbond>
0

> <r_i_glide_metal>
0

> <r_i_glide_rewards>
-2.45724205674374

> <r_i_glide_evdw>
-29.9346294403076

> <r_i_glide_ecoul>
-1.04913365840912

> <r_i_glide_erotb>
0.670921532103681

> <r_i_glide_esite>
0

> <r_i_glide_emodel>
-38.4138428450113

> <r_i_glide_energy>
-30.9837630987167

> <r_i_glide_einternal>
1.98303949832916

> <i_i_glide_confnum>
2

> <i_i_glide_posenum>
218

> <r_i_glide_eff_state_penalty>
0

> <s_user_duplicate_titles>
CHEMBL2039_lig447

> <s_m_subgroup_title>
dock_pv

> <s_m_subgroupid>
dock_pv

> <b_m_subgroup_collapsed>
1

$$$$
CHEMBL2039_lig1259
                    3D
 Schrodinger Suite 2021-1.
 38 40  0  0  1  0            999 V2000
   49.2556  158.3983   30.4525 C   0  0  0  0  0  0
   52.7699  151.8867   25.6616 C   0  0  0  0  0  0
   51.4379  154.8153   27.7041 C   0  0  0  0  0  0
   47.9286  160.9928   32.8981 C   0  0  0  0  0  0
   48.4286  159.0472   31.3638 C   0  0  0  0  0  0
   52.4577  156.8015   26.8719 C   0  0  0  0  0  0
   51.7058  156.1763   27.8602 C   0  0  0  0  0  0
   52.6080  154.7748   25.5658 C   0  0  0  0  0  0
   51.6802  152.5886   26.5104 C   0  0  0  0  0  0
   52.8562  156.1369   25.7249 C   0  0  0  0  0  0
   50.4560  158.9876   30.0346 C   0  0  0  0  0  0
   52.9848  152.5918   24.3052 C   0  0  0  0  0  0
   53.3870  154.0458   24.5048 C   0  0  0  0  0  0
   51.3992  158.2885   29.0480 C   0  0  0  0  0  0
   48.8085  160.2847   31.8839 C   0  0  0  0  0  0
   50.0062  160.8748   31.4788 C   0  0  0  0  0  0
   50.8172  160.2407   30.5406 C   0  0  0  0  0  0
   51.1769  156.8656   28.9392 O   0  0  0  0  0  0
   51.8898  154.0962   26.5822 C   0  0  0  0  0  0
   54.3172  154.5722   23.8899 O   0  0  0  0  0  0
   48.9702  157.4184   30.1032 H   0  0  0  0  0  0
   53.7134  151.8551   26.2085 H   0  0  0  0  0  0
   52.4886  150.8459   25.4963 H   0  0  0  0  0  0
   50.8788  154.3071   28.4760 H   0  0  0  0  0  0
   46.9875  160.4684   33.0666 H   0  0  0  0  0  0
   48.4526  161.0879   33.8497 H   0  0  0  0  0  0
   47.6951  161.9996   32.5511 H   0  0  0  0  0  0
   47.5098  158.5759   31.6814 H   0  0  0  0  0  0
   52.7554  157.8301   26.9715 H   0  0  0  0  0  0
   51.6557  152.1726   27.5168 H   0  0  0  0  0  0
   50.6916  152.4086   26.1040 H   0  0  0  0  0  0
   53.4575  156.6749   25.0058 H   0  0  0  0  0  0
   53.7366  152.0694   23.7186 H   0  0  0  0  0  0
   52.0560  152.6439   23.7664 H   0  0  0  0  0  0
   51.2554  158.8008   28.1042 H   0  0  0  0  0  0
   52.4432  158.4645   29.3042 H   0  0  0  0  0  0
   50.3122  161.8247   31.8944 H   0  0  0  0  0  0
   51.7445  160.7057   30.2396 H   0  0  0  0  0  0
  1  5  2  0  0  0
  1 11  1  0  0  0
  1 21  1  0  0  0
  2  9  1  0  0  0
  2 12  1  0  0  0
  2 22  1  0  0  0
  2 23  1  0  0  0
  3 19  2  0  0  0
  3  7  1  0  0  0
  3 24  1  0  0  0
  4 15  1  0  0  0
  4 25  1  0  0  0
  4 26  1  0  0  0
  4 27  1  0  0  0
  5 15  1  0  0  0
  5 28  1  0  0  0
  6  7  2  0  0  0
  6 10  1  0  0  0
  6 29  1  0  0  0
  7 18  1  0  0  0
  8 13  1  0  0  0
  8 10  2  0  0  0
  8 19  1  0  0  0
  9 19  1  0  0  0
  9 30  1  0  0  0
  9 31  1  0  0  0
 10 32  1  0  0  0
 11 17  2  0  0  0
 11 14  1  0  0  0
 12 13  1  0  0  0
 12 33  1  0  0  0
 12 34  1  0  0  0
 13 20  2  0  0  0
 14 18  1  0  0  0
 14 35  1  0  0  0
 14 36  1  0  0  0
 15 16  2  0  0  0
 16 17  1  0  0  0
 16 37  1  0  0  0
 17 38  1  0  0  0
M  END
> <s_m_entry_id>
10335

> <s_m_entry_name>
dock_pv.371

> <s_m_Source_Path>
/home/csk/Desktop/cluster/DUD-E-result/aofb

> <s_m_Source_File>
dock_pv.maegz

> <i_m_Source_File_Index>
371

> <chembl_id>
CHEMBL3288300

> <chembl_pref_name>
None

> <i_lp_mmshare_version>
53161

> <i_f3d_flags>
0

> <r_lp_tautomer_probability>
0.99995

> <s_lp_Force_Field>
OPLS_2005

> <r_lp_Energy>
23.388166

> <b_lp_Chiralities_Consistent>
1

> <s_lp_Variant>
CHEMBL2039_lig1259-1

> <s_i_glide_gridfile>
glide-grid_1s3b

> <i_i_glide_lignum>
1451

> <i_i_glide_rotatable_bonds>
3

> <r_i_docking_score>
-7.18332917948632

> <r_i_glide_ligand_efficiency>
-0.359166458974316

> <r_i_glide_ligand_efficiency_sa>
-0.974927762556355

> <r_i_glide_ligand_efficiency_ln>
-1.7977503715726

> <r_i_glide_gscore>
-7.18332917948632

> <r_i_glide_lipo>
-4.07817931977416

> <r_i_glide_hbond>
0

> <r_i_glide_metal>
0

> <r_i_glide_rewards>
-2.44964535423067

> <r_i_glide_evdw>
-28.0357513427734

> <r_i_glide_ecoul>
-0.0469487756490707

> <r_i_glide_erotb>
0.753325378004534

> <r_i_glide_esite>
0

> <r_i_glide_emodel>
-35.8209921990012

> <r_i_glide_energy>
-28.0827001184225

> <r_i_glide_einternal>
0.717560410499573

> <i_i_glide_confnum>
4

> <i_i_glide_posenum>
325

> <r_i_glide_eff_state_penalty>
0

> <s_user_duplicate_titles>
CHEMBL2039_lig1259

> <s_m_subgroup_title>
dock_pv

> <s_m_subgroupid>
dock_pv

> <b_m_subgroup_collapsed>
1

$$$$
CHEMBL2039_lig583
                    3D
 Schrodinger Suite 2021-1.
 34 36  0  0  1  0            999 V2000
   52.0769  159.0440   29.3040 N   0  0  0  0  0  0
   51.5293  160.0224   29.9956 N   0  0  0  0  0  0
   50.1034  159.8168   29.9744 C   0  0  1  0  0  0
   50.0398  158.4450   29.7041 O   0  0  0  0  0  0
   51.2631  158.1058   29.2038 C   0  0  0  0  0  0
   49.2129  160.2310   31.1579 C   0  0  0  0  0  0
   47.8846  159.7849   31.2497 C   0  0  0  0  0  0
   47.0936  160.1595   32.3435 C   0  0  0  0  0  0
   47.6658  160.9326   33.3548 C   0  0  0  0  0  0
   48.9699  161.3363   33.2633 C   0  0  0  0  0  0
   49.7243  161.0440   32.1590 C   0  0  0  0  0  0
   52.3414  161.0636   30.3405 C   0  0  0  0  0  0
   53.2318  160.9004   31.5657 C   0  0  0  0  0  0
   52.4560  162.1117   29.7041 O   0  0  0  0  0  0
   51.5422  156.8158   28.5194 C   0  0  0  0  0  0
   50.8553  155.6570   28.8936 C   0  0  0  0  0  0
   50.9812  154.4996   28.1321 C   0  0  0  0  0  0
   51.7457  154.5166   26.9721 C   0  0  0  0  0  0
   52.4560  155.6581   26.6064 C   0  0  0  0  0  0
   52.4189  156.7821   27.4245 C   0  0  0  0  0  0
   46.8564  161.4440   34.7770 Cl  0  0  0  0  0  0
   51.8825  152.9447   25.9132 Br  0  0  0  0  0  0
   49.6987  160.3642   29.1183 H   0  0  0  0  0  0
   47.4680  159.1594   30.4732 H   0  0  0  0  0  0
   46.0656  159.8364   32.4148 H   0  0  0  0  0  0
   49.4180  161.8441   34.0847 H   0  0  0  0  0  0
   50.7220  161.4313   32.1692 H   0  0  0  0  0  0
   54.2430  160.6389   31.2555 H   0  0  0  0  0  0
   53.2809  161.8445   32.1039 H   0  0  0  0  0  0
   52.8580  160.1229   32.2338 H   0  0  0  0  0  0
   50.1819  155.6570   29.7353 H   0  0  0  0  0  0
   50.4565  153.6012   28.4147 H   0  0  0  0  0  0
   53.0809  155.6469   25.7258 H   0  0  0  0  0  0
   52.9892  157.6575   27.1489 H   0  0  0  0  0  0
  1  2  1  0  0  0
  1  5  2  0  0  0
  2 12  1  0  0  0
  2  3  1  0  0  0
  3  6  1  0  0  0
  3  4  1  0  0  0
  3 23  1  0  0  0
  4  5  1  0  0  0
  5 15  1  0  0  0
  6 11  1  0  0  0
  6  7  2  0  0  0
  7  8  1  0  0  0
  7 24  1  0  0  0
  8  9  2  0  0  0
  8 25  1  0  0  0
  9 10  1  0  0  0
  9 21  1  0  0  0
 10 11  2  0  0  0
 10 26  1  0  0  0
 11 27  1  0  0  0
 12 13  1  0  0  0
 12 14  2  0  0  0
 13 28  1  0  0  0
 13 29  1  0  0  0
 13 30  1  0  0  0
 15 16  2  0  0  0
 15 20  1  0  0  0
 16 17  1  0  0  0
 16 31  1  0  0  0
 17 18  2  0  0  0
 17 32  1  0  0  0
 18 19  1  0  0  0
 18 22  1  0  0  0
 19 20  2  0  0  0
 19 33  1  0  0  0
 20 34  1  0  0  0
M  END
> <s_m_entry_id>
10336

> <s_m_entry_name>
dock_pv.372

> <s_m_Source_Path>
/home/csk/Desktop/cluster/DUD-E-result/aofb

> <s_m_Source_File>
dock_pv.maegz

> <i_m_Source_File_Index>
372

> <chembl_id>
CHEMBL1823543

> <chembl_pref_name>
None

> <i_lp_mmshare_version>
53161

> <i_f3d_flags>
0

> <r_lp_tautomer_probability>
1

> <s_lp_Force_Field>
OPLS_2005

> <r_lp_Energy>
18.656837

> <b_lp_Chiralities_Consistent>
1

> <s_lp_Variant>
CHEMBL2039_lig583-2

> <s_i_glide_gridfile>
glide-grid_1s3b

> <i_i_glide_lignum>
690

> <i_i_glide_rotatable_bonds>
3

> <r_i_docking_score>
-7.18167840529177

> <r_i_glide_ligand_efficiency>
-0.326439927513262

> <r_i_glide_ligand_efficiency_sa>
-0.914697515045998

> <r_i_glide_ligand_efficiency_ln>
-1.755464160338

> <r_i_glide_gscore>
-7.18167840529177

> <r_i_glide_lipo>
-3.57758345683557

> <r_i_glide_hbond>
-0.271730882951848

> <r_i_glide_metal>
0

> <r_i_glide_rewards>
-2.47040264824027

> <r_i_glide_evdw>
-12.8248538970947

> <r_i_glide_ecoul>
-3.2654767036438

> <r_i_glide_erotb>
0.269102783137221

> <r_i_glide_esite>
0

> <r_i_glide_emodel>
-26.4205301596225

> <r_i_glide_energy>
-16.0903306007385

> <r_i_glide_einternal>
14.8378868103027

> <i_i_glide_confnum>
7

> <i_i_glide_posenum>
43

> <r_i_glide_eff_state_penalty>
0

> <s_user_duplicate_titles>
CHEMBL2039_lig583

> <s_m_subgroup_title>
dock_pv

> <s_m_subgroupid>
dock_pv

> <b_m_subgroup_collapsed>
1

$$$$
CHEMBL2039_lig1563
                    3D
 Schrodinger Suite 2021-1.
 26 27  0  0  1  0            999 V2000
   52.0560  155.2555   26.7506 C   0  0  0  0  0  0
   51.5613  155.4593   28.1069 C   0  0  0  0  0  0
   51.4797  156.8294   28.6352 C   0  0  0  0  0  0
   51.1380  154.4998   28.7496 O   0  0  0  0  0  0
   50.4560  157.1768   29.4434 C   0  0  0  0  0  0
   50.1380  158.4881   30.0490 C   0  0  0  0  0  0
   51.0658  159.5356   30.1040 C   0  0  0  0  0  0
   50.8116  160.6440   30.9165 C   0  0  0  0  0  0
   49.6147  160.7306   31.6318 C   0  0  0  0  0  0
   48.6315  159.7570   31.4666 C   0  0  0  0  0  0
   48.8925  158.6440   30.6724 C   0  0  0  0  0  0
   52.7639  156.2440   26.1175 N   0  0  0  0  0  0
   53.1890  155.7806   24.9040 C   0  0  0  0  0  0
   52.6990  154.4918   24.7366 C   0  0  0  0  0  0
   51.9883  154.1607   25.8951 C   0  0  0  0  0  0
   46.9579  159.9041   32.3652 Br  0  0  0  0  0  0
   49.4172  161.7453   32.5040 F   0  0  0  0  0  0
   52.2348  157.5408   28.3383 H   0  0  0  0  0  0
   49.7450  156.4014   29.7040 H   0  0  0  0  0  0
   52.0292  159.4440   29.6231 H   0  0  0  0  0  0
   51.5638  161.4095   31.0399 H   0  0  0  0  0  0
   48.1477  157.8635   30.6106 H   0  0  0  0  0  0
   52.9766  157.1516   26.5077 H   0  0  0  0  0  0
   53.7983  156.4060   24.2681 H   0  0  0  0  0  0
   52.8513  153.8521   23.8782 H   0  0  0  0  0  0
   51.4975  153.2201   26.1019 H   0  0  0  0  0  0
  1  2  1  0  0  0
  1 12  1  0  0  0
  1 15  2  0  0  0
  2  3  1  0  0  0
  2  4  2  0  0  0
  3  5  2  0  0  0
  3 18  1  0  0  0
  5  6  1  0  0  0
  5 19  1  0  0  0
  6  7  2  0  0  0
  6 11  1  0  0  0
  7  8  1  0  0  0
  7 20  1  0  0  0
  8  9  2  0  0  0
  8 21  1  0  0  0
  9 10  1  0  0  0
  9 17  1  0  0  0
 10 11  2  0  0  0
 10 16  1  0  0  0
 11 22  1  0  0  0
 12 13  1  0  0  0
 12 23  1  0  0  0
 13 14  2  0  0  0
 13 24  1  0  0  0
 14 15  1  0  0  0
 14 25  1  0  0  0
 15 26  1  0  0  0
M  END
> <s_m_entry_id>
10337

> <s_m_entry_name>
dock_pv.373

> <s_m_Source_Path>
/home/csk/Desktop/cluster/DUD-E-result/aofb

> <s_m_Source_File>
dock_pv.maegz

> <i_m_Source_File_Index>
373

> <chembl_id>
CHEMBL3735584

> <chembl_pref_name>
None

> <i_lp_mmshare_version>
53161

> <i_f3d_flags>
0

> <r_lp_tautomer_probability>
1

> <s_lp_Force_Field>
OPLS_2005

> <r_lp_Energy>
7.691736

> <b_lp_Chiralities_Consistent>
1

> <s_lp_Variant>
CHEMBL2039_lig1563-1

> <s_i_glide_gridfile>
glide-grid_1s3b

> <i_i_glide_lignum>
1824

> <i_i_glide_rotatable_bonds>
3

> <r_i_docking_score>
-7.17825663938055

> <r_i_glide_ligand_efficiency>
-0.422250390551797

> <r_i_glide_ligand_efficiency_sa>
-1.08572465484872

> <r_i_glide_ligand_efficiency_ln>
-1.87264730529835

> <r_i_glide_gscore>
-7.17825663938055

> <r_i_glide_lipo>
-3.3138109768778

> <r_i_glide_hbond>
0

> <r_i_glide_metal>
0

> <r_i_glide_rewards>
-2.72083392985121

> <r_i_glide_evdw>
-29.0052967071533

> <r_i_glide_ecoul>
0.730653464794159

> <r_i_glide_erotb>
0.211356432102018

> <r_i_glide_esite>
-0.0143013491150229

> <r_i_glide_emodel>
-33.5354216221136

> <r_i_glide_energy>
-28.2746432423592

> <r_i_glide_einternal>
5.84981536865234

> <i_i_glide_confnum>
2

> <i_i_glide_posenum>
83

> <r_i_glide_eff_state_penalty>
0

> <s_user_duplicate_titles>
CHEMBL2039_lig1563

> <s_m_subgroup_title>
dock_pv

> <s_m_subgroupid>
dock_pv

> <b_m_subgroup_collapsed>
1

$$$$
CHEMBL2039_lig1935
                    3D
 Schrodinger Suite 2021-1.
 38 40  0  0  1  0            999 V2000
   53.9021  154.5800   24.1486 C   0  0  0  0  0  0
   53.5876  153.2220   24.1679 C   0  0  0  0  0  0
   52.7343  152.7010   25.1436 C   0  0  0  0  0  0
   53.2560  155.4268   25.0528 C   0  0  0  0  0  0
   52.4496  154.9276   26.0529 C   0  0  0  0  0  0
   52.1872  153.5565   26.0964 C   0  0  0  0  0  0
   51.5014  153.0007   27.1447 O   0  0  0  0  0  0
   51.0484  153.8440   28.1034 C   0  0  0  0  0  0
   51.2174  155.1844   28.1737 C   0  0  0  0  0  0
   52.0560  155.8257   27.1580 C   0  0  0  0  0  0
   50.4560  155.9342   29.1597 C   0  0  0  0  0  0
   50.8468  157.2314   29.3040 N   0  0  0  0  0  0
   49.4701  155.4441   29.7040 O   0  0  0  0  0  0
   50.2345  158.3158   29.9731 C   0  0  0  0  0  0
   51.0203  159.4646   30.1039 C   0  0  0  0  0  0
   50.5389  160.5799   30.7851 C   0  0  0  0  0  0
   49.2489  160.5724   31.3107 C   0  0  0  0  0  0
   48.4363  159.4467   31.1622 C   0  0  0  0  0  0
   48.9309  158.3150   30.5040 C   0  0  0  0  0  0
   54.8560  155.0440   23.2701 O   0  0  0  0  0  0
   55.1224  156.4406   23.3407 C   0  0  0  0  0  0
   47.0204  159.4712   31.7044 C   0  0  0  0  0  0
   52.4560  156.9933   27.1937 O   0  0  0  0  0  0
   54.0551  152.5682   23.4494 H   0  0  0  0  0  0
   52.5391  151.6407   25.1935 H   0  0  0  0  0  0
   53.4725  156.4815   25.0930 H   0  0  0  0  0  0
   50.4560  153.2892   28.8008 H   0  0  0  0  0  0
   51.6999  157.4675   28.8095 H   0  0  0  0  0  0
   52.0276  159.4825   29.7108 H   0  0  0  0  0  0
   51.1722  161.4440   30.9130 H   0  0  0  0  0  0
   48.8830  161.4440   31.8335 H   0  0  0  0  0  0
   48.2944  157.4510   30.3994 H   0  0  0  0  0  0
   55.6559  156.8317   22.5040 H   0  0  0  0  0  0
   54.2371  157.0748   23.3216 H   0  0  0  0  0  0
   55.7043  156.6440   24.2383 H   0  0  0  0  0  0
   46.5179  160.3907   31.4022 H   0  0  0  0  0  0
   47.0321  159.4440   32.7939 H   0  0  0  0  0  0
   46.4263  158.6414   31.3245 H   0  0  0  0  0  0
  1  2  2  0  0  0
  1  4  1  0  0  0
  1 20  1  0  0  0
  2  3  1  0  0  0
  2 24  1  0  0  0
  3  6  2  0  0  0
  3 25  1  0  0  0
  4  5  2  0  0  0
  4 26  1  0  0  0
  5  6  1  0  0  0
  5 10  1  0  0  0
  6  7  1  0  0  0
  7  8  1  0  0  0
  8  9  2  0  0  0
  8 27  1  0  0  0
  9 10  1  0  0  0
  9 11  1  0  0  0
 10 23  2  0  0  0
 11 12  1  0  0  0
 11 13  2  0  0  0
 12 14  1  0  0  0
 12 28  1  0  0  0
 14 15  2  0  0  0
 14 19  1  0  0  0
 15 16  1  0  0  0
 15 29  1  0  0  0
 16 17  2  0  0  0
 16 30  1  0  0  0
 17 18  1  0  0  0
 17 31  1  0  0  0
 18 19  2  0  0  0
 18 22  1  0  0  0
 19 32  1  0  0  0
 20 21  1  0  0  0
 21 33  1  0  0  0
 21 34  1  0  0  0
 21 35  1  0  0  0
 22 36  1  0  0  0
 22 37  1  0  0  0
 22 38  1  0  0  0
M  END
> <s_m_entry_id>
10338

> <s_m_entry_name>
dock_pv.374

> <s_m_Source_Path>
/home/csk/Desktop/cluster/DUD-E-result/aofb

> <s_m_Source_File>
dock_pv.maegz

> <i_m_Source_File_Index>
374

> <chembl_id>
CHEMBL4072004

> <chembl_pref_name>
None

> <i_lp_mmshare_version>
53161

> <i_f3d_flags>
0

> <r_lp_tautomer_probability>
1

> <s_lp_Force_Field>
OPLS_2005

> <r_lp_Energy>
28.572055

> <b_lp_Chiralities_Consistent>
1

> <s_lp_Variant>
CHEMBL2039_lig1935-1

> <s_i_glide_gridfile>
glide-grid_1s3b

> <i_i_glide_lignum>
2270

> <i_i_glide_rotatable_bonds>
4

> <r_i_docking_score>
-7.1765079159956

> <r_i_glide_ligand_efficiency>
-0.312022083304156

> <r_i_glide_ligand_efficiency_sa>
-0.887349298765759

> <r_i_glide_ligand_efficiency_ln>
-1.73534468706377

> <r_i_glide_gscore>
-7.1765079159956

> <r_i_glide_lipo>
-4.38870698825533

> <r_i_glide_hbond>
-0.0243884006043529

> <r_i_glide_metal>
0

> <r_i_glide_rewards>
-2.51713878870792

> <r_i_glide_evdw>
-9.33584022521973

> <r_i_glide_ecoul>
-2.40009212493896

> <r_i_glide_erotb>
0.580532091573847

> <r_i_glide_esite>
0

> <r_i_glide_emodel>
-18.3484488285677

> <r_i_glide_energy>
-11.7359323501587

> <r_i_glide_einternal>
6.57435703277588

> <i_i_glide_confnum>
1

> <i_i_glide_posenum>
61

> <r_i_glide_eff_state_penalty>
0

> <s_user_duplicate_titles>
CHEMBL2039_lig1935

> <s_m_subgroup_title>
dock_pv

> <s_m_subgroupid>
dock_pv

> <b_m_subgroup_collapsed>
1

$$$$
CHEMBL2039_lig225
                    3D
 Schrodinger Suite 2021-1.
 38 40  0  0  1  0            999 V2000
   53.1899  155.4430   24.9432 C   0  0  0  0  0  0
   52.8964  152.9812   24.9041 C   0  0  0  0  0  0
   52.4552  155.4776   26.2325 C   0  0  0  0  0  0
   53.3903  154.2476   24.3263 C   0  0  0  0  0  0
   51.8536  154.2610   26.6018 C   0  0  0  0  0  0
   51.9427  153.1039   25.8586 O   0  0  0  0  0  0
   52.3852  156.5689   27.1317 C   0  0  0  0  0  0
   51.1538  154.1316   27.7754 C   0  0  0  0  0  0
   51.6560  156.4508   28.3325 C   0  0  0  0  0  0
   51.0383  155.2233   28.6082 C   0  0  0  0  0  0
   53.2159  151.8287   24.6071 O   0  0  0  0  0  0
   51.5522  157.4386   29.3040 O   0  0  0  0  0  0
   51.0766  158.7540   29.0585 C   0  0  0  0  0  0
   53.7704  156.7545   24.4297 C   0  0  0  0  0  0
   50.2682  155.0440   29.7040 O   0  0  0  0  0  0
   54.0196  154.0361   22.9716 C   0  0  0  0  0  0
   49.7404  159.0689   29.7605 C   0  0  0  0  0  0
   48.9599  158.1492   30.4671 C   0  0  0  0  0  0
   49.2692  160.3645   29.6571 C   0  0  0  0  0  0
   48.0560  160.7514   30.2208 C   0  0  0  0  0  0
   47.7598  158.5292   31.0693 C   0  0  0  0  0  0
   47.3064  159.8331   30.9401 C   0  0  0  0  0  0
   52.8931  157.4942   26.9209 H   0  0  0  0  0  0
   50.6973  153.1862   28.0297 H   0  0  0  0  0  0
   51.0215  159.0440   28.0174 H   0  0  0  0  0  0
   51.8276  159.4146   29.4935 H   0  0  0  0  0  0
   54.4562  156.6490   23.5954 H   0  0  0  0  0  0
   52.9655  157.4116   24.1041 H   0  0  0  0  0  0
   54.3574  157.2597   25.1870 H   0  0  0  0  0  0
   49.9490  154.1399   29.7853 H   0  0  0  0  0  0
   54.4560  154.9101   22.5040 H   0  0  0  0  0  0
   54.8560  153.4440   23.1214 H   0  0  0  0  0  0
   53.3722  153.4440   22.3142 H   0  0  0  0  0  0
   49.2561  157.1217   30.5040 H   0  0  0  0  0  0
   49.8721  161.0440   29.0939 H   0  0  0  0  0  0
   47.6914  161.7597   30.1040 H   0  0  0  0  0  0
   47.1663  157.8235   31.6247 H   0  0  0  0  0  0
   46.3681  160.1286   31.3877 H   0  0  0  0  0  0
  1  3  1  0  0  0
  1  4  2  0  0  0
  1 14  1  0  0  0
  2  4  1  0  0  0
  2  6  1  0  0  0
  2 11  2  0  0  0
  3  5  1  0  0  0
  3  7  2  0  0  0
  4 16  1  0  0  0
  5  8  2  0  0  0
  5  6  1  0  0  0
  7  9  1  0  0  0
  7 23  1  0  0  0
  8 10  1  0  0  0
  8 24  1  0  0  0
  9 10  2  0  0  0
  9 12  1  0  0  0
 10 15  1  0  0  0
 12 13  1  0  0  0
 13 17  1  0  0  0
 13 25  1  0  0  0
 13 26  1  0  0  0
 14 27  1  0  0  0
 14 28  1  0  0  0
 14 29  1  0  0  0
 15 30  1  0  0  0
 16 31  1  0  0  0
 16 32  1  0  0  0
 16 33  1  0  0  0
 17 18  2  0  0  0
 17 19  1  0  0  0
 18 21  1  0  0  0
 18 34  1  0  0  0
 19 20  2  0  0  0
 19 35  1  0  0  0
 20 22  1  0  0  0
 20 36  1  0  0  0
 21 22  2  0  0  0
 21 37  1  0  0  0
 22 38  1  0  0  0
M  END
> <s_m_entry_id>
10339

> <s_m_entry_name>
dock_pv.375

> <s_m_Source_Path>
/home/csk/Desktop/cluster/DUD-E-result/aofb

> <s_m_Source_File>
dock_pv.maegz

> <i_m_Source_File_Index>
375

> <chembl_id>
CHEMBL342724

> <chembl_pref_name>
None

> <i_lp_mmshare_version>
53161

> <i_f3d_flags>
0

> <r_lp_tautomer_probability>
1

> <s_lp_Force_Field>
OPLS_2005

> <r_lp_Energy>
23.584862

> <b_lp_Chiralities_Consistent>
1

> <s_lp_Variant>
CHEMBL2039_lig225-1

> <s_i_glide_gridfile>
glide-grid_1s3b

> <i_i_glide_lignum>
266

> <i_i_glide_rotatable_bonds>
4

> <r_i_docking_score>
-7.17607591027785

> <r_i_glide_ligand_efficiency>
-0.326185268648993

> <r_i_glide_ligand_efficiency_sa>
-0.913983950893152

> <r_i_glide_ligand_efficiency_ln>
-1.75409470620063

> <r_i_glide_gscore>
-7.17607591027785

> <r_i_glide_lipo>
-4.5677130837001

> <r_i_glide_hbond>
0

> <r_i_glide_metal>
0

> <r_i_glide_rewards>
-2.28874609090909

> <r_i_glide_evdw>
-17.1604194641113

> <r_i_glide_ecoul>
-0.583136975765228

> <r_i_glide_erotb>
0.625874783901683

> <r_i_glide_esite>
0

> <r_i_glide_emodel>
-24.4230797313518

> <r_i_glide_energy>
-17.7435564398766

> <r_i_glide_einternal>
3.52961254119873

> <i_i_glide_confnum>
3

> <i_i_glide_posenum>
218

> <r_i_glide_eff_state_penalty>
0

> <s_user_duplicate_titles>
CHEMBL2039_lig225

> <s_m_subgroup_title>
dock_pv

> <s_m_subgroupid>
dock_pv

> <b_m_subgroup_collapsed>
1

$$$$
CHEMBL2039_lig203
                    3D
 Schrodinger Suite 2021-1.
 36 39  0  0  1  0            999 V2000
   51.6560  154.8205   27.6032 C   0  0  0  0  0  0
   52.3078  155.4386   26.5572 C   0  0  0  0  0  0
   51.6365  153.3703   27.3562 C   0  0  0  0  0  0
   52.7524  156.7046   26.6151 N   0  0  0  0  0  0
   52.2563  153.2149   26.0267 C   0  0  0  0  0  0
   52.6378  154.4597   25.5476 C   0  0  0  0  0  0
   52.4560  157.4440   27.6942 N   0  0  0  0  0  0
   51.2560  155.6039   28.6814 C   0  0  0  0  0  0
   51.2559  152.4844   28.1040 O   0  0  0  0  0  0
   51.6533  156.9502   28.6622 C   0  0  0  0  0  0
   51.1643  157.9446   29.7040 C   0  0  0  0  0  0
   50.5625  159.2846   29.2387 C   0  0  0  0  0  0
   52.5785  152.0633   25.3158 C   0  0  0  0  0  0
   53.3833  154.5803   24.3902 C   0  0  0  0  0  0
   49.5886  159.8563   30.2606 C   0  0  0  0  0  0
   48.2183  159.6074   30.1324 C   0  0  0  0  0  0
   50.0674  160.5884   31.3493 C   0  0  0  0  0  0
   53.6560  153.4440   23.6384 C   0  0  0  0  0  0
   53.2560  152.1881   24.1040 C   0  0  0  0  0  0
   49.1823  161.0440   32.3228 C   0  0  0  0  0  0
   47.3321  160.0708   31.1018 C   0  0  0  0  0  0
   47.8199  160.7804   32.1974 C   0  0  0  0  0  0
   50.6940  155.1908   29.5068 H   0  0  0  0  0  0
   52.0401  158.2253   30.2693 H   0  0  0  0  0  0
   50.4560  157.4440   30.3625 H   0  0  0  0  0  0
   50.0560  159.2187   28.2837 H   0  0  0  0  0  0
   51.3731  159.9944   29.0888 H   0  0  0  0  0  0
   52.3113  151.0828   25.6851 H   0  0  0  0  0  0
   53.7660  155.5463   24.1040 H   0  0  0  0  0  0
   47.8399  159.0439   29.2923 H   0  0  0  0  0  0
   51.1252  160.7814   31.4606 H   0  0  0  0  0  0
   54.2194  153.5186   22.7209 H   0  0  0  0  0  0
   53.4880  151.3052   23.5298 H   0  0  0  0  0  0
   49.5572  161.5935   33.1742 H   0  0  0  0  0  0
   46.2736  159.8736   31.0097 H   0  0  0  0  0  0
   47.1352  161.1313   32.9554 H   0  0  0  0  0  0
  1  2  2  0  0  0
  1  3  1  0  0  0
  1  8  1  0  0  0
  2  4  1  0  0  0
  2  6  1  0  0  0
  3  5  1  0  0  0
  3  9  2  0  0  0
  4  7  2  0  0  0
  5 13  1  0  0  0
  5  6  2  0  0  0
  6 14  1  0  0  0
  7 10  1  0  0  0
  8 10  2  0  0  0
  8 23  1  0  0  0
 10 11  1  0  0  0
 11 12  1  0  0  0
 11 24  1  0  0  0
 11 25  1  0  0  0
 12 15  1  0  0  0
 12 26  1  0  0  0
 12 27  1  0  0  0
 13 19  2  0  0  0
 13 28  1  0  0  0
 14 18  2  0  0  0
 14 29  1  0  0  0
 15 16  2  0  0  0
 15 17  1  0  0  0
 16 21  1  0  0  0
 16 30  1  0  0  0
 17 20  2  0  0  0
 17 31  1  0  0  0
 18 19  1  0  0  0
 18 32  1  0  0  0
 19 33  1  0  0  0
 20 22  1  0  0  0
 20 34  1  0  0  0
 21 22  2  0  0  0
 21 35  1  0  0  0
 22 36  1  0  0  0
M  END
> <s_m_entry_id>
10340

> <s_m_entry_name>
dock_pv.376

> <s_m_Source_Path>
/home/csk/Desktop/cluster/DUD-E-result/aofb

> <s_m_Source_File>
dock_pv.maegz

> <i_m_Source_File_Index>
376

> <chembl_id>
CHEMBL126505

> <chembl_pref_name>
None

> <i_lp_mmshare_version>
53161

> <i_f3d_flags>
0

> <r_lp_tautomer_probability>
1

> <s_lp_Force_Field>
OPLS_2005

> <r_lp_Energy>
37.709342

> <b_lp_Chiralities_Consistent>
1

> <s_lp_Variant>
CHEMBL2039_lig203-1

> <s_i_glide_gridfile>
glide-grid_1s3b

> <i_i_glide_lignum>
244

> <i_i_glide_rotatable_bonds>
3

> <r_i_docking_score>
-7.17269207170935

> <r_i_glide_ligand_efficiency>
-0.326031457804971

> <r_i_glide_ligand_efficiency_sa>
-0.913552966859163

> <r_i_glide_ligand_efficiency_ln>
-1.75326757262598

> <r_i_glide_gscore>
-7.17269207170935

> <r_i_glide_lipo>
-4.23164896923728

> <r_i_glide_hbond>
0

> <r_i_glide_metal>
0

> <r_i_glide_rewards>
-2.59387130961388

> <r_i_glide_evdw>
-23.0778293609619

> <r_i_glide_ecoul>
0.948393285274506

> <r_i_glide_erotb>
0.664460682398731

> <r_i_glide_esite>
0

> <r_i_glide_emodel>
-21.3787332533127

> <r_i_glide_energy>
-22.1294360756874

> <r_i_glide_einternal>
2.94268822669983

> <i_i_glide_confnum>
11

> <i_i_glide_posenum>
397

> <r_i_glide_eff_state_penalty>
0

> <s_user_duplicate_titles>
CHEMBL2039_lig203

> <s_m_subgroup_title>
dock_pv

> <s_m_subgroupid>
dock_pv

> <b_m_subgroup_collapsed>
1

$$$$
CHEMBL2039_lig1291
                    3D
 Schrodinger Suite 2021-1.
 30 32  0  0  1  0            999 V2000
   53.0158  154.3797   24.4877 N   0  0  0  0  0  0
   53.0076  153.0441   24.3721 N   0  0  0  0  0  0
   52.4560  152.3649   25.4295 C   0  0  0  0  0  0
   52.0560  153.3678   26.3459 C   0  0  0  0  0  0
   51.4668  153.3976   27.6170 C   0  0  0  0  0  0
   51.3879  154.6166   28.2885 C   0  0  0  0  0  0
   51.8650  155.8028   27.7142 C   0  0  0  0  0  0
   52.3445  155.8040   26.3960 C   0  0  0  0  0  0
   52.4560  154.5853   25.7132 C   0  0  0  0  0  0
   51.9241  157.0817   28.5040 C   0  0  0  0  0  0
   52.8685  157.8440   28.3428 O   0  0  0  0  0  0
   50.8560  157.3234   29.3040 N   0  0  0  0  0  0
   50.4466  158.5175   29.9211 C   0  0  0  0  0  0
   49.1730  158.4989   30.5019 C   0  0  0  0  0  0
   48.7678  159.5161   31.3601 C   0  0  0  0  0  0
   49.6516  160.5573   31.6507 C   0  0  0  0  0  0
   50.8771  160.6439   30.9901 C   0  0  0  0  0  0
   51.2669  159.6407   30.1040 C   0  0  0  0  0  0
   49.3710  161.4440   32.6484 O   0  0  0  0  0  0
   47.2088  159.4225   32.1038 Cl  0  0  0  0  0  0
   53.3947  152.5939   23.5543 H   0  0  0  0  0  0
   52.4143  151.2856   25.4295 H   0  0  0  0  0  0
   51.1528  152.4862   28.1047 H   0  0  0  0  0  0
   51.0143  154.6075   29.3030 H   0  0  0  0  0  0
   52.7057  156.7138   25.9383 H   0  0  0  0  0  0
   50.1770  156.5799   29.3319 H   0  0  0  0  0  0
   48.5144  157.6561   30.3500 H   0  0  0  0  0  0
   51.5613  161.4499   31.2122 H   0  0  0  0  0  0
   52.2591  159.6967   29.6858 H   0  0  0  0  0  0
   50.1761  161.8445   32.9971 H   0  0  0  0  0  0
  1  2  1  0  0  0
  1  9  2  0  0  0
  2 21  1  0  0  0
  2  3  1  0  0  0
  3  4  2  0  0  0
  3 22  1  0  0  0
  4  5  1  0  0  0
  4  9  1  0  0  0
  5  6  2  0  0  0
  5 23  1  0  0  0
  6  7  1  0  0  0
  6 24  1  0  0  0
  7  8  2  0  0  0
  7 10  1  0  0  0
  8  9  1  0  0  0
  8 25  1  0  0  0
 10 11  2  0  0  0
 10 12  1  0  0  0
 12 13  1  0  0  0
 12 26  1  0  0  0
 13 14  1  0  0  0
 13 18  2  0  0  0
 14 15  2  0  0  0
 14 27  1  0  0  0
 15 16  1  0  0  0
 15 20  1  0  0  0
 16 17  2  0  0  0
 16 19  1  0  0  0
 17 18  1  0  0  0
 17 28  1  0  0  0
 18 29  1  0  0  0
 19 30  1  0  0  0
M  END
> <s_m_entry_id>
10341

> <s_m_entry_name>
dock_pv.377

> <s_m_Source_Path>
/home/csk/Desktop/cluster/DUD-E-result/aofb

> <s_m_Source_File>
dock_pv.maegz

> <i_m_Source_File_Index>
377

> <chembl_id>
CHEMBL3319265

> <chembl_pref_name>
None

> <i_lp_mmshare_version>
53161

> <i_f3d_flags>
0

> <r_lp_tautomer_probability>
0.0196078431372032

> <s_lp_Force_Field>
OPLS_2005

> <r_lp_Energy>
32.502893

> <b_lp_Chiralities_Consistent>
1

> <s_lp_Variant>
CHEMBL2039_lig1291-2

> <s_i_glide_gridfile>
glide-grid_1s3b

> <i_i_glide_lignum>
1486

> <i_i_glide_rotatable_bonds>
4

> <r_i_docking_score>
-7.17142396144042

> <r_i_glide_ligand_efficiency>
-0.358571198072021

> <r_i_glide_ligand_efficiency_sa>
-0.973311975878309

> <r_i_glide_ligand_efficiency_ln>
-1.79477088815608

> <r_i_glide_gscore>
-7.17142396144042

> <r_i_glide_lipo>
-3.61783273242818

> <r_i_glide_hbond>
-0.317342552628418

> <r_i_glide_metal>
0

> <r_i_glide_rewards>
-2.28073503325541

> <r_i_glide_evdw>
-30.4858798980713

> <r_i_glide_ecoul>
-0.601101756095886

> <r_i_glide_erotb>
0.658945615189527

> <r_i_glide_esite>
0

> <r_i_glide_emodel>
-38.4830774653321

> <r_i_glide_energy>
-31.0869816541672

> <r_i_glide_einternal>
5.56340932846069

> <i_i_glide_confnum>
8

> <i_i_glide_posenum>
261

> <r_i_glide_eff_state_penalty>
0

> <s_user_duplicate_titles>
CHEMBL2039_lig1291

> <s_m_subgroup_title>
dock_pv

> <s_m_subgroupid>
dock_pv

> <b_m_subgroup_collapsed>
1

$$$$
CHEMBL2039_lig2232
                    3D
 Schrodinger Suite 2021-1.
 46 47  0  0  1  0            999 V2000
   52.4560  156.8877   27.2690 C   0  0  0  0  0  0
   51.6591  156.4547   28.3242 C   0  0  0  0  0  0
   51.1631  155.1514   28.3286 C   0  0  0  0  0  0
   51.2605  154.3757   27.1753 C   0  0  0  0  0  0
   51.8694  154.9166   26.0327 C   0  0  0  0  0  0
   52.5232  156.1430   26.1039 C   0  0  0  0  0  0
   51.7025  154.2502   24.6747 C   0  0  0  0  0  0
   52.8681  153.3954   24.1269 C   0  0  2  0  0  0
   52.8560  152.1241   24.8908 N   0  0  1  0  0  0
   54.2017  154.2064   23.9887 C   0  0  0  0  0  0
   53.2560  150.9135   24.1509 C   0  0  0  0  0  0
   53.6872  152.2440   26.0662 C   0  0  0  0  0  0
   52.9336  149.5696   24.8691 C   0  0  0  0  0  0
   53.6560  148.5480   24.3406 O   0  0  0  0  0  0
   52.0560  149.4117   25.7040 O   0  0  0  0  0  0
   51.2193  157.3105   29.3040 O   0  0  0  0  0  0
   51.3049  158.7288   29.1327 C   0  0  0  0  0  0
   50.3475  159.4063   30.1040 C   0  0  0  0  0  0
   50.7631  160.5072   30.8589 C   0  0  0  0  0  0
   49.9155  161.0407   31.8278 C   0  0  0  0  0  0
   48.6610  160.4716   32.0408 C   0  0  0  0  0  0
   48.2199  159.4126   31.2558 C   0  0  0  0  0  0
   49.0625  158.8851   30.2859 C   0  0  0  0  0  0
   47.6560  161.0440   33.3152 Cl  0  0  0  0  0  0
   52.9314  157.8506   27.3040 H   0  0  0  0  0  0
   50.5885  154.7932   29.1699 H   0  0  0  0  0  0
   50.7757  153.4115   27.1341 H   0  0  0  0  0  0
   53.0251  156.5576   25.2437 H   0  0  0  0  0  0
   51.4485  155.0224   23.9465 H   0  0  0  0  0  0
   50.8085  153.6363   24.7364 H   0  0  0  0  0  0
   52.5900  153.1420   23.1023 H   0  0  0  0  0  0
   54.0258  155.2372   23.7040 H   0  0  0  0  0  0
   54.7793  154.2872   24.9042 H   0  0  0  0  0  0
   54.8559  153.8440   23.2030 H   0  0  0  0  0  0
   54.3248  150.9416   24.1040 H   0  0  0  0  0  0
   52.8800  150.9192   23.1269 H   0  0  0  0  0  0
   53.2543  152.9115   26.7929 H   0  0  0  0  0  0
   53.6560  151.2795   26.5040 H   0  0  0  0  0  0
   54.7368  152.4579   25.8662 H   0  0  0  0  0  0
   53.4017  147.7053   24.7298 H   0  0  0  0  0  0
   52.3328  159.0516   29.3041 H   0  0  0  0  0  0
   51.0181  159.0440   28.1299 H   0  0  0  0  0  0
   51.7539  160.9197   30.7338 H   0  0  0  0  0  0
   50.2490  161.8616   32.4444 H   0  0  0  0  0  0
   47.2439  158.9798   31.4201 H   0  0  0  0  0  0
   48.7287  158.0380   29.7089 H   0  0  0  0  0  0
  1  2  2  0  0  0
  1  6  1  0  0  0
  1 25  1  0  0  0
  2  3  1  0  0  0
  2 16  1  0  0  0
  3  4  2  0  0  0
  3 26  1  0  0  0
  4  5  1  0  0  0
  4 27  1  0  0  0
  5  6  2  0  0  0
  5  7  1  0  0  0
  6 28  1  0  0  0
  7  8  1  0  0  0
  7 29  1  0  0  0
  7 30  1  0  0  0
  8  9  1  0  0  0
  8 10  1  0  0  0
  8 31  1  0  0  0
  9 11  1  0  0  0
  9 12  1  0  0  0
 10 32  1  0  0  0
 10 33  1  0  0  0
 10 34  1  0  0  0
 11 13  1  0  0  0
 11 35  1  0  0  0
 11 36  1  0  0  0
 12 37  1  0  0  0
 12 38  1  0  0  0
 12 39  1  0  0  0
 13 14  1  0  0  0
 13 15  2  0  0  0
 14 40  1  0  0  0
 16 17  1  0  0  0
 17 18  1  0  0  0
 17 41  1  0  0  0
 17 42  1  0  0  0
 18 19  2  0  0  0
 18 23  1  0  0  0
 19 20  1  0  0  0
 19 43  1  0  0  0
 20 21  2  0  0  0
 20 44  1  0  0  0
 21 22  1  0  0  0
 21 24  1  0  0  0
 22 23  2  0  0  0
 22 45  1  0  0  0
 23 46  1  0  0  0
M  END
> <s_m_entry_id>
10342

> <s_m_entry_name>
dock_pv.378

> <s_m_Source_Path>
/home/csk/Desktop/cluster/DUD-E-result/aofb

> <s_m_Source_File>
dock_pv.maegz

> <i_m_Source_File_Index>
378

> <chembl_id>
CHEMBL4249499

> <chembl_pref_name>
None

> <i_lp_mmshare_version>
53161

> <i_f3d_flags>
0

> <r_lp_tautomer_probability>
1

> <s_lp_Force_Field>
OPLS_2005

> <r_lp_Energy>
30.555704

> <b_lp_Chiralities_Consistent>
1

> <s_lp_Variant>
CHEMBL2039_lig2232-1

> <s_i_glide_gridfile>
glide-grid_1s3b

> <i_i_glide_lignum>
2592

> <i_i_glide_rotatable_bonds>
9

> <r_i_docking_score>
-7.16959467490039

> <r_i_glide_ligand_efficiency>
-0.298733111454183

> <r_i_glide_ligand_efficiency_sa>
-0.861695402349943

> <r_i_glide_ligand_efficiency_ln>
-1.71601299696594

> <r_i_glide_gscore>
-7.16959467490039

> <r_i_glide_lipo>
-4.75982260491572

> <r_i_glide_hbond>
-0.0509389587242869

> <r_i_glide_metal>
0

> <r_i_glide_rewards>
-2.03293684485523

> <r_i_glide_evdw>
-21.672721862793

> <r_i_glide_ecoul>
-3.33666753768921

> <r_i_glide_erotb>
1.25823995738788

> <r_i_glide_esite>
0

> <r_i_glide_emodel>
-28.7476691125112

> <r_i_glide_energy>
-25.0093894004822

> <r_i_glide_einternal>
11.8975353240967

> <i_i_glide_confnum>
138

> <i_i_glide_posenum>
72

> <r_i_glide_eff_state_penalty>
0

> <s_user_duplicate_titles>
CHEMBL2039_lig2232

> <s_m_subgroup_title>
dock_pv

> <s_m_subgroupid>
dock_pv

> <b_m_subgroup_collapsed>
1

$$$$
CHEMBL2039_lig1552
                    3D
 Schrodinger Suite 2021-1.
 34 36  0  0  1  0            999 V2000
   51.1105  153.2492   28.0909 F   0  0  0  0  0  0
   51.6560  153.9484   27.0711 C   0  0  0  0  0  0
   52.0537  153.2682   25.9184 C   0  0  0  0  0  0
   52.6579  153.9596   24.8681 C   0  0  0  0  0  0
   52.8650  155.3337   24.9756 C   0  0  0  0  0  0
   52.4559  156.0146   26.1204 C   0  0  0  0  0  0
   51.8493  155.3320   27.1844 C   0  0  0  0  0  0
   51.3928  156.0384   28.4646 C   0  0  0  0  0  0
   51.8530  157.4230   28.6022 N   0  0  1  0  0  0
   51.1738  158.0970   29.7030 C   0  0  1  0  0  0
   51.5392  159.5355   29.9597 C   0  0  0  0  0  0
   50.1639  159.1981   29.4192 C   0  0  2  0  0  0
   48.9135  159.4190   30.2828 C   0  0  0  0  0  0
   47.6566  159.1444   29.7361 C   0  0  0  0  0  0
   46.5045  159.2819   30.5045 C   0  0  0  0  0  0
   46.6011  159.7326   31.8160 C   0  0  0  0  0  0
   47.8412  160.0210   32.3758 C   0  0  0  0  0  0
   48.9943  159.8568   31.6140 C   0  0  0  0  0  0
   51.9055  152.2017   25.8451 H   0  0  0  0  0  0
   52.9766  153.4287   23.9833 H   0  0  0  0  0  0
   53.3625  155.8763   24.1864 H   0  0  0  0  0  0
   52.6317  157.0736   26.1820 H   0  0  0  0  0  0
   50.3047  155.9855   28.5044 H   0  0  0  0  0  0
   51.7659  155.4492   29.3038 H   0  0  0  0  0  0
   52.8465  157.4358   28.7998 H   0  0  0  0  0  0
   50.8560  157.4438   30.5038 H   0  0  0  0  0  0
   51.7072  159.8440   30.9886 H   0  0  0  0  0  0
   52.2573  160.0151   29.3041 H   0  0  0  0  0  0
   50.0064  159.4440   28.3702 H   0  0  0  0  0  0
   47.5650  158.8164   28.7132 H   0  0  0  0  0  0
   45.5340  159.0443   30.0916 H   0  0  0  0  0  0
   45.7054  159.8441   32.4085 H   0  0  0  0  0  0
   47.9120  160.3577   33.4003 H   0  0  0  0  0  0
   49.9400  160.0778   32.0804 H   0  0  0  0  0  0
  1  2  1  0  0  0
  2  3  2  0  0  0
  2  7  1  0  0  0
  3  4  1  0  0  0
  3 19  1  0  0  0
  4  5  2  0  0  0
  4 20  1  0  0  0
  5  6  1  0  0  0
  5 21  1  0  0  0
  6  7  2  0  0  0
  6 22  1  0  0  0
  7  8  1  0  0  0
  8  9  1  0  0  0
  8 23  1  0  0  0
  8 24  1  0  0  0
  9 10  1  0  0  0
  9 25  1  0  0  0
 10 11  1  0  0  0
 10 12  1  0  0  0
 10 26  1  0  0  0
 11 12  1  0  0  0
 11 27  1  0  0  0
 11 28  1  0  0  0
 12 13  1  0  0  0
 12 29  1  0  0  0
 13 14  2  0  0  0
 13 18  1  0  0  0
 14 15  1  0  0  0
 14 30  1  0  0  0
 15 16  2  0  0  0
 15 31  1  0  0  0
 16 17  1  0  0  0
 16 32  1  0  0  0
 17 18  2  0  0  0
 17 33  1  0  0  0
 18 34  1  0  0  0
M  END
> <s_m_entry_id>
10343

> <s_m_entry_name>
dock_pv.379

> <s_m_Source_Path>
/home/csk/Desktop/cluster/DUD-E-result/aofb

> <s_m_Source_File>
dock_pv.maegz

> <i_m_Source_File_Index>
379

> <chembl_id>
CHEMBL3651100

> <chembl_pref_name>
None

> <i_lp_mmshare_version>
53161

> <i_f3d_flags>
0

> <r_lp_tautomer_probability>
1

> <s_lp_Force_Field>
OPLS_2005

> <r_lp_Energy>
21.513262

> <b_lp_Chiralities_Consistent>
1

> <s_lp_Variant>
CHEMBL2039_lig1552-2

> <s_i_glide_gridfile>
glide-grid_1s3b

> <i_i_glide_lignum>
1809

> <i_i_glide_rotatable_bonds>
4

> <r_i_docking_score>
-7.16053053937393

> <r_i_glide_ligand_efficiency>
-0.39780725218744

> <r_i_glide_ligand_efficiency_sa>
-1.04254993171967

> <r_i_glide_ligand_efficiency_ln>
-1.84057745248649

> <r_i_glide_gscore>
-7.16053053937393

> <r_i_glide_lipo>
-3.70444416768371

> <r_i_glide_hbond>
0

> <r_i_glide_metal>
0

> <r_i_glide_rewards>
-3.11384084318182

> <r_i_glide_evdw>
-30.939001083374

> <r_i_glide_ecoul>
0.098482571542263

> <r_i_glide_erotb>
1.18993213992896

> <r_i_glide_esite>
0

> <r_i_glide_emodel>
-39.6357252065601

> <r_i_glide_energy>
-30.8405185118318

> <r_i_glide_einternal>
7.17898178100586

> <i_i_glide_confnum>
157

> <i_i_glide_posenum>
334

> <r_i_glide_eff_state_penalty>
0

> <s_user_duplicate_titles>
CHEMBL2039_lig1552

> <s_m_subgroup_title>
dock_pv

> <s_m_subgroupid>
dock_pv

> <b_m_subgroup_collapsed>
1

$$$$
CHEMBL2039_lig2529 
                    3D
 Schrodinger Suite 2021-1.
 51 53  0  0  1  0            999 V2000
   52.2549  156.5199   27.1260 C   0  0  0  0  0  0
   51.6560  156.2697   28.3641 C   0  0  0  0  0  0
   51.2542  154.9704   28.6538 C   0  0  0  0  0  0
   52.2996  155.5556   26.1326 C   0  0  0  0  0  0
   51.9105  154.2561   26.4318 C   0  0  0  0  0  0
   51.4080  153.9657   27.7029 C   0  0  0  0  0  0
   51.2927  152.4873   27.8882 C   0  0  0  0  0  0
   51.4262  151.9032   26.4817 C   0  0  0  0  0  0
   51.9582  153.0161   25.5676 C   0  0  2  0  0  0
   51.3784  157.2487   29.2960 O   0  0  0  0  0  0
   51.7365  158.5960   29.0160 C   0  0  0  0  0  0
   51.3020  159.5341   30.1430 C   0  0  0  0  0  0
   49.9479  159.1583   30.7597 C   0  0  0  0  0  0
   48.8092  159.4614   29.8920 N   0  0  0  0  0  0
   48.3461  160.8282   30.1475 C   0  0  0  0  0  0
   47.6990  161.0526   31.5380 C   0  0  0  0  0  0
   46.6282  160.0023   31.8638 C   0  0  0  0  0  0
   47.1968  158.6073   31.5784 C   0  0  0  0  0  0
   47.7238  158.5048   30.1352 C   0  0  0  0  0  0
   53.2735  152.7077   25.0051 N   0  0  1  0  0  0
   53.5242  153.3129   23.6994 C   0  0  0  0  0  0
   54.4557  154.4386   23.8553 C   0  0  0  0  0  0
   55.1842  155.4058   24.0003 C   0  0  0  0  0  0
   52.6589  157.4752   26.9039 H   0  0  0  0  0  0
   50.8562  154.7435   29.6312 H   0  0  0  0  0  0
   52.6774  155.8302   25.1641 H   0  0  0  0  0  0
   50.4560  152.1049   28.4529 H   0  0  0  0  0  0
   52.1476  152.2440   28.5033 H   0  0  0  0  0  0
   50.4605  151.5720   26.1040 H   0  0  0  0  0  0
   52.0560  151.0189   26.4625 H   0  0  0  0  0  0
   51.2561  153.1734   24.7562 H   0  0  0  0  0  0
   52.8190  158.6501   28.8981 H   0  0  0  0  0  0
   51.2563  158.9282   28.1039 H   0  0  0  0  0  0
   52.0561  159.5099   30.9237 H   0  0  0  0  0  0
   51.2917  160.5577   29.7696 H   0  0  0  0  0  0
   49.9483  158.0795   30.9041 H   0  0  0  0  0  0
   49.8618  159.5733   31.7636 H   0  0  0  0  0  0
   49.2332  161.4444   30.0824 H   0  0  0  0  0  0
   47.6726  161.1279   29.3453 H   0  0  0  0  0  0
   48.4605  161.1022   32.3167 H   0  0  0  0  0  0
   47.2562  162.0440   31.5492 H   0  0  0  0  0  0
   45.7409  160.1711   31.2514 H   0  0  0  0  0  0
   46.3125  160.0874   32.9037 H   0  0  0  0  0  0
   46.4560  157.8445   31.7039 H   0  0  0  0  0  0
   47.9663  158.3460   32.3037 H   0  0  0  0  0  0
   46.9269  158.6938   29.4141 H   0  0  0  0  0  0
   48.0656  157.4869   29.9434 H   0  0  0  0  0  0
   53.9891  153.0449   25.6416 H   0  0  0  0  0  0
   52.6183  153.6730   23.2099 H   0  0  0  0  0  0
   53.9830  152.5900   23.0279 H   0  0  0  0  0  0
   55.8310  156.2436   24.1040 H   0  0  0  0  0  0
  1  2  2  0  0  0
  1  4  1  0  0  0
  1 24  1  0  0  0
  2  3  1  0  0  0
  2 10  1  0  0  0
  3  6  2  0  0  0
  3 25  1  0  0  0
  4  5  2  0  0  0
  4 26  1  0  0  0
  5  6  1  0  0  0
  5  9  1  0  0  0
  6  7  1  0  0  0
  7  8  1  0  0  0
  7 27  1  0  0  0
  7 28  1  0  0  0
  8  9  1  0  0  0
  8 29  1  0  0  0
  8 30  1  0  0  0
  9 20  1  0  0  0
  9 31  1  0  0  0
 10 11  1  0  0  0
 11 12  1  0  0  0
 11 32  1  0  0  0
 11 33  1  0  0  0
 12 13  1  0  0  0
 12 34  1  0  0  0
 12 35  1  0  0  0
 13 14  1  0  0  0
 13 36  1  0  0  0
 13 37  1  0  0  0
 14 15  1  0  0  0
 14 19  1  0  0  0
 15 16  1  0  0  0
 15 38  1  0  0  0
 15 39  1  0  0  0
 16 17  1  0  0  0
 16 40  1  0  0  0
 16 41  1  0  0  0
 17 18  1  0  0  0
 17 42  1  0  0  0
 17 43  1  0  0  0
 18 19  1  0  0  0
 18 44  1  0  0  0
 18 45  1  0  0  0
 19 46  1  0  0  0
 19 47  1  0  0  0
 20 21  1  0  0  0
 20 48  1  0  0  0
 21 22  1  0  0  0
 21 49  1  0  0  0
 21 50  1  0  0  0
 22 23  3  0  0  0
 23 51  1  0  0  0
M  END
> <s_m_entry_id>
10344

> <s_m_entry_name>
dock_pv.380

> <s_m_Source_Path>
/home/csk/Desktop/cluster/DUD-E-result/aofb

> <s_m_Source_File>
dock_pv.maegz

> <i_m_Source_File_Index>
380

> <chembl_id>
CHEMBL4545912

> <chembl_pref_name>
None

> <i_lp_mmshare_version>
53161

> <i_f3d_flags>
0

> <r_lp_tautomer_probability>
1

> <s_lp_Force_Field>
OPLS_2005

> <r_lp_Energy>
37.766477

> <b_lp_Chiralities_Consistent>
1

> <s_lp_Variant>
CHEMBL2039_lig2529 -2

> <s_i_glide_gridfile>
glide-grid_1s3b

> <i_i_glide_lignum>
2933

> <i_i_glide_rotatable_bonds>
8

> <r_i_docking_score>
-7.15935541605585

> <r_i_glide_ligand_efficiency>
-0.311276322437211

> <r_i_glide_ligand_efficiency_sa>
-0.885228454063604

> <r_i_glide_ligand_efficiency_ln>
-1.73119705704807

> <r_i_glide_gscore>
-7.15935541605585

> <r_i_glide_lipo>
-4.7574328848527

> <r_i_glide_hbond>
-0.218656327184731

> <r_i_glide_metal>
0

> <r_i_glide_rewards>
-2.04542096339352

> <r_i_glide_evdw>
-24.9031543731689

> <r_i_glide_ecoul>
-1.48995041847229

> <r_i_glide_erotb>
1.33080504080439

> <r_i_glide_esite>
0

> <r_i_glide_emodel>
-24.1046840007851

> <r_i_glide_energy>
-26.3931047916412

> <r_i_glide_einternal>
11.2956762313843

> <i_i_glide_confnum>
53

> <i_i_glide_posenum>
254

> <r_i_glide_eff_state_penalty>
0

> <s_user_duplicate_titles>
CHEMBL2039_lig2529 

> <s_m_subgroup_title>
dock_pv

> <s_m_subgroupid>
dock_pv

> <b_m_subgroup_collapsed>
1

$$$$
CHEMBL2039_lig185
                    3D
 Schrodinger Suite 2021-1.
 31 34  0  0  1  0            999 V2000
   51.6560  155.1052   27.7631 C   0  0  0  0  0  0
   52.3971  155.7831   26.8108 C   0  0  0  0  0  0
   51.6449  153.6666   27.4291 C   0  0  0  0  0  0
   52.8527  157.0423   27.0201 N   0  0  0  0  0  0
   52.2683  153.5964   26.0980 C   0  0  0  0  0  0
   52.6991  154.8627   25.7034 C   0  0  0  0  0  0
   52.4214  157.7180   28.1015 N   0  0  0  0  0  0
   51.1286  155.8314   28.8318 C   0  0  0  0  0  0
   51.4526  157.2022   28.9040 C   0  0  0  0  0  0
   47.8591  161.4440   32.9945 N   0  0  0  0  0  0
   48.4610  160.7952   32.2522 C   0  0  0  0  0  0
   51.2539  152.7245   28.1040 O   0  0  0  0  0  0
   50.6820  158.2046   29.7039 C   0  0  0  0  0  0
   51.2178  159.4453   30.0897 C   0  0  0  0  0  0
   49.3745  157.9086   30.1040 C   0  0  0  0  0  0
   49.2086  159.9651   31.3240 C   0  0  0  0  0  0
   48.6365  158.7722   30.8989 C   0  0  0  0  0  0
   50.4927  160.3190   30.9026 C   0  0  0  0  0  0
   52.5476  152.4697   25.3267 C   0  0  0  0  0  0
   53.4166  155.0051   24.5152 C   0  0  0  0  0  0
   53.2558  152.6161   24.1371 C   0  0  0  0  0  0
   53.6764  153.8779   23.7297 C   0  0  0  0  0  0
   50.4588  155.3657   29.5398 H   0  0  0  0  0  0
   52.2250  159.7139   29.8038 H   0  0  0  0  0  0
   48.9193  156.9659   29.8405 H   0  0  0  0  0  0
   47.6425  158.4818   31.2131 H   0  0  0  0  0  0
   50.9505  161.2429   31.2302 H   0  0  0  0  0  0
   52.2447  151.4832   25.6490 H   0  0  0  0  0  0
   53.8089  155.9675   24.2222 H   0  0  0  0  0  0
   53.4832  151.7522   23.5312 H   0  0  0  0  0  0
   54.2516  153.9749   22.8227 H   0  0  0  0  0  0
  1  2  2  0  0  0
  1  3  1  0  0  0
  1  8  1  0  0  0
  2  4  1  0  0  0
  2  6  1  0  0  0
  3  5  1  0  0  0
  3 12  2  0  0  0
  4  7  2  0  0  0
  5 19  1  0  0  0
  5  6  2  0  0  0
  6 20  1  0  0  0
  7  9  1  0  0  0
  8  9  2  0  0  0
  8 23  1  0  0  0
  9 13  1  0  0  0
 10 11  3  0  0  0
 11 16  1  0  0  0
 13 14  2  0  0  0
 13 15  1  0  0  0
 14 18  1  0  0  0
 14 24  1  0  0  0
 15 17  2  0  0  0
 15 25  1  0  0  0
 16 17  1  0  0  0
 16 18  2  0  0  0
 17 26  1  0  0  0
 18 27  1  0  0  0
 19 21  2  0  0  0
 19 28  1  0  0  0
 20 22  2  0  0  0
 20 29  1  0  0  0
 21 22  1  0  0  0
 21 30  1  0  0  0
 22 31  1  0  0  0
M  END
> <s_m_entry_id>
10345

> <s_m_entry_name>
dock_pv.381

> <s_m_Source_Path>
/home/csk/Desktop/cluster/DUD-E-result/aofb

> <s_m_Source_File>
dock_pv.maegz

> <i_m_Source_File_Index>
381

> <chembl_id>
CHEMBL339429

> <chembl_pref_name>
None

> <i_lp_mmshare_version>
53161

> <i_f3d_flags>
0

> <r_lp_tautomer_probability>
1

> <s_lp_Force_Field>
OPLS_2005

> <r_lp_Energy>
44.013442

> <b_lp_Chiralities_Consistent>
1

> <s_lp_Variant>
CHEMBL2039_lig185-1

> <s_i_glide_gridfile>
glide-grid_1s3b

> <i_i_glide_lignum>
226

> <i_i_glide_rotatable_bonds>
1

> <r_i_docking_score>
-7.15811167109192

> <r_i_glide_ligand_efficiency>
-0.32536871232236

> <r_i_glide_ligand_efficiency_sa>
-0.911695927952587

> <r_i_glide_ligand_efficiency_ln>
-1.74970359088204

> <r_i_glide_gscore>
-7.15811167109192

> <r_i_glide_lipo>
-3.46818393681535

> <r_i_glide_hbond>
0

> <r_i_glide_metal>
0

> <r_i_glide_rewards>
-2.96596775794321

> <r_i_glide_evdw>
-20.5854473114014

> <r_i_glide_ecoul>
0.53112006187439

> <r_i_glide_erotb>
0.225644379955558

> <r_i_glide_esite>
0

> <r_i_glide_emodel>
-34.934557219768

> <r_i_glide_energy>
-20.054327249527

> <r_i_glide_einternal>
0.343650639057159

> <i_i_glide_confnum>
4

> <i_i_glide_posenum>
47

> <r_i_glide_eff_state_penalty>
0

> <s_user_duplicate_titles>
CHEMBL2039_lig185

> <s_m_subgroup_title>
dock_pv

> <s_m_subgroupid>
dock_pv

> <b_m_subgroup_collapsed>
1

$$$$
CHEMBL2039_lig519
                    3D
 Schrodinger Suite 2021-1.
 32 34  0  0  1  0            999 V2000
   51.4657  155.0389   29.0301 C   0  0  0  0  0  0
   51.2560  156.3147   28.2240 C   0  0  2  0  0  0
   52.1097  156.1774   26.9449 C   0  0  0  0  0  0
   52.0560  154.8566   26.2926 C   0  0  0  0  0  0
   52.6868  154.6508   25.0564 C   0  0  0  0  0  0
   52.8824  153.3643   24.5656 C   0  0  0  0  0  0
   52.4560  152.2702   25.3129 C   0  0  0  0  0  0
   51.7581  152.4686   26.5076 C   0  0  0  0  0  0
   51.6046  153.7545   27.0243 C   0  0  0  0  0  0
   51.0343  153.8847   28.2798 O   0  0  0  0  0  0
   52.8559  157.0440   26.5040 O   0  0  0  0  0  0
   51.5774  157.6924   28.9040 C   0  0  0  0  0  0
   50.5267  158.4576   29.7040 C   0  0  0  0  0  0
   49.3094  157.9037   30.1040 C   0  0  0  0  0  0
   48.4098  158.6440   30.8703 C   0  0  0  0  0  0
   48.7460  159.9317   31.2758 C   0  0  0  0  0  0
   49.9664  160.4858   30.9036 C   0  0  0  0  0  0
   50.8439  159.7604   30.1042 C   0  0  0  0  0  0
   47.6565  160.8377   32.2624 Cl  0  0  0  0  0  0
   53.6523  153.1318   23.0403 Cl  0  0  0  0  0  0
   52.5112  155.0440   29.3040 H   0  0  0  0  0  0
   50.8708  155.0462   29.9456 H   0  0  0  0  0  0
   50.2125  156.2440   27.9953 H   0  0  0  0  0  0
   53.0817  155.4880   24.4998 H   0  0  0  0  0  0
   52.6072  151.2684   24.9386 H   0  0  0  0  0  0
   51.3799  151.6223   27.0613 H   0  0  0  0  0  0
   51.8645  158.4312   28.1551 H   0  0  0  0  0  0
   52.4560  157.5684   29.5156 H   0  0  0  0  0  0
   49.0581  156.8864   29.8426 H   0  0  0  0  0  0
   47.4686  158.2093   31.1730 H   0  0  0  0  0  0
   50.2427  161.4668   31.2497 H   0  0  0  0  0  0
   51.7946  160.1962   29.8327 H   0  0  0  0  0  0
  1 10  1  0  0  0
  1  2  1  0  0  0
  1 21  1  0  0  0
  1 22  1  0  0  0
  2  3  1  0  0  0
  2 12  1  0  0  0
  2 23  1  0  0  0
  3  4  1  0  0  0
  3 11  2  0  0  0
  4  5  1  0  0  0
  4  9  2  0  0  0
  5  6  2  0  0  0
  5 24  1  0  0  0
  6  7  1  0  0  0
  6 20  1  0  0  0
  7  8  2  0  0  0
  7 25  1  0  0  0
  8  9  1  0  0  0
  8 26  1  0  0  0
  9 10  1  0  0  0
 12 13  1  0  0  0
 12 27  1  0  0  0
 12 28  1  0  0  0
 13 14  1  0  0  0
 13 18  2  0  0  0
 14 15  2  0  0  0
 14 29  1  0  0  0
 15 16  1  0  0  0
 15 30  1  0  0  0
 16 17  2  0  0  0
 16 19  1  0  0  0
 17 18  1  0  0  0
 17 31  1  0  0  0
 18 32  1  0  0  0
M  END
> <s_m_entry_id>
10346

> <s_m_entry_name>
dock_pv.382

> <s_m_Source_Path>
/home/csk/Desktop/cluster/DUD-E-result/aofb

> <s_m_Source_File>
dock_pv.maegz

> <i_m_Source_File_Index>
382

> <chembl_id>
CHEMBL1766625

> <chembl_pref_name>
None

> <i_lp_mmshare_version>
53161

> <i_f3d_flags>
0

> <r_lp_tautomer_probability>
0.99995

> <s_lp_Force_Field>
OPLS_2005

> <r_lp_Energy>
17.35484

> <b_lp_Chiralities_Consistent>
1

> <s_lp_Variant>
CHEMBL2039_lig519-1

> <s_i_glide_gridfile>
glide-grid_1s3b

> <i_i_glide_lignum>
619

> <i_i_glide_rotatable_bonds>
2

> <r_i_docking_score>
-7.15682069927743

> <r_i_glide_ligand_efficiency>
-0.357841034963872

> <r_i_glide_ligand_efficiency_sa>
-0.971330008276539

> <r_i_glide_ligand_efficiency_ln>
-1.79111617328451

> <r_i_glide_gscore>
-7.15682069927743

> <r_i_glide_lipo>
-4.05791510710908

> <r_i_glide_hbond>
0

> <r_i_glide_metal>
0

> <r_i_glide_rewards>
-2.56846867141961

> <r_i_glide_evdw>
-17.7491512298584

> <r_i_glide_ecoul>
-0.231714397668839

> <r_i_glide_erotb>
0.391777800394496

> <r_i_glide_esite>
0

> <r_i_glide_emodel>
-22.6804473592586

> <r_i_glide_energy>
-17.9808656275272

> <r_i_glide_einternal>
4.55760335922241

> <i_i_glide_confnum>
11

> <i_i_glide_posenum>
305

> <r_i_glide_eff_state_penalty>
0

> <s_user_duplicate_titles>
CHEMBL2039_lig519

> <s_m_subgroup_title>
dock_pv

> <s_m_subgroupid>
dock_pv

> <b_m_subgroup_collapsed>
1

$$$$
CHEMBL2039_lig718
                    3D
 Schrodinger Suite 2021-1.
 30 32  0  0  1  0            999 V2000
   52.6188  155.8408   25.9419 C   0  0  0  0  0  0
   52.4560  156.6523   27.0610 N   0  0  0  0  0  0
   51.5820  156.0745   27.9479 C   0  0  0  0  0  0
   51.4874  154.7004   27.5238 C   0  0  0  0  0  0
   52.0560  154.6631   26.2939 N   0  0  0  0  0  0
   50.9331  153.7681   28.1039 O   0  0  0  0  0  0
   52.0564  153.4241   25.5157 C   0  0  0  0  0  0
   53.2213  156.2162   24.9039 N   0  0  0  0  0  0
   50.8561  156.5986   28.9607 C   0  0  0  0  0  0
   51.7136  159.9629   30.0773 N   0  0  0  0  0  0
   51.9046  158.8493   29.3040 C   0  0  0  0  0  0
   50.8543  157.9844   29.4191 C   0  0  0  0  0  0
   49.8221  158.7546   30.1040 C   0  0  0  0  0  0
   48.4631  158.5613   30.4351 C   0  0  0  0  0  0
   48.4600  160.6440   31.6795 C   0  0  0  0  0  0
   49.8074  160.8624   31.4233 C   0  0  0  0  0  0
   50.4426  159.9551   30.5764 C   0  0  0  0  0  0
   47.7878  159.5462   31.1626 C   0  0  0  0  0  0
   45.9127  159.4440   31.4458 Br  0  0  0  0  0  0
   52.7754  157.6080   27.1051 H   0  0  0  0  0  0
   51.1547  152.8405   25.7040 H   0  0  0  0  0  0
   52.1052  153.6247   24.4445 H   0  0  0  0  0  0
   52.9178  152.8130   25.7880 H   0  0  0  0  0  0
   53.2806  155.4785   24.2178 H   0  0  0  0  0  0
   50.1759  155.9576   29.5057 H   0  0  0  0  0  0
   52.4442  160.6330   30.2663 H   0  0  0  0  0  0
   52.8822  158.6440   28.9040 H   0  0  0  0  0  0
   47.9333  157.6842   30.1040 H   0  0  0  0  0  0
   47.9156  161.3596   32.2786 H   0  0  0  0  0  0
   50.3234  161.7147   31.8384 H   0  0  0  0  0  0
  1  2  1  0  0  0
  1  5  1  0  0  0
  1  8  2  0  0  0
  2  3  1  0  0  0
  2 20  1  0  0  0
  3  4  1  0  0  0
  3  9  2  0  0  0
  4  5  1  0  0  0
  4  6  2  0  0  0
  5  7  1  0  0  0
  7 21  1  0  0  0
  7 22  1  0  0  0
  7 23  1  0  0  0
  8 24  1  0  0  0
  9 12  1  0  0  0
  9 25  1  0  0  0
 10 11  1  0  0  0
 10 17  1  0  0  0
 10 26  1  0  0  0
 11 12  2  0  0  0
 11 27  1  0  0  0
 12 13  1  0  0  0
 13 14  1  0  0  0
 13 17  2  0  0  0
 14 18  2  0  0  0
 14 28  1  0  0  0
 15 18  1  0  0  0
 15 16  2  0  0  0
 15 29  1  0  0  0
 16 17  1  0  0  0
 16 30  1  0  0  0
 18 19  1  0  0  0
M  END
> <s_m_entry_id>
10347

> <s_m_entry_name>
dock_pv.383

> <s_m_Source_Path>
/home/csk/Desktop/cluster/DUD-E-result/aofb

> <s_m_Source_File>
dock_pv.maegz

> <i_m_Source_File_Index>
383

> <chembl_id>
CHEMBL2058412

> <chembl_pref_name>
None

> <i_lp_mmshare_version>
53161

> <i_f3d_flags>
0

> <r_lp_tautomer_probability>
0.0958747927031509

> <s_lp_Force_Field>
OPLS_2005

> <r_lp_Energy>
18.766115

> <b_lp_Chiralities_Consistent>
1

> <s_lp_Variant>
CHEMBL2039_lig718-2

> <s_i_glide_gridfile>
glide-grid_1s3b

> <i_i_glide_lignum>
846

> <i_i_glide_rotatable_bonds>
1

> <r_i_docking_score>
-7.15504892132092

> <r_i_glide_ligand_efficiency>
-0.376581522174785

> <r_i_glide_ligand_efficiency_sa>
-1.00487075366316

> <r_i_glide_ligand_efficiency_ln>
-1.81395857791492

> <r_i_glide_gscore>
-7.15504892132092

> <r_i_glide_lipo>
-3.3792794534942

> <r_i_glide_hbond>
0

> <r_i_glide_metal>
0

> <r_i_glide_rewards>
-2.11857615279758

> <r_i_glide_evdw>
-27.0927562713623

> <r_i_glide_ecoul>
-2.01703667640686

> <r_i_glide_erotb>
0

> <r_i_glide_esite>
0

> <r_i_glide_emodel>
-29.4220449534162

> <r_i_glide_energy>
-29.1097929477692

> <r_i_glide_einternal>
0.320819884538651

> <i_i_glide_confnum>
1

> <i_i_glide_posenum>
49

> <r_i_glide_eff_state_penalty>
0

> <s_user_duplicate_titles>
CHEMBL2039_lig718

> <s_m_subgroup_title>
dock_pv

> <s_m_subgroupid>
dock_pv

> <b_m_subgroup_collapsed>
1

$$$$
CHEMBL2039_lig1723
                    3D
 Schrodinger Suite 2021-1.
 29 31  0  0  1  0            999 V2000
   52.3684  156.2608   25.7608 O   0  0  0  0  0  0
   51.2588  153.7952   28.8746 O   0  0  0  0  0  0
   49.4370  158.2437   30.1057 N   0  0  0  0  0  0
   52.0278  154.0307   26.6525 C   0  0  0  0  0  0
   51.5699  154.5679   27.9710 C   0  0  0  0  0  0
   51.6019  156.0428   28.1188 C   0  0  0  0  0  0
   52.4736  154.8951   25.6494 C   0  0  0  0  0  0
   52.4559  156.7978   27.0970 C   0  0  0  0  0  0
   50.8561  156.5884   29.1201 C   0  0  0  0  0  0
   52.1432  152.6436   26.4440 C   0  0  0  0  0  0
   53.0885  154.3880   24.5006 C   0  0  0  0  0  0
   50.6731  157.9899   29.5930 C   0  0  0  0  0  0
   52.8061  152.1399   25.3260 C   0  0  0  0  0  0
   53.2570  153.0149   24.3442 C   0  0  0  0  0  0
   51.6550  158.9866   29.5497 C   0  0  0  0  0  0
   49.1723  159.4673   30.6238 C   0  0  0  0  0  0
   51.3799  160.2378   30.1061 C   0  0  0  0  0  0
   50.1232  160.4847   30.6588 C   0  0  0  0  0  0
   52.1272  157.8347   27.0616 H   0  0  0  0  0  0
   53.4968  156.8226   27.4127 H   0  0  0  0  0  0
   50.2756  155.8973   29.7173 H   0  0  0  0  0  0
   51.7608  151.9523   27.1792 H   0  0  0  0  0  0
   53.4693  155.0233   23.7142 H   0  0  0  0  0  0
   52.9238  151.0728   25.1948 H   0  0  0  0  0  0
   53.7409  152.6384   23.4549 H   0  0  0  0  0  0
   52.6378  158.7850   29.1570 H   0  0  0  0  0  0
   48.1833  159.6171   31.0338 H   0  0  0  0  0  0
   52.1405  161.0038   30.1264 H   0  0  0  0  0  0
   49.8935  161.4381   31.1083 H   0  0  0  0  0  0
  1  7  1  0  0  0
  1  8  1  0  0  0
  2  5  2  0  0  0
  3 12  1  0  0  0
  3 16  2  0  0  0
  4  5  1  0  0  0
  4  7  1  0  0  0
  4 10  2  0  0  0
  5  6  1  0  0  0
  6  8  1  0  0  0
  6  9  2  0  0  0
  7 11  2  0  0  0
  8 19  1  0  0  0
  8 20  1  0  0  0
  9 12  1  0  0  0
  9 21  1  0  0  0
 10 13  1  0  0  0
 10 22  1  0  0  0
 11 14  1  0  0  0
 11 23  1  0  0  0
 12 15  2  0  0  0
 13 14  2  0  0  0
 13 24  1  0  0  0
 14 25  1  0  0  0
 15 17  1  0  0  0
 15 26  1  0  0  0
 16 18  1  0  0  0
 16 27  1  0  0  0
 17 18  2  0  0  0
 17 28  1  0  0  0
 18 29  1  0  0  0
M  END
> <s_m_entry_id>
10348

> <s_m_entry_name>
dock_pv.384

> <s_m_Source_Path>
/home/csk/Desktop/cluster/DUD-E-result/aofb

> <s_m_Source_File>
dock_pv.maegz

> <i_m_Source_File_Index>
384

> <chembl_id>
CHEMBL1483268

> <chembl_pref_name>
None

> <i_lp_mmshare_version>
53161

> <i_f3d_flags>
0

> <r_lp_tautomer_probability>
1

> <s_lp_Force_Field>
OPLS_2005

> <r_lp_Energy>
15.112572

> <b_lp_Chiralities_Consistent>
1

> <s_lp_Variant>
CHEMBL2039_lig1723-1

> <s_i_glide_gridfile>
glide-grid_1s3b

> <i_i_glide_lignum>
2011

> <i_i_glide_rotatable_bonds>
1

> <r_i_docking_score>
-7.1539837268224

> <r_i_glide_ligand_efficiency>
-0.397443540379022

> <r_i_glide_ligand_efficiency_sa>
-1.0415967371287

> <r_i_glide_ligand_efficiency_ln>
-1.8388946280782

> <r_i_glide_gscore>
-7.1539837268224

> <r_i_glide_lipo>
-3.19263712354161

> <r_i_glide_hbond>
0

> <r_i_glide_metal>
0

> <r_i_glide_rewards>
-2.90173651920903

> <r_i_glide_evdw>
-21.3927135467529

> <r_i_glide_ecoul>
0.0668372884392738

> <r_i_glide_erotb>
0

> <r_i_glide_esite>
0

> <r_i_glide_emodel>
-27.3043418828267

> <r_i_glide_energy>
-21.3258762583137

> <r_i_glide_einternal>
3.01587605476379

> <i_i_glide_confnum>
1

> <i_i_glide_posenum>
75

> <r_i_glide_eff_state_penalty>
0

> <s_user_duplicate_titles>
CHEMBL2039_lig1723

> <s_m_subgroup_title>
dock_pv

> <s_m_subgroupid>
dock_pv

> <b_m_subgroup_collapsed>
1

$$$$
CHEMBL2039_lig2642 
                    3D
 Schrodinger Suite 2021-1.
 34 36  0  0  1  0            999 V2000
   51.2560  153.3173   28.5140 O   0  0  0  0  0  0
   51.5885  154.1273   27.6574 C   0  0  0  0  0  0
   52.0566  153.6176   26.3415 C   0  0  0  0  0  0
   52.1642  152.2409   26.1040 C   0  0  0  0  0  0
   52.8527  151.7557   24.9917 C   0  0  0  0  0  0
   53.2560  152.6435   24.0087 C   0  0  0  0  0  0
   53.1766  154.0098   24.2307 C   0  0  0  0  0  0
   52.5947  154.5003   25.4000 C   0  0  0  0  0  0
   52.6659  155.8559   25.6412 O   0  0  0  0  0  0
   52.1645  156.3278   26.8153 C   0  0  0  0  0  0
   51.6112  155.6030   27.8186 C   0  0  0  0  0  0
   50.8565  156.2440   28.9040 C   0  0  0  0  0  0
   51.1379  157.5511   29.2257 N   0  0  0  0  0  0
   50.3421  158.5038   29.9544 C   0  0  0  0  0  0
   49.0086  158.2440   30.3452 C   0  0  0  0  0  0
   48.2620  159.1582   31.0826 C   0  0  0  0  0  0
   48.8336  160.3597   31.4738 C   0  0  0  0  0  0
   50.1447  160.6441   31.1122 C   0  0  0  0  0  0
   50.8972  159.7507   30.3445 C   0  0  0  0  0  0
   49.9327  155.6268   29.4284 O   0  0  0  0  0  0
   52.3343  160.1594   30.0671 C   0  0  0  0  0  0
   51.7499  151.5319   26.8088 H   0  0  0  0  0  0
   52.9514  150.6909   24.8370 H   0  0  0  0  0  0
   53.6895  152.2692   23.0942 H   0  0  0  0  0  0
   53.6348  154.6440   23.5019 H   0  0  0  0  0  0
   52.1845  157.4091   26.7997 H   0  0  0  0  0  0
   52.0335  157.9012   28.9239 H   0  0  0  0  0  0
   48.5079  157.3228   30.1040 H   0  0  0  0  0  0
   47.2462  158.9240   31.3657 H   0  0  0  0  0  0
   48.2685  161.0639   32.0665 H   0  0  0  0  0  0
   50.5904  161.5659   31.4554 H   0  0  0  0  0  0
   52.8848  160.2440   31.0051 H   0  0  0  0  0  0
   52.8537  159.4624   29.4105 H   0  0  0  0  0  0
   52.3654  161.1518   29.6222 H   0  0  0  0  0  0
  1  2  2  0  0  0
  2  3  1  0  0  0
  2 11  1  0  0  0
  3  4  2  0  0  0
  3  8  1  0  0  0
  4  5  1  0  0  0
  4 22  1  0  0  0
  5  6  2  0  0  0
  5 23  1  0  0  0
  6  7  1  0  0  0
  6 24  1  0  0  0
  7  8  2  0  0  0
  7 25  1  0  0  0
  8  9  1  0  0  0
  9 10  1  0  0  0
 10 11  2  0  0  0
 10 26  1  0  0  0
 11 12  1  0  0  0
 12 13  1  0  0  0
 12 20  2  0  0  0
 13 14  1  0  0  0
 13 27  1  0  0  0
 14 15  2  0  0  0
 14 19  1  0  0  0
 15 16  1  0  0  0
 15 28  1  0  0  0
 16 17  2  0  0  0
 16 29  1  0  0  0
 17 18  1  0  0  0
 17 30  1  0  0  0
 18 19  2  0  0  0
 18 31  1  0  0  0
 19 21  1  0  0  0
 21 32  1  0  0  0
 21 33  1  0  0  0
 21 34  1  0  0  0
M  END
> <s_m_entry_id>
10349

> <s_m_entry_name>
dock_pv.385

> <s_m_Source_Path>
/home/csk/Desktop/cluster/DUD-E-result/aofb

> <s_m_Source_File>
dock_pv.maegz

> <i_m_Source_File_Index>
385

> <chembl_id>
CHEMBL4557483

> <chembl_pref_name>
None

> <i_lp_mmshare_version>
53161

> <i_f3d_flags>
0

> <r_lp_tautomer_probability>
1

> <s_lp_Force_Field>
OPLS_2005

> <r_lp_Energy>
25.275716

> <b_lp_Chiralities_Consistent>
1

> <s_lp_Variant>
CHEMBL2039_lig2642 -1

> <s_i_glide_gridfile>
glide-grid_1s3b

> <i_i_glide_lignum>
3061

> <i_i_glide_rotatable_bonds>
3

> <r_i_docking_score>
-7.15182504355977

> <r_i_glide_ligand_efficiency>
-0.34056309731237

> <r_i_glide_ligand_efficiency_sa>
-0.939587761804802

> <r_i_glide_ligand_efficiency_ln>
-1.76827429039691

> <r_i_glide_gscore>
-7.15182504355977

> <r_i_glide_lipo>
-4.05164714505344

> <r_i_glide_hbond>
0

> <r_i_glide_metal>
0

> <r_i_glide_rewards>
-2.50802442623501

> <r_i_glide_evdw>
-20.8062934875488

> <r_i_glide_ecoul>
-1.63787114620209

> <r_i_glide_erotb>
0.693841874036436

> <r_i_glide_esite>
0

> <r_i_glide_emodel>
-23.3187123128353

> <r_i_glide_energy>
-22.4441646337509

> <r_i_glide_einternal>
5.51165151596069

> <i_i_glide_confnum>
11

> <i_i_glide_posenum>
164

> <r_i_glide_eff_state_penalty>
0

> <s_user_duplicate_titles>
CHEMBL2039_lig2642 

> <s_m_subgroup_title>
dock_pv

> <s_m_subgroupid>
dock_pv

> <b_m_subgroup_collapsed>
1

$$$$
CHEMBL2039_lig199
                    3D
 Schrodinger Suite 2021-1.
 33 36  0  0  1  0            999 V2000
   51.2751  155.4544   28.1025 C   0  0  0  0  0  0
   52.1095  156.1984   27.2935 C   0  0  0  0  0  0
   51.3093  154.0565   27.6031 C   0  0  0  0  0  0
   52.5091  157.4440   27.6253 N   0  0  0  0  0  0
   52.0560  154.1173   26.3344 C   0  0  0  0  0  0
   52.4968  155.4149   26.1135 C   0  0  0  0  0  0
   51.8819  158.0875   28.6195 N   0  0  0  0  0  0
   50.6132  156.1199   29.1460 C   0  0  0  0  0  0
   50.8560  157.5153   29.3040 C   0  0  0  0  0  0
   49.9658  158.4673   30.1040 C   0  0  0  0  0  0
   50.8560  153.0439   28.1040 O   0  0  0  0  0  0
   50.3152  159.7859   30.5373 C   0  0  0  0  0  0
   52.4109  153.0797   25.4689 C   0  0  0  0  0  0
   53.3081  155.6923   25.0103 C   0  0  0  0  0  0
   48.6647  158.0359   30.4343 C   0  0  0  0  0  0
   51.6890  160.4237   30.3508 C   0  0  0  0  0  0
   49.3987  160.5568   31.2665 C   0  0  0  0  0  0
   53.7246  154.6440   24.1810 C   0  0  0  0  0  0
   53.2560  153.3473   24.3927 C   0  0  0  0  0  0
   47.7569  158.8193   31.1390 C   0  0  0  0  0  0
   48.1274  160.0847   31.5624 C   0  0  0  0  0  0
   49.8698  155.5947   29.7228 H   0  0  0  0  0  0
   52.0828  152.0659   25.6500 H   0  0  0  0  0  0
   53.7007  156.6845   24.8503 H   0  0  0  0  0  0
   48.3215  157.0688   30.1040 H   0  0  0  0  0  0
   52.4560  159.8440   30.8549 H   0  0  0  0  0  0
   51.9575  160.4978   29.3040 H   0  0  0  0  0  0
   51.7421  161.4341   30.7586 H   0  0  0  0  0  0
   49.6775  161.5331   31.6332 H   0  0  0  0  0  0
   54.4156  154.8342   23.3721 H   0  0  0  0  0  0
   53.5712  152.5468   23.7390 H   0  0  0  0  0  0
   46.7683  158.4434   31.3559 H   0  0  0  0  0  0
   47.4354  160.6962   32.1227 H   0  0  0  0  0  0
  1  2  2  0  0  0
  1  3  1  0  0  0
  1  8  1  0  0  0
  2  4  1  0  0  0
  2  6  1  0  0  0
  3  5  1  0  0  0
  3 11  2  0  0  0
  4  7  2  0  0  0
  5 13  1  0  0  0
  5  6  2  0  0  0
  6 14  1  0  0  0
  7  9  1  0  0  0
  8  9  2  0  0  0
  8 22  1  0  0  0
  9 10  1  0  0  0
 10 12  1  0  0  0
 10 15  2  0  0  0
 12 16  1  0  0  0
 12 17  2  0  0  0
 13 19  2  0  0  0
 13 23  1  0  0  0
 14 18  2  0  0  0
 14 24  1  0  0  0
 15 20  1  0  0  0
 15 25  1  0  0  0
 16 26  1  0  0  0
 16 27  1  0  0  0
 16 28  1  0  0  0
 17 21  1  0  0  0
 17 29  1  0  0  0
 18 19  1  0  0  0
 18 30  1  0  0  0
 19 31  1  0  0  0
 20 21  2  0  0  0
 20 32  1  0  0  0
 21 33  1  0  0  0
M  END
> <s_m_entry_id>
10350

> <s_m_entry_name>
dock_pv.386

> <s_m_Source_Path>
/home/csk/Desktop/cluster/DUD-E-result/aofb

> <s_m_Source_File>
dock_pv.maegz

> <i_m_Source_File_Index>
386

> <chembl_id>
CHEMBL339561

> <chembl_pref_name>
None

> <i_lp_mmshare_version>
53161

> <i_f3d_flags>
0

> <r_lp_tautomer_probability>
1

> <s_lp_Force_Field>
OPLS_2005

> <r_lp_Energy>
45.802831

> <b_lp_Chiralities_Consistent>
1

> <s_lp_Variant>
CHEMBL2039_lig199-1

> <s_i_glide_gridfile>
glide-grid_1s3b

> <i_i_glide_lignum>
240

> <i_i_glide_rotatable_bonds>
1

> <r_i_docking_score>
-7.15010441737744

> <r_i_glide_ligand_efficiency>
-0.340481162732259

> <r_i_glide_ligand_efficiency_sa>
-0.939361710511081

> <r_i_glide_ligand_efficiency_ln>
-1.76784886905018

> <r_i_glide_gscore>
-7.15010441737744

> <r_i_glide_lipo>
-4.36875007246731

> <r_i_glide_hbond>
0

> <r_i_glide_metal>
0

> <r_i_glide_rewards>
-2.49720008103941

> <r_i_glide_evdw>
-17.7716598510742

> <r_i_glide_ecoul>
2.4183886051178

> <r_i_glide_erotb>
0.241670437915321

> <r_i_glide_esite>
0

> <r_i_glide_emodel>
-29.110771148245

> <r_i_glide_energy>
-15.3532712459564

> <r_i_glide_einternal>
1.55396485328674

> <i_i_glide_confnum>
3

> <i_i_glide_posenum>
278

> <r_i_glide_eff_state_penalty>
0

> <s_user_duplicate_titles>
CHEMBL2039_lig199

> <s_m_subgroup_title>
dock_pv

> <s_m_subgroupid>
dock_pv

> <b_m_subgroup_collapsed>
1

$$$$
CHEMBL2039_lig1255
                    3D
 Schrodinger Suite 2021-1.
 35 37  0  0  1  0            999 V2000
   51.6560  158.1390   28.5040 O   0  0  0  0  0  0
   47.7524  160.8622   33.2171 Br  0  0  0  0  0  0
   51.2208  158.5058   29.8070 C   0  0  0  0  0  0
   48.0648  160.5378   29.0764 C   0  0  0  0  0  0
   52.4560  156.6193   26.9132 C   0  0  0  0  0  0
   53.2211  155.3111   24.9040 C   0  0  0  0  0  0
   49.2555  159.8440   28.9040 C   0  0  0  0  0  0
   51.9361  152.9411   26.1774 C   0  0  0  0  0  0
   49.5207  159.7264   31.2656 C   0  0  0  0  0  0
   51.2560  151.9946   26.5596 O   0  0  0  0  0  0
   51.8805  154.2835   26.8398 C   0  0  0  0  0  0
   52.8559  154.0410   24.1176 C   0  0  0  0  0  0
   51.2229  154.4449   28.0681 C   0  0  0  0  0  0
   51.7870  156.8050   28.1146 C   0  0  0  0  0  0
   52.9379  152.8087   25.0255 C   0  0  0  0  0  0
   51.1574  155.6922   28.6921 C   0  0  0  0  0  0
   52.4560  155.4120   26.2246 C   0  0  0  0  0  0
   47.5896  160.8211   30.3545 C   0  0  0  0  0  0
   48.3354  160.4301   31.4578 C   0  0  0  0  0  0
   49.9801  159.3851   29.9829 C   0  0  0  0  0  0
   52.0466  159.0430   30.2734 H   0  0  0  0  0  0
   50.9966  157.6265   30.3958 H   0  0  0  0  0  0
   47.5764  160.8915   28.1900 H   0  0  0  0  0  0
   52.9799  157.4440   26.4838 H   0  0  0  0  0  0
   53.0522  156.2089   24.3117 H   0  0  0  0  0  0
   54.2880  155.2863   25.1262 H   0  0  0  0  0  0
   49.6241  159.6458   27.9140 H   0  0  0  0  0  0
   50.0560  159.4440   32.1456 H   0  0  0  0  0  0
   51.8570  154.1563   23.7040 H   0  0  0  0  0  0
   53.5286  153.9160   23.2684 H   0  0  0  0  0  0
   50.7496  153.5995   28.5457 H   0  0  0  0  0  0
   52.7214  151.9119   24.4453 H   0  0  0  0  0  0
   53.9436  152.7801   25.4463 H   0  0  0  0  0  0
   50.5752  155.7659   29.5959 H   0  0  0  0  0  0
   46.6730  161.3762   30.4877 H   0  0  0  0  0  0
  1 14  1  0  0  0
  1  3  1  0  0  0
  2 19  1  0  0  0
  3 20  1  0  0  0
  3 21  1  0  0  0
  3 22  1  0  0  0
  4  7  2  0  0  0
  4 18  1  0  0  0
  4 23  1  0  0  0
  5 14  1  0  0  0
  5 17  2  0  0  0
  5 24  1  0  0  0
  6 17  1  0  0  0
  6 12  1  0  0  0
  6 25  1  0  0  0
  6 26  1  0  0  0
  7 20  1  0  0  0
  7 27  1  0  0  0
  8 11  1  0  0  0
  8 15  1  0  0  0
  8 10  2  0  0  0
  9 20  2  0  0  0
  9 19  1  0  0  0
  9 28  1  0  0  0
 11 13  2  0  0  0
 11 17  1  0  0  0
 12 15  1  0  0  0
 12 29  1  0  0  0
 12 30  1  0  0  0
 13 16  1  0  0  0
 13 31  1  0  0  0
 14 16  2  0  0  0
 15 32  1  0  0  0
 15 33  1  0  0  0
 16 34  1  0  0  0
 18 19  2  0  0  0
 18 35  1  0  0  0
M  END
> <s_m_entry_id>
10351

> <s_m_entry_name>
dock_pv.387

> <s_m_Source_Path>
/home/csk/Desktop/cluster/DUD-E-result/aofb

> <s_m_Source_File>
dock_pv.maegz

> <i_m_Source_File_Index>
387

> <chembl_id>
CHEMBL3288296

> <chembl_pref_name>
None

> <i_lp_mmshare_version>
53161

> <i_f3d_flags>
0

> <r_lp_tautomer_probability>
0.99995

> <s_lp_Force_Field>
OPLS_2005

> <r_lp_Energy>
22.530141

> <b_lp_Chiralities_Consistent>
1

> <s_lp_Variant>
CHEMBL2039_lig1255-1

> <s_i_glide_gridfile>
glide-grid_1s3b

> <i_i_glide_lignum>
1447

> <i_i_glide_rotatable_bonds>
3

> <r_i_docking_score>
-7.14960584937551

> <r_i_glide_ligand_efficiency>
-0.357480292468775

> <r_i_glide_ligand_efficiency_sa>
-0.970350802493773

> <r_i_glide_ligand_efficiency_ln>
-1.78931053431573

> <r_i_glide_gscore>
-7.14960584937551

> <r_i_glide_lipo>
-4.48529116384399

> <r_i_glide_hbond>
0

> <r_i_glide_metal>
0

> <r_i_glide_rewards>
-2.47941308424759

> <r_i_glide_evdw>
-16.4407081604004

> <r_i_glide_ecoul>
0.816578686237335

> <r_i_glide_erotb>
0.514647003800488

> <r_i_glide_esite>
0

> <r_i_glide_emodel>
-18.1211748551351

> <r_i_glide_energy>
-15.6241294741631

> <r_i_glide_einternal>
1.98264706134796

> <i_i_glide_confnum>
2

> <i_i_glide_posenum>
208

> <r_i_glide_eff_state_penalty>
0

> <s_user_duplicate_titles>
CHEMBL2039_lig1255

> <s_m_subgroup_title>
dock_pv

> <s_m_subgroupid>
dock_pv

> <b_m_subgroup_collapsed>
1

$$$$
CHEMBL2039_lig1733
                    3D
 Schrodinger Suite 2021-1.
 33 35  0  0  1  0            999 V2000
   51.4025  154.8058   27.8535 C   0  0  0  0  0  0
   51.4693  156.2231   28.2154 C   0  0  0  0  0  0
   52.4370  156.8962   27.2612 C   0  0  0  0  0  0
   52.6680  155.8549   26.1863 C   0  0  0  0  0  0
   53.4865  155.8751   25.0545 C   0  0  0  0  0  0
   53.7665  154.6778   24.3921 C   0  0  0  0  0  0
   53.0793  153.5074   24.7073 C   0  0  0  0  0  0
   52.1919  153.5034   25.7802 C   0  0  0  0  0  0
   52.0560  154.6629   26.5481 C   0  0  0  0  0  0
   50.8560  153.9274   28.5040 O   0  0  0  0  0  0
   50.6830  156.7281   29.2007 C   0  0  0  0  0  0
   50.5303  158.1176   29.7040 C   0  0  0  0  0  0
   51.5750  159.0458   29.7040 C   0  0  0  0  0  0
   51.4311  160.2926   30.3229 C   0  0  0  0  0  0
   50.2097  160.6367   30.9036 C   0  0  0  0  0  0
   49.1363  159.7522   30.8493 C   0  0  0  0  0  0
   49.2990  158.5020   30.2562 C   0  0  0  0  0  0
   54.7659  154.6439   23.4644 O   0  0  0  0  0  0
   52.6079  161.2472   30.4188 C   0  0  0  0  0  0
   52.0560  157.8437   26.9040 H   0  0  0  0  0  0
   53.3747  157.1226   27.7710 H   0  0  0  0  0  0
   54.0367  156.7647   24.7873 H   0  0  0  0  0  0
   53.2726  152.5922   24.1669 H   0  0  0  0  0  0
   51.7102  152.5795   26.0686 H   0  0  0  0  0  0
   50.0416  156.0200   29.7044 H   0  0  0  0  0  0
   52.5318  158.7724   29.2884 H   0  0  0  0  0  0
   50.0933  161.5803   31.4134 H   0  0  0  0  0  0
   48.1900  160.0218   31.2949 H   0  0  0  0  0  0
   48.4668  157.8129   30.2599 H   0  0  0  0  0  0
   55.0459  153.7346   23.3036 H   0  0  0  0  0  0
   53.5574  160.7341   30.2576 H   0  0  0  0  0  0
   52.5051  162.0638   29.7044 H   0  0  0  0  0  0
   52.6549  161.6831   31.4179 H   0  0  0  0  0  0
  1  2  1  0  0  0
  1  9  1  0  0  0
  1 10  2  0  0  0
  2  3  1  0  0  0
  2 11  2  0  0  0
  3  4  1  0  0  0
  3 20  1  0  0  0
  3 21  1  0  0  0
  4  5  1  0  0  0
  4  9  2  0  0  0
  5  6  2  0  0  0
  5 22  1  0  0  0
  6  7  1  0  0  0
  6 18  1  0  0  0
  7  8  2  0  0  0
  7 23  1  0  0  0
  8  9  1  0  0  0
  8 24  1  0  0  0
 11 12  1  0  0  0
 11 25  1  0  0  0
 12 13  1  0  0  0
 12 17  2  0  0  0
 13 14  2  0  0  0
 13 26  1  0  0  0
 14 15  1  0  0  0
 14 19  1  0  0  0
 15 16  2  0  0  0
 15 27  1  0  0  0
 16 17  1  0  0  0
 16 28  1  0  0  0
 17 29  1  0  0  0
 18 30  1  0  0  0
 19 31  1  0  0  0
 19 32  1  0  0  0
 19 33  1  0  0  0
M  END
> <s_m_entry_id>
10352

> <s_m_entry_name>
dock_pv.388

> <s_m_Source_Path>
/home/csk/Desktop/cluster/DUD-E-result/aofb

> <s_m_Source_File>
dock_pv.maegz

> <i_m_Source_File_Index>
388

> <chembl_id>
CHEMBL3958135

> <chembl_pref_name>
None

> <i_lp_mmshare_version>
53161

> <i_f3d_flags>
0

> <r_lp_tautomer_probability>
1

> <s_lp_Force_Field>
OPLS_2005

> <r_lp_Energy>
24.694747

> <b_lp_Chiralities_Consistent>
1

> <s_lp_Variant>
CHEMBL2039_lig1733-1

> <s_i_glide_gridfile>
glide-grid_1s3b

> <i_i_glide_lignum>
2021

> <i_i_glide_rotatable_bonds>
2

> <r_i_docking_score>
-7.14916509412842

> <r_i_glide_ligand_efficiency>
-0.376271847059391

> <r_i_glide_ligand_efficiency_sa>
-1.00404441607548

> <r_i_glide_ligand_efficiency_ln>
-1.8124669013486

> <r_i_glide_gscore>
-7.14916509412842

> <r_i_glide_lipo>
-3.05154663322437

> <r_i_glide_hbond>
-0.32

> <r_i_glide_metal>
0

> <r_i_glide_rewards>
-2.64528140535351

> <r_i_glide_evdw>
-21.1479721069336

> <r_i_glide_ecoul>
-2.36252617835999

> <r_i_glide_erotb>
0.27944047655014

> <r_i_glide_esite>
0

> <r_i_glide_emodel>
-24.2709201319916

> <r_i_glide_energy>
-23.5104982852936

> <r_i_glide_einternal>
0.98225063085556

> <i_i_glide_confnum>
2

> <i_i_glide_posenum>
181

> <r_i_glide_eff_state_penalty>
0

> <s_user_duplicate_titles>
CHEMBL2039_lig1733

> <s_m_subgroup_title>
dock_pv

> <s_m_subgroupid>
dock_pv

> <b_m_subgroup_collapsed>
1

$$$$
CHEMBL2039_lig1362
                    3D
 Schrodinger Suite 2021-1.
 35 37  0  0  1  0            999 V2000
   51.1878  159.1670   29.7454 C   0  0  0  0  0  0
   51.7315  160.3078   30.3340 C   0  0  0  0  0  0
   51.0172  161.0440   31.2697 C   0  0  0  0  0  0
   49.8851  158.7721   30.1040 C   0  0  0  0  0  0
   49.1591  159.5155   31.0327 C   0  0  0  0  0  0
   49.7263  160.6595   31.6121 C   0  0  0  0  0  0
   49.0708  161.4053   32.5692 O   0  0  0  0  0  0
   47.6557  161.2242   32.5525 C   0  0  0  0  0  0
   47.3080  159.7182   32.4832 C   0  0  0  0  0  0
   47.8642  159.1192   31.3063 O   0  0  0  0  0  0
   52.0236  158.5130   28.8721 O   0  0  0  0  0  0
   51.8706  157.1317   28.6116 C   0  0  0  0  0  0
   52.3959  156.7469   27.2257 C   0  0  0  0  0  0
   52.0560  155.3156   26.8178 C   0  0  0  0  0  0
   51.6560  154.3617   27.7665 C   0  0  0  0  0  0
   51.5356  153.0301   27.4073 C   0  0  0  0  0  0
   51.8153  152.6438   26.1040 C   0  0  0  0  0  0
   52.1769  153.5845   25.1416 C   0  0  0  0  0  0
   52.2907  154.9246   25.4973 C   0  0  0  0  0  0
   52.7407  160.6028   30.0914 H   0  0  0  0  0  0
   51.4675  161.9214   31.7040 H   0  0  0  0  0  0
   49.4149  157.8938   29.7040 H   0  0  0  0  0  0
   47.2152  161.6887   33.4342 H   0  0  0  0  0  0
   47.2561  161.7217   31.6678 H   0  0  0  0  0  0
   47.7210  159.2197   33.3615 H   0  0  0  0  0  0
   46.2275  159.5733   32.4914 H   0  0  0  0  0  0
   50.8554  156.7688   28.7412 H   0  0  0  0  0  0
   52.5180  156.6099   29.3040 H   0  0  0  0  0  0
   53.4796  156.8593   27.2242 H   0  0  0  0  0  0
   52.0560  157.4438   26.4689 H   0  0  0  0  0  0
   51.4935  154.6103   28.8038 H   0  0  0  0  0  0
   51.2542  152.2927   28.1454 H   0  0  0  0  0  0
   51.7458  151.6000   25.8356 H   0  0  0  0  0  0
   52.3902  153.2721   24.1293 H   0  0  0  0  0  0
   52.6144  155.6467   24.7623 H   0  0  0  0  0  0
  1  2  2  0  0  0
  1  4  1  0  0  0
  1 11  1  0  0  0
  2  3  1  0  0  0
  2 20  1  0  0  0
  3  6  2  0  0  0
  3 21  1  0  0  0
  4  5  2  0  0  0
  4 22  1  0  0  0
  5  6  1  0  0  0
  5 10  1  0  0  0
  6  7  1  0  0  0
  7  8  1  0  0  0
  8  9  1  0  0  0
  8 23  1  0  0  0
  8 24  1  0  0  0
  9 10  1  0  0  0
  9 25  1  0  0  0
  9 26  1  0  0  0
 11 12  1  0  0  0
 12 13  1  0  0  0
 12 27  1  0  0  0
 12 28  1  0  0  0
 13 14  1  0  0  0
 13 29  1  0  0  0
 13 30  1  0  0  0
 14 15  2  0  0  0
 14 19  1  0  0  0
 15 16  1  0  0  0
 15 31  1  0  0  0
 16 17  2  0  0  0
 16 32  1  0  0  0
 17 18  1  0  0  0
 17 33  1  0  0  0
 18 19  2  0  0  0
 18 34  1  0  0  0
 19 35  1  0  0  0
M  END
> <s_m_entry_id>
10353

> <s_m_entry_name>
dock_pv.389

> <s_m_Source_Path>
/home/csk/Desktop/cluster/DUD-E-result/aofb

> <s_m_Source_File>
dock_pv.maegz

> <i_m_Source_File_Index>
389

> <chembl_id>
CHEMBL3402198

> <chembl_pref_name>
None

> <i_lp_mmshare_version>
53161

> <i_f3d_flags>
0

> <r_lp_tautomer_probability>
1

> <s_lp_Force_Field>
OPLS_2005

> <r_lp_Energy>
17.289625

> <b_lp_Chiralities_Consistent>
1

> <s_lp_Variant>
CHEMBL2039_lig1362-1

> <s_i_glide_gridfile>
glide-grid_1s3b

> <i_i_glide_lignum>
1583

> <i_i_glide_rotatable_bonds>
4

> <r_i_docking_score>
-7.14820279998607

> <r_i_glide_ligand_efficiency>
-0.376221199999267

> <r_i_glide_ligand_efficiency_sa>
-1.00390926937688

> <r_i_glide_ligand_efficiency_ln>
-1.81222293911533

> <r_i_glide_gscore>
-7.14820279998607

> <r_i_glide_lipo>
-3.86793852720537

> <r_i_glide_hbond>
0

> <r_i_glide_metal>
0

> <r_i_glide_rewards>
-2.49888047220004

> <r_i_glide_evdw>
-31.9080562591553

> <r_i_glide_ecoul>
1.84953129291534

> <r_i_glide_erotb>
0.536589318439803

> <r_i_glide_esite>
0

> <r_i_glide_emodel>
-37.4298306396327

> <r_i_glide_energy>
-30.0585249662399

> <r_i_glide_einternal>
4.03159141540527

> <i_i_glide_confnum>
12

> <i_i_glide_posenum>
48

> <r_i_glide_eff_state_penalty>
0

> <s_user_duplicate_titles>
CHEMBL2039_lig1362

> <s_m_subgroup_title>
dock_pv

> <s_m_subgroupid>
dock_pv

> <b_m_subgroup_collapsed>
1

$$$$
CHEMBL2039_lig508
                    3D
 Schrodinger Suite 2021-1.
 36 37  0  0  1  0            999 V2000
   52.0560  155.6040   27.0784 C   0  0  0  0  0  0
   52.0975  155.0628   25.7895 C   0  0  0  0  0  0
   51.8132  153.7170   25.5868 C   0  0  0  0  0  0
   51.6560  154.8015   28.1534 C   0  0  0  0  0  0
   51.3784  153.4571   27.9510 C   0  0  0  0  0  0
   51.4776  152.9175   26.6753 C   0  0  0  0  0  0
   51.2560  151.5560   26.5040 N   0  0  0  0  0  0
   52.5222  157.0440   27.2618 C   0  0  0  0  0  0
   52.4841  157.6473   28.6792 C   0  0  0  0  0  0
   51.1173  157.9145   29.3473 C   0  0  0  0  0  0
   50.4904  159.3155   29.1762 C   0  0  0  0  0  0
   49.4410  159.6511   30.2383 C   0  0  0  0  0  0
   48.1303  159.1733   30.1329 C   0  0  0  0  0  0
   47.1873  159.4827   31.1100 C   0  0  0  0  0  0
   47.5553  160.2712   32.1969 C   0  0  0  0  0  0
   48.8560  160.7547   32.3124 C   0  0  0  0  0  0
   49.7972  160.4455   31.3330 C   0  0  0  0  0  0
   52.3991  155.6732   24.9511 H   0  0  0  0  0  0
   51.8892  153.2986   24.5943 H   0  0  0  0  0  0
   51.6202  155.1768   29.1632 H   0  0  0  0  0  0
   51.1152  152.8364   28.7939 H   0  0  0  0  0  0
   51.5296  151.1722   25.6124 H   0  0  0  0  0  0
   51.3981  150.9753   27.3227 H   0  0  0  0  0  0
   53.5604  157.0742   26.9303 H   0  0  0  0  0  0
   51.9925  157.6605   26.5584 H   0  0  0  0  0  0
   53.0519  156.9604   29.3040 H   0  0  0  0  0  0
   53.0658  158.5658   28.7074 H   0  0  0  0  0  0
   50.4202  157.1118   29.1358 H   0  0  0  0  0  0
   51.3119  157.8440   30.4025 H   0  0  0  0  0  0
   51.2817  160.0609   29.2650 H   0  0  0  0  0  0
   50.0572  159.4440   28.1846 H   0  0  0  0  0  0
   47.8286  158.5588   29.3040 H   0  0  0  0  0  0
   46.1755  159.1131   31.0252 H   0  0  0  0  0  0
   46.8247  160.5107   32.9556 H   0  0  0  0  0  0
   49.1383  161.3647   33.1584 H   0  0  0  0  0  0
   50.8058  160.8204   31.4352 H   0  0  0  0  0  0
  1  4  1  0  0  0
  1  2  2  0  0  0
  1  8  1  0  0  0
  2  3  1  0  0  0
  2 18  1  0  0  0
  3  6  2  0  0  0
  3 19  1  0  0  0
  4  5  2  0  0  0
  4 20  1  0  0  0
  5  6  1  0  0  0
  5 21  1  0  0  0
  6  7  1  0  0  0
  7 22  1  0  0  0
  7 23  1  0  0  0
  8  9  1  0  0  0
  8 24  1  0  0  0
  8 25  1  0  0  0
  9 10  1  0  0  0
  9 26  1  0  0  0
  9 27  1  0  0  0
 10 11  1  0  0  0
 10 28  1  0  0  0
 10 29  1  0  0  0
 11 12  1  0  0  0
 11 30  1  0  0  0
 11 31  1  0  0  0
 12 13  2  0  0  0
 12 17  1  0  0  0
 13 14  1  0  0  0
 13 32  1  0  0  0
 14 15  2  0  0  0
 14 33  1  0  0  0
 15 16  1  0  0  0
 15 34  1  0  0  0
 16 17  2  0  0  0
 16 35  1  0  0  0
 17 36  1  0  0  0
M  END
> <s_m_entry_id>
10355

> <s_m_entry_name>
dock_pv.391

> <s_m_Source_Path>
/home/csk/Desktop/cluster/DUD-E-result/aofb

> <s_m_Source_File>
dock_pv.maegz

> <i_m_Source_File_Index>
391

> <chembl_id>
CHEMBL1642685

> <chembl_pref_name>
None

> <i_lp_mmshare_version>
53161

> <i_f3d_flags>
0

> <r_lp_tautomer_probability>
1

> <s_lp_Force_Field>
OPLS_2005

> <r_lp_Energy>
10.688776

> <b_lp_Chiralities_Consistent>
1

> <s_lp_Variant>
CHEMBL2039_lig508-1

> <s_i_glide_gridfile>
glide-grid_1s3b

> <i_i_glide_lignum>
607

> <i_i_glide_rotatable_bonds>
5

> <r_i_docking_score>
-7.14652261247841

> <r_i_glide_ligand_efficiency>
-0.420383683086966

> <r_i_glide_ligand_efficiency_sa>
-1.08092482431379

> <r_i_glide_ligand_efficiency_ln>
-1.86436860436162

> <r_i_glide_gscore>
-7.14652261247841

> <r_i_glide_lipo>
-4.31810733565817

> <r_i_glide_hbond>
-0.201334091999135

> <r_i_glide_metal>
0

> <r_i_glide_rewards>
-2.6126048158529

> <r_i_glide_evdw>
-23.3495635986328

> <r_i_glide_ecoul>
-1.22574305534363

> <r_i_glide_erotb>
1.33686326926498

> <r_i_glide_esite>
0

> <r_i_glide_emodel>
-24.8526634044107

> <r_i_glide_energy>
-24.5753066539764

> <r_i_glide_einternal>
4.0664381980896

> <i_i_glide_confnum>
33

> <i_i_glide_posenum>
69

> <r_i_glide_eff_state_penalty>
0

> <s_user_duplicate_titles>
CHEMBL2039_lig508

> <s_m_subgroup_title>
dock_pv

> <s_m_subgroupid>
dock_pv

> <b_m_subgroup_collapsed>
1

$$$$
CHEMBL2039_lig2095
                    3D
 Schrodinger Suite 2021-1.
 40 42  0  0  1  0            999 V2000
   51.6572  153.1869   26.7900 C   0  0  0  0  0  0
   51.2560  153.0453   28.1035 C   0  0  0  0  0  0
   51.1059  154.1723   28.9042 C   0  0  0  0  0  0
   51.3385  155.4531   28.4397 C   0  0  0  0  0  0
   52.0187  154.4447   26.3176 C   0  0  0  0  0  0
   51.9160  155.5706   27.1595 C   0  0  0  0  0  0
   52.4545  156.7558   26.4342 C   0  0  0  0  0  0
   52.9908  156.2427   25.1081 C   0  0  0  0  0  0
   52.5191  154.8092   24.9324 C   0  0  1  0  0  0
   53.6185  153.9445   24.5038 N   0  0  1  0  0  0
   53.2641  152.9498   23.5038 C   0  0  0  0  0  0
   53.2561  151.6071   24.1105 C   0  0  0  0  0  0
   53.2557  150.4873   24.6000 C   0  0  0  0  0  0
   50.8558  156.4312   29.3037 O   0  0  0  0  0  0
   51.0973  157.8458   29.3040 C   0  0  0  0  0  0
   49.9121  158.5186   30.0527 C   0  0  0  0  0  0
   48.6635  157.8752   30.1262 C   0  0  0  0  0  0
   47.5883  158.4165   30.8199 C   0  0  0  0  0  0
   47.7635  159.5781   31.5474 C   0  0  0  0  0  0
   49.0081  160.1938   31.5516 C   0  0  0  0  0  0
   50.0564  159.7266   30.7497 C   0  0  0  0  0  0
   49.2563  161.4440   32.6820 Cl  0  0  0  0  0  0
   51.7099  152.3139   26.1632 H   0  0  0  0  0  0
   50.9960  152.0709   28.4930 H   0  0  0  0  0  0
   50.7350  154.0480   29.9108 H   0  0  0  0  0  0
   53.2234  157.2913   26.9940 H   0  0  0  0  0  0
   51.6567  157.4433   26.1736 H   0  0  0  0  0  0
   54.0702  156.3150   25.1116 H   0  0  0  0  0  0
   52.6691  156.8705   24.2765 H   0  0  0  0  0  0
   51.6720  154.7927   24.2440 H   0  0  0  0  0  0
   54.4253  154.4798   24.2141 H   0  0  0  0  0  0
   54.0455  152.9382   22.7441 H   0  0  0  0  0  0
   52.3449  153.1697   22.9819 H   0  0  0  0  0  0
   53.2484  149.5127   25.0341 H   0  0  0  0  0  0
   52.0233  158.0338   29.8390 H   0  0  0  0  0  0
   51.2565  158.2850   28.3246 H   0  0  0  0  0  0
   48.5222  156.8930   29.7044 H   0  0  0  0  0  0
   46.6457  157.8947   30.8602 H   0  0  0  0  0  0
   46.9595  159.9567   32.1614 H   0  0  0  0  0  0
   51.0147  160.2252   30.7763 H   0  0  0  0  0  0
  1  2  2  0  0  0
  1  5  1  0  0  0
  1 23  1  0  0  0
  2  3  1  0  0  0
  2 24  1  0  0  0
  3  4  2  0  0  0
  3 25  1  0  0  0
  4  6  1  0  0  0
  4 14  1  0  0  0
  5  6  2  0  0  0
  5  9  1  0  0  0
  6  7  1  0  0  0
  7  8  1  0  0  0
  7 26  1  0  0  0
  7 27  1  0  0  0
  8  9  1  0  0  0
  8 28  1  0  0  0
  8 29  1  0  0  0
  9 10  1  0  0  0
  9 30  1  0  0  0
 10 11  1  0  0  0
 10 31  1  0  0  0
 11 12  1  0  0  0
 11 32  1  0  0  0
 11 33  1  0  0  0
 12 13  3  0  0  0
 13 34  1  0  0  0
 14 15  1  0  0  0
 15 16  1  0  0  0
 15 35  1  0  0  0
 15 36  1  0  0  0
 16 17  2  0  0  0
 16 21  1  0  0  0
 17 18  1  0  0  0
 17 37  1  0  0  0
 18 19  2  0  0  0
 18 38  1  0  0  0
 19 20  1  0  0  0
 19 39  1  0  0  0
 20 21  2  0  0  0
 20 22  1  0  0  0
 21 40  1  0  0  0
M  END
> <s_m_entry_id>
10356

> <s_m_entry_name>
dock_pv.392

> <s_m_Source_Path>
/home/csk/Desktop/cluster/DUD-E-result/aofb

> <s_m_Source_File>
dock_pv.maegz

> <i_m_Source_File_Index>
392

> <chembl_id>
CHEMBL4162029

> <chembl_pref_name>
None

> <i_lp_mmshare_version>
53161

> <i_f3d_flags>
0

> <r_lp_tautomer_probability>
1

> <s_lp_Force_Field>
OPLS_2005

> <r_lp_Energy>
30.212699

> <b_lp_Chiralities_Consistent>
1

> <s_lp_Variant>
CHEMBL2039_lig2095-1

> <s_i_glide_gridfile>
glide-grid_1s3b

> <i_i_glide_lignum>
2433

> <i_i_glide_rotatable_bonds>
6

> <r_i_docking_score>
-7.14486832407149

> <r_i_glide_ligand_efficiency>
-0.324766742003249

> <r_i_glide_ligand_efficiency_sa>
-0.91000918344429

> <r_i_glide_ligand_efficiency_ln>
-1.74646643380743

> <r_i_glide_gscore>
-7.14486832407149

> <r_i_glide_lipo>
-5.07950816699625

> <r_i_glide_hbond>
0

> <r_i_glide_metal>
0

> <r_i_glide_rewards>
-2.18314759090909

> <r_i_glide_evdw>
-21.03733253479

> <r_i_glide_ecoul>
0.165465727448463

> <r_i_glide_erotb>
1.14483420145609

> <r_i_glide_esite>
0

> <r_i_glide_emodel>
-46.4263089314542

> <r_i_glide_energy>
-20.8718668073416

> <r_i_glide_einternal>
9.57831859588623

> <i_i_glide_confnum>
213

> <i_i_glide_posenum>
188

> <r_i_glide_eff_state_penalty>
0

> <s_user_duplicate_titles>
CHEMBL2039_lig2095

> <s_m_subgroup_title>
dock_pv

> <s_m_subgroupid>
dock_pv

> <b_m_subgroup_collapsed>
1

$$$$
CHEMBL2039_lig352
                    3D
 Schrodinger Suite 2021-1.
 30 32  0  0  1  0            999 V2000
   47.2562  159.9038   32.2407 C   0  0  0  0  0  0
   48.0252  161.0040   32.6163 C   0  0  0  0  0  0
   49.3125  161.1690   32.1042 C   0  0  0  0  0  0
   47.7909  158.9420   31.3863 C   0  0  0  0  0  0
   49.0800  159.1089   30.8853 C   0  0  0  0  0  0
   49.8405  160.2444   31.1968 C   0  0  0  0  0  0
   51.1783  160.4381   30.5599 C   0  0  0  0  0  0
   51.5981  159.3092   29.7602 C   0  0  0  0  0  0
   50.8556  158.1886   29.6414 C   0  0  0  0  0  0
   49.5813  158.0900   30.1056 O   0  0  0  0  0  0
   51.2561  156.9646   28.9040 C   0  0  0  0  0  0
   52.2455  157.0435   27.9109 C   0  0  0  0  0  0
   51.7806  154.7843   27.2184 C   0  0  0  0  0  0
   50.9098  154.6398   28.2895 C   0  0  0  0  0  0
   52.4560  155.9883   27.0320 C   0  0  0  0  0  0
   50.6072  155.7324   29.0946 C   0  0  0  0  0  0
   51.8687  161.4422   30.7157 O   0  0  0  0  0  0
   52.0217  153.6139   26.2831 C   0  0  0  0  0  0
   46.2532  159.7932   32.6253 H   0  0  0  0  0  0
   47.6184  161.7368   33.2977 H   0  0  0  0  0  0
   49.8911  162.0349   32.4004 H   0  0  0  0  0  0
   47.2185  158.0677   31.1181 H   0  0  0  0  0  0
   52.5908  159.3362   29.3447 H   0  0  0  0  0  0
   52.7833  157.9585   27.7248 H   0  0  0  0  0  0
   50.4527  153.6821   28.4650 H   0  0  0  0  0  0
   53.1659  156.0985   26.2252 H   0  0  0  0  0  0
   49.8493  155.6147   29.8516 H   0  0  0  0  0  0
   52.8621  153.7918   25.6107 H   0  0  0  0  0  0
   51.1265  153.4146   25.6931 H   0  0  0  0  0  0
   52.2460  152.7156   26.8577 H   0  0  0  0  0  0
  1  2  2  0  0  0
  1  4  1  0  0  0
  1 19  1  0  0  0
  2  3  1  0  0  0
  2 20  1  0  0  0
  3  6  2  0  0  0
  3 21  1  0  0  0
  4  5  2  0  0  0
  4 22  1  0  0  0
  5  6  1  0  0  0
  5 10  1  0  0  0
  6  7  1  0  0  0
  7  8  1  0  0  0
  7 17  2  0  0  0
  8  9  2  0  0  0
  8 23  1  0  0  0
  9 10  1  0  0  0
  9 11  1  0  0  0
 11 12  2  0  0  0
 11 16  1  0  0  0
 12 15  1  0  0  0
 12 24  1  0  0  0
 13 14  1  0  0  0
 13 15  2  0  0  0
 13 18  1  0  0  0
 14 16  2  0  0  0
 14 25  1  0  0  0
 15 26  1  0  0  0
 16 27  1  0  0  0
 18 28  1  0  0  0
 18 29  1  0  0  0
 18 30  1  0  0  0
M  END
> <s_m_entry_id>
10357

> <s_m_entry_name>
dock_pv.393

> <s_m_Source_Path>
/home/csk/Desktop/cluster/DUD-E-result/aofb

> <s_m_Source_File>
dock_pv.maegz

> <i_m_Source_File_Index>
393

> <chembl_id>
CHEMBL16861

> <chembl_pref_name>
None

> <i_lp_mmshare_version>
53161

> <i_f3d_flags>
0

> <r_lp_tautomer_probability>
1

> <s_lp_Force_Field>
OPLS_2005

> <r_lp_Energy>
12.656468

> <b_lp_Chiralities_Consistent>
1

> <s_lp_Variant>
CHEMBL2039_lig352-1

> <s_i_glide_gridfile>
glide-grid_1s3b

> <i_i_glide_lignum>
404

> <i_i_glide_rotatable_bonds>
1

> <r_i_docking_score>
-7.14480175566813

> <r_i_glide_ligand_efficiency>
-0.396933430870452

> <r_i_glide_ligand_efficiency_sa>
-1.0402598720253

> <r_i_glide_ligand_efficiency_ln>
-1.83653444973904

> <r_i_glide_gscore>
-7.14480175566813

> <r_i_glide_lipo>
-3.8438801514407

> <r_i_glide_hbond>
0

> <r_i_glide_metal>
0

> <r_i_glide_rewards>
-2.42319127272727

> <r_i_glide_evdw>
-22.2588882446289

> <r_i_glide_ecoul>
-0.487763077020645

> <r_i_glide_erotb>
0.308378542284384

> <r_i_glide_esite>
0

> <r_i_glide_emodel>
-27.5881235527674

> <r_i_glide_energy>
-22.7466513216496

> <r_i_glide_einternal>
0.605520188808441

> <i_i_glide_confnum>
1

> <i_i_glide_posenum>
173

> <r_i_glide_eff_state_penalty>
0

> <s_user_duplicate_titles>
CHEMBL2039_lig352

> <s_m_subgroup_title>
dock_pv

> <s_m_subgroupid>
dock_pv

> <b_m_subgroup_collapsed>
1

$$$$
CHEMBL2039_lig688
                    3D
 Schrodinger Suite 2021-1.
 28 28  0  0  1  0            999 V2000
   51.2706  154.6551   27.8904 C   0  0  0  0  0  0
   52.0533  154.9762   26.7740 C   0  0  0  0  0  0
   52.6312  156.2440   26.6811 C   0  0  0  0  0  0
   52.4560  157.1647   27.7043 C   0  0  0  0  0  0
   51.5849  156.8930   28.7680 C   0  0  0  0  0  0
   51.0206  155.6172   28.8680 C   0  0  0  0  0  0
   51.1862  157.8386   29.7032 O   0  0  0  0  0  0
   51.4417  159.2094   29.4314 C   0  0  0  0  0  0
   50.8762  160.1150   30.5111 C   0  0  0  0  0  0
   51.4896  161.0224   31.3021 C   0  0  0  0  0  0
   49.5499  159.8910   30.6404 F   0  0  0  0  0  0
   52.9399  161.4955   31.3793 C   0  0  0  0  0  0
   53.8824  161.0442   30.3766 N   0  0  0  0  0  0
   52.2966  153.9361   25.6804 C   0  0  0  0  0  0
   52.4562  152.7126   26.1897 F   0  0  0  0  0  0
   51.2259  153.9225   24.9041 F   0  0  0  0  0  0
   53.3466  154.2199   24.9040 F   0  0  0  0  0  0
   50.8268  153.6740   27.9841 H   0  0  0  0  0  0
   53.2574  156.5035   25.8403 H   0  0  0  0  0  0
   52.9518  158.1162   27.6220 H   0  0  0  0  0  0
   50.3689  155.3816   29.6959 H   0  0  0  0  0  0
   50.9291  159.4439   28.5039 H   0  0  0  0  0  0
   52.5029  159.3654   29.3041 H   0  0  0  0  0  0
   50.8567  161.5183   32.0236 H   0  0  0  0  0  0
   53.3318  161.2359   32.3629 H   0  0  0  0  0  0
   52.9107  162.5850   31.3237 H   0  0  0  0  0  0
   54.7769  161.4930   30.5302 H   0  0  0  0  0  0
   54.0488  160.0485   30.5065 H   0  0  0  0  0  0
  1  6  1  0  0  0
  1  2  2  0  0  0
  1 18  1  0  0  0
  2  3  1  0  0  0
  2 14  1  0  0  0
  3  4  2  0  0  0
  3 19  1  0  0  0
  4  5  1  0  0  0
  4 20  1  0  0  0
  5  6  2  0  0  0
  5  7  1  0  0  0
  6 21  1  0  0  0
  7  8  1  0  0  0
  8  9  1  0  0  0
  8 22  1  0  0  0
  8 23  1  0  0  0
  9 10  2  0  0  0
  9 11  1  0  0  0
 10 12  1  0  0  0
 10 24  1  0  0  0
 12 13  1  0  0  0
 12 25  1  0  0  0
 12 26  1  0  0  0
 13 27  1  0  0  0
 13 28  1  0  0  0
 14 15  1  0  0  0
 14 16  1  0  0  0
 14 17  1  0  0  0
M  END
> <s_m_entry_id>
10358

> <s_m_entry_name>
dock_pv.394

> <s_m_Source_Path>
/home/csk/Desktop/cluster/DUD-E-result/aofb

> <s_m_Source_File>
dock_pv.maegz

> <i_m_Source_File_Index>
394

> <chembl_id>
CHEMBL2029539

> <chembl_pref_name>
None

> <i_lp_mmshare_version>
53161

> <i_f3d_flags>
0

> <r_lp_tautomer_probability>
1

> <s_lp_Force_Field>
OPLS_2005

> <r_lp_Energy>
8.674017

> <b_lp_Chiralities_Consistent>
1

> <s_lp_Variant>
CHEMBL2039_lig688-1

> <s_i_glide_gridfile>
glide-grid_1s3b

> <i_i_glide_lignum>
809

> <i_i_glide_rotatable_bonds>
5

> <r_i_docking_score>
-7.14172495678374

> <r_i_glide_ligand_efficiency>
-0.420101468046102

> <r_i_glide_ligand_efficiency_sa>
-1.0801991699753

> <r_i_glide_ligand_efficiency_ln>
-1.86311700282942

> <r_i_glide_gscore>
-7.14172495678374

> <r_i_glide_lipo>
-2.18011142705977

> <r_i_glide_hbond>
-0.528865406733975

> <r_i_glide_metal>
0

> <r_i_glide_rewards>
-3.50275536198844

> <r_i_glide_evdw>
-18.3400497436523

> <r_i_glide_ecoul>
-7.594153881073

> <r_i_glide_erotb>
1.12613280834202

> <r_i_glide_esite>
0

> <r_i_glide_emodel>
-33.0698426807623

> <r_i_glide_energy>
-25.9342036247253

> <r_i_glide_einternal>
1.44353747367859

> <i_i_glide_confnum>
26

> <i_i_glide_posenum>
292

> <r_i_glide_eff_state_penalty>
0

> <s_user_duplicate_titles>
CHEMBL2039_lig688

> <s_m_subgroup_title>
dock_pv

> <s_m_subgroupid>
dock_pv

> <b_m_subgroup_collapsed>
1

$$$$
CHEMBL2039_lig1756
                    3D
 Schrodinger Suite 2021-1.
 31 32  0  0  1  0            999 V2000
   48.2223  160.8867   31.7336 C   0  0  0  0  0  0
   48.4560  161.0440   33.2296 C   0  0  0  0  0  0
   49.1124  159.9612   31.0177 C   0  0  0  0  0  0
   48.6617  158.6658   30.7900 C   0  0  0  0  0  0
   49.4696  157.7776   30.1040 C   0  0  0  0  0  0
   50.7310  158.1337   29.6140 C   0  0  0  0  0  0
   51.1649  159.4440   29.8356 C   0  0  0  0  0  0
   50.3697  160.3549   30.5406 C   0  0  0  0  0  0
   51.5537  157.2666   28.9040 O   0  0  0  0  0  0
   51.1426  155.9071   28.6242 C   0  0  0  0  0  0
   51.7384  155.3951   27.3249 C   0  0  0  0  0  0
   52.4560  156.2440   26.4795 C   0  0  0  0  0  0
   52.9779  155.7699   25.2818 C   0  0  0  0  0  0
   52.7720  154.4434   24.9040 C   0  0  0  0  0  0
   52.0560  153.5863   25.7400 C   0  0  0  0  0  0
   51.5476  154.0585   26.9514 C   0  0  0  0  0  0
   53.7062  156.5988   24.5040 F   0  0  0  0  0  0
   47.4519  158.2440   31.2331 F   0  0  0  0  0  0
   47.2560  161.4145   31.1929 O   0  0  0  0  0  0
   48.4560  160.0650   33.7088 H   0  0  0  0  0  0
   47.6748  161.6533   33.6825 H   0  0  0  0  0  0
   49.4286  161.5011   33.4114 H   0  0  0  0  0  0
   49.0771  156.7816   29.9957 H   0  0  0  0  0  0
   52.1359  159.7431   29.4719 H   0  0  0  0  0  0
   50.7367  161.3579   30.7083 H   0  0  0  0  0  0
   51.4369  155.2279   29.4208 H   0  0  0  0  0  0
   50.0670  155.8038   28.5039 H   0  0  0  0  0  0
   52.6290  157.2744   26.7514 H   0  0  0  0  0  0
   53.1822  154.0768   23.9746 H   0  0  0  0  0  0
   51.9123  152.5546   25.4583 H   0  0  0  0  0  0
   50.9974  153.3869   27.5952 H   0  0  0  0  0  0
  1  2  1  0  0  0
  1  3  1  0  0  0
  1 19  2  0  0  0
  2 20  1  0  0  0
  2 21  1  0  0  0
  2 22  1  0  0  0
  3  4  1  0  0  0
  3  8  2  0  0  0
  4  5  2  0  0  0
  4 18  1  0  0  0
  5  6  1  0  0  0
  5 23  1  0  0  0
  6  7  2  0  0  0
  6  9  1  0  0  0
  7  8  1  0  0  0
  7 24  1  0  0  0
  8 25  1  0  0  0
  9 10  1  0  0  0
 10 11  1  0  0  0
 10 26  1  0  0  0
 10 27  1  0  0  0
 11 12  1  0  0  0
 11 16  2  0  0  0
 12 13  2  0  0  0
 12 28  1  0  0  0
 13 14  1  0  0  0
 13 17  1  0  0  0
 14 15  2  0  0  0
 14 29  1  0  0  0
 15 16  1  0  0  0
 15 30  1  0  0  0
 16 31  1  0  0  0
M  END
> <s_m_entry_id>
10359

> <s_m_entry_name>
dock_pv.395

> <s_m_Source_Path>
/home/csk/Desktop/cluster/DUD-E-result/aofb

> <s_m_Source_File>
dock_pv.maegz

> <i_m_Source_File_Index>
395

> <chembl_id>
CHEMBL3902282

> <chembl_pref_name>
None

> <i_lp_mmshare_version>
53161

> <i_f3d_flags>
0

> <r_lp_tautomer_probability>
0.99995

> <s_lp_Force_Field>
OPLS_2005

> <r_lp_Energy>
23.047442

> <b_lp_Chiralities_Consistent>
1

> <s_lp_Variant>
CHEMBL2039_lig1756-1

> <s_i_glide_gridfile>
glide-grid_1s3b

> <i_i_glide_lignum>
2044

> <i_i_glide_rotatable_bonds>
4

> <r_i_docking_score>
-7.13836750838712

> <r_i_glide_ligand_efficiency>
-0.375703553073007

> <r_i_glide_ligand_efficiency_sa>
-1.00252797946674

> <r_i_glide_ligand_efficiency_ln>
-1.8097294814523

> <r_i_glide_gscore>
-7.13836750838712

> <r_i_glide_lipo>
-3.3023442052896

> <r_i_glide_hbond>
0

> <r_i_glide_metal>
0

> <r_i_glide_rewards>
-3.3182282209017

> <r_i_glide_evdw>
-23.8389568328857

> <r_i_glide_ecoul>
-0.663492619991302

> <r_i_glide_erotb>
0.773676652447165

> <r_i_glide_esite>
0

> <r_i_glide_emodel>
-29.398297605059

> <r_i_glide_energy>
-24.502449452877

> <r_i_glide_einternal>
5.83196878433228

> <i_i_glide_confnum>
33

> <i_i_glide_posenum>
391

> <r_i_glide_eff_state_penalty>
0

> <s_user_duplicate_titles>
CHEMBL2039_lig1756

> <s_m_subgroup_title>
dock_pv

> <s_m_subgroupid>
dock_pv

> <b_m_subgroup_collapsed>
1

$$$$
CHEMBL2039_lig1727
                    3D
 Schrodinger Suite 2021-1.
 30 32  0  0  1  0            999 V2000
   51.4047  154.7865   27.8593 C   0  0  0  0  0  0
   51.4747  156.2000   28.2246 C   0  0  0  0  0  0
   52.4560  156.8752   27.2787 C   0  0  0  0  0  0
   52.6679  155.8439   26.1931 C   0  0  0  0  0  0
   53.4793  155.8587   25.0536 C   0  0  0  0  0  0
   53.7342  154.6594   24.3814 C   0  0  0  0  0  0
   53.0322  153.4982   24.6931 C   0  0  0  0  0  0
   52.1562  153.4992   25.7745 C   0  0  0  0  0  0
   52.0447  154.6566   26.5474 C   0  0  0  0  0  0
   50.8564  153.9031   28.5045 O   0  0  0  0  0  0
   50.6750  156.6973   29.2037 C   0  0  0  0  0  0
   50.5060  158.0831   29.7040 C   0  0  0  0  0  0
   51.5150  159.0442   29.6200 C   0  0  0  0  0  0
   51.3585  160.3004   30.2031 C   0  0  0  0  0  0
   50.1717  160.6222   30.8579 C   0  0  0  0  0  0
   49.1305  159.6964   30.9013 C   0  0  0  0  0  0
   49.2974  158.4393   30.3253 C   0  0  0  0  0  0
   54.7225  154.6093   23.4449 O   0  0  0  0  0  0
   52.3630  161.2048   30.1345 F   0  0  0  0  0  0
   52.0562  157.8149   26.9045 H   0  0  0  0  0  0
   53.3927  157.1114   27.7827 H   0  0  0  0  0  0
   54.0375  156.7430   24.7858 H   0  0  0  0  0  0
   53.2031  152.5849   24.1417 H   0  0  0  0  0  0
   51.6635  152.5809   26.0622 H   0  0  0  0  0  0
   50.0349  155.9846   29.7041 H   0  0  0  0  0  0
   52.4562  158.8101   29.1520 H   0  0  0  0  0  0
   50.0585  161.5817   31.3363 H   0  0  0  0  0  0
   48.2054  159.9459   31.4018 H   0  0  0  0  0  0
   48.4907  157.7221   30.3958 H   0  0  0  0  0  0
   55.0051  153.6969   23.3018 H   0  0  0  0  0  0
  1  2  1  0  0  0
  1  9  1  0  0  0
  1 10  2  0  0  0
  2  3  1  0  0  0
  2 11  2  0  0  0
  3  4  1  0  0  0
  3 20  1  0  0  0
  3 21  1  0  0  0
  4  5  1  0  0  0
  4  9  2  0  0  0
  5  6  2  0  0  0
  5 22  1  0  0  0
  6  7  1  0  0  0
  6 18  1  0  0  0
  7  8  2  0  0  0
  7 23  1  0  0  0
  8  9  1  0  0  0
  8 24  1  0  0  0
 11 12  1  0  0  0
 11 25  1  0  0  0
 12 13  1  0  0  0
 12 17  2  0  0  0
 13 14  2  0  0  0
 13 26  1  0  0  0
 14 15  1  0  0  0
 14 19  1  0  0  0
 15 16  2  0  0  0
 15 27  1  0  0  0
 16 17  1  0  0  0
 16 28  1  0  0  0
 17 29  1  0  0  0
 18 30  1  0  0  0
M  END
> <s_m_entry_id>
10360

> <s_m_entry_name>
dock_pv.396

> <s_m_Source_Path>
/home/csk/Desktop/cluster/DUD-E-result/aofb

> <s_m_Source_File>
dock_pv.maegz

> <i_m_Source_File_Index>
396

> <chembl_id>
CHEMBL3965044

> <chembl_pref_name>
None

> <i_lp_mmshare_version>
53161

> <i_f3d_flags>
0

> <r_lp_tautomer_probability>
1

> <s_lp_Force_Field>
OPLS_2005

> <r_lp_Energy>
24.762344

> <b_lp_Chiralities_Consistent>
1

> <s_lp_Variant>
CHEMBL2039_lig1727-1

> <s_i_glide_gridfile>
glide-grid_1s3b

> <i_i_glide_lignum>
2015

> <i_i_glide_rotatable_bonds>
2

> <r_i_docking_score>
-7.1361615495554

> <r_i_glide_ligand_efficiency>
-0.3755874499766

> <r_i_glide_ligand_efficiency_sa>
-1.00221816977317

> <r_i_glide_ligand_efficiency_ln>
-1.80917022350881

> <r_i_glide_gscore>
-7.1361615495554

> <r_i_glide_lipo>
-3.12816705145477

> <r_i_glide_hbond>
-0.32

> <r_i_glide_metal>
0

> <r_i_glide_rewards>
-2.27616198720975

> <r_i_glide_evdw>
-18.8940448760986

> <r_i_glide_ecoul>
-3.08219361305237

> <r_i_glide_erotb>
0

> <r_i_glide_esite>
-0.00480122512810285

> <r_i_glide_emodel>
-22.6607876222607

> <r_i_glide_energy>
-21.976238489151

> <r_i_glide_einternal>
0.795558750629425

> <i_i_glide_confnum>
1

> <i_i_glide_posenum>
101

> <r_i_glide_eff_state_penalty>
0

> <s_user_duplicate_titles>
CHEMBL2039_lig1727

> <s_m_subgroup_title>
dock_pv

> <s_m_subgroupid>
dock_pv

> <b_m_subgroup_collapsed>
1

$$$$
CHEMBL2039_lig2260
                    3D
 Schrodinger Suite 2021-1.
 28 30  0  0  1  0            999 V2000
   52.0560  154.3230   26.0447 C   0  0  0  0  0  0
   51.2824  153.6501   26.9962 C   0  0  0  0  0  0
   50.8562  154.2969   28.1583 C   0  0  0  0  0  0
   52.4560  155.6462   26.2631 C   0  0  0  0  0  0
   52.0733  156.2786   27.4553 C   0  0  0  0  0  0
   51.2289  155.6180   28.3453 C   0  0  0  0  0  0
   50.7476  156.4711   29.3040 O   0  0  0  0  0  0
   51.3201  157.6861   29.0502 C   0  0  0  0  0  0
   52.3307  157.5115   28.1040 C   0  0  0  0  0  0
   50.8386  158.8775   29.8326 C   0  0  0  0  0  0
   51.7993  159.8587   30.1040 C   0  0  0  0  0  0
   51.5320  160.9263   30.9559 C   0  0  0  0  0  0
   50.2755  161.0440   31.5391 C   0  0  0  0  0  0
   49.2813  160.1228   31.2352 C   0  0  0  0  0  0
   49.5496  159.0440   30.3920 C   0  0  0  0  0  0
   52.5382  153.6024   24.7995 C   0  0  0  0  0  0
   48.0997  157.8440   30.1040 Br  0  0  0  0  0  0
   51.0036  152.6198   26.8301 H   0  0  0  0  0  0
   50.2541  153.8440   28.9038 H   0  0  0  0  0  0
   53.0986  156.1506   25.5580 H   0  0  0  0  0  0
   53.0361  158.2440   27.7675 H   0  0  0  0  0  0
   52.7981  159.7614   29.7040 H   0  0  0  0  0  0
   52.3041  161.6457   31.1885 H   0  0  0  0  0  0
   50.0694  161.8586   32.2176 H   0  0  0  0  0  0
   48.3014  160.2317   31.6765 H   0  0  0  0  0  0
   52.3642  152.5275   24.8521 H   0  0  0  0  0  0
   53.6130  153.7464   24.6815 H   0  0  0  0  0  0
   52.0560  154.0057   23.9096 H   0  0  0  0  0  0
  1  2  2  0  0  0
  1  4  1  0  0  0
  1 16  1  0  0  0
  2  3  1  0  0  0
  2 18  1  0  0  0
  3  6  2  0  0  0
  3 19  1  0  0  0
  4  5  2  0  0  0
  4 20  1  0  0  0
  5  6  1  0  0  0
  5  9  1  0  0  0
  6  7  1  0  0  0
  7  8  1  0  0  0
  8  9  2  0  0  0
  8 10  1  0  0  0
  9 21  1  0  0  0
 10 11  2  0  0  0
 10 15  1  0  0  0
 11 12  1  0  0  0
 11 22  1  0  0  0
 12 13  2  0  0  0
 12 23  1  0  0  0
 13 14  1  0  0  0
 13 24  1  0  0  0
 14 15  2  0  0  0
 14 25  1  0  0  0
 15 17  1  0  0  0
 16 26  1  0  0  0
 16 27  1  0  0  0
 16 28  1  0  0  0
M  END
> <s_m_entry_id>
10361

> <s_m_entry_name>
dock_pv.397

> <s_m_Source_Path>
/home/csk/Desktop/cluster/DUD-E-result/aofb

> <s_m_Source_File>
dock_pv.maegz

> <i_m_Source_File_Index>
397

> <chembl_id>
CHEMBL4282010

> <chembl_pref_name>
None

> <i_lp_mmshare_version>
53161

> <i_f3d_flags>
0

> <r_lp_tautomer_probability>
1

> <s_lp_Force_Field>
OPLS_2005

> <r_lp_Energy>
14.1869

> <b_lp_Chiralities_Consistent>
1

> <s_lp_Variant>
CHEMBL2039_lig2260-1

> <s_i_glide_gridfile>
glide-grid_1s3b

> <i_i_glide_lignum>
2620

> <i_i_glide_rotatable_bonds>
1

> <r_i_docking_score>
-7.13598771342383

> <r_i_glide_ligand_efficiency>
-0.419763983142578

> <r_i_glide_ligand_efficiency_sa>
-1.07933140125656

> <r_i_glide_ligand_efficiency_ln>
-1.86162028379894

> <r_i_glide_gscore>
-7.13598771342383

> <r_i_glide_lipo>
-3.91643658157679

> <r_i_glide_hbond>
0

> <r_i_glide_metal>
0

> <r_i_glide_rewards>
-2.35124154545455

> <r_i_glide_evdw>
-17.1908683776855

> <r_i_glide_ecoul>
-1.52764976024628

> <r_i_glide_erotb>
0.220381296528723

> <r_i_glide_esite>
0

> <r_i_glide_emodel>
-21.6596690599897

> <r_i_glide_energy>
-18.7185181379318

> <r_i_glide_einternal>
0.27253982424736

> <i_i_glide_confnum>
4

> <i_i_glide_posenum>
243

> <r_i_glide_eff_state_penalty>
0

> <s_user_duplicate_titles>
CHEMBL2039_lig2260

> <s_m_subgroup_title>
dock_pv

> <s_m_subgroupid>
dock_pv

> <b_m_subgroup_collapsed>
1

$$$$
CHEMBL2039_lig2325 
                    3D
 Schrodinger Suite 2021-1.
 33 36  0  0  1  0            999 V2000
   53.2555  151.7643   24.8785 C   0  0  0  0  0  0
   52.6335  152.4279   25.9961 N   0  0  0  0  0  0
   52.4560  153.6468   25.6723 C   0  0  0  0  0  0
   52.7449  153.9278   24.3583 N   0  0  0  0  0  0
   53.1607  152.7256   23.7032 C   0  0  0  0  0  0
   52.0560  154.7057   26.6083 C   0  0  0  0  0  0
   51.2908  154.4325   27.7496 C   0  0  0  0  0  0
   51.0543  155.4440   28.6796 C   0  0  0  0  0  0
   51.6257  156.7123   28.5040 C   0  0  0  0  0  0
   52.4560  156.9484   27.4168 C   0  0  0  0  0  0
   52.6023  155.9832   26.4329 C   0  0  0  0  0  0
   51.1761  157.8935   29.3042 C   0  0  0  0  0  0
   50.0560  158.0079   29.9641 N   0  0  0  0  0  0
   50.0617  159.2640   30.3591 C   0  0  0  0  0  0
   51.1425  159.9501   30.0578 N   0  0  0  0  0  0
   51.8917  159.0440   29.3040 O   0  0  0  0  0  0
   48.9952  159.8092   31.1756 C   0  0  0  0  0  0
   47.3797  159.1532   31.1077 S   0  0  0  0  0  0
   46.8560  160.2440   32.3371 C   0  0  0  0  0  0
   47.8696  161.0801   32.7698 C   0  0  0  0  0  0
   49.0736  160.8454   32.1041 C   0  0  0  0  0  0
   54.2895  151.5626   25.1648 H   0  0  0  0  0  0
   52.7368  150.8243   24.6872 H   0  0  0  0  0  0
   52.2067  154.4840   23.7109 H   0  0  0  0  0  0
   52.4560  152.3477   22.9739 H   0  0  0  0  0  0
   54.0574  152.8676   23.1271 H   0  0  0  0  0  0
   50.8771  153.4477   27.9173 H   0  0  0  0  0  0
   50.4045  155.2480   29.5203 H   0  0  0  0  0  0
   52.9325  157.9064   27.3039 H   0  0  0  0  0  0
   53.2388  156.2069   25.5884 H   0  0  0  0  0  0
   45.8305  160.2163   32.6685 H   0  0  0  0  0  0
   47.7413  161.8361   33.5293 H   0  0  0  0  0  0
   49.9817  161.3958   32.3081 H   0  0  0  0  0  0
  1  2  1  0  0  0
  1  5  1  0  0  0
  1 22  1  0  0  0
  1 23  1  0  0  0
  2  3  2  0  0  0
  3  4  1  0  0  0
  3  6  1  0  0  0
  4  5  1  0  0  0
  4 24  1  0  0  0
  5 25  1  0  0  0
  5 26  1  0  0  0
  6  7  2  0  0  0
  6 11  1  0  0  0
  7  8  1  0  0  0
  7 27  1  0  0  0
  8  9  2  0  0  0
  8 28  1  0  0  0
  9 10  1  0  0  0
  9 12  1  0  0  0
 10 11  2  0  0  0
 10 29  1  0  0  0
 11 30  1  0  0  0
 12 13  2  0  0  0
 12 16  1  0  0  0
 13 14  1  0  0  0
 14 15  2  0  0  0
 14 17  1  0  0  0
 15 16  1  0  0  0
 17 18  1  0  0  0
 17 21  2  0  0  0
 18 19  1  0  0  0
 19 20  2  0  0  0
 19 31  1  0  0  0
 20 21  1  0  0  0
 20 32  1  0  0  0
 21 33  1  0  0  0
M  END
> <s_m_entry_id>
10362

> <s_m_entry_name>
dock_pv.398

> <s_m_Source_Path>
/home/csk/Desktop/cluster/DUD-E-result/aofb

> <s_m_Source_File>
dock_pv.maegz

> <i_m_Source_File_Index>
398

> <chembl_id>
CHEMBL4530181

> <chembl_pref_name>
None

> <i_lp_mmshare_version>
53161

> <i_f3d_flags>
0

> <r_lp_tautomer_probability>
0.499999999998415

> <s_lp_Force_Field>
OPLS_2005

> <r_lp_Energy>
23.871939

> <b_lp_Chiralities_Consistent>
1

> <s_lp_Variant>
CHEMBL2039_lig2325 -1

> <s_i_glide_gridfile>
glide-grid_1s3b

> <i_i_glide_lignum>
2702

> <i_i_glide_rotatable_bonds>
3

> <r_i_docking_score>
-7.13475440185771

> <r_i_glide_ligand_efficiency>
-0.339750209612272

> <r_i_glide_ligand_efficiency_sa>
-0.937345066278594

> <r_i_glide_ligand_efficiency_ln>
-1.76405360873056

> <r_i_glide_gscore>
-7.13475440185771

> <r_i_glide_lipo>
-3.76583102097051

> <r_i_glide_hbond>
0

> <r_i_glide_metal>
0

> <r_i_glide_rewards>
-2.48088373378588

> <r_i_glide_evdw>
-30.3613929748535

> <r_i_glide_ecoul>
0.135525405406952

> <r_i_glide_erotb>
0.625761325652208

> <r_i_glide_esite>
-0.0160601348218973

> <r_i_glide_emodel>
-29.5385292794689

> <r_i_glide_energy>
-30.2258675694466

> <r_i_glide_einternal>
1.57944965362549

> <i_i_glide_confnum>
7

> <i_i_glide_posenum>
17

> <r_i_glide_eff_state_penalty>
0

> <s_user_duplicate_titles>
CHEMBL2039_lig2325 

> <s_m_subgroup_title>
dock_pv

> <s_m_subgroupid>
dock_pv

> <b_m_subgroup_collapsed>
1

$$$$
CHEMBL2039_lig1028
                    3D
 Schrodinger Suite 2021-1.
 37 39  0  0  1  0            999 V2000
   47.4939  160.1578   31.7508 C   0  0  0  0  0  0
   47.1275  158.9609   31.1453 C   0  0  0  0  0  0
   48.0900  158.1840   30.5029 C   0  0  0  0  0  0
   49.4203  158.6071   30.4344 C   0  0  0  0  0  0
   49.7608  159.8438   31.0172 C   0  0  0  0  0  0
   48.8093  160.6036   31.6902 C   0  0  0  0  0  0
   50.4562  157.8177   29.7040 C   0  0  0  0  0  0
   51.5112  158.3604   29.2624 N   0  0  0  0  0  0
   52.2078  157.4750   28.4439 N   0  0  2  0  0  0
   51.7593  156.1012   28.6056 C   0  0  1  0  0  0
   50.4313  156.3018   29.3041 C   0  0  0  0  0  0
   51.7894  155.2627   27.3095 C   0  0  0  0  0  0
   52.0872  155.8976   26.1015 C   0  0  0  0  0  0
   52.3330  155.1727   24.9520 C   0  0  0  0  0  0
   52.1904  153.7941   24.9341 C   0  0  0  0  0  0
   51.8242  153.1395   26.1037 C   0  0  0  0  0  0
   51.6561  153.8566   27.2936 C   0  0  0  0  0  0
   53.6427  157.6311   28.5040 C   0  0  0  0  0  0
   51.4439  153.0446   28.5440 C   0  0  0  0  0  0
   46.7491  160.7469   32.2635 H   0  0  0  0  0  0
   46.0963  158.6445   31.1716 H   0  0  0  0  0  0
   47.7889  157.2638   30.0279 H   0  0  0  0  0  0
   50.7761  160.2140   30.9750 H   0  0  0  0  0  0
   49.0926  161.5358   32.1567 H   0  0  0  0  0  0
   52.4374  155.5992   29.2991 H   0  0  0  0  0  0
   49.6560  155.9520   28.6432 H   0  0  0  0  0  0
   50.3828  155.5926   30.1041 H   0  0  0  0  0  0
   52.2083  156.9680   26.0390 H   0  0  0  0  0  0
   52.6604  155.7230   24.1040 H   0  0  0  0  0  0
   52.3838  153.2357   24.0295 H   0  0  0  0  0  0
   51.7377  152.0624   26.1007 H   0  0  0  0  0  0
   54.0559  157.3319   27.5482 H   0  0  0  0  0  0
   53.9554  158.6440   28.7079 H   0  0  0  0  0  0
   54.0568  157.0384   29.2993 H   0  0  0  0  0  0
   52.4223  152.7304   28.9035 H   0  0  0  0  0  0
   50.9204  153.5926   29.3223 H   0  0  0  0  0  0
   50.8566  152.1490   28.3402 H   0  0  0  0  0  0
  1  2  2  0  0  0
  1  6  1  0  0  0
  1 20  1  0  0  0
  2  3  1  0  0  0
  2 21  1  0  0  0
  3  4  2  0  0  0
  3 22  1  0  0  0
  4  5  1  0  0  0
  4  7  1  0  0  0
  5  6  2  0  0  0
  5 23  1  0  0  0
  6 24  1  0  0  0
  7  8  2  0  0  0
  7 11  1  0  0  0
  8  9  1  0  0  0
  9 10  1  0  0  0
  9 18  1  0  0  0
 10 11  1  0  0  0
 10 12  1  0  0  0
 10 25  1  0  0  0
 11 26  1  0  0  0
 11 27  1  0  0  0
 12 13  2  0  0  0
 12 17  1  0  0  0
 13 14  1  0  0  0
 13 28  1  0  0  0
 14 15  2  0  0  0
 14 29  1  0  0  0
 15 16  1  0  0  0
 15 30  1  0  0  0
 16 17  2  0  0  0
 16 31  1  0  0  0
 17 19  1  0  0  0
 18 32  1  0  0  0
 18 33  1  0  0  0
 18 34  1  0  0  0
 19 35  1  0  0  0
 19 36  1  0  0  0
 19 37  1  0  0  0
M  END
> <s_m_entry_id>
10363

> <s_m_entry_name>
dock_pv.399

> <s_m_Source_Path>
/home/csk/Desktop/cluster/DUD-E-result/aofb

> <s_m_Source_File>
dock_pv.maegz

> <i_m_Source_File_Index>
399

> <chembl_id>
CHEMBL2417760

> <chembl_pref_name>
None

> <i_lp_mmshare_version>
53161

> <i_f3d_flags>
0

> <r_lp_tautomer_probability>
1

> <s_lp_Force_Field>
OPLS_2005

> <r_lp_Energy>
24.798611

> <b_lp_Chiralities_Consistent>
1

> <s_lp_Variant>
CHEMBL2039_lig1028-2

> <s_i_glide_gridfile>
glide-grid_1s3b

> <i_i_glide_lignum>
1197

> <i_i_glide_rotatable_bonds>
2

> <r_i_docking_score>
-7.12728698561966

> <r_i_glide_ligand_efficiency>
-0.375120367664192

> <r_i_glide_ligand_efficiency_sa>
-1.00097180656188

> <r_i_glide_ligand_efficiency_ln>
-1.80692033094294

> <r_i_glide_gscore>
-7.12728698561966

> <r_i_glide_lipo>
-3.86913656207841

> <r_i_glide_hbond>
0

> <r_i_glide_metal>
0

> <r_i_glide_rewards>
-2.95486052100437

> <r_i_glide_evdw>
-20.7278060913086

> <r_i_glide_ecoul>
1.16264593601227

> <r_i_glide_erotb>
0.558703511626711

> <r_i_glide_esite>
0

> <r_i_glide_emodel>
-31.4779459271038

> <r_i_glide_energy>
-19.5651601552963

> <r_i_glide_einternal>
2.82110285758972

> <i_i_glide_confnum>
4

> <i_i_glide_posenum>
19

> <r_i_glide_eff_state_penalty>
0

> <s_user_duplicate_titles>
CHEMBL2039_lig1028

> <s_m_subgroup_title>
dock_pv

> <s_m_subgroupid>
dock_pv

> <b_m_subgroup_collapsed>
1

$$$$
CHEMBL2039_lig1731
                    3D
 Schrodinger Suite 2021-1.
 30 32  0  0  1  0            999 V2000
   51.4065  154.7936   27.8592 C   0  0  0  0  0  0
   51.4780  156.2096   28.2261 C   0  0  0  0  0  0
   52.4560  156.8801   27.2794 C   0  0  0  0  0  0
   52.6762  155.8442   26.1982 C   0  0  0  0  0  0
   53.4893  155.8683   25.0635 C   0  0  0  0  0  0
   53.7611  154.6745   24.3923 C   0  0  0  0  0  0
   53.0697  153.5051   24.7025 C   0  0  0  0  0  0
   52.1844  153.4986   25.7773 C   0  0  0  0  0  0
   52.0559  154.6543   26.5525 C   0  0  0  0  0  0
   50.8560  153.9143   28.5040 O   0  0  0  0  0  0
   50.6814  156.7145   29.2036 C   0  0  0  0  0  0
   50.5152  158.1041   29.7040 C   0  0  0  0  0  0
   51.5495  159.0449   29.7040 C   0  0  0  0  0  0
   51.3928  160.2740   30.3496 C   0  0  0  0  0  0
   50.1703  160.6087   30.9273 C   0  0  0  0  0  0
   49.1031  159.7179   30.8605 C   0  0  0  0  0  0
   49.2790  158.4730   30.2590 C   0  0  0  0  0  0
   54.7569  154.6440   23.4611 O   0  0  0  0  0  0
   52.8630  161.4727   30.5040 Br  0  0  0  0  0  0
   52.0560  157.8168   26.9040 H   0  0  0  0  0  0
   53.3922  157.1165   27.7872 H   0  0  0  0  0  0
   54.0405  156.7581   24.7996 H   0  0  0  0  0  0
   53.2572  152.5926   24.1556 H   0  0  0  0  0  0
   51.6982  152.5758   26.0608 H   0  0  0  0  0  0
   50.0385  156.0052   29.7049 H   0  0  0  0  0  0
   52.5133  158.7918   29.2923 H   0  0  0  0  0  0
   50.0560  161.5471   31.4468 H   0  0  0  0  0  0
   48.1537  159.9753   31.3066 H   0  0  0  0  0  0
   48.4537  157.7754   30.2590 H   0  0  0  0  0  0
   55.0400  153.7353   23.3023 H   0  0  0  0  0  0
  1  2  1  0  0  0
  1  9  1  0  0  0
  1 10  2  0  0  0
  2  3  1  0  0  0
  2 11  2  0  0  0
  3  4  1  0  0  0
  3 20  1  0  0  0
  3 21  1  0  0  0
  4  5  1  0  0  0
  4  9  2  0  0  0
  5  6  2  0  0  0
  5 22  1  0  0  0
  6  7  1  0  0  0
  6 18  1  0  0  0
  7  8  2  0  0  0
  7 23  1  0  0  0
  8  9  1  0  0  0
  8 24  1  0  0  0
 11 12  1  0  0  0
 11 25  1  0  0  0
 12 13  1  0  0  0
 12 17  2  0  0  0
 13 14  2  0  0  0
 13 26  1  0  0  0
 14 15  1  0  0  0
 14 19  1  0  0  0
 15 16  2  0  0  0
 15 27  1  0  0  0
 16 17  1  0  0  0
 16 28  1  0  0  0
 17 29  1  0  0  0
 18 30  1  0  0  0
M  END
> <s_m_entry_id>
10364

> <s_m_entry_name>
dock_pv.400

> <s_m_Source_Path>
/home/csk/Desktop/cluster/DUD-E-result/aofb

> <s_m_Source_File>
dock_pv.maegz

> <i_m_Source_File_Index>
400

> <chembl_id>
CHEMBL3979091

> <chembl_pref_name>
None

> <i_lp_mmshare_version>
53161

> <i_f3d_flags>
0

> <r_lp_tautomer_probability>
1

> <s_lp_Force_Field>
OPLS_2005

> <r_lp_Energy>
24.325043

> <b_lp_Chiralities_Consistent>
1

> <s_lp_Variant>
CHEMBL2039_lig1731-1

> <s_i_glide_gridfile>
glide-grid_1s3b

> <i_i_glide_lignum>
2019

> <i_i_glide_rotatable_bonds>
2

> <r_i_docking_score>
-7.12699252677814

> <r_i_glide_ligand_efficiency>
-0.375104869830429

> <r_i_glide_ligand_efficiency_sa>
-1.00093045211675

> <r_i_glide_ligand_efficiency_ln>
-1.80684567930222

> <r_i_glide_gscore>
-7.12699252677814

> <r_i_glide_lipo>
-3.06218196696663

> <r_i_glide_hbond>
-0.32

> <r_i_glide_metal>
0

> <r_i_glide_rewards>
-2.16509065872661

> <r_i_glide_evdw>
-23.5978775024414

> <r_i_glide_ecoul>
-2.6655068397522

> <r_i_glide_erotb>
0

> <r_i_glide_esite>
0

> <r_i_glide_emodel>
-28.2539411790699

> <r_i_glide_energy>
-26.2633843421936

> <r_i_glide_einternal>
0.74404901266098

> <i_i_glide_confnum>
1

> <i_i_glide_posenum>
76

> <r_i_glide_eff_state_penalty>
0

> <s_user_duplicate_titles>
CHEMBL2039_lig1731

> <s_m_subgroup_title>
dock_pv

> <s_m_subgroupid>
dock_pv

> <b_m_subgroup_collapsed>
1

$$$$
CHEMBL2039_lig599
                    3D
 Schrodinger Suite 2021-1.
 23 24  0  0  1  0            999 V2000
   53.4077  152.9473   23.7598 C   0  0  0  0  0  0
   53.0450  151.8421   24.5254 C   0  0  0  0  0  0
   52.3392  152.0229   25.7119 C   0  0  0  0  0  0
   53.1871  154.2304   24.2342 C   0  0  0  0  0  0
   52.4786  154.4164   25.4179 C   0  0  0  0  0  0
   52.0382  153.3116   26.1499 C   0  0  0  0  0  0
   51.3549  153.4660   27.3475 O   0  0  0  0  0  0
   51.3963  154.6658   28.0549 C   0  0  0  0  0  0
   52.0596  155.8241   27.3853 C   0  0  0  0  0  0
   52.4559  155.7002   26.0973 C   0  0  0  0  0  0
   50.8560  154.6474   29.1595 O   0  0  0  0  0  0
   52.4551  157.0273   28.0817 C   0  0  0  0  0  0
   53.5704  157.5186   27.9106 O   0  0  0  0  0  0
   51.5328  157.5521   28.9040 N   0  0  0  0  0  0
   51.6558  158.8807   29.3096 N   0  0  0  0  0  0
   53.9534  152.8050   22.8383 H   0  0  0  0  0  0
   53.2666  150.8451   24.1749 H   0  0  0  0  0  0
   52.0119  151.1640   26.2774 H   0  0  0  0  0  0
   53.6421  155.0499   23.7063 H   0  0  0  0  0  0
   52.9551  156.5275   25.6075 H   0  0  0  0  0  0
   50.5851  157.2018   28.9335 H   0  0  0  0  0  0
   52.2726  158.8760   30.1154 H   0  0  0  0  0  0
   52.1589  159.3588   28.5712 H   0  0  0  0  0  0
  1  4  1  0  0  0
  1  2  2  0  0  0
  1 16  1  0  0  0
  2  3  1  0  0  0
  2 17  1  0  0  0
  3  6  2  0  0  0
  3 18  1  0  0  0
  4  5  2  0  0  0
  4 19  1  0  0  0
  5 10  1  0  0  0
  5  6  1  0  0  0
  6  7  1  0  0  0
  7  8  1  0  0  0
  8  9  1  0  0  0
  8 11  2  0  0  0
  9 10  2  0  0  0
  9 12  1  0  0  0
 10 20  1  0  0  0
 12 13  2  0  0  0
 12 14  1  0  0  0
 14 15  1  0  0  0
 14 21  1  0  0  0
 15 22  1  0  0  0
 15 23  1  0  0  0
M  END
> <s_m_entry_id>
10365

> <s_m_entry_name>
dock_pv.401

> <s_m_Source_Path>
/home/csk/Desktop/cluster/DUD-E-result/aofb

> <s_m_Source_File>
dock_pv.maegz

> <i_m_Source_File_Index>
401

> <chembl_id>
CHEMBL1830829

> <chembl_pref_name>
None

> <i_lp_mmshare_version>
53161

> <i_f3d_flags>
0

> <r_lp_tautomer_probability>
1

> <s_lp_Force_Field>
OPLS_2005

> <r_lp_Energy>
20.044731

> <b_lp_Chiralities_Consistent>
1

> <s_lp_Variant>
CHEMBL2039_lig599-1

> <s_i_glide_gridfile>
glide-grid_1s3b

> <i_i_glide_lignum>
708

> <i_i_glide_rotatable_bonds>
2

> <r_i_docking_score>
-7.12428795132928

> <r_i_glide_ligand_efficiency>
-0.474952530088619

> <r_i_glide_ligand_efficiency_sa>
-1.17133366338101

> <r_i_glide_ligand_efficiency_ln>
-1.92130299347393

> <r_i_glide_gscore>
-7.12428795132928

> <r_i_glide_lipo>
-2.4876652981512

> <r_i_glide_hbond>
-0.591121119514267

> <r_i_glide_metal>
0

> <r_i_glide_rewards>
-2.99562609060759

> <r_i_glide_evdw>
-20.6371212005615

> <r_i_glide_ecoul>
-0.120129220187664

> <r_i_glide_erotb>
0

> <r_i_glide_esite>
0

> <r_i_glide_emodel>
-18.619428118452

> <r_i_glide_energy>
-20.7572504207492

> <r_i_glide_einternal>
4.89673185348511

> <i_i_glide_confnum>
1

> <i_i_glide_posenum>
269

> <r_i_glide_eff_state_penalty>
0

> <s_user_duplicate_titles>
CHEMBL2039_lig599

> <s_m_subgroup_title>
dock_pv

> <s_m_subgroupid>
dock_pv

> <b_m_subgroup_collapsed>
1

$$$$
CHEMBL2039_lig2262
                    3D
 Schrodinger Suite 2021-1.
 28 30  0  0  1  0            999 V2000
   52.3502  154.4110   25.6322 C   0  0  0  0  0  0
   51.5802  153.6251   26.4987 C   0  0  0  0  0  0
   51.0889  154.1326   27.7040 C   0  0  0  0  0  0
   52.7099  155.7207   25.9786 C   0  0  0  0  0  0
   52.2633  156.2381   27.2052 C   0  0  0  0  0  0
   51.4033  155.4611   28.0069 C   0  0  0  0  0  0
   50.8560  156.2290   28.9991 O   0  0  0  0  0  0
   51.4489  157.4639   28.9040 C   0  0  0  0  0  0
   52.4560  157.4341   27.9509 C   0  0  0  0  0  0
   50.8707  158.5889   29.7040 C   0  0  0  0  0  0
   49.5463  158.5381   30.1539 C   0  0  0  0  0  0
   49.0219  159.5643   30.9356 C   0  0  0  0  0  0
   49.8287  160.6440   31.2827 C   0  0  0  0  0  0
   51.1454  160.7140   30.8367 C   0  0  0  0  0  0
   51.6560  159.6993   30.0339 C   0  0  0  0  0  0
   52.8605  153.8215   24.3305 C   0  0  0  0  0  0
   51.3368  152.6087   26.2239 H   0  0  0  0  0  0
   50.4560  153.5448   28.3474 H   0  0  0  0  0  0
   53.3490  156.3069   25.3365 H   0  0  0  0  0  0
   53.1151  158.2440   27.7040 H   0  0  0  0  0  0
   48.9262  157.6825   29.9384 H   0  0  0  0  0  0
   48.0033  159.5107   31.2908 H   0  0  0  0  0  0
   49.4350  161.4320   31.9081 H   0  0  0  0  0  0
   51.7690  161.5498   31.1197 H   0  0  0  0  0  0
   52.6830  159.7511   29.7040 H   0  0  0  0  0  0
   52.7686  152.7349   24.3070 H   0  0  0  0  0  0
   53.9181  154.0546   24.2000 H   0  0  0  0  0  0
   52.3182  154.2440   23.4857 H   0  0  0  0  0  0
  1  2  2  0  0  0
  1  4  1  0  0  0
  1 16  1  0  0  0
  2  3  1  0  0  0
  2 17  1  0  0  0
  3  6  2  0  0  0
  3 18  1  0  0  0
  4  5  2  0  0  0
  4 19  1  0  0  0
  5  6  1  0  0  0
  5  9  1  0  0  0
  6  7  1  0  0  0
  7  8  1  0  0  0
  8  9  2  0  0  0
  8 10  1  0  0  0
  9 20  1  0  0  0
 10 11  2  0  0  0
 10 15  1  0  0  0
 11 12  1  0  0  0
 11 21  1  0  0  0
 12 13  2  0  0  0
 12 22  1  0  0  0
 13 14  1  0  0  0
 13 23  1  0  0  0
 14 15  2  0  0  0
 14 24  1  0  0  0
 15 25  1  0  0  0
 16 26  1  0  0  0
 16 27  1  0  0  0
 16 28  1  0  0  0
M  END
> <s_m_entry_id>
10366

> <s_m_entry_name>
dock_pv.402

> <s_m_Source_Path>
/home/csk/Desktop/cluster/DUD-E-result/aofb

> <s_m_Source_File>
dock_pv.maegz

> <i_m_Source_File_Index>
402

> <chembl_id>
CHEMBL4290453

> <chembl_pref_name>
None

> <i_lp_mmshare_version>
53161

> <i_f3d_flags>
0

> <r_lp_tautomer_probability>
1

> <s_lp_Force_Field>
OPLS_2005

> <r_lp_Energy>
9.828264

> <b_lp_Chiralities_Consistent>
1

> <s_lp_Variant>
CHEMBL2039_lig2262-1

> <s_i_glide_gridfile>
glide-grid_1s3b

> <i_i_glide_lignum>
2622

> <i_i_glide_rotatable_bonds>
1

> <r_i_docking_score>
-7.12210561669036

> <r_i_glide_ligand_efficiency>
-0.445131601043148

> <r_i_glide_ligand_efficiency_sa>
-1.1216613472187

> <r_i_glide_ligand_efficiency_ln>
-1.88785636099288

> <r_i_glide_gscore>
-7.12210561669036

> <r_i_glide_lipo>
-3.54702083541398

> <r_i_glide_hbond>
0

> <r_i_glide_metal>
0

> <r_i_glide_rewards>
-2.88916922727273

> <r_i_glide_evdw>
-20.1784496307373

> <r_i_glide_ecoul>
-0.39092230796814

> <r_i_glide_erotb>
0.381645273728435

> <r_i_glide_esite>
0

> <r_i_glide_emodel>
-22.832456641286

> <r_i_glide_energy>
-20.5693719387054

> <r_i_glide_einternal>
0.903161644935608

> <i_i_glide_confnum>
1

> <i_i_glide_posenum>
158

> <r_i_glide_eff_state_penalty>
0

> <s_user_duplicate_titles>
CHEMBL2039_lig2262

> <s_m_subgroup_title>
dock_pv

> <s_m_subgroupid>
dock_pv

> <b_m_subgroup_collapsed>
1

$$$$
CHEMBL2039_lig1482
                    3D
 Schrodinger Suite 2021-1.
 32 33  0  0  1  0            999 V2000
   50.1692  159.4118   30.2461 C   0  0  0  0  0  0
   48.8253  159.0174   30.3254 C   0  0  0  0  0  0
   47.9415  159.6294   31.2079 C   0  0  0  0  0  0
   48.3949  160.6453   32.0388 C   0  0  0  0  0  0
   49.7274  161.0439   31.9795 C   0  0  0  0  0  0
   50.6390  160.4416   31.0981 C   0  0  0  0  0  0
   51.0688  158.6816   29.3300 C   0  0  0  0  0  0
   51.1180  157.3472   29.1191 C   0  0  0  0  0  0
   52.0557  156.7636   28.1506 C   0  0  0  0  0  0
   51.7753  155.4141   27.5850 C   0  0  0  0  0  0
   52.9849  157.4401   27.7038 O   0  0  0  0  0  0
   52.0557  155.1702   26.2310 C   0  0  0  0  0  0
   51.9844  153.8785   25.7176 C   0  0  0  0  0  0
   51.6502  152.8291   26.5656 C   0  0  0  0  0  0
   51.3164  153.0658   27.8936 C   0  0  0  0  0  0
   51.3687  154.3577   28.4070 C   0  0  0  0  0  0
   51.6621  151.5438   26.1044 O   0  0  0  0  0  0
   52.1139  160.9069   31.1637 C   0  0  0  0  0  0
   52.8561  160.6441   30.1037 F   0  0  0  0  0  0
   52.2017  162.2251   31.3005 F   0  0  0  0  0  0
   52.7035  160.3239   32.2051 F   0  0  0  0  0  0
   48.4501  158.2206   29.7040 H   0  0  0  0  0  0
   46.9098  159.3116   31.2516 H   0  0  0  0  0  0
   47.7168  161.1219   32.7313 H   0  0  0  0  0  0
   50.0563  161.8288   32.6462 H   0  0  0  0  0  0
   51.7231  159.3057   28.7482 H   0  0  0  0  0  0
   50.4563  156.6765   29.6458 H   0  0  0  0  0  0
   52.3798  155.9708   25.5803 H   0  0  0  0  0  0
   52.2363  153.6857   24.6849 H   0  0  0  0  0  0
   51.0442  152.2422   28.5364 H   0  0  0  0  0  0
   51.1670  154.5049   29.4588 H   0  0  0  0  0  0
   51.6046  150.8955   26.8131 H   0  0  0  0  0  0
  1  2  2  0  0  0
  1  6  1  0  0  0
  1  7  1  0  0  0
  2  3  1  0  0  0
  2 22  1  0  0  0
  3  4  2  0  0  0
  3 23  1  0  0  0
  4  5  1  0  0  0
  4 24  1  0  0  0
  5  6  2  0  0  0
  5 25  1  0  0  0
  6 18  1  0  0  0
  7  8  2  0  0  0
  7 26  1  0  0  0
  8  9  1  0  0  0
  8 27  1  0  0  0
  9 10  1  0  0  0
  9 11  2  0  0  0
 10 12  2  0  0  0
 10 16  1  0  0  0
 12 13  1  0  0  0
 12 28  1  0  0  0
 13 14  2  0  0  0
 13 29  1  0  0  0
 14 15  1  0  0  0
 14 17  1  0  0  0
 15 16  2  0  0  0
 15 30  1  0  0  0
 16 31  1  0  0  0
 17 32  1  0  0  0
 18 19  1  0  0  0
 18 20  1  0  0  0
 18 21  1  0  0  0
M  END
> <s_m_entry_id>
10367

> <s_m_entry_name>
dock_pv.403

> <s_m_Source_Path>
/home/csk/Desktop/cluster/DUD-E-result/aofb

> <s_m_Source_File>
dock_pv.maegz

> <i_m_Source_File_Index>
403

> <chembl_id>
CHEMBL3613158

> <chembl_pref_name>
None

> <i_lp_mmshare_version>
53161

> <i_f3d_flags>
0

> <r_lp_tautomer_probability>
1

> <s_lp_Force_Field>
OPLS_2005

> <r_lp_Energy>
19.480494

> <b_lp_Chiralities_Consistent>
1

> <s_lp_Variant>
CHEMBL2039_lig1482-1

> <s_i_glide_gridfile>
glide-grid_1s3b

> <i_i_glide_lignum>
1706

> <i_i_glide_rotatable_bonds>
5

> <r_i_docking_score>
-7.12039502790667

> <r_i_glide_ligand_efficiency>
-0.339066429900318

> <r_i_glide_ligand_efficiency_sa>
-0.935458569901879

> <r_i_glide_ligand_efficiency_ln>
-1.76050328253701

> <r_i_glide_gscore>
-7.12039502790667

> <r_i_glide_lipo>
-4.28248552477314

> <r_i_glide_hbond>
-0.183077981472087

> <r_i_glide_metal>
0

> <r_i_glide_rewards>
-1.51268015538222

> <r_i_glide_evdw>
-30.2384834289551

> <r_i_glide_ecoul>
-1.24239695072174

> <r_i_glide_erotb>
0.641155329889627

> <r_i_glide_esite>
-0.0850229821128339

> <r_i_glide_emodel>
-37.9890568008521

> <r_i_glide_energy>
-31.4808803796768

> <r_i_glide_einternal>
8.12357044219971

> <i_i_glide_confnum>
4

> <i_i_glide_posenum>
100

> <r_i_glide_eff_state_penalty>
0

> <s_user_duplicate_titles>
CHEMBL2039_lig1482

> <s_m_subgroup_title>
dock_pv

> <s_m_subgroupid>
dock_pv

> <b_m_subgroup_collapsed>
1

$$$$
CHEMBL2039_lig1214
                    3D
 Schrodinger Suite 2021-1.
 33 35  0  0  1  0            999 V2000
   50.8560  155.4440   28.9040 S   0  0  0  0  0  0
   48.2425  159.3442   30.9725 O   0  0  0  0  0  0
   52.3648  156.6438   27.2179 N   0  0  0  0  0  0
   51.6560  158.0529   28.9485 N   0  0  0  0  0  0
   50.5453  158.4503   29.7040 N   0  0  0  0  0  0
   52.1574  155.4440   26.6956 C   0  0  0  0  0  0
   51.4778  154.5499   27.5472 C   0  0  0  0  0  0
   51.7524  156.8174   28.3503 C   0  0  0  0  0  0
   52.8120  155.0932   25.3829 C   0  0  0  0  0  0
   53.8394  155.9095   24.9040 C   0  0  0  0  0  0
   52.5327  153.9028   24.7019 C   0  0  0  0  0  0
   51.2560  153.0690   27.4367 C   0  0  0  0  0  0
   49.4120  160.0457   31.0141 C   0  0  0  0  0  0
   50.4951  159.6423   30.1238 C   0  0  0  0  0  0
   54.7220  155.4541   23.9362 C   0  0  0  0  0  0
   53.3514  153.4757   23.6674 C   0  0  0  0  0  0
   49.2926  161.0440   31.9736 C   0  0  0  0  0  0
   54.4560  154.2440   23.3102 C   0  0  0  0  0  0
   47.3950  159.8944   31.8787 C   0  0  0  0  0  0
   48.0144  160.9476   32.5258 C   0  0  0  0  0  0
   52.2822  158.8037   28.6898 H   0  0  0  0  0  0
   54.0488  156.8714   25.3419 H   0  0  0  0  0  0
   51.7081  153.2708   24.9708 H   0  0  0  0  0  0
   52.1709  152.5430   27.1684 H   0  0  0  0  0  0
   50.8852  152.6178   28.3574 H   0  0  0  0  0  0
   50.5218  152.8854   26.6564 H   0  0  0  0  0  0
   51.2476  160.4051   29.9418 H   0  0  0  0  0  0
   55.5635  156.0621   23.6398 H   0  0  0  0  0  0
   53.1445  152.5483   23.1529 H   0  0  0  0  0  0
   50.0561  161.7579   32.2510 H   0  0  0  0  0  0
   55.0764  153.8932   22.5042 H   0  0  0  0  0  0
   46.4156  159.4441   31.9541 H   0  0  0  0  0  0
   47.5917  161.5692   33.3013 H   0  0  0  0  0  0
  1  7  1  0  0  0
  1  8  1  0  0  0
  2 13  1  0  0  0
  2 19  1  0  0  0
  3  6  1  0  0  0
  3  8  2  0  0  0
  4  5  1  0  0  0
  4  8  1  0  0  0
  4 21  1  0  0  0
  5 14  2  0  0  0
  6  7  2  0  0  0
  6  9  1  0  0  0
  7 12  1  0  0  0
  9 10  2  0  0  0
  9 11  1  0  0  0
 10 15  1  0  0  0
 10 22  1  0  0  0
 11 16  2  0  0  0
 11 23  1  0  0  0
 12 24  1  0  0  0
 12 25  1  0  0  0
 12 26  1  0  0  0
 13 14  1  0  0  0
 13 17  2  0  0  0
 14 27  1  0  0  0
 15 18  2  0  0  0
 15 28  1  0  0  0
 16 18  1  0  0  0
 16 29  1  0  0  0
 17 20  1  0  0  0
 17 30  1  0  0  0
 18 31  1  0  0  0
 19 20  2  0  0  0
 19 32  1  0  0  0
 20 33  1  0  0  0
M  END
> <s_m_entry_id>
10368

> <s_m_entry_name>
dock_pv.404

> <s_m_Source_Path>
/home/csk/Desktop/cluster/DUD-E-result/aofb

> <s_m_Source_File>
dock_pv.maegz

> <i_m_Source_File_Index>
404

> <chembl_id>
CHEMBL3213945

> <chembl_pref_name>
None

> <i_lp_mmshare_version>
53161

> <i_f3d_flags>
0

> <r_lp_tautomer_probability>
1

> <s_lp_Force_Field>
OPLS_2005

> <r_lp_Energy>
11.519558

> <b_lp_Chiralities_Consistent>
1

> <s_lp_Variant>
CHEMBL2039_lig1214-1

> <s_i_glide_gridfile>
glide-grid_1s3b

> <i_i_glide_lignum>
1397

> <i_i_glide_rotatable_bonds>
4

> <r_i_docking_score>
-7.11944704211543

> <r_i_glide_ligand_efficiency>
-0.355972352105772

> <r_i_glide_ligand_efficiency_sa>
-0.966257622611748

> <r_i_glide_ligand_efficiency_ln>
-1.78176277956257

> <r_i_glide_gscore>
-7.11944704211543

> <r_i_glide_lipo>
-3.66922767308326

> <r_i_glide_hbond>
-0.0787762624641357

> <r_i_glide_metal>
0

> <r_i_glide_rewards>
-2.82716440909091

> <r_i_glide_evdw>
-24.6255226135254

> <r_i_glide_ecoul>
0.0689138397574425

> <r_i_glide_erotb>
0.67666035723553

> <r_i_glide_esite>
0

> <r_i_glide_emodel>
-24.4687896564562

> <r_i_glide_energy>
-24.5566087737679

> <r_i_glide_einternal>
3.06554007530212

> <i_i_glide_confnum>
4

> <i_i_glide_posenum>
381

> <r_i_glide_eff_state_penalty>
0

> <s_user_duplicate_titles>
CHEMBL2039_lig1214

> <s_m_subgroup_title>
dock_pv

> <s_m_subgroupid>
dock_pv

> <b_m_subgroup_collapsed>
1

$$$$
CHEMBL2039_lig1725
                    3D
 Schrodinger Suite 2021-1.
 30 32  0  0  1  0            999 V2000
   51.4104  154.6705   27.8591 C   0  0  0  0  0  0
   51.5185  156.0975   28.1533 C   0  0  0  0  0  0
   52.4560  156.6998   27.1233 C   0  0  0  0  0  0
   52.6234  155.6093   26.0916 C   0  0  0  0  0  0
   53.3631  155.5671   24.9044 C   0  0  0  0  0  0
   53.5645  154.3357   24.2751 C   0  0  0  0  0  0
   52.9156  153.1849   24.7150 C   0  0  0  0  0  0
   52.1172  153.2413   25.8516 C   0  0  0  0  0  0
   52.0276  154.4442   26.5514 C   0  0  0  0  0  0
   50.8560  153.8439   28.5632 O   0  0  0  0  0  0
   54.4562  154.2440   23.2545 O   0  0  0  0  0  0
   50.7809  156.6458   29.1551 C   0  0  0  0  0  0
   50.6416  158.0407   29.6497 C   0  0  0  0  0  0
   49.4323  158.4094   30.2558 C   0  0  0  0  0  0
   49.2751  159.6710   30.8184 C   0  0  0  0  0  0
   50.3314  160.5736   30.7691 C   0  0  0  0  0  0
   51.5137  160.2464   30.1105 C   0  0  0  0  0  0
   51.6560  158.9892   29.5284 C   0  0  0  0  0  0
   52.0560  157.6067   26.6989 H   0  0  0  0  0  0
   53.4122  156.9659   27.5754 H   0  0  0  0  0  0
   53.8905  156.4394   24.5484 H   0  0  0  0  0  0
   53.0581  152.2434   24.2056 H   0  0  0  0  0  0
   51.6493  152.3392   26.2201 H   0  0  0  0  0  0
   54.7761  153.3389   23.1514 H   0  0  0  0  0  0
   50.1590  155.9552   29.7051 H   0  0  0  0  0  0
   48.6201  157.7006   30.3310 H   0  0  0  0  0  0
   48.3547  159.9349   31.3184 H   0  0  0  0  0  0
   50.2328  161.5286   31.2588 H   0  0  0  0  0  0
   52.3280  160.9543   30.0805 H   0  0  0  0  0  0
   52.5864  158.7285   29.0469 H   0  0  0  0  0  0
  1  2  1  0  0  0
  1  9  1  0  0  0
  1 10  2  0  0  0
  2  3  1  0  0  0
  2 12  2  0  0  0
  3  4  1  0  0  0
  3 19  1  0  0  0
  3 20  1  0  0  0
  4  5  1  0  0  0
  4  9  2  0  0  0
  5  6  2  0  0  0
  5 21  1  0  0  0
  6  7  1  0  0  0
  6 11  1  0  0  0
  7  8  2  0  0  0
  7 22  1  0  0  0
  8  9  1  0  0  0
  8 23  1  0  0  0
 11 24  1  0  0  0
 12 13  1  0  0  0
 12 25  1  0  0  0
 13 14  1  0  0  0
 13 18  2  0  0  0
 14 15  2  0  0  0
 14 26  1  0  0  0
 15 16  1  0  0  0
 15 27  1  0  0  0
 16 17  2  0  0  0
 16 28  1  0  0  0
 17 18  1  0  0  0
 17 29  1  0  0  0
 18 30  1  0  0  0
M  END
> <s_m_entry_id>
10369

> <s_m_entry_name>
dock_pv.405

> <s_m_Source_Path>
/home/csk/Desktop/cluster/DUD-E-result/aofb

> <s_m_Source_File>
dock_pv.maegz

> <i_m_Source_File_Index>
405

> <chembl_id>
CHEMBL3896947

> <chembl_pref_name>
None

> <i_lp_mmshare_version>
53161

> <i_f3d_flags>
0

> <r_lp_tautomer_probability>
1

> <s_lp_Force_Field>
OPLS_2005

> <r_lp_Energy>
24.899284

> <b_lp_Chiralities_Consistent>
1

> <s_lp_Variant>
CHEMBL2039_lig1725-1

> <s_i_glide_gridfile>
glide-grid_1s3b

> <i_i_glide_lignum>
2013

> <i_i_glide_rotatable_bonds>
2

> <r_i_docking_score>
-7.1184757270584

> <r_i_glide_ligand_efficiency>
-0.395470873725467

> <r_i_glide_ligand_efficiency_sa>
-1.03642688797774

> <r_i_glide_ligand_efficiency_ln>
-1.82976747983281

> <r_i_glide_gscore>
-7.1184757270584

> <r_i_glide_lipo>
-3.17701563904362

> <r_i_glide_hbond>
-0.32

> <r_i_glide_metal>
0

> <r_i_glide_rewards>
-2.36011772942561

> <r_i_glide_evdw>
-17.4772357940674

> <r_i_glide_ecoul>
-2.58320379257202

> <r_i_glide_erotb>
0

> <r_i_glide_esite>
0

> <r_i_glide_emodel>
-20.4092682299497

> <r_i_glide_energy>
-20.0604395866394

> <r_i_glide_einternal>
1.2726457118988

> <i_i_glide_confnum>
1

> <i_i_glide_posenum>
77

> <r_i_glide_eff_state_penalty>
0

> <s_user_duplicate_titles>
CHEMBL2039_lig1725

> <s_m_subgroup_title>
dock_pv

> <s_m_subgroupid>
dock_pv

> <b_m_subgroup_collapsed>
1

$$$$
CHEMBL2039_lig192
                    3D
 Schrodinger Suite 2021-1.
 30 33  0  0  1  0            999 V2000
   52.2392  156.0585   26.9721 C   0  0  0  0  0  0
   51.6531  154.8842   27.3948 C   0  0  0  0  0  0
   52.8560  155.8440   25.6367 C   0  0  0  0  0  0
   50.8972  154.7980   28.5186 N   0  0  0  0  0  0
   52.6947  154.3972   25.3938 C   0  0  0  0  0  0
   51.9895  153.8206   26.4481 C   0  0  0  0  0  0
   50.6585  155.9183   29.2285 N   0  0  0  0  0  0
   51.2560  157.1124   28.9040 C   0  0  0  0  0  0
   52.1369  157.1712   27.8076 C   0  0  0  0  0  0
   50.8050  158.3653   29.6429 C   0  0  0  0  0  0
   53.4270  156.6440   24.9040 O   0  0  0  0  0  0
   49.5233  158.5642   30.2271 C   0  0  0  0  0  0
   48.2171  157.4440   30.1040 Cl  0  0  0  0  0  0
   53.2560  153.6043   24.3928 C   0  0  0  0  0  0
   51.8184  152.4422   26.5040 C   0  0  0  0  0  0
   51.6955  159.4440   29.7502 C   0  0  0  0  0  0
   49.2346  159.7121   30.9672 C   0  0  0  0  0  0
   53.1709  152.2176   24.5041 C   0  0  0  0  0  0
   52.4560  151.6399   25.5575 C   0  0  0  0  0  0
   51.4183  160.5821   30.5040 C   0  0  0  0  0  0
   50.1899  160.7023   31.1349 C   0  0  0  0  0  0
   52.5998  158.1016   27.5272 H   0  0  0  0  0  0
   53.8305  154.0370   23.5864 H   0  0  0  0  0  0
   51.2748  151.9831   27.3177 H   0  0  0  0  0  0
   52.6803  159.3661   29.3164 H   0  0  0  0  0  0
   48.2649  159.8294   31.4287 H   0  0  0  0  0  0
   53.6454  151.5915   23.7633 H   0  0  0  0  0  0
   52.3794  150.5648   25.6299 H   0  0  0  0  0  0
   52.1624  161.3573   30.6156 H   0  0  0  0  0  0
   49.9722  161.5729   31.7358 H   0  0  0  0  0  0
  1  2  1  0  0  0
  1  3  1  0  0  0
  1  9  2  0  0  0
  2  4  2  0  0  0
  2  6  1  0  0  0
  3  5  1  0  0  0
  3 11  2  0  0  0
  4  7  1  0  0  0
  5 14  2  0  0  0
  5  6  1  0  0  0
  6 15  2  0  0  0
  7  8  2  0  0  0
  8  9  1  0  0  0
  8 10  1  0  0  0
  9 22  1  0  0  0
 10 12  1  0  0  0
 10 16  2  0  0  0
 12 13  1  0  0  0
 12 17  2  0  0  0
 14 18  1  0  0  0
 14 23  1  0  0  0
 15 19  1  0  0  0
 15 24  1  0  0  0
 16 20  1  0  0  0
 16 25  1  0  0  0
 17 21  1  0  0  0
 17 26  1  0  0  0
 18 19  2  0  0  0
 18 27  1  0  0  0
 19 28  1  0  0  0
 20 21  2  0  0  0
 20 29  1  0  0  0
 21 30  1  0  0  0
M  END
> <s_m_entry_id>
10370

> <s_m_entry_name>
dock_pv.406

> <s_m_Source_Path>
/home/csk/Desktop/cluster/DUD-E-result/aofb

> <s_m_Source_File>
dock_pv.maegz

> <i_m_Source_File_Index>
406

> <chembl_id>
CHEMBL127518

> <chembl_pref_name>
None

> <i_lp_mmshare_version>
53161

> <i_f3d_flags>
0

> <r_lp_tautomer_probability>
1

> <s_lp_Force_Field>
OPLS_2005

> <r_lp_Energy>
45.308845

> <b_lp_Chiralities_Consistent>
1

> <s_lp_Variant>
CHEMBL2039_lig192-1

> <s_i_glide_gridfile>
glide-grid_1s3b

> <i_i_glide_lignum>
233

> <i_i_glide_rotatable_bonds>
1

> <r_i_docking_score>
-7.1141812995085

> <r_i_glide_ligand_efficiency>
-0.338770538071833

> <r_i_glide_ligand_efficiency_sa>
-0.934642226783509

> <r_i_glide_ligand_efficiency_ln>
-1.75896695074658

> <r_i_glide_gscore>
-7.1141812995085

> <r_i_glide_lipo>
-3.74946413380919

> <r_i_glide_hbond>
0

> <r_i_glide_metal>
0

> <r_i_glide_rewards>
-2.29797296780709

> <r_i_glide_evdw>
-17.0157165527344

> <r_i_glide_ecoul>
-2.86055326461792

> <r_i_glide_erotb>
0.21312461943719

> <r_i_glide_esite>
0

> <r_i_glide_emodel>
-23.0145531035698

> <r_i_glide_energy>
-19.8762698173523

> <r_i_glide_einternal>
0.765521168708801

> <i_i_glide_confnum>
2

> <i_i_glide_posenum>
225

> <r_i_glide_eff_state_penalty>
0

> <s_user_duplicate_titles>
CHEMBL2039_lig192

> <s_m_subgroup_title>
dock_pv

> <s_m_subgroupid>
dock_pv

> <b_m_subgroup_collapsed>
1

$$$$
CHEMBL2039_lig2511
                    3D
 Schrodinger Suite 2021-1.
 21 21  0  0  1  0            999 V2000
   52.3360  155.0577   25.4789 C   0  0  0  0  0  0
   51.7199  153.9105   25.9744 C   0  0  0  0  0  0
   51.2561  153.8865   27.2881 C   0  0  0  0  0  0
   52.5030  156.1722   26.3033 C   0  0  0  0  0  0
   52.0559  156.1589   27.6304 C   0  0  0  0  0  0
   51.3988  155.0090   28.1046 C   0  0  0  0  0  0
   52.2629  157.3327   28.4775 C   0  0  0  0  0  0
   51.2866  158.0244   28.9059 N   0  0  0  0  0  0
   51.6558  159.0442   29.7040 N   0  0  0  0  0  0
   50.8014  159.8644   30.3832 C   0  0  0  0  0  0
   49.1329  159.8439   30.3455 S   0  0  0  0  0  0
   51.4236  160.7569   31.1832 N   0  0  0  0  0  0
   50.8565  154.9735   29.3434 F   0  0  0  0  0  0
   52.6987  155.0771   24.4624 H   0  0  0  0  0  0
   51.6061  153.0437   25.3413 H   0  0  0  0  0  0
   50.7719  153.0057   27.6787 H   0  0  0  0  0  0
   53.0001  157.0437   25.9049 H   0  0  0  0  0  0
   53.3056  157.5520   28.7000 H   0  0  0  0  0  0
   52.6460  159.0783   29.9087 H   0  0  0  0  0  0
   50.8711  161.3644   31.7722 H   0  0  0  0  0  0
   52.4270  160.7348   31.2932 H   0  0  0  0  0  0
  1  2  2  0  0  0
  1  4  1  0  0  0
  1 14  1  0  0  0
  2  3  1  0  0  0
  2 15  1  0  0  0
  3  6  2  0  0  0
  3 16  1  0  0  0
  4  5  2  0  0  0
  4 17  1  0  0  0
  5  7  1  0  0  0
  5  6  1  0  0  0
  6 13  1  0  0  0
  7  8  2  0  0  0
  7 18  1  0  0  0
  8  9  1  0  0  0
  9 10  1  0  0  0
  9 19  1  0  0  0
 10 11  2  0  0  0
 10 12  1  0  0  0
 12 20  1  0  0  0
 12 21  1  0  0  0
M  END
> <s_m_entry_id>
10371

> <s_m_entry_name>
dock_pv.407

> <s_m_Source_Path>
/home/csk/Desktop/cluster/DUD-E-result/aofb

> <s_m_Source_File>
dock_pv.maegz

> <i_m_Source_File_Index>
407

> <chembl_id>
CHEMBL393467

> <chembl_pref_name>
None

> <i_lp_mmshare_version>
53161

> <i_f3d_flags>
0

> <r_lp_tautomer_probability>
1

> <s_lp_Force_Field>
OPLS_2005

> <r_lp_Energy>
7.938834

> <b_lp_Chiralities_Consistent>
1

> <s_lp_Variant>
CHEMBL2039_lig2511-1

> <s_i_glide_gridfile>
glide-grid_1s3b

> <i_i_glide_lignum>
2914

> <i_i_glide_rotatable_bonds>
3

> <r_i_docking_score>
-7.11367569962393

> <r_i_glide_ligand_efficiency>
-0.547205823047995

> <r_i_glide_ligand_efficiency_sa>
-1.28666403195546

> <r_i_glide_ligand_efficiency_ln>
-1.99544929992759

> <r_i_glide_gscore>
-7.11367569962393

> <r_i_glide_lipo>
-1.71152231373958

> <r_i_glide_hbond>
-0.236848648088639

> <r_i_glide_metal>
0

> <r_i_glide_rewards>
-3.98602837084659

> <r_i_glide_evdw>
-28.3418960571289

> <r_i_glide_ecoul>
-3.93085050582886

> <r_i_glide_erotb>
0.835828532511483

> <r_i_glide_esite>
-0.00838252072983194

> <r_i_glide_emodel>
-42.0614181889997

> <r_i_glide_energy>
-32.2727465629578

> <r_i_glide_einternal>
6.89837026596069

> <i_i_glide_confnum>
3

> <i_i_glide_posenum>
219

> <r_i_glide_eff_state_penalty>
0

> <s_user_duplicate_titles>
CHEMBL2039_lig2511

> <s_m_subgroup_title>
dock_pv

> <s_m_subgroupid>
dock_pv

> <b_m_subgroup_collapsed>
1

$$$$
CHEMBL2039_lig1009
                    3D
 Schrodinger Suite 2021-1.
 38 41  0  0  1  0            999 V2000
   50.9783  156.0597   28.8739 C   0  0  0  0  0  0
   52.0352  156.5788   28.1149 C   0  0  0  0  0  0
   52.4728  157.8444   28.4392 C   0  0  0  0  0  0
   51.6411  158.6441   29.2423 C   0  0  0  0  0  0
   50.4555  158.1038   29.7599 C   0  0  0  0  0  0
   50.2120  156.7614   29.7040 N   0  0  0  0  0  0
   50.8560  154.3866   28.5039 S   0  0  0  0  0  0
   51.8314  154.6658   27.0880 C   0  0  0  0  0  0
   52.4448  155.8210   27.0695 N   0  0  0  0  0  0
   49.4429  158.8800   30.3502 N   0  0  0  0  0  0
   49.7872  160.0600   31.1729 C   0  0  0  0  0  0
   48.6081  160.9593   31.5640 C   0  0  0  0  0  0
   47.4560  160.1944   32.1916 C   0  0  0  0  0  0
   46.9956  159.2088   31.1309 C   0  0  0  0  0  0
   48.1394  158.2619   30.7224 C   0  0  0  0  0  0
   52.0688  153.5594   26.1096 C   0  0  0  0  0  0
   51.7364  152.2440   26.4521 C   0  0  0  0  0  0
   52.2314  151.1883   25.7041 C   0  0  0  0  0  0
   53.0737  151.4266   24.6512 C   0  0  0  0  0  0
   53.2628  152.7243   24.1805 C   0  0  0  0  0  0
   52.7697  153.7977   24.9186 C   0  0  0  0  0  0
   53.6558  150.3488   24.1040 F   0  0  0  0  0  0
   53.3486  158.2439   27.9550 H   0  0  0  0  0  0
   51.8844  159.6862   29.3683 H   0  0  0  0  0  0
   50.5080  160.6812   30.6438 H   0  0  0  0  0  0
   50.2698  159.7310   32.0902 H   0  0  0  0  0  0
   48.2592  161.4440   30.6557 H   0  0  0  0  0  0
   48.9502  161.7485   32.2357 H   0  0  0  0  0  0
   47.7805  159.6748   33.0942 H   0  0  0  0  0  0
   46.6449  160.8602   32.4810 H   0  0  0  0  0  0
   46.1538  158.6438   31.5208 H   0  0  0  0  0  0
   46.5982  159.7141   30.2497 H   0  0  0  0  0  0
   47.7832  157.6828   29.8689 H   0  0  0  0  0  0
   48.3118  157.5504   31.5260 H   0  0  0  0  0  0
   51.1903  151.9989   27.3495 H   0  0  0  0  0  0
   52.0429  150.1736   26.0224 H   0  0  0  0  0  0
   53.8717  152.9019   23.3067 H   0  0  0  0  0  0
   53.0198  154.8056   24.6213 H   0  0  0  0  0  0
  1  2  1  0  0  0
  1  6  2  0  0  0
  1  7  1  0  0  0
  2  3  2  0  0  0
  2  9  1  0  0  0
  3  4  1  0  0  0
  3 23  1  0  0  0
  4  5  2  0  0  0
  4 24  1  0  0  0
  5  6  1  0  0  0
  5 10  1  0  0  0
  7  8  1  0  0  0
  8  9  2  0  0  0
  8 16  1  0  0  0
 10 11  1  0  0  0
 10 15  1  0  0  0
 11 12  1  0  0  0
 11 25  1  0  0  0
 11 26  1  0  0  0
 12 13  1  0  0  0
 12 27  1  0  0  0
 12 28  1  0  0  0
 13 14  1  0  0  0
 13 29  1  0  0  0
 13 30  1  0  0  0
 14 15  1  0  0  0
 14 31  1  0  0  0
 14 32  1  0  0  0
 15 33  1  0  0  0
 15 34  1  0  0  0
 16 17  1  0  0  0
 16 21  2  0  0  0
 17 18  2  0  0  0
 17 35  1  0  0  0
 18 19  1  0  0  0
 18 36  1  0  0  0
 19 20  2  0  0  0
 19 22  1  0  0  0
 20 21  1  0  0  0
 20 37  1  0  0  0
 21 38  1  0  0  0
M  END
> <s_m_entry_id>
10372

> <s_m_entry_name>
dock_pv.408

> <s_m_Source_Path>
/home/csk/Desktop/cluster/DUD-E-result/aofb

> <s_m_Source_File>
dock_pv.maegz

> <i_m_Source_File_Index>
408

> <chembl_id>
CHEMBL2418211

> <chembl_pref_name>
None

> <i_lp_mmshare_version>
53161

> <i_f3d_flags>
0

> <r_lp_tautomer_probability>
1

> <s_lp_Force_Field>
OPLS_2005

> <r_lp_Energy>
27.726332

> <b_lp_Chiralities_Consistent>
1

> <s_lp_Variant>
CHEMBL2039_lig1009-1

> <s_i_glide_gridfile>
glide-grid_1s3b

> <i_i_glide_lignum>
1159

> <i_i_glide_rotatable_bonds>
2

> <r_i_docking_score>
-7.1131304150007

> <r_i_glide_ligand_efficiency>
-0.323324109772759

> <r_i_glide_ligand_efficiency_sa>
-0.90596687119895

> <r_i_glide_ligand_efficiency_ln>
-1.73870853116217

> <r_i_glide_gscore>
-7.1131304150007

> <r_i_glide_lipo>
-4.21120080657287

> <r_i_glide_hbond>
0

> <r_i_glide_metal>
0

> <r_i_glide_rewards>
-2.69884693834801

> <r_i_glide_evdw>
-5.87244129180908

> <r_i_glide_ecoul>
-1.91785967350006

> <r_i_glide_erotb>
0.378218345535637

> <r_i_glide_esite>
0

> <r_i_glide_emodel>
-31.0764057036208

> <r_i_glide_energy>
-7.79030096530914

> <r_i_glide_einternal>
0.948204636573792

> <i_i_glide_confnum>
17

> <i_i_glide_posenum>
362

> <r_i_glide_eff_state_penalty>
0

> <s_user_duplicate_titles>
CHEMBL2039_lig1009

> <s_m_subgroup_title>
dock_pv

> <s_m_subgroupid>
dock_pv

> <b_m_subgroup_collapsed>
1

$$$$
CHEMBL2039_lig334
                    3D
 Schrodinger Suite 2021-1.
 35 37  0  0  1  0            999 V2000
   47.6389  160.0070   31.7426 C   0  0  0  0  0  0
   48.4915  161.0063   32.2134 C   0  0  0  0  0  0
   49.8074  161.0654   31.7591 C   0  0  0  0  0  0
   48.1354  158.9988   30.9207 C   0  0  0  0  0  0
   49.4535  159.0663   30.4848 C   0  0  0  0  0  0
   50.2676  160.1622   30.8036 C   0  0  0  0  0  0
   51.6128  160.2756   30.1851 C   0  0  0  0  0  0
   51.8533  159.2302   29.0884 C   0  0  0  0  0  0
   51.3043  157.9025   29.5242 C   0  0  1  0  0  0
   49.8926  158.0197   29.7040 O   0  0  0  0  0  0
   51.6537  156.7094   28.5974 C   0  0  0  0  0  0
   52.4432  156.8531   27.4471 C   0  0  0  0  0  0
   51.8306  154.6221   26.7468 C   0  0  0  0  0  0
   51.1769  154.4179   27.9599 C   0  0  0  0  0  0
   52.4560  155.8428   26.4901 C   0  0  0  0  0  0
   51.0518  155.4709   28.8606 C   0  0  0  0  0  0
   52.4422  161.1198   30.5200 O   0  0  0  0  0  0
   46.1787  160.0344   32.1033 C   0  0  0  0  0  0
   51.9061  153.5063   25.7220 C   0  0  0  0  0  0
   48.1278  161.7664   32.8895 H   0  0  0  0  0  0
   50.4444  161.8693   32.1040 H   0  0  0  0  0  0
   47.5026  158.1862   30.5963 H   0  0  0  0  0  0
   52.9103  159.0440   28.9054 H   0  0  0  0  0  0
   51.2514  159.4440   28.2136 H   0  0  0  0  0  0
   51.7312  157.8440   30.5037 H   0  0  0  0  0  0
   52.9504  157.7787   27.2283 H   0  0  0  0  0  0
   50.7078  153.4695   28.1759 H   0  0  0  0  0  0
   52.9990  155.9903   25.5683 H   0  0  0  0  0  0
   50.4558  155.3314   29.7498 H   0  0  0  0  0  0
   45.7321  159.0440   32.1040 H   0  0  0  0  0  0
   46.0560  160.4769   33.0891 H   0  0  0  0  0  0
   45.6560  160.6394   31.3662 H   0  0  0  0  0  0
   51.6255  152.5416   26.1463 H   0  0  0  0  0  0
   51.2565  153.7289   24.8766 H   0  0  0  0  0  0
   52.9255  153.4099   25.3460 H   0  0  0  0  0  0
  1  2  2  0  0  0
  1  4  1  0  0  0
  1 18  1  0  0  0
  2  3  1  0  0  0
  2 20  1  0  0  0
  3  6  2  0  0  0
  3 21  1  0  0  0
  4  5  2  0  0  0
  4 22  1  0  0  0
  5  6  1  0  0  0
  5 10  1  0  0  0
  6  7  1  0  0  0
  7  8  1  0  0  0
  7 17  2  0  0  0
  8  9  1  0  0  0
  8 23  1  0  0  0
  8 24  1  0  0  0
  9 10  1  0  0  0
  9 11  1  0  0  0
  9 25  1  0  0  0
 11 12  2  0  0  0
 11 16  1  0  0  0
 12 15  1  0  0  0
 12 26  1  0  0  0
 13 14  1  0  0  0
 13 15  2  0  0  0
 13 19  1  0  0  0
 14 16  2  0  0  0
 14 27  1  0  0  0
 15 28  1  0  0  0
 16 29  1  0  0  0
 18 30  1  0  0  0
 18 31  1  0  0  0
 18 32  1  0  0  0
 19 33  1  0  0  0
 19 34  1  0  0  0
 19 35  1  0  0  0
M  END
> <s_m_entry_id>
10373

> <s_m_entry_name>
dock_pv.409

> <s_m_Source_Path>
/home/csk/Desktop/cluster/DUD-E-result/aofb

> <s_m_Source_File>
dock_pv.maegz

> <i_m_Source_File_Index>
409

> <chembl_id>
CHEMBL598321

> <chembl_pref_name>
None

> <i_lp_mmshare_version>
53161

> <i_f3d_flags>
0

> <r_lp_tautomer_probability>
0.99995

> <s_lp_Force_Field>
OPLS_2005

> <r_lp_Energy>
19.133233

> <b_lp_Chiralities_Consistent>
1

> <s_lp_Variant>
CHEMBL2039_lig334-1

> <s_i_glide_gridfile>
glide-grid_1s3b

> <i_i_glide_lignum>
386

> <i_i_glide_rotatable_bonds>
1

> <r_i_docking_score>
-7.11059132026229

> <r_i_glide_ligand_efficiency>
-0.374241648434857

> <r_i_glide_ligand_efficiency_sa>
-0.998627030723859

> <r_i_glide_ligand_efficiency_ln>
-1.80268762118483

> <r_i_glide_gscore>
-7.11059132026229

> <r_i_glide_lipo>
-3.96443097441971

> <r_i_glide_hbond>
0

> <r_i_glide_metal>
0

> <r_i_glide_rewards>
-2.46367046409403

> <r_i_glide_evdw>
-16.0451107025146

> <r_i_glide_ecoul>
-1.03903996944427

> <r_i_glide_erotb>
0.275621648793833

> <r_i_glide_esite>
0

> <r_i_glide_emodel>
-24.6179619918423

> <r_i_glide_energy>
-17.0841506719589

> <r_i_glide_einternal>
0.713316857814789

> <i_i_glide_confnum>
1

> <i_i_glide_posenum>
82

> <r_i_glide_eff_state_penalty>
0

> <s_user_duplicate_titles>
CHEMBL2039_lig334,CHEMBL2039_lig358,601853,601331

> <s_m_subgroup_title>
dock_pv

> <s_m_subgroupid>
dock_pv

> <b_m_subgroup_collapsed>
1

$$$$
CHEMBL2039_lig195
                    3D
 Schrodinger Suite 2021-1.
 30 33  0  0  1  0            999 V2000
   52.2251  155.9570   26.9315 C   0  0  0  0  0  0
   51.6560  154.7642   27.3230 C   0  0  0  0  0  0
   52.8560  155.8019   25.5972 C   0  0  0  0  0  0
   50.9043  154.6439   28.4518 N   0  0  0  0  0  0
   52.7292  154.3632   25.3046 C   0  0  0  0  0  0
   52.0552  153.7341   26.3536 C   0  0  0  0  0  0
   50.6494  155.7435   29.1931 N   0  0  0  0  0  0
   52.1132  157.0439   27.7929 C   0  0  0  0  0  0
   51.2562  156.9415   28.9038 C   0  0  0  0  0  0
   50.8143  158.1820   29.6228 C   0  0  0  0  0  0
   53.4126  156.6440   24.9028 O   0  0  0  0  0  0
   51.6559  159.2996   29.7047 C   0  0  0  0  0  0
   51.2655  160.4543   30.3787 C   0  0  0  0  0  0
   52.1259  161.4906   30.4823 F   0  0  0  0  0  0
   53.2873  153.6248   24.2620 C   0  0  0  0  0  0
   51.9603  152.3469   26.3783 C   0  0  0  0  0  0
   49.5255  158.2995   30.1670 C   0  0  0  0  0  0
   49.1163  159.4627   30.8214 C   0  0  0  0  0  0
   49.9938  160.5382   30.9379 C   0  0  0  0  0  0
   52.5952  151.5978   25.3839 C   0  0  0  0  0  0
   53.2415  152.2341   24.3226 C   0  0  0  0  0  0
   52.5623  157.9847   27.5229 H   0  0  0  0  0  0
   52.6565  159.2585   29.3040 H   0  0  0  0  0  0
   53.8155  154.1031   23.4499 H   0  0  0  0  0  0
   51.4485  151.8442   27.1860 H   0  0  0  0  0  0
   48.8317  157.4741   30.1041 H   0  0  0  0  0  0
   48.1257  159.5242   31.2476 H   0  0  0  0  0  0
   49.6944  161.4350   31.4598 H   0  0  0  0  0  0
   52.5463  150.5192   25.4150 H   0  0  0  0  0  0
   53.6560  151.6450   23.5219 H   0  0  0  0  0  0
  1  2  2  0  0  0
  1  3  1  0  0  0
  1  8  1  0  0  0
  2  4  1  0  0  0
  2  6  1  0  0  0
  3  5  1  0  0  0
  3 11  2  0  0  0
  4  7  2  0  0  0
  5 15  1  0  0  0
  5  6  2  0  0  0
  6 16  1  0  0  0
  7  9  1  0  0  0
  8  9  2  0  0  0
  8 22  1  0  0  0
  9 10  1  0  0  0
 10 12  1  0  0  0
 10 17  2  0  0  0
 12 13  2  0  0  0
 12 23  1  0  0  0
 13 14  1  0  0  0
 13 19  1  0  0  0
 15 21  2  0  0  0
 15 24  1  0  0  0
 16 20  2  0  0  0
 16 25  1  0  0  0
 17 18  1  0  0  0
 17 26  1  0  0  0
 18 19  2  0  0  0
 18 27  1  0  0  0
 19 28  1  0  0  0
 20 21  1  0  0  0
 20 29  1  0  0  0
 21 30  1  0  0  0
M  END
> <s_m_entry_id>
10375

> <s_m_entry_name>
dock_pv.411

> <s_m_Source_Path>
/home/csk/Desktop/cluster/DUD-E-result/aofb

> <s_m_Source_File>
dock_pv.maegz

> <i_m_Source_File_Index>
411

> <chembl_id>
CHEMBL127751

> <chembl_pref_name>
None

> <i_lp_mmshare_version>
53161

> <i_f3d_flags>
0

> <r_lp_tautomer_probability>
1

> <s_lp_Force_Field>
OPLS_2005

> <r_lp_Energy>
42.880274

> <b_lp_Chiralities_Consistent>
1

> <s_lp_Variant>
CHEMBL2039_lig195-1

> <s_i_glide_gridfile>
glide-grid_1s3b

> <i_i_glide_lignum>
236

> <i_i_glide_rotatable_bonds>
1

> <r_i_docking_score>
-7.10743278036968

> <r_i_glide_ligand_efficiency>
-0.338449180017604

> <r_i_glide_ligand_efficiency_sa>
-0.93375562427932

> <r_i_glide_ligand_efficiency_ln>
-1.75729839302618

> <r_i_glide_gscore>
-7.10743278036968

> <r_i_glide_lipo>
-3.72813786824916

> <r_i_glide_hbond>
0

> <r_i_glide_metal>
0

> <r_i_glide_rewards>
-2.31824747922891

> <r_i_glide_evdw>
-19.4137172698975

> <r_i_glide_ecoul>
-2.15761947631836

> <r_i_glide_erotb>
0.235693489213634

> <r_i_glide_esite>
-0.00241213716261617

> <r_i_glide_emodel>
-23.9361113553012

> <r_i_glide_energy>
-21.5713367462158

> <r_i_glide_einternal>
0.146552726626396

> <i_i_glide_confnum>
4

> <i_i_glide_posenum>
184

> <r_i_glide_eff_state_penalty>
0

> <s_user_duplicate_titles>
CHEMBL2039_lig195

> <s_m_subgroup_title>
dock_pv

> <s_m_subgroupid>
dock_pv

> <b_m_subgroup_collapsed>
1

$$$$
CHEMBL2039_lig366
                    3D
 Schrodinger Suite 2021-1.
 32 34  0  0  1  0            999 V2000
   46.9806  159.8682   32.1039 C   0  0  0  0  0  0
   47.7219  160.9592   32.5544 C   0  0  0  0  0  0
   49.0459  161.1210   32.1451 C   0  0  0  0  0  0
   47.5760  158.9227   31.2733 C   0  0  0  0  0  0
   48.9008  159.0874   30.8712 C   0  0  0  0  0  0
   49.6502  160.1975   31.2861 C   0  0  0  0  0  0
   51.0178  160.4147   30.7478 C   0  0  0  0  0  0
   51.6396  159.2110   30.0924 C   0  0  0  0  0  0
   50.6364  158.3014   29.4003 C   0  0  2  0  0  0
   49.4210  158.0599   30.1190 O   0  0  0  0  0  0
   51.2495  156.9819   28.9039 C   0  0  0  0  0  0
   50.5988  155.7531   29.1208 C   0  0  0  0  0  0
   51.7826  154.7753   27.2704 C   0  0  0  0  0  0
   52.4560  155.9776   27.0709 C   0  0  0  0  0  0
   50.9100  154.6441   28.3412 C   0  0  0  0  0  0
   52.2561  157.0460   27.9363 C   0  0  0  0  0  0
   51.6560  161.4440   30.9086 O   0  0  0  0  0  0
   52.0217  153.5969   26.3436 C   0  0  0  0  0  0
   45.9516  159.7491   32.4108 H   0  0  0  0  0  0
   47.2684  161.6869   33.2108 H   0  0  0  0  0  0
   49.6018  161.9793   32.4976 H   0  0  0  0  0  0
   47.0145  158.0612   30.9450 H   0  0  0  0  0  0
   52.0560  158.6803   30.9040 H   0  0  0  0  0  0
   52.4093  159.5278   29.3909 H   0  0  0  0  0  0
   50.3376  158.8438   28.5040 H   0  0  0  0  0  0
   49.7946  155.6615   29.8321 H   0  0  0  0  0  0
   53.1624  156.0765   26.2598 H   0  0  0  0  0  0
   50.4269  153.6974   28.5040 H   0  0  0  0  0  0
   52.7651  157.9758   27.7339 H   0  0  0  0  0  0
   51.1447  153.4252   25.7191 H   0  0  0  0  0  0
   52.1999  152.6912   26.9236 H   0  0  0  0  0  0
   52.8913  153.7494   25.7038 H   0  0  0  0  0  0
  1  2  2  0  0  0
  1  4  1  0  0  0
  1 19  1  0  0  0
  2  3  1  0  0  0
  2 20  1  0  0  0
  3  6  2  0  0  0
  3 21  1  0  0  0
  4  5  2  0  0  0
  4 22  1  0  0  0
  5  6  1  0  0  0
  5 10  1  0  0  0
  6  7  1  0  0  0
  7  8  1  0  0  0
  7 17  2  0  0  0
  8  9  1  0  0  0
  8 23  1  0  0  0
  8 24  1  0  0  0
  9 10  1  0  0  0
  9 11  1  0  0  0
  9 25  1  0  0  0
 11 12  2  0  0  0
 11 16  1  0  0  0
 12 15  1  0  0  0
 12 26  1  0  0  0
 13 14  1  0  0  0
 13 15  2  0  0  0
 13 18  1  0  0  0
 14 16  2  0  0  0
 14 27  1  0  0  0
 15 28  1  0  0  0
 16 29  1  0  0  0
 18 30  1  0  0  0
 18 31  1  0  0  0
 18 32  1  0  0  0
M  END
> <s_m_entry_id>
10376

> <s_m_entry_name>
dock_pv.412

> <s_m_Source_Path>
/home/csk/Desktop/cluster/DUD-E-result/aofb

> <s_m_Source_File>
dock_pv.maegz

> <i_m_Source_File_Index>
412

> <chembl_id>
CHEMBL596690

> <chembl_pref_name>
None

> <i_lp_mmshare_version>
53161

> <i_f3d_flags>
0

> <r_lp_tautomer_probability>
0.99995

> <s_lp_Force_Field>
OPLS_2005

> <r_lp_Energy>
19.043748

> <b_lp_Chiralities_Consistent>
1

> <s_lp_Variant>
CHEMBL2039_lig366-1

> <s_i_glide_gridfile>
glide-grid_1s3b

> <i_i_glide_lignum>
431

> <i_i_glide_rotatable_bonds>
1

> <r_i_docking_score>
-7.10393582564391

> <r_i_glide_ligand_efficiency>
-0.394663101424661

> <r_i_glide_ligand_efficiency_sa>
-1.03430992567396

> <r_i_glide_ligand_efficiency_ln>
-1.82603007314796

> <r_i_glide_gscore>
-7.10393582564391

> <r_i_glide_lipo>
-3.65166683021695

> <r_i_glide_hbond>
0

> <r_i_glide_metal>
0

> <r_i_glide_rewards>
-2.89396840135411

> <r_i_glide_evdw>
-16.2427101135254

> <r_i_glide_ecoul>
-0.334083884954453

> <r_i_glide_erotb>
0.30394749434659

> <r_i_glide_esite>
0

> <r_i_glide_emodel>
-24.4058941903265

> <r_i_glide_energy>
-16.5767939984798

> <r_i_glide_einternal>
0.211498066782951

> <i_i_glide_confnum>
1

> <i_i_glide_posenum>
7

> <r_i_glide_eff_state_penalty>
0

> <s_user_duplicate_titles>
CHEMBL2039_lig366

> <s_m_subgroup_title>
dock_pv

> <s_m_subgroupid>
dock_pv

> <b_m_subgroup_collapsed>
1

$$$$
CHEMBL2039_lig1589
                    3D
 Schrodinger Suite 2021-1.
 34 37  0  0  1  0            999 V2000
   50.4825  155.4961   28.9609 C   0  0  0  0  0  0
   51.2560  156.7168   28.6553 C   0  0  0  0  0  0
   52.0909  156.6679   27.5907 C   0  0  0  0  0  0
   52.2158  155.5059   26.7199 C   0  0  0  0  0  0
   52.9300  155.5268   25.5225 C   0  0  0  0  0  0
   53.1544  154.3276   24.8408 C   0  0  0  0  0  0
   52.5250  153.1518   25.2716 C   0  0  0  0  0  0
   51.7260  153.1562   26.4182 C   0  0  0  0  0  0
   51.5946  154.3346   27.1511 C   0  0  0  0  0  0
   50.8560  154.3121   28.3226 O   0  0  0  0  0  0
   49.5151  155.4440   29.7040 O   0  0  0  0  0  0
   54.1739  154.2763   23.7185 C   0  0  0  0  0  0
   51.4727  160.0966   30.1040 N   0  0  0  0  0  0
   51.8626  159.0437   29.3249 C   0  0  0  0  0  0
   50.9470  158.0189   29.3408 C   0  0  0  0  0  0
   49.8107  158.5743   30.1040 C   0  0  0  0  0  0
   48.5058  158.1609   30.4623 C   0  0  0  0  0  0
   47.7018  158.9582   31.2735 C   0  0  0  0  0  0
   48.1647  160.1692   31.7653 C   0  0  0  0  0  0
   49.4317  160.6445   31.4438 C   0  0  0  0  0  0
   50.2186  159.8582   30.5974 C   0  0  0  0  0  0
   52.6172  157.5623   27.2963 H   0  0  0  0  0  0
   53.4231  156.4335   25.2031 H   0  0  0  0  0  0
   52.6905  152.2249   24.7419 H   0  0  0  0  0  0
   51.2560  152.2458   26.7596 H   0  0  0  0  0  0
   53.8191  153.6595   22.8932 H   0  0  0  0  0  0
   55.0894  153.8440   24.1133 H   0  0  0  0  0  0
   54.4560  155.2570   23.3341 H   0  0  0  0  0  0
   52.0646  160.8915   30.2952 H   0  0  0  0  0  0
   52.8560  159.0440   28.9047 H   0  0  0  0  0  0
   48.0946  157.2359   30.1038 H   0  0  0  0  0  0
   46.7057  158.6286   31.5317 H   0  0  0  0  0  0
   47.5235  160.7575   32.4060 H   0  0  0  0  0  0
   49.7840  161.5891   31.8315 H   0  0  0  0  0  0
  1  2  1  0  0  0
  1 10  1  0  0  0
  1 11  2  0  0  0
  2  3  2  0  0  0
  2 15  1  0  0  0
  3  4  1  0  0  0
  3 22  1  0  0  0
  4  5  1  0  0  0
  4  9  2  0  0  0
  5  6  2  0  0  0
  5 23  1  0  0  0
  6  7  1  0  0  0
  6 12  1  0  0  0
  7  8  2  0  0  0
  7 24  1  0  0  0
  8  9  1  0  0  0
  8 25  1  0  0  0
  9 10  1  0  0  0
 12 26  1  0  0  0
 12 27  1  0  0  0
 12 28  1  0  0  0
 13 14  1  0  0  0
 13 21  1  0  0  0
 13 29  1  0  0  0
 14 15  2  0  0  0
 14 30  1  0  0  0
 15 16  1  0  0  0
 16 17  1  0  0  0
 16 21  2  0  0  0
 17 18  2  0  0  0
 17 31  1  0  0  0
 18 19  1  0  0  0
 18 32  1  0  0  0
 19 20  2  0  0  0
 19 33  1  0  0  0
 20 21  1  0  0  0
 20 34  1  0  0  0
M  END
> <s_m_entry_id>
10377

> <s_m_entry_name>
dock_pv.413

> <s_m_Source_Path>
/home/csk/Desktop/cluster/DUD-E-result/aofb

> <s_m_Source_File>
dock_pv.maegz

> <i_m_Source_File_Index>
413

> <chembl_id>
CHEMBL3735436

> <chembl_pref_name>
None

> <i_lp_mmshare_version>
53161

> <i_f3d_flags>
0

> <r_lp_tautomer_probability>
1

> <s_lp_Force_Field>
OPLS_2005

> <r_lp_Energy>
24.670692

> <b_lp_Chiralities_Consistent>
1

> <s_lp_Variant>
CHEMBL2039_lig1589-1

> <s_i_glide_gridfile>
glide-grid_1s3b

> <i_i_glide_lignum>
1850

> <i_i_glide_rotatable_bonds>
1

> <r_i_docking_score>
-7.10363217142519

> <r_i_glide_ligand_efficiency>
-0.338268198639295

> <r_i_glide_ligand_efficiency_sa>
-0.933256310379735

> <r_i_glide_ligand_efficiency_ln>
-1.7563587001445

> <r_i_glide_gscore>
-7.10363217142519

> <r_i_glide_lipo>
-4.2076005312771

> <r_i_glide_hbond>
-0.0190717478846839

> <r_i_glide_metal>
0

> <r_i_glide_rewards>
-2.10524945439332

> <r_i_glide_evdw>
-18.0524978637695

> <r_i_glide_ecoul>
-0.70807158946991

> <r_i_glide_erotb>
0.23712519373887

> <r_i_glide_esite>
0

> <r_i_glide_emodel>
-19.1900057362704

> <r_i_glide_energy>
-18.7605694532394

> <r_i_glide_einternal>
0.464444488286972

> <i_i_glide_confnum>
2

> <i_i_glide_posenum>
295

> <r_i_glide_eff_state_penalty>
0

> <s_user_duplicate_titles>
CHEMBL2039_lig1589

> <s_m_subgroup_title>
dock_pv

> <s_m_subgroupid>
dock_pv

> <b_m_subgroup_collapsed>
1

$$$$
CHEMBL2039_lig494
                    3D
 Schrodinger Suite 2021-1.
 35 37  0  0  1  0            999 V2000
   53.5258  153.2933   23.7918 C   0  0  0  0  0  0
   52.8560  152.3312   24.5411 C   0  0  0  0  0  0
   52.1768  152.6888   25.7040 C   0  0  0  0  0  0
   53.5608  154.6082   24.2300 C   0  0  0  0  0  0
   52.8560  154.9726   25.3675 C   0  0  0  0  0  0
   52.1686  154.0220   26.1310 C   0  0  0  0  0  0
   51.6560  154.3965   27.4821 C   0  0  0  0  0  0
   51.7544  155.8440   27.8038 C   0  0  0  0  0  0
   52.4560  156.6376   26.9530 C   0  0  0  0  0  0
   53.0121  156.2720   25.7771 O   0  0  0  0  0  0
   51.2560  153.5163   28.2410 O   0  0  0  0  0  0
   50.9879  156.4266   28.9040 C   0  0  0  0  0  0
   50.0560  155.7991   29.3992 O   0  0  0  0  0  0
   51.2560  157.7289   29.2216 N   0  0  0  0  0  0
   50.4800  158.6568   29.9631 C   0  0  0  0  0  0
   49.1604  158.4314   30.3878 C   0  0  0  0  0  0
   48.5274  159.3341   31.2352 C   0  0  0  0  0  0
   49.2025  160.4797   31.6758 C   0  0  0  0  0  0
   50.4903  160.7311   31.2054 C   0  0  0  0  0  0
   51.1194  159.8440   30.3369 C   0  0  0  0  0  0
   48.6745  161.3939   32.5660 O   0  0  0  0  0  0
   47.5108  161.0367   33.3039 C   0  0  0  0  0  0
   54.0560  153.0094   22.8948 H   0  0  0  0  0  0
   52.8615  151.3006   24.2169 H   0  0  0  0  0  0
   51.6919  151.9155   26.2862 H   0  0  0  0  0  0
   54.1487  155.3426   23.7040 H   0  0  0  0  0  0
   52.5744  157.7042   27.0746 H   0  0  0  0  0  0
   52.1588  158.0764   28.9380 H   0  0  0  0  0  0
   48.6152  157.5459   30.1040 H   0  0  0  0  0  0
   47.5235  159.1111   31.5605 H   0  0  0  0  0  0
   51.0193  161.6081   31.5494 H   0  0  0  0  0  0
   52.1361  160.0412   30.0289 H   0  0  0  0  0  0
   47.2560  161.8440   33.9880 H   0  0  0  0  0  0
   47.6808  160.1389   33.9005 H   0  0  0  0  0  0
   46.6499  160.8732   32.6560 H   0  0  0  0  0  0
  1  2  2  0  0  0
  1  4  1  0  0  0
  1 23  1  0  0  0
  2  3  1  0  0  0
  2 24  1  0  0  0
  3  6  2  0  0  0
  3 25  1  0  0  0
  4  5  2  0  0  0
  4 26  1  0  0  0
  5  6  1  0  0  0
  5 10  1  0  0  0
  6  7  1  0  0  0
  7 11  2  0  0  0
  7  8  1  0  0  0
  8 12  1  0  0  0
  8  9  2  0  0  0
  9 10  1  0  0  0
  9 27  1  0  0  0
 12 13  2  0  0  0
 12 14  1  0  0  0
 14 15  1  0  0  0
 14 28  1  0  0  0
 15 16  2  0  0  0
 15 20  1  0  0  0
 16 17  1  0  0  0
 16 29  1  0  0  0
 17 18  2  0  0  0
 17 30  1  0  0  0
 18 19  1  0  0  0
 18 21  1  0  0  0
 19 20  2  0  0  0
 19 31  1  0  0  0
 20 32  1  0  0  0
 21 22  1  0  0  0
 22 33  1  0  0  0
 22 34  1  0  0  0
 22 35  1  0  0  0
M  END
> <s_m_entry_id>
10379

> <s_m_entry_name>
dock_pv.415

> <s_m_Source_Path>
/home/csk/Desktop/cluster/DUD-E-result/aofb

> <s_m_Source_File>
dock_pv.maegz

> <i_m_Source_File_Index>
415

> <chembl_id>
CHEMBL1643122

> <chembl_pref_name>
None

> <i_lp_mmshare_version>
53161

> <i_f3d_flags>
0

> <r_lp_tautomer_probability>
1

> <s_lp_Force_Field>
OPLS_2005

> <r_lp_Energy>
28.146338

> <b_lp_Chiralities_Consistent>
1

> <s_lp_Variant>
CHEMBL2039_lig494-1

> <s_i_glide_gridfile>
glide-grid_1s3b

> <i_i_glide_lignum>
593

> <i_i_glide_rotatable_bonds>
4

> <r_i_docking_score>
-7.09665989049659

> <r_i_glide_ligand_efficiency>
-0.322575449568027

> <r_i_glide_ligand_efficiency_sa>
-0.903869095862156

> <r_i_glide_ligand_efficiency_ln>
-1.73468253419638

> <r_i_glide_gscore>
-7.09665989049659

> <r_i_glide_lipo>
-3.98208014319924

> <r_i_glide_hbond>
0

> <r_i_glide_metal>
0

> <r_i_glide_rewards>
-2.23726232389078

> <r_i_glide_evdw>
-23.1122989654541

> <r_i_glide_ecoul>
-2.3425920009613

> <r_i_glide_erotb>
0.629686325010318

> <r_i_glide_esite>
0

> <r_i_glide_emodel>
-30.0892531288248

> <r_i_glide_energy>
-25.4548909664154

> <r_i_glide_einternal>
4.26118087768555

> <i_i_glide_confnum>
3

> <i_i_glide_posenum>
169

> <r_i_glide_eff_state_penalty>
0

> <s_user_duplicate_titles>
CHEMBL2039_lig494

> <s_m_subgroup_title>
dock_pv

> <s_m_subgroupid>
dock_pv

> <b_m_subgroup_collapsed>
1

$$$$
CHEMBL2039_lig1046
                    3D
 Schrodinger Suite 2021-1.
 28 29  0  0  1  0            999 V2000
   49.3959  158.4329   30.3002 C   0  0  0  0  0  0
   48.0560  158.4140   30.7011 C   0  0  0  0  0  0
   47.5125  159.4834   31.3985 C   0  0  0  0  0  0
   48.3129  160.5793   31.6943 C   0  0  0  0  0  0
   49.6286  160.6440   31.2350 C   0  0  0  0  0  0
   50.1615  159.5841   30.5040 C   0  0  0  0  0  0
   49.9393  157.1945   29.7040 C   0  0  0  0  0  0
   51.0764  157.0020   29.0067 C   0  0  0  0  0  0
   51.3516  155.6864   28.4198 C   0  0  0  0  0  0
   50.9233  154.6440   28.9140 O   0  0  0  0  0  0
   52.0560  155.6866   27.1462 C   0  0  0  0  0  0
   52.0304  154.5570   26.3853 O   0  0  0  0  0  0
   52.7813  154.7896   25.2745 C   0  0  0  0  0  0
   53.2560  156.0908   25.3040 C   0  0  0  0  0  0
   52.8317  156.6440   26.5123 C   0  0  0  0  0  0
   52.9886  153.6243   24.3408 C   0  0  0  0  0  0
   47.6614  161.8440   32.6627 Cl  0  0  0  0  0  0
   47.4346  157.5543   30.5040 H   0  0  0  0  0  0
   46.4874  159.4462   31.7379 H   0  0  0  0  0  0
   50.2481  161.4947   31.4733 H   0  0  0  0  0  0
   51.1937  159.6236   30.1868 H   0  0  0  0  0  0
   49.2905  156.3360   29.8346 H   0  0  0  0  0  0
   51.7816  157.7997   28.8271 H   0  0  0  0  0  0
   53.8924  156.5586   24.5678 H   0  0  0  0  0  0
   53.0724  157.6212   26.9040 H   0  0  0  0  0  0
   53.4414  153.9273   23.3972 H   0  0  0  0  0  0
   52.0560  153.1196   24.1040 H   0  0  0  0  0  0
   53.6495  152.8801   24.7854 H   0  0  0  0  0  0
  1  2  2  0  0  0
  1  6  1  0  0  0
  1  7  1  0  0  0
  2  3  1  0  0  0
  2 18  1  0  0  0
  3  4  2  0  0  0
  3 19  1  0  0  0
  4  5  1  0  0  0
  4 17  1  0  0  0
  5  6  2  0  0  0
  5 20  1  0  0  0
  6 21  1  0  0  0
  7  8  2  0  0  0
  7 22  1  0  0  0
  8  9  1  0  0  0
  8 23  1  0  0  0
  9 10  2  0  0  0
  9 11  1  0  0  0
 11 12  1  0  0  0
 11 15  2  0  0  0
 12 13  1  0  0  0
 13 14  2  0  0  0
 13 16  1  0  0  0
 14 15  1  0  0  0
 14 24  1  0  0  0
 15 25  1  0  0  0
 16 26  1  0  0  0
 16 27  1  0  0  0
 16 28  1  0  0  0
M  END
> <s_m_entry_id>
10380

> <s_m_entry_name>
dock_pv.416

> <s_m_Source_Path>
/home/csk/Desktop/cluster/DUD-E-result/aofb

> <s_m_Source_File>
dock_pv.maegz

> <i_m_Source_File_Index>
416

> <chembl_id>
CHEMBL2420694

> <chembl_pref_name>
None

> <i_lp_mmshare_version>
53161

> <i_f3d_flags>
0

> <r_lp_tautomer_probability>
1

> <s_lp_Force_Field>
OPLS_2005

> <r_lp_Energy>
6.637833

> <b_lp_Chiralities_Consistent>
1

> <s_lp_Variant>
CHEMBL2039_lig1046-1

> <s_i_glide_gridfile>
glide-grid_1s3b

> <i_i_glide_lignum>
1219

> <i_i_glide_rotatable_bonds>
3

> <r_i_docking_score>
-7.09590270219285

> <r_i_glide_ligand_efficiency>
-0.417406041305462

> <r_i_glide_ligand_efficiency_sa>
-1.07326846882467

> <r_i_glide_ligand_efficiency_ln>
-1.85116299701809

> <r_i_glide_gscore>
-7.09590270219285

> <r_i_glide_lipo>
-3.41388739423961

> <r_i_glide_hbond>
0

> <r_i_glide_metal>
0

> <r_i_glide_rewards>
-2.96873486568328

> <r_i_glide_evdw>
-26.8094711303711

> <r_i_glide_ecoul>
0.361703485250473

> <r_i_glide_erotb>
0.572937591461017

> <r_i_glide_esite>
0

> <r_i_glide_emodel>
-33.1964752182494

> <r_i_glide_energy>
-26.4477676451206

> <r_i_glide_einternal>
3.58337688446045

> <i_i_glide_confnum>
2

> <i_i_glide_posenum>
87

> <r_i_glide_eff_state_penalty>
0

> <s_user_duplicate_titles>
CHEMBL2039_lig1046

> <s_m_subgroup_title>
dock_pv

> <s_m_subgroupid>
dock_pv

> <b_m_subgroup_collapsed>
1

$$$$
CHEMBL2039_lig194
                    3D
 Schrodinger Suite 2021-1.
 30 33  0  0  1  0            999 V2000
   52.2263  155.9581   26.9319 C   0  0  0  0  0  0
   51.6560  154.7647   27.3209 C   0  0  0  0  0  0
   52.8560  155.8030   25.5971 C   0  0  0  0  0  0
   50.9068  154.6419   28.4497 N   0  0  0  0  0  0
   52.7294  154.3645   25.3043 C   0  0  0  0  0  0
   52.0558  153.7346   26.3523 C   0  0  0  0  0  0
   50.6539  155.7408   29.1912 N   0  0  0  0  0  0
   52.1155  157.0440   27.7960 C   0  0  0  0  0  0
   51.2560  156.9424   28.9040 C   0  0  0  0  0  0
   53.4126  156.6440   24.9017 O   0  0  0  0  0  0
   50.7981  158.1737   29.6385 C   0  0  0  0  0  0
   49.5123  158.2447   30.1966 C   0  0  0  0  0  0
   51.6221  159.3042   29.7426 C   0  0  0  0  0  0
   49.9851  160.4134   31.1177 C   0  0  0  0  0  0
   51.2333  160.4060   30.5040 C   0  0  0  0  0  0
   49.1062  159.3535   30.9334 C   0  0  0  0  0  0
   49.6302  161.4440   31.9163 F   0  0  0  0  0  0
   53.2863  153.6271   24.2604 C   0  0  0  0  0  0
   51.9609  152.3474   26.3761 C   0  0  0  0  0  0
   53.2398  152.2365   24.3190 C   0  0  0  0  0  0
   52.5949  151.5990   25.3804 C   0  0  0  0  0  0
   52.5646  157.9863   27.5312 H   0  0  0  0  0  0
   48.8292  157.4133   30.1040 H   0  0  0  0  0  0
   52.6093  159.2987   29.3066 H   0  0  0  0  0  0
   51.9061  161.2389   30.6444 H   0  0  0  0  0  0
   48.1316  159.3730   31.3979 H   0  0  0  0  0  0
   53.8143  154.1062   23.4486 H   0  0  0  0  0  0
   51.4495  151.8441   27.1836 H   0  0  0  0  0  0
   53.6560  151.6484   23.5183 H   0  0  0  0  0  0
   52.5466  150.5204   25.4109 H   0  0  0  0  0  0
  1  2  1  0  0  0
  1  3  1  0  0  0
  1  8  2  0  0  0
  2  4  2  0  0  0
  2  6  1  0  0  0
  3  5  1  0  0  0
  3 10  2  0  0  0
  4  7  1  0  0  0
  5 18  2  0  0  0
  5  6  1  0  0  0
  6 19  2  0  0  0
  7  9  2  0  0  0
  8  9  1  0  0  0
  8 22  1  0  0  0
  9 11  1  0  0  0
 11 12  2  0  0  0
 11 13  1  0  0  0
 12 16  1  0  0  0
 12 23  1  0  0  0
 13 15  2  0  0  0
 13 24  1  0  0  0
 14 15  1  0  0  0
 14 17  1  0  0  0
 14 16  2  0  0  0
 15 25  1  0  0  0
 16 26  1  0  0  0
 18 20  1  0  0  0
 18 27  1  0  0  0
 19 21  1  0  0  0
 19 28  1  0  0  0
 20 21  2  0  0  0
 20 29  1  0  0  0
 21 30  1  0  0  0
M  END
> <s_m_entry_id>
10381

> <s_m_entry_name>
dock_pv.417

> <s_m_Source_Path>
/home/csk/Desktop/cluster/DUD-E-result/aofb

> <s_m_Source_File>
dock_pv.maegz

> <i_m_Source_File_Index>
417

> <chembl_id>
CHEMBL340701

> <chembl_pref_name>
None

> <i_lp_mmshare_version>
53161

> <i_f3d_flags>
0

> <r_lp_tautomer_probability>
1

> <s_lp_Force_Field>
OPLS_2005

> <r_lp_Energy>
43.206215

> <b_lp_Chiralities_Consistent>
1

> <s_lp_Variant>
CHEMBL2039_lig194-1

> <s_i_glide_gridfile>
glide-grid_1s3b

> <i_i_glide_lignum>
235

> <i_i_glide_rotatable_bonds>
1

> <r_i_docking_score>
-7.08903183006636

> <r_i_glide_ligand_efficiency>
-0.337572944288874

> <r_i_glide_ligand_efficiency_sa>
-0.931338156345573

> <r_i_glide_ligand_efficiency_ln>
-1.7527487952463

> <r_i_glide_gscore>
-7.08903183006636

> <r_i_glide_lipo>
-3.69699967951609

> <r_i_glide_hbond>
0

> <r_i_glide_metal>
0

> <r_i_glide_rewards>
-2.42195759100063

> <r_i_glide_evdw>
-18.3768062591553

> <r_i_glide_ecoul>
-1.91285157203674

> <r_i_glide_erotb>
0.235693489213634

> <r_i_glide_esite>
0

> <r_i_glide_emodel>
-22.8978113356441

> <r_i_glide_energy>
-20.289657831192

> <r_i_glide_einternal>
0.173350214958191

> <i_i_glide_confnum>
2

> <i_i_glide_posenum>
92

> <r_i_glide_eff_state_penalty>
0

> <s_user_duplicate_titles>
CHEMBL2039_lig194,207494

> <s_m_subgroup_title>
dock_pv

> <s_m_subgroupid>
dock_pv

> <b_m_subgroup_collapsed>
1

$$$$
CHEMBL2039_lig2535 
                    3D
 Schrodinger Suite 2021-1.
 33 35  0  0  1  0            999 V2000
   50.6641  157.2956   29.6975 C   0  0  0  0  0  0
   51.6560  158.0628   29.0587 C   0  0  0  0  0  0
   52.4014  157.4542   28.0238 C   0  0  0  0  0  0
   50.4477  155.9598   29.3040 C   0  0  0  0  0  0
   51.1688  155.4246   28.2551 C   0  0  0  0  0  0
   52.0561  156.1826   27.5653 C   0  0  0  0  0  0
   52.3832  155.4448   26.4403 N   0  0  0  0  0  0
   51.7609  154.2340   26.4549 C   0  0  0  0  0  0
   51.0843  154.2156   27.6186 N   0  0  0  0  0  0
   51.7982  153.3397   25.6131 O   0  0  0  0  0  0
   51.9286  159.4080   29.3041 O   0  0  0  0  0  0
   51.5658  160.2021   30.4507 C   0  0  0  0  0  0
   50.0787  160.3434   30.7363 C   0  0  0  0  0  0
   53.2024  155.8570   25.3042 C   0  0  0  0  0  0
   49.1265  159.8729   29.8393 C   0  0  0  0  0  0
   47.8317  159.6510   30.2758 C   0  0  0  0  0  0
   47.4134  160.1144   31.5259 C   0  0  0  0  0  0
   48.3246  160.7682   32.3542 C   0  0  0  0  0  0
   49.6608  160.8619   31.9669 C   0  0  0  0  0  0
   45.8068  159.8431   32.0854 Cl  0  0  0  0  0  0
   46.8561  158.6362   29.3042 Cl  0  0  0  0  0  0
   50.0742  157.6901   30.5039 H   0  0  0  0  0  0
   53.1505  158.0331   27.5090 H   0  0  0  0  0  0
   49.6921  155.3709   29.8010 H   0  0  0  0  0  0
   50.5497  153.4242   27.9425 H   0  0  0  0  0  0
   51.9583  161.2040   30.2740 H   0  0  0  0  0  0
   52.0757  159.8431   31.3383 H   0  0  0  0  0  0
   52.5900  155.9193   24.4062 H   0  0  0  0  0  0
   53.6551  156.8312   25.4823 H   0  0  0  0  0  0
   54.0002  155.1330   25.1351 H   0  0  0  0  0  0
   49.4212  159.5029   28.8682 H   0  0  0  0  0  0
   48.0152  161.1347   33.3224 H   0  0  0  0  0  0
   50.3840  161.2879   32.6464 H   0  0  0  0  0  0
  1  2  2  0  0  0
  1  4  1  0  0  0
  1 22  1  0  0  0
  2  3  1  0  0  0
  2 11  1  0  0  0
  3  6  2  0  0  0
  3 23  1  0  0  0
  4  5  2  0  0  0
  4 24  1  0  0  0
  5  6  1  0  0  0
  5  9  1  0  0  0
  6  7  1  0  0  0
  7  8  1  0  0  0
  7 14  1  0  0  0
  8  9  1  0  0  0
  8 10  2  0  0  0
  9 25  1  0  0  0
 11 12  1  0  0  0
 12 13  1  0  0  0
 12 26  1  0  0  0
 12 27  1  0  0  0
 13 15  2  0  0  0
 13 19  1  0  0  0
 14 28  1  0  0  0
 14 29  1  0  0  0
 14 30  1  0  0  0
 15 16  1  0  0  0
 15 31  1  0  0  0
 16 17  2  0  0  0
 16 21  1  0  0  0
 17 18  1  0  0  0
 17 20  1  0  0  0
 18 19  2  0  0  0
 18 32  1  0  0  0
 19 33  1  0  0  0
M  END
> <s_m_entry_id>
10382

> <s_m_entry_name>
dock_pv.418

> <s_m_Source_Path>
/home/csk/Desktop/cluster/DUD-E-result/aofb

> <s_m_Source_File>
dock_pv.maegz

> <i_m_Source_File_Index>
418

> <chembl_id>
CHEMBL4456999

> <chembl_pref_name>
None

> <i_lp_mmshare_version>
53161

> <i_f3d_flags>
0

> <r_lp_tautomer_probability>
1

> <s_lp_Force_Field>
OPLS_2005

> <r_lp_Energy>
43.725786

> <b_lp_Chiralities_Consistent>
1

> <s_lp_Variant>
CHEMBL2039_lig2535 -1

> <s_i_glide_gridfile>
glide-grid_1s3b

> <i_i_glide_lignum>
2940

> <i_i_glide_rotatable_bonds>
3

> <r_i_docking_score>
-7.08743383811883

> <r_i_glide_ligand_efficiency>
-0.33749684943423

> <r_i_glide_ligand_efficiency_sa>
-0.93112821641161

> <r_i_glide_ligand_efficiency_ln>
-1.75235369496632

> <r_i_glide_gscore>
-7.08743383811883

> <r_i_glide_lipo>
-3.91991519441089

> <r_i_glide_hbond>
0

> <r_i_glide_metal>
0

> <r_i_glide_rewards>
-2.40847166703484

> <r_i_glide_evdw>
-22.6172409057617

> <r_i_glide_ecoul>
-1.10419452190399

> <r_i_glide_erotb>
0.537444246900575

> <r_i_glide_esite>
0

> <r_i_glide_emodel>
-24.2414956099036

> <r_i_glide_energy>
-23.7214354276657

> <r_i_glide_einternal>
4.71149015426636

> <i_i_glide_confnum>
29

> <i_i_glide_posenum>
241

> <r_i_glide_eff_state_penalty>
0

> <s_user_duplicate_titles>
CHEMBL2039_lig2535 

> <s_m_subgroup_title>
dock_pv

> <s_m_subgroupid>
dock_pv

> <b_m_subgroup_collapsed>
1

$$$$
CHEMBL2039_lig221
                    3D
 Schrodinger Suite 2021-1.
 41 43  0  0  1  0            999 V2000
   51.6248  152.6440   26.4789 C   0  0  0  0  0  0
   52.7176  154.6332   25.5166 C   0  0  0  0  0  0
   52.4414  153.3094   25.4356 C   0  0  0  0  0  0
   51.1495  153.4215   27.5128 O   0  0  0  0  0  0
   51.4742  154.7561   27.6347 C   0  0  0  0  0  0
   52.2762  155.4118   26.6943 C   0  0  0  0  0  0
   50.9421  155.4440   28.7206 C   0  0  0  0  0  0
   52.7217  156.6995   26.9886 C   0  0  0  0  0  0
   51.2560  151.4715   26.5040 O   0  0  0  0  0  0
   51.2560  156.7893   28.9040 C   0  0  0  0  0  0
   50.4713  157.4853   29.7936 O   0  0  0  0  0  0
   52.2394  157.3769   28.1040 C   0  0  0  0  0  0
   53.5950  155.3512   24.5040 C   0  0  0  0  0  0
   49.2866  160.2650   31.5287 C   0  0  0  0  0  0
   50.4057  158.9068   29.7041 C   0  0  0  0  0  0
   49.1708  159.3766   30.4567 C   0  0  0  0  0  0
   52.9866  152.3855   24.3483 C   0  0  0  0  0  0
   48.1618  160.6313   32.2677 C   0  0  0  0  0  0
   48.3525  161.4440   33.3612 O   0  0  0  0  0  0
   46.7728  159.2841   30.8056 C   0  0  0  0  0  0
   47.9042  158.8954   30.1056 C   0  0  0  0  0  0
   46.9015  160.1441   31.8838 C   0  0  0  0  0  0
   47.4916  161.1895   34.4602 C   0  0  0  0  0  0
   50.2378  154.9583   29.3790 H   0  0  0  0  0  0
   53.4387  157.1953   26.3577 H   0  0  0  0  0  0
   52.5602  158.3885   28.2846 H   0  0  0  0  0  0
   53.8388  154.7106   23.6605 H   0  0  0  0  0  0
   53.0774  156.2344   24.1327 H   0  0  0  0  0  0
   54.5508  155.6691   24.9040 H   0  0  0  0  0  0
   50.2552  160.6399   31.8274 H   0  0  0  0  0  0
   50.3223  159.2501   28.6713 H   0  0  0  0  0  0
   51.3131  159.3450   30.1238 H   0  0  0  0  0  0
   54.0560  152.5446   24.2417 H   0  0  0  0  0  0
   52.8560  151.3207   24.5478 H   0  0  0  0  0  0
   52.5188  152.6180   23.3921 H   0  0  0  0  0  0
   45.7995  158.9115   30.5196 H   0  0  0  0  0  0
   47.7642  158.2005   29.3040 H   0  0  0  0  0  0
   46.0021  160.4118   32.4092 H   0  0  0  0  0  0
   47.6560  161.8440   35.3030 H   0  0  0  0  0  0
   46.4560  161.3680   34.1897 H   0  0  0  0  0  0
   47.6560  160.1701   34.8137 H   0  0  0  0  0  0
  1  3  1  0  0  0
  1  4  1  0  0  0
  1  9  2  0  0  0
  2  3  2  0  0  0
  2 13  1  0  0  0
  2  6  1  0  0  0
  3 17  1  0  0  0
  4  5  1  0  0  0
  5  6  2  0  0  0
  5  7  1  0  0  0
  6  8  1  0  0  0
  7 10  2  0  0  0
  7 24  1  0  0  0
  8 12  2  0  0  0
  8 25  1  0  0  0
 10 11  1  0  0  0
 10 12  1  0  0  0
 11 15  1  0  0  0
 12 26  1  0  0  0
 13 27  1  0  0  0
 13 28  1  0  0  0
 13 29  1  0  0  0
 14 16  1  0  0  0
 14 18  2  0  0  0
 14 30  1  0  0  0
 15 16  1  0  0  0
 15 31  1  0  0  0
 15 32  1  0  0  0
 16 21  2  0  0  0
 17 33  1  0  0  0
 17 34  1  0  0  0
 17 35  1  0  0  0
 18 19  1  0  0  0
 18 22  1  0  0  0
 19 23  1  0  0  0
 20 21  1  0  0  0
 20 22  2  0  0  0
 20 36  1  0  0  0
 21 37  1  0  0  0
 22 38  1  0  0  0
 23 39  1  0  0  0
 23 40  1  0  0  0
 23 41  1  0  0  0
M  END
> <s_m_entry_id>
10383

> <s_m_entry_name>
dock_pv.419

> <s_m_Source_Path>
/home/csk/Desktop/cluster/DUD-E-result/aofb

> <s_m_Source_File>
dock_pv.maegz

> <i_m_Source_File_Index>
419

> <chembl_id>
CHEMBL111310

> <chembl_pref_name>
None

> <i_lp_mmshare_version>
53161

> <i_f3d_flags>
0

> <r_lp_tautomer_probability>
1

> <s_lp_Force_Field>
OPLS_2005

> <r_lp_Energy>
27.399388

> <b_lp_Chiralities_Consistent>
1

> <s_lp_Variant>
CHEMBL2039_lig221-1

> <s_i_glide_gridfile>
glide-grid_1s3b

> <i_i_glide_lignum>
262

> <i_i_glide_rotatable_bonds>
4

> <r_i_docking_score>
-7.08620109014656

> <r_i_glide_ligand_efficiency>
-0.308095699571589

> <r_i_glide_ligand_efficiency_sa>
-0.876183185730155

> <r_i_glide_ligand_efficiency_ln>
-1.71350767771645

> <r_i_glide_gscore>
-7.08620109014656

> <r_i_glide_lipo>
-4.72759298138813

> <r_i_glide_hbond>
0

> <r_i_glide_metal>
0

> <r_i_glide_rewards>
-1.80194855133215

> <r_i_glide_evdw>
-25.4076347351074

> <r_i_glide_ecoul>
0.910413503646851

> <r_i_glide_erotb>
0.577160153782061

> <r_i_glide_esite>
0

> <r_i_glide_emodel>
-21.2094616398287

> <r_i_glide_energy>
-24.4972212314606

> <r_i_glide_einternal>
7.10129022598267

> <i_i_glide_confnum>
2

> <i_i_glide_posenum>
75

> <r_i_glide_eff_state_penalty>
0

> <s_user_duplicate_titles>
CHEMBL2039_lig221

> <s_m_subgroup_title>
dock_pv

> <s_m_subgroupid>
dock_pv

> <b_m_subgroup_collapsed>
1

$$$$
CHEMBL2039_lig689
                    3D
 Schrodinger Suite 2021-1.
 28 28  0  0  1  0            999 V2000
   51.3691  160.3114   30.2908 C   0  0  0  0  0  0
   50.1730  160.6440   30.9187 C   0  0  0  0  0  0
   49.0942  159.7575   30.9072 C   0  0  0  0  0  0
   49.2560  158.5077   30.2994 C   0  0  0  0  0  0
   50.4670  158.1381   29.7040 C   0  0  0  0  0  0
   51.5080  159.0715   29.6720 C   0  0  0  0  0  0
   50.5933  156.8225   29.3040 O   0  0  0  0  0  0
   51.7129  156.4160   28.5040 C   0  0  0  0  0  0
   51.5515  154.9554   28.1040 C   0  0  0  0  0  0
   51.6560  154.3811   26.8905 C   0  0  0  0  0  0
   51.2526  154.2087   29.1849 F   0  0  0  0  0  0
   52.0357  155.0491   25.5871 C   0  0  0  0  0  0
   53.0942  154.3362   24.9040 N   0  0  0  0  0  0
   47.7766  160.1258   31.5822 C   0  0  0  0  0  0
   47.2027  159.0440   32.1040 F   0  0  0  0  0  0
   47.9469  161.0198   32.5591 F   0  0  0  0  0  0
   46.9548  160.6440   30.6716 F   0  0  0  0  0  0
   52.1986  161.0026   30.3094 H   0  0  0  0  0  0
   50.0905  161.5944   31.4235 H   0  0  0  0  0  0
   48.4521  157.7868   30.3247 H   0  0  0  0  0  0
   52.4599  158.8204   29.2326 H   0  0  0  0  0  0
   52.6480  156.5096   29.0563 H   0  0  0  0  0  0
   51.8048  157.0440   27.6210 H   0  0  0  0  0  0
   51.4716  153.3190   26.8189 H   0  0  0  0  0  0
   52.3275  156.0890   25.7334 H   0  0  0  0  0  0
   51.1597  155.0440   24.9397 H   0  0  0  0  0  0
   53.4294  154.8649   24.1129 H   0  0  0  0  0  0
   53.8800  154.2440   25.5408 H   0  0  0  0  0  0
  1  6  1  0  0  0
  1  2  2  0  0  0
  1 18  1  0  0  0
  2  3  1  0  0  0
  2 19  1  0  0  0
  3 14  1  0  0  0
  3  4  2  0  0  0
  4  5  1  0  0  0
  4 20  1  0  0  0
  5  6  2  0  0  0
  5  7  1  0  0  0
  6 21  1  0  0  0
  7  8  1  0  0  0
  8  9  1  0  0  0
  8 22  1  0  0  0
  8 23  1  0  0  0
  9 10  2  0  0  0
  9 11  1  0  0  0
 10 12  1  0  0  0
 10 24  1  0  0  0
 12 13  1  0  0  0
 12 25  1  0  0  0
 12 26  1  0  0  0
 13 27  1  0  0  0
 13 28  1  0  0  0
 14 15  1  0  0  0
 14 16  1  0  0  0
 14 17  1  0  0  0
M  END
> <s_m_entry_id>
10384

> <s_m_entry_name>
dock_pv.420

> <s_m_Source_Path>
/home/csk/Desktop/cluster/DUD-E-result/aofb

> <s_m_Source_File>
dock_pv.maegz

> <i_m_Source_File_Index>
420

> <chembl_id>
CHEMBL2029540

> <chembl_pref_name>
None

> <i_lp_mmshare_version>
53161

> <i_f3d_flags>
0

> <r_lp_tautomer_probability>
1

> <s_lp_Force_Field>
OPLS_2005

> <r_lp_Energy>
9.179285

> <b_lp_Chiralities_Consistent>
1

> <s_lp_Variant>
CHEMBL2039_lig689-1

> <s_i_glide_gridfile>
glide-grid_1s3b

> <i_i_glide_lignum>
810

> <i_i_glide_rotatable_bonds>
5

> <r_i_docking_score>
-7.08405710716797

> <r_i_glide_ligand_efficiency>
-0.416709241598116

> <r_i_glide_ligand_efficiency_sa>
-1.07147680056648

> <r_i_glide_ligand_efficiency_ln>
-1.84807274506453

> <r_i_glide_gscore>
-7.08405710716797

> <r_i_glide_lipo>
-2.57994030510349

> <r_i_glide_hbond>
-0.32

> <r_i_glide_metal>
0

> <r_i_glide_rewards>
-3.8559160070244

> <r_i_glide_evdw>
-22.7491321563721

> <r_i_glide_ecoul>
-2.11251330375671

> <r_i_glide_erotb>
1.12613280834202

> <r_i_glide_esite>
0

> <r_i_glide_emodel>
-31.322019355559

> <r_i_glide_energy>
-24.8616454601288

> <r_i_glide_einternal>
4.88977766036987

> <i_i_glide_confnum>
54

> <i_i_glide_posenum>
337

> <r_i_glide_eff_state_penalty>
0

> <s_user_duplicate_titles>
CHEMBL2039_lig689

> <s_m_subgroup_title>
dock_pv

> <s_m_subgroupid>
dock_pv

> <b_m_subgroup_collapsed>
1

$$$$
CHEMBL2039_lig2732
                    3D
 Schrodinger Suite 2021-1.
 27 28  0  0  1  0            999 V2000
   50.8560  155.3693   28.9478 C   0  0  0  0  0  0
   51.4137  156.5611   28.5041 C   0  0  0  0  0  0
   52.0866  156.5866   27.2880 C   0  0  0  0  0  0
   50.9973  154.2135   28.1998 C   0  0  0  0  0  0
   51.6560  154.2224   26.9727 C   0  0  0  0  0  0
   52.1764  155.4421   26.4874 C   0  0  0  0  0  0
   52.8560  155.5378   25.1591 C   0  0  0  0  0  0
   53.1287  154.2103   24.5591 C   0  0  0  0  0  0
   52.7121  153.0237   25.0792 C   0  0  0  0  0  0
   51.8112  152.9267   26.2401 C   0  0  0  0  0  0
   53.1945  156.6244   24.6819 O   0  0  0  0  0  0
   51.2560  151.8938   26.6164 O   0  0  0  0  0  0
   53.1426  151.6657   24.5039 C   0  0  0  0  0  0
   51.1628  157.8499   29.2730 C   0  0  0  0  0  0
   54.0560  154.2440   23.3678 C   0  0  0  0  0  0
   50.3154  155.3256   29.8804 H   0  0  0  0  0  0
   52.5011  157.5236   26.9498 H   0  0  0  0  0  0
   50.5932  153.2933   28.5864 H   0  0  0  0  0  0
   52.4560  150.8467   24.7154 H   0  0  0  0  0  0
   53.2556  151.7005   23.4202 H   0  0  0  0  0  0
   54.1049  151.3858   24.9307 H   0  0  0  0  0  0
   50.3694  157.7388   30.0129 H   0  0  0  0  0  0
   50.8560  158.6440   28.5915 H   0  0  0  0  0  0
   52.0560  158.2071   29.7631 H   0  0  0  0  0  0
   54.5236  155.2009   23.1406 H   0  0  0  0  0  0
   54.8560  153.5830   23.6055 H   0  0  0  0  0  0
   53.5390  153.8440   22.5040 H   0  0  0  0  0  0
  1  2  2  0  0  0
  1  4  1  0  0  0
  1 16  1  0  0  0
  2  3  1  0  0  0
  2 14  1  0  0  0
  3  6  2  0  0  0
  3 17  1  0  0  0
  4  5  2  0  0  0
  4 18  1  0  0  0
  5 10  1  0  0  0
  5  6  1  0  0  0
  6  7  1  0  0  0
  7  8  1  0  0  0
  7 11  2  0  0  0
  8  9  2  0  0  0
  8 15  1  0  0  0
  9 10  1  0  0  0
  9 13  1  0  0  0
 10 12  2  0  0  0
 13 19  1  0  0  0
 13 20  1  0  0  0
 13 21  1  0  0  0
 14 22  1  0  0  0
 14 23  1  0  0  0
 14 24  1  0  0  0
 15 25  1  0  0  0
 15 26  1  0  0  0
 15 27  1  0  0  0
M  END
> <s_m_entry_id>
10385

> <s_m_entry_name>
dock_pv.421

> <s_m_Source_Path>
/home/csk/Desktop/cluster/DUD-E-result/aofb

> <s_m_Source_File>
dock_pv.maegz

> <i_m_Source_File_Index>
421

> <chembl_id>
CHEMBL1928855

> <chembl_pref_name>
None

> <i_lp_mmshare_version>
53161

> <i_f3d_flags>
0

> <r_lp_tautomer_probability>
1

> <s_lp_Force_Field>
OPLS_2005

> <r_lp_Energy>
7.467311

> <b_lp_Chiralities_Consistent>
1

> <s_lp_Variant>
CHEMBL2039_lig2732-1

> <s_i_glide_gridfile>
glide-grid_1s3b

> <i_i_glide_lignum>
3181

> <i_i_glide_rotatable_bonds>
0

> <r_i_docking_score>
-7.08137695535832

> <r_i_glide_ligand_efficiency>
-0.472091797023888

> <r_i_glide_ligand_efficiency_sa>
-1.16427848896171

> <r_i_glide_ligand_efficiency_ln>
-1.90973060538754

> <r_i_glide_gscore>
-7.08137695535832

> <r_i_glide_lipo>
-2.64391112164264

> <r_i_glide_hbond>
0

> <r_i_glide_metal>
0

> <r_i_glide_rewards>
-3.45549738912988

> <r_i_glide_evdw>
-15.8957872390747

> <r_i_glide_ecoul>
-1.24786055088043

> <r_i_glide_erotb>
0

> <r_i_glide_esite>
0

> <r_i_glide_emodel>
-18.028174797782

> <r_i_glide_energy>
-17.1436477899551

> <r_i_glide_einternal>
0

> <i_i_glide_confnum>
1

> <i_i_glide_posenum>
381

> <r_i_glide_eff_state_penalty>
0

> <s_user_duplicate_titles>
CHEMBL2039_lig2732

> <s_m_subgroup_title>
dock_pv

> <s_m_subgroupid>
dock_pv

> <b_m_subgroup_collapsed>
1

$$$$
CHEMBL2039_lig656
                    3D
 Schrodinger Suite 2021-1.
 34 36  0  0  1  0            999 V2000
   51.5524  156.5237   28.5040 C   0  0  0  0  0  0
   52.4560  157.1827   27.6611 C   0  0  0  0  0  0
   52.8560  156.5798   26.4668 C   0  0  0  0  0  0
   51.2620  155.1774   28.2591 C   0  0  0  0  0  0
   51.7426  154.5386   27.1047 C   0  0  0  0  0  0
   52.4560  155.2915   26.1623 C   0  0  0  0  0  0
   52.9236  154.7643   24.9744 O   0  0  0  0  0  0
   52.8560  153.4213   24.8196 C   0  0  0  0  0  0
   52.2901  152.5803   25.7040 C   0  0  0  0  0  0
   51.6767  153.0635   26.9310 C   0  0  0  0  0  0
   51.2560  152.3247   27.8076 O   0  0  0  0  0  0
   50.8560  157.1378   29.5289 O   0  0  0  0  0  0
   50.7765  158.5650   29.6153 C   0  0  0  0  0  0
   49.5616  158.9805   30.4535 C   0  0  0  0  0  0
   49.6560  160.0379   31.3645 C   0  0  0  0  0  0
   48.5507  160.3919   32.1466 C   0  0  0  0  0  0
   47.3237  159.7623   31.9602 C   0  0  0  0  0  0
   47.2177  158.7268   31.0453 C   0  0  0  0  0  0
   48.3380  158.3082   30.3377 C   0  0  0  0  0  0
   48.6569  161.4440   33.2143 C   0  0  0  0  0  0
   52.7680  158.1937   27.8739 H   0  0  0  0  0  0
   53.5244  157.0440   25.7681 H   0  0  0  0  0  0
   50.6563  154.6364   28.9738 H   0  0  0  0  0  0
   53.3143  153.0988   23.8940 H   0  0  0  0  0  0
   52.2895  151.5211   25.4997 H   0  0  0  0  0  0
   50.6752  159.0324   28.6339 H   0  0  0  0  0  0
   51.6933  158.9449   30.0666 H   0  0  0  0  0  0
   50.5972  160.5524   31.4997 H   0  0  0  0  0  0
   46.4588  160.0579   32.5366 H   0  0  0  0  0  0
   46.2678  158.2440   30.8990 H   0  0  0  0  0  0
   48.2337  157.4477   29.7040 H   0  0  0  0  0  0
   49.6639  161.8439   33.3009 H   0  0  0  0  0  0
   47.9658  162.2440   32.9579 H   0  0  0  0  0  0
   48.3605  161.0391   34.1822 H   0  0  0  0  0  0
  1 12  1  0  0  0
  1  2  2  0  0  0
  1  4  1  0  0  0
  2  3  1  0  0  0
  2 21  1  0  0  0
  3  6  2  0  0  0
  3 22  1  0  0  0
  4  5  2  0  0  0
  4 23  1  0  0  0
  5  6  1  0  0  0
  5 10  1  0  0  0
  6  7  1  0  0  0
  7  8  1  0  0  0
  8  9  2  0  0  0
  8 24  1  0  0  0
  9 10  1  0  0  0
  9 25  1  0  0  0
 10 11  2  0  0  0
 12 13  1  0  0  0
 13 14  1  0  0  0
 13 26  1  0  0  0
 13 27  1  0  0  0
 14 15  2  0  0  0
 14 19  1  0  0  0
 15 16  1  0  0  0
 15 28  1  0  0  0
 16 17  2  0  0  0
 16 20  1  0  0  0
 17 18  1  0  0  0
 17 29  1  0  0  0
 18 19  2  0  0  0
 18 30  1  0  0  0
 19 31  1  0  0  0
 20 32  1  0  0  0
 20 33  1  0  0  0
 20 34  1  0  0  0
M  END
> <s_m_entry_id>
10386

> <s_m_entry_name>
dock_pv.422

> <s_m_Source_Path>
/home/csk/Desktop/cluster/DUD-E-result/aofb

> <s_m_Source_File>
dock_pv.maegz

> <i_m_Source_File_Index>
422

> <chembl_id>
CHEMBL1945158

> <chembl_pref_name>
None

> <i_lp_mmshare_version>
53161

> <i_f3d_flags>
0

> <r_lp_tautomer_probability>
1

> <s_lp_Force_Field>
OPLS_2005

> <r_lp_Energy>
15.820773

> <b_lp_Chiralities_Consistent>
1

> <s_lp_Variant>
CHEMBL2039_lig656-1

> <s_i_glide_gridfile>
glide-grid_1s3b

> <i_i_glide_lignum>
765

> <i_i_glide_rotatable_bonds>
3

> <r_i_docking_score>
-7.07635190676299

> <r_i_glide_ligand_efficiency>
-0.353817595338149

> <r_i_glide_ligand_efficiency_sa>
-0.960408712888078

> <r_i_glide_ligand_efficiency_ln>
-1.77097748855655

> <r_i_glide_gscore>
-7.07635190676299

> <r_i_glide_lipo>
-4.09582841289678

> <r_i_glide_hbond>
0

> <r_i_glide_metal>
0

> <r_i_glide_rewards>
-2.22849966591728

> <r_i_glide_evdw>
-27.8383712768555

> <r_i_glide_ecoul>
-0.757606863975525

> <r_i_glide_erotb>
0.753535765490181

> <r_i_glide_esite>
0

> <r_i_glide_emodel>
-33.9754122360194

> <r_i_glide_energy>
-28.595978140831

> <r_i_glide_einternal>
1.34977841377258

> <i_i_glide_confnum>
16

> <i_i_glide_posenum>
325

> <r_i_glide_eff_state_penalty>
0

> <s_user_duplicate_titles>
CHEMBL2039_lig656

> <s_m_subgroup_title>
dock_pv

> <s_m_subgroupid>
dock_pv

> <b_m_subgroup_collapsed>
1

$$$$
CHEMBL2039_lig660
                    3D
 Schrodinger Suite 2021-1.
 34 36  0  0  1  0            999 V2000
   51.6544  155.5434   27.8713 C   0  0  0  0  0  0
   51.2554  154.2284   28.1085 C   0  0  0  0  0  0
   51.4601  153.2284   27.1601 C   0  0  0  0  0  0
   52.2532  155.8579   26.6449 C   0  0  0  0  0  0
   52.5274  154.8497   25.7047 C   0  0  0  0  0  0
   52.1061  153.5386   25.9703 C   0  0  0  0  0  0
   52.4567  152.4816   25.1600 O   0  0  0  0  0  0
   53.2557  152.7300   24.0976 C   0  0  0  0  0  0
   53.7653  153.9327   23.7918 C   0  0  0  0  0  0
   53.4917  155.1029   24.6141 C   0  0  0  0  0  0
   54.0487  156.1918   24.5015 O   0  0  0  0  0  0
   51.4174  156.4392   28.8923 O   0  0  0  0  0  0
   51.7759  157.8228   28.7922 C   0  0  0  0  0  0
   50.8701  158.6458   29.7042 C   0  0  0  0  0  0
   51.2538  159.9140   30.1377 C   0  0  0  0  0  0
   50.4149  160.6423   30.9816 C   0  0  0  0  0  0
   49.1746  160.1078   31.3604 C   0  0  0  0  0  0
   48.7845  158.8543   30.9051 C   0  0  0  0  0  0
   49.6396  158.1261   30.1041 C   0  0  0  0  0  0
   48.2110  160.8580   32.2560 C   0  0  0  0  0  0
   48.8155  161.8439   32.9045 F   0  0  0  0  0  0
   47.6581  160.0513   33.1625 F   0  0  0  0  0  0
   47.2602  161.3574   31.4726 F   0  0  0  0  0  0
   50.8104  153.9735   29.0607 H   0  0  0  0  0  0
   51.1910  152.2047   27.3746 H   0  0  0  0  0  0
   52.6149  156.8606   26.4694 H   0  0  0  0  0  0
   53.4414  151.8365   23.5159 H   0  0  0  0  0  0
   54.4102  154.0206   22.9316 H   0  0  0  0  0  0
   51.6572  158.2348   27.7974 H   0  0  0  0  0  0
   52.8285  157.9421   29.0360 H   0  0  0  0  0  0
   52.2135  160.3168   29.8507 H   0  0  0  0  0  0
   50.7391  161.6030   31.3530 H   0  0  0  0  0  0
   47.8279  158.4326   31.1888 H   0  0  0  0  0  0
   49.3274  157.1402   29.7913 H   0  0  0  0  0  0
  1 12  1  0  0  0
  1  2  2  0  0  0
  1  4  1  0  0  0
  2  3  1  0  0  0
  2 24  1  0  0  0
  3  6  2  0  0  0
  3 25  1  0  0  0
  4  5  2  0  0  0
  4 26  1  0  0  0
  5 10  1  0  0  0
  5  6  1  0  0  0
  6  7  1  0  0  0
  7  8  1  0  0  0
  8  9  2  0  0  0
  8 27  1  0  0  0
  9 10  1  0  0  0
  9 28  1  0  0  0
 10 11  2  0  0  0
 12 13  1  0  0  0
 13 14  1  0  0  0
 13 29  1  0  0  0
 13 30  1  0  0  0
 14 15  2  0  0  0
 14 19  1  0  0  0
 15 16  1  0  0  0
 15 31  1  0  0  0
 16 17  2  0  0  0
 16 32  1  0  0  0
 17 18  1  0  0  0
 17 20  1  0  0  0
 18 19  2  0  0  0
 18 33  1  0  0  0
 19 34  1  0  0  0
 20 21  1  0  0  0
 20 22  1  0  0  0
 20 23  1  0  0  0
M  END
> <s_m_entry_id>
10387

> <s_m_entry_name>
dock_pv.423

> <s_m_Source_Path>
/home/csk/Desktop/cluster/DUD-E-result/aofb

> <s_m_Source_File>
dock_pv.maegz

> <i_m_Source_File_Index>
423

> <chembl_id>
CHEMBL1945272

> <chembl_pref_name>
None

> <i_lp_mmshare_version>
53161

> <i_f3d_flags>
0

> <r_lp_tautomer_probability>
1

> <s_lp_Force_Field>
OPLS_2005

> <r_lp_Energy>
16.567724

> <b_lp_Chiralities_Consistent>
1

> <s_lp_Variant>
CHEMBL2039_lig660-1

> <s_i_glide_gridfile>
glide-grid_1s3b

> <i_i_glide_lignum>
769

> <i_i_glide_rotatable_bonds>
4

> <r_i_docking_score>
-7.07594011489705

> <r_i_glide_ligand_efficiency>
-0.307649570212915

> <r_i_glide_ligand_efficiency_sa>
-0.874914453179606

> <r_i_glide_ligand_efficiency_ln>
-1.71102648085974

> <r_i_glide_gscore>
-7.07594011489705

> <r_i_glide_lipo>
-4.27876323691487

> <r_i_glide_hbond>
0

> <r_i_glide_metal>
0

> <r_i_glide_rewards>
-1.54423921417802

> <r_i_glide_evdw>
-27.9678859710693

> <r_i_glide_ecoul>
-2.62716579437256

> <r_i_glide_erotb>
0.546085008217418

> <r_i_glide_esite>
-0.00655350431222724

> <r_i_glide_emodel>
-33.4790420404861

> <r_i_glide_energy>
-30.5950517654419

> <r_i_glide_einternal>
3.2779655456543

> <i_i_glide_confnum>
2

> <i_i_glide_posenum>
147

> <r_i_glide_eff_state_penalty>
0

> <s_user_duplicate_titles>
CHEMBL2039_lig660

> <s_m_subgroup_title>
dock_pv

> <s_m_subgroupid>
dock_pv

> <b_m_subgroup_collapsed>
1

$$$$
CHEMBL2039_lig224
                    3D
 Schrodinger Suite 2021-1.
 31 33  0  0  1  0            999 V2000
   52.2860  157.4589   28.1041 C   0  0  0  0  0  0
   51.2560  156.9654   28.9040 C   0  0  0  0  0  0
   50.8708  155.6215   28.7569 C   0  0  0  0  0  0
   52.7057  156.7463   26.9863 C   0  0  0  0  0  0
   52.1570  155.5025   26.7176 C   0  0  0  0  0  0
   51.3673  154.8731   27.6846 C   0  0  0  0  0  0
   51.0358  153.5276   27.5634 O   0  0  0  0  0  0
   51.5135  152.7503   26.4975 C   0  0  0  0  0  0
   52.2192  153.4443   25.4176 C   0  0  0  0  0  0
   52.5007  154.7504   25.5161 C   0  0  0  0  0  0
   51.2560  151.5514   26.5040 O   0  0  0  0  0  0
   50.5602  157.7421   29.8188 O   0  0  0  0  0  0
   50.4524  159.4252   29.7040 S   0  0  0  0  0  0
   49.3575  159.7632   31.0578 C   0  0  0  0  0  0
   51.7542  160.0292   30.0083 O   0  0  0  0  0  0
   49.6560  159.8230   28.5410 O   0  0  0  0  0  0
   49.7067  160.7370   31.9907 C   0  0  0  0  0  0
   48.8038  161.0914   32.9802 C   0  0  0  0  0  0
   47.5515  160.4934   33.0139 C   0  0  0  0  0  0
   47.1936  159.5264   32.0763 C   0  0  0  0  0  0
   48.1042  159.1513   31.0945 C   0  0  0  0  0  0
   52.6827  158.4424   28.2832 H   0  0  0  0  0  0
   50.1582  155.1825   29.4386 H   0  0  0  0  0  0
   53.4386  157.1712   26.3210 H   0  0  0  0  0  0
   52.5077  152.9049   24.5277 H   0  0  0  0  0  0
   53.0153  155.2413   24.7025 H   0  0  0  0  0  0
   50.6690  161.2291   31.9523 H   0  0  0  0  0  0
   49.0736  161.8440   33.7040 H   0  0  0  0  0  0
   46.8560  160.7943   33.7782 H   0  0  0  0  0  0
   46.2111  159.0788   32.1040 H   0  0  0  0  0  0
   47.8285  158.4199   30.3480 H   0  0  0  0  0  0
  1  2  2  0  0  0
  1  4  1  0  0  0
  1 22  1  0  0  0
  2 12  1  0  0  0
  2  3  1  0  0  0
  3  6  2  0  0  0
  3 23  1  0  0  0
  4  5  2  0  0  0
  4 24  1  0  0  0
  5  6  1  0  0  0
  5 10  1  0  0  0
  6  7  1  0  0  0
  7  8  1  0  0  0
  8 11  2  0  0  0
  8  9  1  0  0  0
  9 10  2  0  0  0
  9 25  1  0  0  0
 10 26  1  0  0  0
 12 13  1  0  0  0
 13 14  1  0  0  0
 13 15  2  0  0  0
 13 16  2  0  0  0
 14 17  2  0  0  0
 14 21  1  0  0  0
 17 18  1  0  0  0
 17 27  1  0  0  0
 18 19  2  0  0  0
 18 28  1  0  0  0
 19 20  1  0  0  0
 19 29  1  0  0  0
 20 21  2  0  0  0
 20 30  1  0  0  0
 21 31  1  0  0  0
M  END
> <s_m_entry_id>
10388

> <s_m_entry_name>
dock_pv.424

> <s_m_Source_Path>
/home/csk/Desktop/cluster/DUD-E-result/aofb

> <s_m_Source_File>
dock_pv.maegz

> <i_m_Source_File_Index>
424

> <chembl_id>
CHEMBL214255

> <chembl_pref_name>
None

> <i_lp_mmshare_version>
53161

> <i_f3d_flags>
0

> <r_lp_tautomer_probability>
1

> <s_lp_Force_Field>
OPLS_2005

> <r_lp_Energy>
16.289998

> <b_lp_Chiralities_Consistent>
1

> <s_lp_Variant>
CHEMBL2039_lig224-1

> <s_i_glide_gridfile>
glide-grid_1s3b

> <i_i_glide_lignum>
265

> <i_i_glide_rotatable_bonds>
3

> <r_i_docking_score>
-7.06886916004268

> <r_i_glide_ligand_efficiency>
-0.33661281714489

> <r_i_glide_ligand_efficiency_sa>
-0.928689238358322

> <r_i_glide_ligand_efficiency_ln>
-1.74776361582546

> <r_i_glide_gscore>
-7.06886916004268

> <r_i_glide_lipo>
-4.07343956311432

> <r_i_glide_hbond>
0

> <r_i_glide_metal>
0

> <r_i_glide_rewards>
-2.45877107148528

> <r_i_glide_evdw>
-24.0020942687988

> <r_i_glide_ecoul>
0.393943637609482

> <r_i_glide_erotb>
0.604354642355434

> <r_i_glide_esite>
0

> <r_i_glide_emodel>
-20.8148014850259

> <r_i_glide_energy>
-23.6081506311893

> <r_i_glide_einternal>
8.06954669952393

> <i_i_glide_confnum>
6

> <i_i_glide_posenum>
307

> <r_i_glide_eff_state_penalty>
0

> <s_user_duplicate_titles>
CHEMBL2039_lig224

> <s_m_subgroup_title>
dock_pv

> <s_m_subgroupid>
dock_pv

> <b_m_subgroup_collapsed>
1

$$$$
CHEMBL2039_lig1559
                    3D
 Schrodinger Suite 2021-1.
 36 39  0  0  1  0            999 V2000
   53.2561  149.6098   24.7342 C   0  0  0  0  0  0
   53.0172  151.1025   24.7666 C   0  0  0  0  0  0
   52.4560  151.8908   25.7465 C   0  0  0  0  0  0
   52.4736  153.1877   25.3027 N   0  0  0  0  0  0
   52.9759  153.0746   24.0348 C   0  0  0  0  0  0
   53.2560  151.8446   23.7033 N   0  0  0  0  0  0
   52.1818  154.3487   26.0304 C   0  0  0  0  0  0
   52.8562  155.5304   25.7037 C   0  0  0  0  0  0
   52.8559  156.6015   26.5900 C   0  0  0  0  0  0
   52.0567  156.5779   27.7453 C   0  0  0  0  0  0
   51.9450  157.7104   28.5038 N   0  0  0  0  0  0
   50.8937  157.7437   29.3647 C   0  0  0  0  0  0
   50.1334  156.6680   29.7040 N   0  0  0  0  0  0
   50.4092  155.4957   29.0936 C   0  0  0  0  0  0
   51.2988  155.4019   28.0205 C   0  0  0  0  0  0
   51.4046  154.2687   27.1890 C   0  0  0  0  0  0
   50.5533  159.0331   30.0437 C   0  0  0  0  0  0
   49.2631  159.2392   30.5603 C   0  0  0  0  0  0
   49.0057  160.3074   31.4052 C   0  0  0  0  0  0
   50.0404  161.1755   31.7214 C   0  0  0  0  0  0
   51.3017  161.0418   31.1529 C   0  0  0  0  0  0
   51.5504  159.9823   30.2946 C   0  0  0  0  0  0
   52.6811  149.0930   25.5025 H   0  0  0  0  0  0
   54.3045  149.3669   24.9032 H   0  0  0  0  0  0
   52.9738  149.1648   23.7794 H   0  0  0  0  0  0
   52.0482  151.6477   26.7133 H   0  0  0  0  0  0
   53.0992  153.9396   23.4034 H   0  0  0  0  0  0
   53.5127  155.5805   24.8482 H   0  0  0  0  0  0
   53.4927  157.4440   26.4170 H   0  0  0  0  0  0
   49.8113  154.6450   29.3754 H   0  0  0  0  0  0
   50.8572  153.3743   27.4482 H   0  0  0  0  0  0
   48.4698  158.5322   30.3656 H   0  0  0  0  0  0
   48.0257  160.4400   31.8388 H   0  0  0  0  0  0
   49.8618  161.9870   32.4112 H   0  0  0  0  0  0
   52.0878  161.7390   31.4046 H   0  0  0  0  0  0
   52.5507  159.8432   29.9109 H   0  0  0  0  0  0
  1  2  1  0  0  0
  1 23  1  0  0  0
  1 24  1  0  0  0
  1 25  1  0  0  0
  2  3  2  0  0  0
  2  6  1  0  0  0
  3  4  1  0  0  0
  3 26  1  0  0  0
  4  5  1  0  0  0
  4  7  1  0  0  0
  5  6  2  0  0  0
  5 27  1  0  0  0
  7  8  2  0  0  0
  7 16  1  0  0  0
  8  9  1  0  0  0
  8 28  1  0  0  0
  9 10  2  0  0  0
  9 29  1  0  0  0
 10 11  1  0  0  0
 10 15  1  0  0  0
 11 12  2  0  0  0
 12 13  1  0  0  0
 12 17  1  0  0  0
 13 14  2  0  0  0
 14 15  1  0  0  0
 14 30  1  0  0  0
 15 16  2  0  0  0
 16 31  1  0  0  0
 17 18  2  0  0  0
 17 22  1  0  0  0
 18 19  1  0  0  0
 18 32  1  0  0  0
 19 20  2  0  0  0
 19 33  1  0  0  0
 20 21  1  0  0  0
 20 34  1  0  0  0
 21 22  2  0  0  0
 21 35  1  0  0  0
 22 36  1  0  0  0
M  END
> <s_m_entry_id>
10389

> <s_m_entry_name>
dock_pv.425

> <s_m_Source_Path>
/home/csk/Desktop/cluster/DUD-E-result/aofb

> <s_m_Source_File>
dock_pv.maegz

> <i_m_Source_File_Index>
425

> <chembl_id>
CHEMBL3652412

> <chembl_pref_name>
None

> <i_lp_mmshare_version>
53161

> <i_f3d_flags>
0

> <r_lp_tautomer_probability>
1

> <s_lp_Force_Field>
OPLS_2005

> <r_lp_Energy>
16.481686

> <b_lp_Chiralities_Consistent>
1

> <s_lp_Variant>
CHEMBL2039_lig1559-1

> <s_i_glide_gridfile>
glide-grid_1s3b

> <i_i_glide_lignum>
1820

> <i_i_glide_rotatable_bonds>
2

> <r_i_docking_score>
-7.0676442408992

> <r_i_glide_ligand_efficiency>
-0.321256556404509

> <r_i_glide_ligand_efficiency_sa>
-0.900173505348854

> <r_i_glide_ligand_efficiency_ln>
-1.72759005106325

> <r_i_glide_gscore>
-7.0676442408992

> <r_i_glide_lipo>
-3.66649853187376

> <r_i_glide_hbond>
0

> <r_i_glide_metal>
0

> <r_i_glide_rewards>
-3.40092366790561

> <r_i_glide_evdw>
-10.2557735443115

> <r_i_glide_ecoul>
0.464011579751968

> <r_i_glide_erotb>
0.44296489913295

> <r_i_glide_esite>
0

> <r_i_glide_emodel>
-22.75448234686

> <r_i_glide_energy>
-9.79176196455956

> <r_i_glide_einternal>
1.40961265563965

> <i_i_glide_confnum>
1

> <i_i_glide_posenum>
94

> <r_i_glide_eff_state_penalty>
0

> <s_user_duplicate_titles>
CHEMBL2039_lig1559

> <s_m_subgroup_title>
dock_pv

> <s_m_subgroupid>
dock_pv

> <b_m_subgroup_collapsed>
1

$$$$
CHEMBL2039_lig1622
                    3D
 Schrodinger Suite 2021-1.
 30 32  0  0  1  0            999 V2000
   51.1698  159.2766   29.7396 C   0  0  0  0  0  0
   50.5433  158.0299   29.5980 C   0  0  0  0  0  0
   49.2652  157.8433   30.1041 C   0  0  0  0  0  0
   50.5469  160.2709   30.5149 C   0  0  0  0  0  0
   49.2876  160.0148   31.0807 C   0  0  0  0  0  0
   48.6387  158.8302   30.8350 C   0  0  0  0  0  0
   47.3189  158.8343   31.5232 C   0  0  0  0  0  0
   47.2944  160.0589   32.2221 O   0  0  0  0  0  0
   48.4254  160.7685   32.0137 C   0  0  0  0  0  0
   48.6143  161.8439   32.5572 O   0  0  0  0  0  0
   51.0406  156.9106   28.9721 O   0  0  0  0  0  0
   52.1548  156.9519   28.1037 C   0  0  0  0  0  0
   52.0648  155.7221   27.2069 C   0  0  0  0  0  0
   51.6554  154.4924   27.7385 C   0  0  0  0  0  0
   51.6425  153.3539   26.9385 C   0  0  0  0  0  0
   52.0472  153.4440   25.6091 C   0  0  0  0  0  0
   52.4476  154.6625   25.0685 C   0  0  0  0  0  0
   52.4565  155.8041   25.8662 C   0  0  0  0  0  0
   52.1523  159.4452   29.3243 H   0  0  0  0  0  0
   48.7879  156.8826   29.9766 H   0  0  0  0  0  0
   51.0601  161.2039   30.6972 H   0  0  0  0  0  0
   46.4779  158.7689   30.8308 H   0  0  0  0  0  0
   47.2529  158.0009   32.2201 H   0  0  0  0  0  0
   53.0848  156.9355   28.6743 H   0  0  0  0  0  0
   52.1417  157.8470   27.4878 H   0  0  0  0  0  0
   51.3707  154.4129   28.7781 H   0  0  0  0  0  0
   51.3340  152.4053   27.3534 H   0  0  0  0  0  0
   52.0602  152.5607   24.9894 H   0  0  0  0  0  0
   52.7622  154.7089   24.0393 H   0  0  0  0  0  0
   52.7874  156.7418   25.4472 H   0  0  0  0  0  0
  1  2  2  0  0  0
  1  4  1  0  0  0
  1 19  1  0  0  0
  2  3  1  0  0  0
  2 11  1  0  0  0
  3  6  2  0  0  0
  3 20  1  0  0  0
  4  5  2  0  0  0
  4 21  1  0  0  0
  5  6  1  0  0  0
  5  9  1  0  0  0
  6  7  1  0  0  0
  7  8  1  0  0  0
  7 22  1  0  0  0
  7 23  1  0  0  0
  8  9  1  0  0  0
  9 10  2  0  0  0
 11 12  1  0  0  0
 12 13  1  0  0  0
 12 24  1  0  0  0
 12 25  1  0  0  0
 13 14  2  0  0  0
 13 18  1  0  0  0
 14 15  1  0  0  0
 14 26  1  0  0  0
 15 16  2  0  0  0
 15 27  1  0  0  0
 16 17  1  0  0  0
 16 28  1  0  0  0
 17 18  2  0  0  0
 17 29  1  0  0  0
 18 30  1  0  0  0
M  END
> <s_m_entry_id>
10390

> <s_m_entry_name>
dock_pv.426

> <s_m_Source_Path>
/home/csk/Desktop/cluster/DUD-E-result/aofb

> <s_m_Source_File>
dock_pv.maegz

> <i_m_Source_File_Index>
426

> <chembl_id>
CHEMBL3764407

> <chembl_pref_name>
None

> <i_lp_mmshare_version>
53161

> <i_f3d_flags>
0

> <r_lp_tautomer_probability>
1

> <s_lp_Force_Field>
OPLS_2005

> <r_lp_Energy>
31.440657

> <b_lp_Chiralities_Consistent>
1

> <s_lp_Variant>
CHEMBL2039_lig1622-1

> <s_i_glide_gridfile>
glide-grid_1s3b

> <i_i_glide_lignum>
1883

> <i_i_glide_rotatable_bonds>
3

> <r_i_docking_score>
-7.0625253902653

> <r_i_glide_ligand_efficiency>
-0.392362521681406

> <r_i_glide_ligand_efficiency_sa>
-1.02828070111594

> <r_i_glide_ligand_efficiency_ln>
-1.81538573426324

> <r_i_glide_gscore>
-7.0625253902653

> <r_i_glide_lipo>
-3.53275299814506

> <r_i_glide_hbond>
0

> <r_i_glide_metal>
0

> <r_i_glide_rewards>
-3.10977259075935

> <r_i_glide_evdw>
-24.8817539215088

> <r_i_glide_ecoul>
-0.500157117843628

> <r_i_glide_erotb>
0.899111462391091

> <r_i_glide_esite>
0

> <r_i_glide_emodel>
-34.5777883687043

> <r_i_glide_energy>
-25.3819110393524

> <r_i_glide_einternal>
0.725531876087189

> <i_i_glide_confnum>
8

> <i_i_glide_posenum>
400

> <r_i_glide_eff_state_penalty>
0

> <s_user_duplicate_titles>
CHEMBL2039_lig1622

> <s_m_subgroup_title>
dock_pv

> <s_m_subgroupid>
dock_pv

> <b_m_subgroup_collapsed>
1

$$$$
CHEMBL2039_lig2531 
                    3D
 Schrodinger Suite 2021-1.
 30 32  0  0  1  0            999 V2000
   51.6560  159.3121   29.7040 C   0  0  0  0  0  0
   50.8054  158.2077   29.5397 C   0  0  0  0  0  0
   49.5279  158.2574   30.1040 C   0  0  0  0  0  0
   51.2971  160.3847   30.5242 C   0  0  0  0  0  0
   50.0560  160.3608   31.1531 C   0  0  0  0  0  0
   49.1648  159.3346   30.9084 C   0  0  0  0  0  0
   47.9485  159.6241   31.6570 C   0  0  0  0  0  0
   48.3029  160.8927   32.4918 C   0  0  0  0  0  0
   49.5449  161.2280   32.1040 N   0  0  0  0  0  0
   47.5895  161.4440   33.3255 O   0  0  0  0  0  0
   51.1476  157.0278   28.9040 O   0  0  0  0  0  0
   52.3216  156.9623   28.1028 C   0  0  0  0  0  0
   46.8646  159.0440   31.7040 O   0  0  0  0  0  0
   52.2047  155.8440   27.0673 C   0  0  0  0  0  0
   51.6560  154.5959   27.4018 C   0  0  0  0  0  0
   51.7439  153.5324   26.4965 C   0  0  0  0  0  0
   52.3317  153.7140   25.2492 C   0  0  0  0  0  0
   52.8560  154.9519   24.9040 C   0  0  0  0  0  0
   52.7826  156.0173   25.8009 C   0  0  0  0  0  0
   51.2560  151.9472   26.9385 Cl  0  0  0  0  0  0
   52.6562  159.2957   29.3040 H   0  0  0  0  0  0
   48.8650  157.4110   30.0042 H   0  0  0  0  0  0
   52.0048  161.1793   30.7105 H   0  0  0  0  0  0
   50.0769  161.9751   32.5291 H   0  0  0  0  0  0
   53.1925  156.7832   28.7351 H   0  0  0  0  0  0
   52.4853  157.8962   27.5707 H   0  0  0  0  0  0
   51.2434  154.4292   28.3866 H   0  0  0  0  0  0
   52.4314  152.8817   24.5676 H   0  0  0  0  0  0
   53.3820  155.0440   23.9708 H   0  0  0  0  0  0
   53.2417  156.9573   25.5368 H   0  0  0  0  0  0
  1  2  2  0  0  0
  1  4  1  0  0  0
  1 21  1  0  0  0
  2  3  1  0  0  0
  2 11  1  0  0  0
  3  6  2  0  0  0
  3 22  1  0  0  0
  4  5  2  0  0  0
  4 23  1  0  0  0
  5  6  1  0  0  0
  5  9  1  0  0  0
  6  7  1  0  0  0
  7  8  1  0  0  0
  7 13  2  0  0  0
  8  9  1  0  0  0
  8 10  2  0  0  0
  9 24  1  0  0  0
 11 12  1  0  0  0
 12 14  1  0  0  0
 12 25  1  0  0  0
 12 26  1  0  0  0
 14 15  2  0  0  0
 14 19  1  0  0  0
 15 16  1  0  0  0
 15 27  1  0  0  0
 16 17  2  0  0  0
 16 20  1  0  0  0
 17 18  1  0  0  0
 17 28  1  0  0  0
 18 19  2  0  0  0
 18 29  1  0  0  0
 19 30  1  0  0  0
M  END
> <s_m_entry_id>
10391

> <s_m_entry_name>
dock_pv.427

> <s_m_Source_Path>
/home/csk/Desktop/cluster/DUD-E-result/aofb

> <s_m_Source_File>
dock_pv.maegz

> <i_m_Source_File_Index>
427

> <chembl_id>
CHEMBL4476820

> <chembl_pref_name>
None

> <i_lp_mmshare_version>
53161

> <i_f3d_flags>
0

> <r_lp_tautomer_probability>
1

> <s_lp_Force_Field>
OPLS_2005

> <r_lp_Energy>
37.091676

> <b_lp_Chiralities_Consistent>
1

> <s_lp_Variant>
CHEMBL2039_lig2531 -1

> <s_i_glide_gridfile>
glide-grid_1s3b

> <i_i_glide_lignum>
2936

> <i_i_glide_rotatable_bonds>
3

> <r_i_docking_score>
-7.05716295332669

> <r_i_glide_ligand_efficiency>
-0.352858147666335

> <r_i_glide_ligand_efficiency_sa>
-0.957804371228104

> <r_i_glide_ligand_efficiency_ln>
-1.76617512640548

> <r_i_glide_gscore>
-7.05716295332669

> <r_i_glide_lipo>
-2.86411574341784

> <r_i_glide_hbond>
-0.0783753711095115

> <r_i_glide_metal>
0

> <r_i_glide_rewards>
-2.65783288695725

> <r_i_glide_evdw>
-32.843921661377

> <r_i_glide_ecoul>
-3.15734434127808

> <r_i_glide_erotb>
0.658958782418471

> <r_i_glide_esite>
0

> <r_i_glide_emodel>
-46.3927953237414

> <r_i_glide_energy>
-36.001266002655

> <r_i_glide_einternal>
1.2151802778244

> <i_i_glide_confnum>
5

> <i_i_glide_posenum>
200

> <r_i_glide_eff_state_penalty>
0

> <s_user_duplicate_titles>
CHEMBL2039_lig2531 

> <s_m_subgroup_title>
dock_pv

> <s_m_subgroupid>
dock_pv

> <b_m_subgroup_collapsed>
1

$$$$
CHEMBL2039_lig1492
                    3D
 Schrodinger Suite 2021-1.
 32 33  0  0  1  0            999 V2000
   51.6565  153.0469   26.3784 C   0  0  0  0  0  0
   51.2563  153.1059   27.7114 C   0  0  0  0  0  0
   51.2804  154.3161   28.4059 C   0  0  0  0  0  0
   51.7158  155.4804   27.7642 C   0  0  0  0  0  0
   52.0563  155.4201   26.4067 C   0  0  0  0  0  0
   52.0558  154.2125   25.7102 C   0  0  0  0  0  0
   51.9432  156.7533   28.5035 C   0  0  0  0  0  0
   52.9332  157.4436   28.2585 O   0  0  0  0  0  0
   50.8428  157.2678   29.3098 C   0  0  0  0  0  0
   50.7588  158.5587   29.7044 C   0  0  0  0  0  0
   49.6553  159.1525   30.4955 C   0  0  0  0  0  0
   48.3645  158.6069   30.5042 C   0  0  0  0  0  0
   47.3655  159.1695   31.2956 C   0  0  0  0  0  0
   47.6562  160.2683   32.0966 C   0  0  0  0  0  0
   48.9343  160.8181   32.1042 C   0  0  0  0  0  0
   49.9288  160.2665   31.3004 C   0  0  0  0  0  0
   52.4815  154.2467   24.4003 O   0  0  0  0  0  0
   53.1941  153.1179   23.9070 C   0  0  0  0  0  0
   51.6558  152.0928   25.8761 H   0  0  0  0  0  0
   50.9526  152.2037   28.2211 H   0  0  0  0  0  0
   51.0166  154.3205   29.4544 H   0  0  0  0  0  0
   52.3971  156.3075   25.8914 H   0  0  0  0  0  0
   50.0711  156.5616   29.5727 H   0  0  0  0  0  0
   51.5455  159.2476   29.4232 H   0  0  0  0  0  0
   48.1241  157.7442   29.9026 H   0  0  0  0  0  0
   46.3703  158.7492   31.2965 H   0  0  0  0  0  0
   46.8810  160.6976   32.7159 H   0  0  0  0  0  0
   49.1614  161.6693   32.7302 H   0  0  0  0  0  0
   50.9199  160.6949   31.3271 H   0  0  0  0  0  0
   53.5753  153.3356   22.9093 H   0  0  0  0  0  0
   54.0493  152.8878   24.5459 H   0  0  0  0  0  0
   52.5666  152.2319   23.8305 H   0  0  0  0  0  0
  1  6  1  0  0  0
  1  2  2  0  0  0
  1 19  1  0  0  0
  2  3  1  0  0  0
  2 20  1  0  0  0
  3  4  2  0  0  0
  3 21  1  0  0  0
  4  5  1  0  0  0
  4  7  1  0  0  0
  5  6  2  0  0  0
  5 22  1  0  0  0
  6 17  1  0  0  0
  7  9  1  0  0  0
  7  8  2  0  0  0
  9 10  2  0  0  0
  9 23  1  0  0  0
 10 11  1  0  0  0
 10 24  1  0  0  0
 11 12  2  0  0  0
 11 16  1  0  0  0
 12 13  1  0  0  0
 12 25  1  0  0  0
 13 14  2  0  0  0
 13 26  1  0  0  0
 14 15  1  0  0  0
 14 27  1  0  0  0
 15 16  2  0  0  0
 15 28  1  0  0  0
 16 29  1  0  0  0
 17 18  1  0  0  0
 18 30  1  0  0  0
 18 31  1  0  0  0
 18 32  1  0  0  0
M  END
> <s_m_entry_id>
10392

> <s_m_entry_name>
dock_pv.428

> <s_m_Source_Path>
/home/csk/Desktop/cluster/DUD-E-result/aofb

> <s_m_Source_File>
dock_pv.maegz

> <i_m_Source_File_Index>
428

> <chembl_id>
CHEMBL1801958

> <chembl_pref_name>
None

> <i_lp_mmshare_version>
53161

> <i_f3d_flags>
0

> <r_lp_tautomer_probability>
1

> <s_lp_Force_Field>
OPLS_2005

> <r_lp_Energy>
19.02169

> <b_lp_Chiralities_Consistent>
1

> <s_lp_Variant>
CHEMBL2039_lig1492-1

> <s_i_glide_gridfile>
glide-grid_1s3b

> <i_i_glide_lignum>
1716

> <i_i_glide_rotatable_bonds>
4

> <r_i_docking_score>
-7.05632963500649

> <r_i_glide_ligand_efficiency>
-0.392018313055916

> <r_i_glide_ligand_efficiency_sa>
-1.02737861932375

> <r_i_glide_ligand_efficiency_ln>
-1.81379314732184

> <r_i_glide_gscore>
-7.05632963500649

> <r_i_glide_lipo>
-4.3745962814243

> <r_i_glide_hbond>
0

> <r_i_glide_metal>
0

> <r_i_glide_rewards>
-1.54879862416243

> <r_i_glide_evdw>
-37.8747253417969

> <r_i_glide_ecoul>
1.01937699317932

> <r_i_glide_erotb>
0.607894988693181

> <r_i_glide_esite>
0

> <r_i_glide_emodel>
-44.6479118215968

> <r_i_glide_energy>
-36.8553483486176

> <r_i_glide_einternal>
12.0724020004272

> <i_i_glide_confnum>
6

> <i_i_glide_posenum>
241

> <r_i_glide_eff_state_penalty>
0

> <s_user_duplicate_titles>
CHEMBL2039_lig1492

> <s_m_subgroup_title>
dock_pv

> <s_m_subgroupid>
dock_pv

> <b_m_subgroup_collapsed>
1

$$$$
CHEMBL2039_lig2117
                    3D
 Schrodinger Suite 2021-1.
 37 40  0  0  1  0            999 V2000
   51.5116  157.7381   28.9106 N   0  0  0  0  0  0
   51.2498  156.4147   28.6183 C   0  0  0  0  0  0
   50.0663  155.4476   29.3017 S   0  0  0  0  0  0
   52.0344  155.9795   27.5924 N   0  0  0  0  0  0
   53.9914  153.8451   23.7665 C   0  0  0  0  0  0
   54.7920  154.9172   23.5650 N   0  0  0  0  0  0
   54.4560  156.0453   24.2232 C   0  0  0  0  0  0
   53.4214  156.1210   25.1447 C   0  0  0  0  0  0
   52.7990  154.9192   25.5636 C   0  0  0  0  0  0
   52.0547  154.8173   26.7741 C   0  0  0  0  0  0
   51.5642  153.5506   27.1458 C   0  0  0  0  0  0
   51.7455  152.4333   26.3515 C   0  0  0  0  0  0
   52.4939  152.5138   25.1918 C   0  0  0  0  0  0
   53.0651  153.7396   24.8120 C   0  0  0  0  0  0
   49.2795  161.3531   32.5019 N   0  0  0  0  0  0
   48.0663  160.7735   32.7756 C   0  0  0  0  0  0
   47.9195  159.6598   31.9781 C   0  0  0  0  0  0
   49.1012  159.5566   31.1647 C   0  0  0  0  0  0
   49.5508  158.6451   30.1967 C   0  0  0  0  0  0
   50.8675  158.7332   29.7044 C   0  0  0  0  0  0
   51.6501  159.8412   30.0770 C   0  0  0  0  0  0
   51.2015  160.8427   30.9435 C   0  0  0  0  0  0
   49.9452  160.6454   31.5224 C   0  0  0  0  0  0
   52.3552  158.0935   28.4882 H   0  0  0  0  0  0
   52.7090  156.6606   27.2774 H   0  0  0  0  0  0
   54.1115  152.9987   23.1136 H   0  0  0  0  0  0
   55.0421  156.9122   23.9935 H   0  0  0  0  0  0
   53.2334  157.0418   25.6630 H   0  0  0  0  0  0
   51.0760  153.3483   28.0804 H   0  0  0  0  0  0
   51.3445  151.4796   26.6685 H   0  0  0  0  0  0
   52.6992  151.6235   24.6130 H   0  0  0  0  0  0
   49.6264  162.1621   32.9948 H   0  0  0  0  0  0
   47.4213  161.1947   33.5332 H   0  0  0  0  0  0
   47.0741  158.9879   32.0196 H   0  0  0  0  0  0
   48.8978  157.8333   29.9401 H   0  0  0  0  0  0
   52.6629  159.9087   29.7104 H   0  0  0  0  0  0
   51.8081  161.7073   31.2057 H   0  0  0  0  0  0
  1  2  1  0  0  0
  1 20  1  0  0  0
  1 24  1  0  0  0
  2  3  2  0  0  0
  2  4  1  0  0  0
  4 10  1  0  0  0
  4 25  1  0  0  0
  5  6  2  0  0  0
  5 14  1  0  0  0
  5 26  1  0  0  0
  6  7  1  0  0  0
  7  8  2  0  0  0
  7 27  1  0  0  0
  8  9  1  0  0  0
  8 28  1  0  0  0
  9 10  1  0  0  0
  9 14  2  0  0  0
 10 11  2  0  0  0
 11 12  1  0  0  0
 11 29  1  0  0  0
 12 13  2  0  0  0
 12 30  1  0  0  0
 13 14  1  0  0  0
 13 31  1  0  0  0
 15 16  1  0  0  0
 15 23  1  0  0  0
 15 32  1  0  0  0
 16 17  2  0  0  0
 16 33  1  0  0  0
 17 18  1  0  0  0
 17 34  1  0  0  0
 18 19  1  0  0  0
 18 23  2  0  0  0
 19 20  2  0  0  0
 19 35  1  0  0  0
 20 21  1  0  0  0
 21 22  2  0  0  0
 21 36  1  0  0  0
 22 23  1  0  0  0
 22 37  1  0  0  0
M  END
> <s_m_entry_id>
10393

> <s_m_entry_name>
dock_pv.429

> <s_m_Source_Path>
/home/csk/Desktop/cluster/DUD-E-result/aofb

> <s_m_Source_File>
dock_pv.maegz

> <i_m_Source_File_Index>
429

> <chembl_id>
CHEMBL4205862

> <chembl_pref_name>
None

> <i_lp_mmshare_version>
53161

> <i_f3d_flags>
0

> <r_lp_tautomer_probability>
1

> <s_lp_Force_Field>
OPLS_2005

> <r_lp_Energy>
28.255311

> <b_lp_Chiralities_Consistent>
1

> <s_lp_Variant>
CHEMBL2039_lig2117-1

> <s_i_glide_gridfile>
glide-grid_1s3b

> <i_i_glide_lignum>
2476

> <i_i_glide_rotatable_bonds>
4

> <r_i_docking_score>
-7.05353153141386

> <r_i_glide_ligand_efficiency>
-0.306675283974516

> <r_i_glide_ligand_efficiency_sa>
-0.872143712720193

> <r_i_glide_ligand_efficiency_ln>
-1.7056078821837

> <r_i_glide_gscore>
-7.05353153141386

> <r_i_glide_lipo>
-3.80583112464942

> <r_i_glide_hbond>
0

> <r_i_glide_metal>
0

> <r_i_glide_rewards>
-2.61731893185113

> <r_i_glide_evdw>
-13.8126792907715

> <r_i_glide_ecoul>
-2.05047416687012

> <r_i_glide_erotb>
0.367823614655784

> <r_i_glide_esite>
0

> <r_i_glide_emodel>
-16.4626131661543

> <r_i_glide_energy>
-15.8631534576416

> <r_i_glide_einternal>
4.88992404937744

> <i_i_glide_confnum>
1

> <i_i_glide_posenum>
90

> <r_i_glide_eff_state_penalty>
0

> <s_user_duplicate_titles>
CHEMBL2039_lig2117

> <s_m_subgroup_title>
dock_pv

> <s_m_subgroupid>
dock_pv

> <b_m_subgroup_collapsed>
1

$$$$
CHEMBL2039_lig466
                    3D
 Schrodinger Suite 2021-1.
 39 41  0  0  1  0            999 V2000
   53.4990  154.0225   24.0301 C   0  0  0  0  0  0
   53.1943  152.6741   24.0776 C   0  0  0  0  0  0
   52.6364  152.1119   25.2125 C   0  0  0  0  0  0
   52.1603  152.9456   26.2037 C   0  0  0  0  0  0
   52.3067  154.3389   26.1038 C   0  0  0  0  0  0
   53.0172  154.8754   25.0154 C   0  0  0  0  0  0
   51.7953  155.1396   27.2496 C   0  0  0  0  0  0
   52.2003  156.3795   27.4785 N   0  0  0  0  0  0
   51.6256  156.9083   28.5245 C   0  0  0  0  0  0
   50.4558  155.8631   29.3004 S   0  0  0  0  0  0
   50.8940  154.6421   28.1834 C   0  0  0  0  0  0
   51.7337  158.2457   28.8804 N   0  0  0  0  0  0
   51.3281  158.8705   30.0848 N   0  0  0  0  0  0
   50.3578  159.6784   30.1152 C   0  0  0  0  0  0
   53.2542  151.9507   22.9518 F   0  0  0  0  0  0
   53.2486  156.2041   24.9027 F   0  0  0  0  0  0
   49.3375  159.9599   29.0322 C   0  0  0  0  0  0
   47.9716  159.4895   29.5501 C   0  0  0  0  0  0
   47.5441  160.2422   30.8303 C   0  0  2  0  0  0
   48.6303  160.0314   31.9061 C   0  0  0  0  0  0
   50.0307  160.4448   31.3857 C   0  0  0  0  0  0
   46.1455  159.8263   31.2967 C   0  0  0  0  0  0
   54.0602  154.3862   23.1874 H   0  0  0  0  0  0
   52.4582  151.0485   25.2695 H   0  0  0  0  0  0
   51.6781  152.4798   27.0457 H   0  0  0  0  0  0
   50.4567  153.6652   28.2245 H   0  0  0  0  0  0
   52.4484  158.7856   28.4077 H   0  0  0  0  0  0
   49.3319  161.0303   28.8398 H   0  0  0  0  0  0
   49.6067  159.4667   28.0998 H   0  0  0  0  0  0
   47.9660  158.4104   29.7223 H   0  0  0  0  0  0
   47.2563  159.6350   28.7531 H   0  0  0  0  0  0
   47.5268  161.3087   30.5957 H   0  0  0  0  0  0
   48.3764  160.5877   32.8081 H   0  0  0  0  0  0
   48.6465  158.9887   32.2194 H   0  0  0  0  0  0
   50.0570  161.5078   31.1849 H   0  0  0  0  0  0
   50.8206  160.2619   32.1058 H   0  0  0  0  0  0
   46.0548  158.7447   31.3826 H   0  0  0  0  0  0
   45.3953  160.1886   30.5894 H   0  0  0  0  0  0
   45.9106  160.2524   32.2693 H   0  0  0  0  0  0
  1  6  1  0  0  0
  1  2  2  0  0  0
  1 23  1  0  0  0
  2 15  1  0  0  0
  2  3  1  0  0  0
  3  4  2  0  0  0
  3 24  1  0  0  0
  4  5  1  0  0  0
  4 25  1  0  0  0
  5  7  1  0  0  0
  5  6  2  0  0  0
  6 16  1  0  0  0
  7 11  2  0  0  0
  7  8  1  0  0  0
  8  9  2  0  0  0
  9 12  1  0  0  0
  9 10  1  0  0  0
 10 11  1  0  0  0
 11 26  1  0  0  0
 12 13  1  0  0  0
 12 27  1  0  0  0
 13 14  2  0  0  0
 14 17  1  0  0  0
 14 21  1  0  0  0
 17 18  1  0  0  0
 17 28  1  0  0  0
 17 29  1  0  0  0
 18 19  1  0  0  0
 18 30  1  0  0  0
 18 31  1  0  0  0
 19 20  1  0  0  0
 19 22  1  0  0  0
 19 32  1  0  0  0
 20 21  1  0  0  0
 20 33  1  0  0  0
 20 34  1  0  0  0
 21 35  1  0  0  0
 21 36  1  0  0  0
 22 37  1  0  0  0
 22 38  1  0  0  0
 22 39  1  0  0  0
M  END
> <s_m_entry_id>
10394

> <s_m_entry_name>
dock_pv.430

> <s_m_Source_Path>
/home/csk/Desktop/cluster/DUD-E-result/aofb

> <s_m_Source_File>
dock_pv.maegz

> <i_m_Source_File_Index>
430

> <chembl_id>
CHEMBL1255019

> <chembl_pref_name>
None

> <i_lp_mmshare_version>
53161

> <i_f3d_flags>
0

> <r_lp_tautomer_probability>
1

> <s_lp_Force_Field>
OPLS_2005

> <r_lp_Energy>
20.899851

> <b_lp_Chiralities_Consistent>
1

> <s_lp_Variant>
CHEMBL2039_lig466-1

> <s_i_glide_gridfile>
glide-grid_1s3b

> <i_i_glide_lignum>
561

> <i_i_glide_rotatable_bonds>
3

> <r_i_docking_score>
-7.05148586691099

> <r_i_glide_ligand_efficiency>
-0.32052208485959

> <r_i_glide_ligand_efficiency_sa>
-0.898115487194865

> <r_i_glide_ligand_efficiency_ln>
-1.72364035506951

> <r_i_glide_gscore>
-7.05148586691099

> <r_i_glide_lipo>
-4.3364602051771

> <r_i_glide_hbond>
-0.246770614552902

> <r_i_glide_metal>
0

> <r_i_glide_rewards>
-2.57227203811429

> <r_i_glide_evdw>
-10.5066728591919

> <r_i_glide_ecoul>
0.577561676502228

> <r_i_glide_erotb>
0.542716382417565

> <r_i_glide_esite>
0

> <r_i_glide_emodel>
-10.0720118985871

> <r_i_glide_energy>
-9.92911118268967

> <r_i_glide_einternal>
7.39760160446167

> <i_i_glide_confnum>
1

> <i_i_glide_posenum>
357

> <r_i_glide_eff_state_penalty>
0

> <s_user_duplicate_titles>
CHEMBL2039_lig466

> <s_m_subgroup_title>
dock_pv

> <s_m_subgroupid>
dock_pv

> <b_m_subgroup_collapsed>
1

$$$$
CHEMBL2039_lig1470
                    3D
 Schrodinger Suite 2021-1.
 33 34  0  0  1  0            999 V2000
   50.3481  159.0065   30.1040 C   0  0  0  0  0  0
   50.7160  160.2440   30.6379 C   0  0  0  0  0  0
   49.8890  160.8624   31.5662 C   0  0  0  0  0  0
   48.6727  160.2723   31.9213 C   0  0  0  0  0  0
   48.2947  159.0486   31.3772 C   0  0  0  0  0  0
   49.1368  158.4155   30.4846 C   0  0  0  0  0  0
   51.2656  158.3161   29.1846 C   0  0  0  0  0  0
   51.2386  156.9948   28.9040 C   0  0  0  0  0  0
   52.0560  156.4167   27.8716 C   0  0  0  0  0  0
   51.6366  155.1849   27.5194 N   0  0  0  0  0  0
   52.9587  157.0440   27.3184 O   0  0  0  0  0  0
   52.0560  154.4034   26.4345 C   0  0  0  0  0  0
   51.8982  153.0204   26.5501 C   0  0  0  0  0  0
   52.4560  152.1730   25.5936 C   0  0  0  0  0  0
   53.1471  152.6962   24.5041 C   0  0  0  0  0  0
   53.2578  154.0735   24.3514 C   0  0  0  0  0  0
   52.6973  154.9290   25.2985 C   0  0  0  0  0  0
   52.3142  150.8348   25.7040 F   0  0  0  0  0  0
   47.7537  160.9823   32.8856 C   0  0  0  0  0  0
   48.2705  160.9342   34.1057 F   0  0  0  0  0  0
   47.6560  162.2440   32.5040 F   0  0  0  0  0  0
   46.5326  160.4515   32.9040 F   0  0  0  0  0  0
   51.6565  160.7050   30.3718 H   0  0  0  0  0  0
   50.1909  161.8042   32.0041 H   0  0  0  0  0  0
   47.3622  158.5753   31.6495 H   0  0  0  0  0  0
   48.8302  157.4543   30.1040 H   0  0  0  0  0  0
   51.9788  158.9518   28.6773 H   0  0  0  0  0  0
   50.5564  156.3277   29.4100 H   0  0  0  0  0  0
   51.0018  154.7281   28.1540 H   0  0  0  0  0  0
   51.3962  152.5885   27.4037 H   0  0  0  0  0  0
   53.5805  152.0335   23.7697 H   0  0  0  0  0  0
   53.7969  154.4726   23.5066 H   0  0  0  0  0  0
   52.8178  155.9922   25.1603 H   0  0  0  0  0  0
  1  2  2  0  0  0
  1  6  1  0  0  0
  1  7  1  0  0  0
  2  3  1  0  0  0
  2 23  1  0  0  0
  3  4  2  0  0  0
  3 24  1  0  0  0
  4  5  1  0  0  0
  4 19  1  0  0  0
  5  6  2  0  0  0
  5 25  1  0  0  0
  6 26  1  0  0  0
  7  8  2  0  0  0
  7 27  1  0  0  0
  8  9  1  0  0  0
  8 28  1  0  0  0
  9 10  1  0  0  0
  9 11  2  0  0  0
 10 12  1  0  0  0
 10 29  1  0  0  0
 12 13  2  0  0  0
 12 17  1  0  0  0
 13 14  1  0  0  0
 13 30  1  0  0  0
 14 15  2  0  0  0
 14 18  1  0  0  0
 15 16  1  0  0  0
 15 31  1  0  0  0
 16 17  2  0  0  0
 16 32  1  0  0  0
 17 33  1  0  0  0
 19 20  1  0  0  0
 19 21  1  0  0  0
 19 22  1  0  0  0
M  END
> <s_m_entry_id>
10395

> <s_m_entry_name>
dock_pv.431

> <s_m_Source_Path>
/home/csk/Desktop/cluster/DUD-E-result/aofb

> <s_m_Source_File>
dock_pv.maegz

> <i_m_Source_File_Index>
431

> <chembl_id>
CHEMBL3613271

> <chembl_pref_name>
None

> <i_lp_mmshare_version>
53161

> <i_f3d_flags>
0

> <r_lp_tautomer_probability>
1

> <s_lp_Force_Field>
OPLS_2005

> <r_lp_Energy>
17.646055

> <b_lp_Chiralities_Consistent>
1

> <s_lp_Variant>
CHEMBL2039_lig1470-1

> <s_i_glide_gridfile>
glide-grid_1s3b

> <i_i_glide_lignum>
1694

> <i_i_glide_rotatable_bonds>
5

> <r_i_docking_score>
-7.05091583319518

> <r_i_glide_ligand_efficiency>
-0.320496174236144

> <r_i_glide_ligand_efficiency_sa>
-0.898042884608962

> <r_i_glide_ligand_efficiency_ln>
-1.72350101803689

> <r_i_glide_gscore>
-7.05091583319518

> <r_i_glide_lipo>
-3.97711405701196

> <r_i_glide_hbond>
0

> <r_i_glide_metal>
0

> <r_i_glide_rewards>
-2.09665213573046

> <r_i_glide_evdw>
-32.1367034912109

> <r_i_glide_ecoul>
0.326420724391937

> <r_i_glide_erotb>
0.580722425449003

> <r_i_glide_esite>
0

> <r_i_glide_emodel>
-39.5800890685469

> <r_i_glide_energy>
-31.810282766819

> <r_i_glide_einternal>
4.7743968963623

> <i_i_glide_confnum>
3

> <i_i_glide_posenum>
183

> <r_i_glide_eff_state_penalty>
0

> <s_user_duplicate_titles>
CHEMBL2039_lig1470

> <s_m_subgroup_title>
dock_pv

> <s_m_subgroupid>
dock_pv

> <b_m_subgroup_collapsed>
1

$$$$
CHEMBL2039_lig214
                    3D
 Schrodinger Suite 2021-1.
 39 41  0  0  1  0            999 V2000
   51.6560  152.0072   26.3583 C   0  0  0  0  0  0
   52.9463  153.5744   25.0184 C   0  0  0  0  0  0
   52.6424  152.2961   25.3157 C   0  0  0  0  0  0
   46.4561  159.6196   31.3285 N   0  3  0  0  0  0
   51.2560  153.0299   27.1904 O   0  0  0  0  0  0
   51.6993  154.3232   27.0062 C   0  0  0  0  0  0
   52.4560  154.6873   25.8797 C   0  0  0  0  0  0
   47.8928  159.7255   31.0506 C   0  0  0  0  0  0
   51.4490  155.2320   28.0366 C   0  0  0  0  0  0
   52.9459  155.9953   25.8035 C   0  0  0  0  0  0
   45.7497  159.0451   30.5042 O   0  5  0  0  0  0
   46.0560  160.0759   32.3884 O   0  0  0  0  0  0
   51.1027  150.9232   26.5040 O   0  0  0  0  0  0
   48.5099  158.7195   30.3193 C   0  0  0  0  0  0
   51.9728  156.5338   27.9623 C   0  0  0  0  0  0
   51.6560  157.5875   28.8007 O   0  0  0  0  0  0
   52.7706  156.8657   26.8832 C   0  0  0  0  0  0
   49.8797  158.7449   30.0868 C   0  0  0  0  0  0
   53.9289  153.8821   23.9120 C   0  0  0  0  0  0
   50.5014  157.4503   29.6092 C   0  0  0  0  0  0
   53.2560  151.0592   24.6440 C   0  0  0  0  0  0
   48.6717  160.7712   31.5604 C   0  0  0  0  0  0
   50.0385  160.8345   31.2775 C   0  0  0  0  0  0
   50.6413  159.8432   30.5040 C   0  0  0  0  0  0
   50.8655  154.9055   28.8831 H   0  0  0  0  0  0
   53.5875  156.3037   24.9921 H   0  0  0  0  0  0
   47.9263  157.8658   30.0029 H   0  0  0  0  0  0
   53.2256  157.8439   26.9040 H   0  0  0  0  0  0
   54.0560  153.0484   23.2277 H   0  0  0  0  0  0
   53.5081  154.6440   23.3040 H   0  0  0  0  0  0
   54.8935  154.2106   24.3000 H   0  0  0  0  0  0
   50.8560  157.0440   30.5040 H   0  0  0  0  0  0
   49.7655  156.7090   29.3040 H   0  0  0  0  0  0
   54.3132  151.0097   24.9040 H   0  0  0  0  0  0
   52.8203  150.1078   24.9528 H   0  0  0  0  0  0
   53.1586  151.1029   23.5596 H   0  0  0  0  0  0
   48.2201  161.5418   32.1690 H   0  0  0  0  0  0
   50.6365  161.6377   31.6855 H   0  0  0  0  0  0
   51.7111  159.8558   30.3460 H   0  0  0  0  0  0
  1  3  1  0  0  0
  1  5  1  0  0  0
  1 13  2  0  0  0
  2  3  2  0  0  0
  2 19  1  0  0  0
  2  7  1  0  0  0
  3 21  1  0  0  0
  4  8  1  0  0  0
  4 11  1  0  0  0
  4 12  2  0  0  0
  5  6  1  0  0  0
  6  7  1  0  0  0
  6  9  2  0  0  0
  7 10  2  0  0  0
  8 14  1  0  0  0
  8 22  2  0  0  0
  9 15  1  0  0  0
  9 25  1  0  0  0
 10 17  1  0  0  0
 10 26  1  0  0  0
 14 18  2  0  0  0
 14 27  1  0  0  0
 15 16  1  0  0  0
 15 17  2  0  0  0
 16 20  1  0  0  0
 17 28  1  0  0  0
 18 20  1  0  0  0
 18 24  1  0  0  0
 19 29  1  0  0  0
 19 30  1  0  0  0
 19 31  1  0  0  0
 20 32  1  0  0  0
 20 33  1  0  0  0
 21 34  1  0  0  0
 21 35  1  0  0  0
 21 36  1  0  0  0
 22 23  1  0  0  0
 22 37  1  0  0  0
 23 24  2  0  0  0
 23 38  1  0  0  0
 24 39  1  0  0  0
M  CHG  2   4   1  11  -1
M  END
> <s_m_entry_id>
10396

> <s_m_entry_name>
dock_pv.432

> <s_m_Source_Path>
/home/csk/Desktop/cluster/DUD-E-result/aofb

> <s_m_Source_File>
dock_pv.maegz

> <i_m_Source_File_Index>
432

> <chembl_id>
CHEMBL356977

> <chembl_pref_name>
None

> <i_lp_mmshare_version>
53161

> <i_f3d_flags>
0

> <r_lp_tautomer_probability>
1

> <s_lp_Force_Field>
OPLS_2005

> <r_lp_Energy>
25.920614

> <b_lp_Chiralities_Consistent>
1

> <s_lp_Variant>
CHEMBL2039_lig214-1

> <s_i_glide_gridfile>
glide-grid_1s3b

> <i_i_glide_lignum>
255

> <i_i_glide_rotatable_bonds>
4

> <r_i_docking_score>
-7.05081400944896

> <r_i_glide_ligand_efficiency>
-0.293783917060373

> <r_i_glide_ligand_efficiency_sa>
-0.847419455389387

> <r_i_glide_ligand_efficiency_ln>
-1.68758333323383

> <r_i_glide_gscore>
-7.05081400944896

> <r_i_glide_lipo>
-4.52906195004828

> <r_i_glide_hbond>
0

> <r_i_glide_metal>
0

> <r_i_glide_rewards>
-2.4594876607078

> <r_i_glide_evdw>
-17.5166473388672

> <r_i_glide_ecoul>
1.88234269618988

> <r_i_glide_erotb>
0.531216563821992

> <r_i_glide_esite>
0

> <r_i_glide_emodel>
-22.4707631988713

> <r_i_glide_energy>
-15.6343046426773

> <r_i_glide_einternal>
8.22128486633301

> <i_i_glide_confnum>
23

> <i_i_glide_posenum>
20

> <r_i_glide_eff_state_penalty>
0

> <s_user_duplicate_titles>
CHEMBL2039_lig214

> <s_m_subgroup_title>
dock_pv

> <s_m_subgroupid>
dock_pv

> <b_m_subgroup_collapsed>
1

$$$$
CHEMBL2039_lig1550
                    3D
 Schrodinger Suite 2021-1.
 37 39  0  0  1  0            999 V2000
   47.6474  161.0294   32.8174 C   0  0  0  0  0  0
   48.9475  161.3162   32.3048 O   0  0  0  0  0  0
   49.5279  160.4436   31.4015 C   0  0  0  0  0  0
   50.8312  160.6933   30.9708 C   0  0  0  0  0  0
   51.4452  159.7892   30.1040 C   0  0  0  0  0  0
   50.7675  158.6310   29.7040 C   0  0  0  0  0  0
   51.5124  157.5578   28.9040 C   0  0  0  0  0  0
   50.8560  156.2440   28.9040 N   0  0  2  0  0  0
   51.7612  155.2476   28.3501 C   0  0  1  0  0  0
   51.6548  153.8218   28.8602 C   0  0  0  0  0  0
   51.1349  154.1527   27.5052 C   0  0  2  0  0  0
   51.8332  153.6136   26.2756 C   0  0  0  0  0  0
   52.0665  152.2440   26.1631 C   0  0  0  0  0  0
   52.8505  151.7506   25.1230 C   0  0  0  0  0  0
   53.2560  152.6240   24.1236 C   0  0  0  0  0  0
   53.0341  153.9893   24.2298 C   0  0  0  0  0  0
   52.3114  154.4931   25.3040 C   0  0  0  0  0  0
   49.4496  158.4744   30.1581 C   0  0  0  0  0  0
   48.8292  159.3512   30.9842 N   0  0  0  0  0  0
   47.3231  161.8405   33.4685 H   0  0  0  0  0  0
   47.6499  160.1097   33.4048 H   0  0  0  0  0  0
   46.9113  160.9349   32.0175 H   0  0  0  0  0  0
   51.3671  161.5580   31.3337 H   0  0  0  0  0  0
   52.4705  159.9465   29.8040 H   0  0  0  0  0  0
   51.6560  157.9242   27.8881 H   0  0  0  0  0  0
   52.5188  157.4573   29.3040 H   0  0  0  0  0  0
   50.1077  156.3282   28.2309 H   0  0  0  0  0  0
   52.7754  155.5807   28.1170 H   0  0  0  0  0  0
   52.5389  153.1875   28.9040 H   0  0  0  0  0  0
   50.9576  153.6198   29.6724 H   0  0  0  0  0  0
   50.0553  154.0651   27.4521 H   0  0  0  0  0  0
   51.6560  151.5710   26.9034 H   0  0  0  0  0  0
   53.0490  150.6920   25.0424 H   0  0  0  0  0  0
   53.7813  152.2440   23.2628 H   0  0  0  0  0  0
   53.4507  154.6440   23.4873 H   0  0  0  0  0  0
   52.1541  155.5574   25.4004 H   0  0  0  0  0  0
   48.8826  157.5821   29.9491 H   0  0  0  0  0  0
  1  2  1  0  0  0
  1 20  1  0  0  0
  1 21  1  0  0  0
  1 22  1  0  0  0
  2  3  1  0  0  0
  3  4  2  0  0  0
  3 19  1  0  0  0
  4  5  1  0  0  0
  4 23  1  0  0  0
  5  6  2  0  0  0
  5 24  1  0  0  0
  6  7  1  0  0  0
  6 18  1  0  0  0
  7  8  1  0  0  0
  7 25  1  0  0  0
  7 26  1  0  0  0
  8  9  1  0  0  0
  8 27  1  0  0  0
  9 10  1  0  0  0
  9 11  1  0  0  0
  9 28  1  0  0  0
 10 11  1  0  0  0
 10 29  1  0  0  0
 10 30  1  0  0  0
 11 12  1  0  0  0
 11 31  1  0  0  0
 12 13  2  0  0  0
 12 17  1  0  0  0
 13 14  1  0  0  0
 13 32  1  0  0  0
 14 15  2  0  0  0
 14 33  1  0  0  0
 15 16  1  0  0  0
 15 34  1  0  0  0
 16 17  2  0  0  0
 16 35  1  0  0  0
 17 36  1  0  0  0
 18 19  2  0  0  0
 18 37  1  0  0  0
M  END
> <s_m_entry_id>
10397

> <s_m_entry_name>
dock_pv.433

> <s_m_Source_Path>
/home/csk/Desktop/cluster/DUD-E-result/aofb

> <s_m_Source_File>
dock_pv.maegz

> <i_m_Source_File_Index>
433

> <chembl_id>
CHEMBL3651114

> <chembl_pref_name>
None

> <i_lp_mmshare_version>
53161

> <i_f3d_flags>
0

> <r_lp_tautomer_probability>
1

> <s_lp_Force_Field>
OPLS_2005

> <r_lp_Energy>
19.728778

> <b_lp_Chiralities_Consistent>
1

> <s_lp_Variant>
CHEMBL2039_lig1550-2

> <s_i_glide_gridfile>
glide-grid_1s3b

> <i_i_glide_lignum>
1805

> <i_i_glide_rotatable_bonds>
5

> <r_i_docking_score>
-7.05071019546463

> <r_i_glide_ligand_efficiency>
-0.371090010287612

> <r_i_glide_ligand_efficiency_sa>
-0.99021719430383

> <r_i_glide_ligand_efficiency_ln>
-1.78750646992

> <r_i_glide_gscore>
-7.05071019546463

> <r_i_glide_lipo>
-4.10921100899292

> <r_i_glide_hbond>
0

> <r_i_glide_metal>
0

> <r_i_glide_rewards>
-2.57502018166164

> <r_i_glide_evdw>
-28.1223049163818

> <r_i_glide_ecoul>
-0.319097220897675

> <r_i_glide_erotb>
1.08750082414367

> <r_i_glide_esite>
0

> <r_i_glide_emodel>
-32.6996540492875

> <r_i_glide_energy>
-28.4414021372795

> <r_i_glide_einternal>
9.17267322540283

> <i_i_glide_confnum>
70

> <i_i_glide_posenum>
65

> <r_i_glide_eff_state_penalty>
0

> <s_user_duplicate_titles>
CHEMBL2039_lig1550

> <s_m_subgroup_title>
dock_pv

> <s_m_subgroupid>
dock_pv

> <b_m_subgroup_collapsed>
1

$$$$
CHEMBL2039_lig799
                    3D
 Schrodinger Suite 2021-1.
 30 32  0  0  1  0            999 V2000
   51.5458  156.6781   28.5040 C   0  0  0  0  0  0
   50.8561  155.5263   28.9111 C   0  0  0  0  0  0
   50.9510  154.3437   28.1740 C   0  0  0  0  0  0
   52.3096  156.6440   27.3297 C   0  0  0  0  0  0
   52.2899  155.4935   26.5473 C   0  0  0  0  0  0
   51.6560  154.3645   26.9794 C   0  0  0  0  0  0
   51.9460  153.2894   26.0105 C   0  0  0  0  0  0
   52.6197  153.8900   25.0059 N   0  0  0  0  0  0
   52.9040  155.1907   25.2332 C   0  0  0  0  0  0
   53.5734  155.9326   24.5165 O   0  0  0  0  0  0
   51.6562  152.1015   26.1040 O   0  0  0  0  0  0
   51.3059  158.2513   29.3040 S   0  0  0  0  0  0
   49.5456  158.5316   29.7041 C   0  0  0  0  0  0
   49.2729  159.4199   30.9040 C   0  0  0  0  0  0
   48.2680  159.0545   31.8040 C   0  0  0  0  0  0
   47.9969  159.8605   32.9039 C   0  0  0  0  0  0
   48.7000  161.0440   33.0848 C   0  0  0  0  0  0
   49.6865  161.4184   32.1807 C   0  0  0  0  0  0
   49.9776  160.6106   31.0881 C   0  0  0  0  0  0
   50.2520  155.5369   29.8030 H   0  0  0  0  0  0
   50.4560  153.4449   28.5040 H   0  0  0  0  0  0
   52.8312  157.5280   26.9989 H   0  0  0  0  0  0
   52.9473  153.3931   24.1928 H   0  0  0  0  0  0
   49.0608  157.5682   29.8529 H   0  0  0  0  0  0
   49.0699  159.0440   28.8718 H   0  0  0  0  0  0
   47.7102  158.1392   31.6696 H   0  0  0  0  0  0
   47.2560  159.5667   33.6263 H   0  0  0  0  0  0
   48.4958  161.6594   33.9461 H   0  0  0  0  0  0
   50.2489  162.3237   32.3381 H   0  0  0  0  0  0
   50.7499  160.9088   30.3940 H   0  0  0  0  0  0
  1  4  1  0  0  0
  1 12  1  0  0  0
  1  2  2  0  0  0
  2  3  1  0  0  0
  2 20  1  0  0  0
  3  6  2  0  0  0
  3 21  1  0  0  0
  4  5  2  0  0  0
  4 22  1  0  0  0
  5  9  1  0  0  0
  5  6  1  0  0  0
  6  7  1  0  0  0
  7 11  2  0  0  0
  7  8  1  0  0  0
  8  9  1  0  0  0
  8 23  1  0  0  0
  9 10  2  0  0  0
 12 13  1  0  0  0
 13 14  1  0  0  0
 13 24  1  0  0  0
 13 25  1  0  0  0
 14 15  2  0  0  0
 14 19  1  0  0  0
 15 16  1  0  0  0
 15 26  1  0  0  0
 16 17  2  0  0  0
 16 27  1  0  0  0
 17 18  1  0  0  0
 17 28  1  0  0  0
 18 19  2  0  0  0
 18 29  1  0  0  0
 19 30  1  0  0  0
M  END
> <s_m_entry_id>
10398

> <s_m_entry_name>
dock_pv.434

> <s_m_Source_Path>
/home/csk/Desktop/cluster/DUD-E-result/aofb

> <s_m_Source_File>
dock_pv.maegz

> <i_m_Source_File_Index>
434

> <chembl_id>
CHEMBL2158241

> <chembl_pref_name>
None

> <i_lp_mmshare_version>
53161

> <i_f3d_flags>
0

> <r_lp_tautomer_probability>
1

> <s_lp_Force_Field>
OPLS_2005

> <r_lp_Energy>
32.02666

> <b_lp_Chiralities_Consistent>
1

> <s_lp_Variant>
CHEMBL2039_lig799-1

> <s_i_glide_gridfile>
glide-grid_1s3b

> <i_i_glide_lignum>
929

> <i_i_glide_rotatable_bonds>
3

> <r_i_docking_score>
-7.0497611521824

> <r_i_glide_ligand_efficiency>
-0.371040060641179

> <r_i_glide_ligand_efficiency_sa>
-0.990083908585065

> <r_i_glide_ligand_efficiency_ln>
-1.78726586706437

> <r_i_glide_gscore>
-7.0497611521824

> <r_i_glide_lipo>
-3.37455206079197

> <r_i_glide_hbond>
0

> <r_i_glide_metal>
0

> <r_i_glide_rewards>
-3.01142813084814

> <r_i_glide_evdw>
-24.8118057250977

> <r_i_glide_ecoul>
-1.08096837997437

> <r_i_glide_erotb>
0.738954582708748

> <r_i_glide_esite>
0

> <r_i_glide_emodel>
-29.9856330391964

> <r_i_glide_energy>
-25.892774105072

> <r_i_glide_einternal>
3.87232732772827

> <i_i_glide_confnum>
7

> <i_i_glide_posenum>
192

> <r_i_glide_eff_state_penalty>
0

> <s_user_duplicate_titles>
CHEMBL2039_lig799

> <s_m_subgroup_title>
dock_pv

> <s_m_subgroupid>
dock_pv

> <b_m_subgroup_collapsed>
1

$$$$
CHEMBL2039_lig1599
                    3D
 Schrodinger Suite 2021-1.
 33 35  0  0  1  0            999 V2000
   53.7025  154.2144   24.5496 C   0  0  0  0  0  0
   52.6418  153.1055   24.5914 C   0  0  0  0  0  0
   52.0172  153.0003   25.9874 C   0  0  0  0  0  0
   51.8562  154.2892   26.6929 C   0  0  0  0  0  0
   51.2556  154.3675   27.9573 C   0  0  0  0  0  0
   51.1939  155.5829   28.6416 C   0  0  0  0  0  0
   51.7934  156.7342   28.1040 C   0  0  0  0  0  0
   52.4561  156.6142   26.8858 C   0  0  0  0  0  0
   52.4559  155.4348   26.1606 C   0  0  0  0  0  0
   53.1151  155.4616   24.9429 O   0  0  0  0  0  0
   51.6560  151.9409   26.4940 O   0  0  0  0  0  0
   51.6557  158.0450   28.5570 O   0  0  0  0  0  0
   51.0785  158.3313   29.8318 C   0  0  0  0  0  0
   49.8327  159.2129   29.9785 C   0  0  0  0  0  0
   49.2700  159.4261   31.2509 C   0  0  0  0  0  0
   48.1739  160.2536   31.4380 C   0  0  0  0  0  0
   47.5481  160.8156   30.3361 C   0  0  0  0  0  0
   48.0794  160.5967   29.0668 C   0  0  0  0  0  0
   49.2355  159.8435   28.9036 C   0  0  0  0  0  0
   47.5996  160.6476   33.2056 Br  0  0  0  0  0  0
   54.1021  154.3121   23.5399 H   0  0  0  0  0  0
   54.5446  153.9595   25.1955 H   0  0  0  0  0  0
   51.8727  153.3754   23.8759 H   0  0  0  0  0  0
   53.1100  152.1566   24.3298 H   0  0  0  0  0  0
   50.8203  153.4891   28.4138 H   0  0  0  0  0  0
   50.6458  155.5942   29.5684 H   0  0  0  0  0  0
   52.9792  157.4441   26.4742 H   0  0  0  0  0  0
   51.8563  158.8834   30.3578 H   0  0  0  0  0  0
   50.8563  157.4457   30.4160 H   0  0  0  0  0  0
   49.6560  158.9757   32.1439 H   0  0  0  0  0  0
   46.6797  161.4433   30.4672 H   0  0  0  0  0  0
   47.6558  161.0436   28.1863 H   0  0  0  0  0  0
   49.6553  159.7221   27.9223 H   0  0  0  0  0  0
  1  2  1  0  0  0
  1 10  1  0  0  0
  1 21  1  0  0  0
  1 22  1  0  0  0
  2  3  1  0  0  0
  2 23  1  0  0  0
  2 24  1  0  0  0
  3  4  1  0  0  0
  3 11  2  0  0  0
  4  5  1  0  0  0
  4  9  2  0  0  0
  5  6  2  0  0  0
  5 25  1  0  0  0
  6  7  1  0  0  0
  6 26  1  0  0  0
  7  8  2  0  0  0
  7 12  1  0  0  0
  8  9  1  0  0  0
  8 27  1  0  0  0
  9 10  1  0  0  0
 12 13  1  0  0  0
 13 14  1  0  0  0
 13 28  1  0  0  0
 13 29  1  0  0  0
 14 15  1  0  0  0
 14 19  2  0  0  0
 15 16  2  0  0  0
 15 30  1  0  0  0
 16 17  1  0  0  0
 16 20  1  0  0  0
 17 18  2  0  0  0
 17 31  1  0  0  0
 18 19  1  0  0  0
 18 32  1  0  0  0
 19 33  1  0  0  0
M  END
> <s_m_entry_id>
10399

> <s_m_entry_name>
dock_pv.435

> <s_m_Source_Path>
/home/csk/Desktop/cluster/DUD-E-result/aofb

> <s_m_Source_File>
dock_pv.maegz

> <i_m_Source_File_Index>
435

> <chembl_id>
CHEMBL3739707

> <chembl_pref_name>
None

> <i_lp_mmshare_version>
53161

> <i_f3d_flags>
0

> <r_lp_tautomer_probability>
0.99995

> <s_lp_Force_Field>
OPLS_2005

> <r_lp_Energy>
22.185394

> <b_lp_Chiralities_Consistent>
1

> <s_lp_Variant>
CHEMBL2039_lig1599-1

> <s_i_glide_gridfile>
glide-grid_1s3b

> <i_i_glide_lignum>
1860

> <i_i_glide_rotatable_bonds>
3

> <r_i_docking_score>
-7.04625097524251

> <r_i_glide_ligand_efficiency>
-0.352312548762126

> <r_i_glide_ligand_efficiency_sa>
-0.956323387952403

> <r_i_glide_ligand_efficiency_ln>
-1.76344421819214

> <r_i_glide_gscore>
-7.04625097524251

> <r_i_glide_lipo>
-4.13058950085517

> <r_i_glide_hbond>
0

> <r_i_glide_metal>
0

> <r_i_glide_rewards>
-2.48442996481477

> <r_i_glide_evdw>
-17.9489917755127

> <r_i_glide_ecoul>
-0.287010610103607

> <r_i_glide_erotb>
0.509269670718601

> <r_i_glide_esite>
0

> <r_i_glide_emodel>
-19.1445220855729

> <r_i_glide_energy>
-18.2360023856163

> <r_i_glide_einternal>
1.34657907485962

> <i_i_glide_confnum>
3

> <i_i_glide_posenum>
52

> <r_i_glide_eff_state_penalty>
0

> <s_user_duplicate_titles>
CHEMBL2039_lig1599

> <s_m_subgroup_title>
dock_pv

> <s_m_subgroupid>
dock_pv

> <b_m_subgroup_collapsed>
1

$$$$
CHEMBL2039_lig873
                    3D
 Schrodinger Suite 2021-1.
 40 42  0  0  1  0            999 V2000
   48.4718  159.8673   31.4138 N   0  0  0  0  0  0
   49.5968  160.6440   31.6142 C   0  0  0  0  0  0
   50.6389  160.3578   30.7613 N   0  0  0  0  0  0
   48.3471  158.6809   30.7179 C   0  0  0  0  0  0
   49.6523  158.2480   30.2135 C   0  0  0  0  0  0
   50.7009  159.1348   30.1040 C   0  0  0  0  0  0
   51.6560  158.5254   29.3020 C   0  0  0  0  0  0
   51.2560  157.2397   28.9624 C   0  0  0  0  0  0
   50.0731  157.0205   29.7040 N   0  0  0  0  0  0
   49.2031  155.8372   29.5666 C   0  0  0  0  0  0
   51.8162  156.3384   27.9235 C   0  0  0  0  0  0
   51.5744  155.0356   27.6464 C   0  0  0  0  0  0
   52.0560  154.2113   26.5054 C   0  0  0  0  0  0
   51.8595  152.8279   26.6055 C   0  0  0  0  0  0
   52.4560  151.9504   25.7040 C   0  0  0  0  0  0
   52.7957  154.7063   25.4096 C   0  0  0  0  0  0
   49.6559  161.4941   32.5041 O   0  0  0  0  0  0
   51.8451  161.1972   30.7821 C   0  0  0  0  0  0
   47.2622  158.1267   30.5512 O   0  0  0  0  0  0
   47.2130  160.3990   31.9920 C   0  0  0  0  0  0
   53.4352  153.8127   24.5382 C   0  0  0  0  0  0
   53.2519  152.4414   24.6788 C   0  0  0  0  0  0
   54.3287  154.2440   23.5992 O   0  0  0  0  0  0
   52.5663  158.9910   28.9594 H   0  0  0  0  0  0
   48.1619  156.0909   29.7040 H   0  0  0  0  0  0
   49.2036  155.4440   28.5536 H   0  0  0  0  0  0
   49.5019  155.0439   30.2463 H   0  0  0  0  0  0
   52.5118  156.8578   27.2810 H   0  0  0  0  0  0
   50.9541  154.4795   28.3262 H   0  0  0  0  0  0
   51.2866  152.4124   27.4232 H   0  0  0  0  0  0
   52.3095  150.8851   25.8096 H   0  0  0  0  0  0
   52.9891  155.7635   25.3120 H   0  0  0  0  0  0
   51.9067  161.8309   31.6687 H   0  0  0  0  0  0
   52.7466  160.5826   30.7767 H   0  0  0  0  0  0
   51.8686  161.8443   29.9064 H   0  0  0  0  0  0
   47.2731  161.4492   32.2812 H   0  0  0  0  0  0
   46.3910  160.3356   31.2775 H   0  0  0  0  0  0
   46.9324  159.8243   32.8755 H   0  0  0  0  0  0
   53.7175  151.7475   23.9974 H   0  0  0  0  0  0
   54.8899  153.5175   23.3039 H   0  0  0  0  0  0
  1  2  1  0  0  0
  1  4  1  0  0  0
  1 20  1  0  0  0
  2  3  1  0  0  0
  2 17  2  0  0  0
  3  6  1  0  0  0
  3 18  1  0  0  0
  4  5  1  0  0  0
  4 19  2  0  0  0
  5  6  2  0  0  0
  5  9  1  0  0  0
  6  7  1  0  0  0
  7  8  2  0  0  0
  7 24  1  0  0  0
  8  9  1  0  0  0
  8 11  1  0  0  0
  9 10  1  0  0  0
 10 25  1  0  0  0
 10 26  1  0  0  0
 10 27  1  0  0  0
 11 12  2  0  0  0
 11 28  1  0  0  0
 12 13  1  0  0  0
 12 29  1  0  0  0
 13 14  2  0  0  0
 13 16  1  0  0  0
 14 15  1  0  0  0
 14 30  1  0  0  0
 15 22  2  0  0  0
 15 31  1  0  0  0
 16 21  2  0  0  0
 16 32  1  0  0  0
 18 33  1  0  0  0
 18 34  1  0  0  0
 18 35  1  0  0  0
 20 36  1  0  0  0
 20 37  1  0  0  0
 20 38  1  0  0  0
 21 22  1  0  0  0
 21 23  1  0  0  0
 22 39  1  0  0  0
 23 40  1  0  0  0
M  END
> <s_m_entry_id>
10400

> <s_m_entry_name>
dock_pv.436

> <s_m_Source_Path>
/home/csk/Desktop/cluster/DUD-E-result/aofb

> <s_m_Source_File>
dock_pv.maegz

> <i_m_Source_File_Index>
436

> <chembl_id>
CHEMBL2313281

> <chembl_pref_name>
None

> <i_lp_mmshare_version>
53161

> <i_f3d_flags>
0

> <r_lp_tautomer_probability>
1

> <s_lp_Force_Field>
OPLS_2005

> <r_lp_Energy>
40.262205

> <b_lp_Chiralities_Consistent>
1

> <s_lp_Variant>
CHEMBL2039_lig873-1

> <s_i_glide_gridfile>
glide-grid_1s3b

> <i_i_glide_lignum>
1006

> <i_i_glide_rotatable_bonds>
3

> <r_i_docking_score>
-7.04549381148686

> <r_i_glide_ligand_efficiency>
-0.306325817890733

> <r_i_glide_ligand_efficiency_sa>
-0.871149877664985

> <r_i_glide_ligand_efficiency_ln>
-1.70366428862334

> <r_i_glide_gscore>
-7.04549381148686

> <r_i_glide_lipo>
-3.34454871974644

> <r_i_glide_hbond>
-0.32

> <r_i_glide_metal>
0

> <r_i_glide_rewards>
-2.17392857824873

> <r_i_glide_evdw>
-20.814474105835

> <r_i_glide_ecoul>
-3.6594443321228

> <r_i_glide_erotb>
0.382623841618481

> <r_i_glide_esite>
0

> <r_i_glide_emodel>
-30.334334809

> <r_i_glide_energy>
-24.4739184379578

> <r_i_glide_einternal>
5.019859790802

> <i_i_glide_confnum>
5

> <i_i_glide_posenum>
83

> <r_i_glide_eff_state_penalty>
0

> <s_user_duplicate_titles>
CHEMBL2039_lig873

> <s_m_subgroup_title>
dock_pv

> <s_m_subgroupid>
dock_pv

> <b_m_subgroup_collapsed>
1

$$$$
CHEMBL2039_lig707
                    3D
 Schrodinger Suite 2021-1.
 26 28  0  0  1  0            999 V2000
   48.8899  159.2776   30.6444 C   0  0  0  0  0  0
   49.8983  160.1756   30.6227 N   0  0  0  0  0  0
   51.0666  159.7939   30.1040 C   0  0  0  0  0  0
   50.7723  158.4391   29.7027 C   0  0  0  0  0  0
   49.5075  158.2036   30.1040 N   0  0  0  0  0  0
   52.0954  160.4625   30.0409 O   0  0  0  0  0  0
   47.3349  159.4440   31.1915 S   0  0  0  0  0  0
   51.6560  157.6535   29.0343 C   0  0  0  0  0  0
   50.9413  154.1113   28.1684 N   0  0  0  0  0  0
   50.8542  155.1813   29.0224 C   0  0  0  0  0  0
   51.5099  156.2870   28.5040 C   0  0  0  0  0  0
   52.0560  155.8096   27.2590 C   0  0  0  0  0  0
   52.8560  156.4043   26.2875 C   0  0  0  0  0  0
   53.1974  155.6964   25.1350 C   0  0  0  0  0  0
   51.9791  153.7362   25.8975 C   0  0  0  0  0  0
   51.6560  154.4585   27.0523 C   0  0  0  0  0  0
   52.7528  154.3895   24.9377 C   0  0  0  0  0  0
   53.2560  153.4440   23.3640 Br  0  0  0  0  0  0
   49.7483  161.0931   31.0132 H   0  0  0  0  0  0
   49.0137  157.3337   29.9716 H   0  0  0  0  0  0
   52.6311  158.0681   28.8151 H   0  0  0  0  0  0
   50.5231  153.2155   28.3789 H   0  0  0  0  0  0
   50.3221  155.0440   29.9507 H   0  0  0  0  0  0
   53.2560  157.3775   26.5040 H   0  0  0  0  0  0
   53.8566  156.1564   24.4156 H   0  0  0  0  0  0
   51.6662  152.7135   25.7564 H   0  0  0  0  0  0
  1  2  1  0  0  0
  1  5  1  0  0  0
  1  7  2  0  0  0
  2  3  1  0  0  0
  2 19  1  0  0  0
  3  4  1  0  0  0
  3  6  2  0  0  0
  4  5  1  0  0  0
  4  8  2  0  0  0
  5 20  1  0  0  0
  8 11  1  0  0  0
  8 21  1  0  0  0
  9 10  1  0  0  0
  9 16  1  0  0  0
  9 22  1  0  0  0
 10 11  2  0  0  0
 10 23  1  0  0  0
 11 12  1  0  0  0
 12 13  1  0  0  0
 12 16  2  0  0  0
 13 14  2  0  0  0
 13 24  1  0  0  0
 14 17  1  0  0  0
 14 25  1  0  0  0
 15 17  2  0  0  0
 15 16  1  0  0  0
 15 26  1  0  0  0
 17 18  1  0  0  0
M  END
> <s_m_entry_id>
10401

> <s_m_entry_name>
dock_pv.437

> <s_m_Source_Path>
/home/csk/Desktop/cluster/DUD-E-result/aofb

> <s_m_Source_File>
dock_pv.maegz

> <i_m_Source_File_Index>
437

> <chembl_id>
CHEMBL2058696

> <chembl_pref_name>
None

> <i_lp_mmshare_version>
53161

> <i_f3d_flags>
0

> <r_lp_tautomer_probability>
1

> <s_lp_Force_Field>
OPLS_2005

> <r_lp_Energy>
26.545042

> <b_lp_Chiralities_Consistent>
1

> <s_lp_Variant>
CHEMBL2039_lig707-1

> <s_i_glide_gridfile>
glide-grid_1s3b

> <i_i_glide_lignum>
834

> <i_i_glide_rotatable_bonds>
1

> <r_i_docking_score>
-7.03975175564497

> <r_i_glide_ligand_efficiency>
-0.391097319758054

> <r_i_glide_ligand_efficiency_sa>
-1.02496493406657

> <r_i_glide_ligand_efficiency_ln>
-1.80953188891437

> <r_i_glide_gscore>
-7.03975175564497

> <r_i_glide_lipo>
-2.21501319451021

> <r_i_glide_hbond>
-0.0581257723164404

> <r_i_glide_metal>
0

> <r_i_glide_rewards>
-2.77400010504528

> <r_i_glide_evdw>
-36.0668678283691

> <r_i_glide_ecoul>
-1.26179528236389

> <r_i_glide_erotb>
0

> <r_i_glide_esite>
0

> <r_i_glide_emodel>
-49.8935429672762

> <r_i_glide_energy>
-37.328663110733

> <r_i_glide_einternal>
0.399161636829376

> <i_i_glide_confnum>
1

> <i_i_glide_posenum>
63

> <r_i_glide_eff_state_penalty>
0

> <s_user_duplicate_titles>
CHEMBL2039_lig707

> <s_m_subgroup_title>
dock_pv

> <s_m_subgroupid>
dock_pv

> <b_m_subgroup_collapsed>
1

$$$$
CHEMBL2039_lig32
                    3D
 Schrodinger Suite 2021-1.
 31 32  0  0  1  0            999 V2000
   51.0800  158.8358   29.5675 C   0  0  0  0  0  0
   51.7009  157.8738   28.6675 C   0  0  0  0  0  0
   51.2894  156.5863   28.5085 C   0  0  0  0  0  0
   51.6936  159.7561   30.1037 O   0  0  0  0  0  0
   49.7585  158.6439   29.7040 N   0  0  0  0  0  0
   51.7424  155.6134   27.4828 C   0  0  0  0  0  0
   52.4559  156.0175   26.3438 C   0  0  0  0  0  0
   52.7941  155.1011   25.3486 C   0  0  0  0  0  0
   52.4428  153.7621   25.5019 C   0  0  0  0  0  0
   51.7121  153.3469   26.6151 C   0  0  0  0  0  0
   51.3742  154.2667   27.6081 C   0  0  0  0  0  0
   52.8559  152.8416   24.5762 O   0  0  0  0  0  0
   48.8142  159.2500   30.5232 C   0  0  0  0  0  0
   49.1300  159.9242   31.7060 C   0  0  0  0  0  0
   48.1024  160.3445   32.5439 C   0  0  0  0  0  0
   46.7756  160.1498   32.1842 C   0  0  0  0  0  0
   46.4544  159.5029   30.9962 C   0  0  0  0  0  0
   47.4769  159.0405   30.1741 C   0  0  0  0  0  0
   48.4558  161.0439   34.0663 Cl  0  0  0  0  0  0
   52.5320  158.2522   28.0961 H   0  0  0  0  0  0
   50.4988  156.2137   29.1462 H   0  0  0  0  0  0
   49.3705  157.9643   29.0718 H   0  0  0  0  0  0
   52.7462  157.0451   26.2122 H   0  0  0  0  0  0
   53.3634  155.4296   24.4937 H   0  0  0  0  0  0
   51.4381  152.3079   26.7244 H   0  0  0  0  0  0
   50.8198  153.9258   28.4706 H   0  0  0  0  0  0
   53.4444  153.2079   23.9134 H   0  0  0  0  0  0
   50.1541  160.0667   32.0166 H   0  0  0  0  0  0
   46.0003  160.4810   32.8525 H   0  0  0  0  0  0
   45.4193  159.3398   30.7293 H   0  0  0  0  0  0
   47.2161  158.5011   29.2773 H   0  0  0  0  0  0
  1  2  1  0  0  0
  1  4  2  0  0  0
  1  5  1  0  0  0
  2  3  2  0  0  0
  2 20  1  0  0  0
  3  6  1  0  0  0
  3 21  1  0  0  0
  5 13  1  0  0  0
  5 22  1  0  0  0
  6  7  1  0  0  0
  6 11  2  0  0  0
  7  8  2  0  0  0
  7 23  1  0  0  0
  8  9  1  0  0  0
  8 24  1  0  0  0
  9 10  2  0  0  0
  9 12  1  0  0  0
 10 11  1  0  0  0
 10 25  1  0  0  0
 11 26  1  0  0  0
 12 27  1  0  0  0
 13 14  1  0  0  0
 13 18  2  0  0  0
 14 15  2  0  0  0
 14 28  1  0  0  0
 15 16  1  0  0  0
 15 19  1  0  0  0
 16 17  2  0  0  0
 16 29  1  0  0  0
 17 18  1  0  0  0
 17 30  1  0  0  0
 18 31  1  0  0  0
M  END
> <s_m_entry_id>
10402

> <s_m_entry_name>
dock_pv.438

> <s_m_Source_Path>
/home/csk/Desktop/cluster/DUD-E-result/aofb

> <s_m_Source_File>
dock_pv.maegz

> <i_m_Source_File_Index>
438

> <chembl_id>
CHEMBL1830143

> <chembl_pref_name>
None

> <i_lp_mmshare_version>
53161

> <i_f3d_flags>
0

> <r_lp_tautomer_probability>
1

> <s_lp_Force_Field>
OPLS_2005

> <r_lp_Energy>
17.517182

> <b_lp_Chiralities_Consistent>
1

> <s_lp_Variant>
CHEMBL2039_lig32-1

> <s_i_glide_gridfile>
glide-grid_1s3b

> <i_i_glide_lignum>
54

> <i_i_glide_rotatable_bonds>
5

> <r_i_docking_score>
-7.03899379097369

> <r_i_glide_ligand_efficiency>
-0.370473357419668

> <r_i_glide_ligand_efficiency_sa>
-0.988571716775933

> <r_i_glide_ligand_efficiency_ln>
-1.78453610973625

> <r_i_glide_gscore>
-7.03899379097369

> <r_i_glide_lipo>
-3.80430784262031

> <r_i_glide_hbond>
0

> <r_i_glide_metal>
0

> <r_i_glide_rewards>
-2.32158025790563

> <r_i_glide_evdw>
-34.6667098999023

> <r_i_glide_ecoul>
0.677931308746338

> <r_i_glide_erotb>
0.718540108235408

> <r_i_glide_esite>
0

> <r_i_glide_emodel>
-40.8666552195613

> <r_i_glide_energy>
-33.988778591156

> <r_i_glide_einternal>
5.91280937194824

> <i_i_glide_confnum>
7

> <i_i_glide_posenum>
20

> <r_i_glide_eff_state_penalty>
0

> <s_user_duplicate_titles>
CHEMBL2039_lig32

> <s_m_subgroup_title>
dock_pv

> <s_m_subgroupid>
dock_pv

> <b_m_subgroup_collapsed>
1

$$$$
CHEMBL2039_lig1729
                    3D
 Schrodinger Suite 2021-1.
 30 32  0  0  1  0            999 V2000
   51.4060  154.7832   27.8574 C   0  0  0  0  0  0
   51.4766  156.1971   28.2259 C   0  0  0  0  0  0
   52.4560  156.8730   27.2809 C   0  0  0  0  0  0
   52.6751  155.8440   26.1964 C   0  0  0  0  0  0
   53.4898  155.8695   25.0623 C   0  0  0  0  0  0
   53.7640  154.6757   24.3909 C   0  0  0  0  0  0
   53.0724  153.5059   24.6984 C   0  0  0  0  0  0
   52.1858  153.4974   25.7717 C   0  0  0  0  0  0
   52.0558  154.6512   26.5490 C   0  0  0  0  0  0
   50.8560  153.9032   28.5040 O   0  0  0  0  0  0
   50.6785  156.6953   29.2057 C   0  0  0  0  0  0
   50.5124  158.0836   29.7040 C   0  0  0  0  0  0
   51.5235  159.0440   29.6203 C   0  0  0  0  0  0
   51.3633  160.3046   30.1953 C   0  0  0  0  0  0
   50.1744  160.6263   30.8474 C   0  0  0  0  0  0
   49.1347  159.7014   30.8944 C   0  0  0  0  0  0
   49.3028  158.4414   30.3223 C   0  0  0  0  0  0
   54.7627  154.6438   23.4628 O   0  0  0  0  0  0
   52.6423  161.4610   30.1040 Cl  0  0  0  0  0  0
   52.0562  157.8093   26.9040 H   0  0  0  0  0  0
   53.3931  157.1069   27.7883 H   0  0  0  0  0  0
   54.0420  156.7593   24.8006 H   0  0  0  0  0  0
   53.2615  152.5940   24.1510 H   0  0  0  0  0  0
   51.7006  152.5734   26.0534 H   0  0  0  0  0  0
   50.0358  155.9840   29.7041 H   0  0  0  0  0  0
   52.4657  158.8021   29.1555 H   0  0  0  0  0  0
   50.0570  161.5861   31.3241 H   0  0  0  0  0  0
   48.2093  159.9519   31.3918 H   0  0  0  0  0  0
   48.4957  157.7264   30.3930 H   0  0  0  0  0  0
   55.0447  153.7348   23.3038 H   0  0  0  0  0  0
  1  2  1  0  0  0
  1  9  1  0  0  0
  1 10  2  0  0  0
  2  3  1  0  0  0
  2 11  2  0  0  0
  3  4  1  0  0  0
  3 20  1  0  0  0
  3 21  1  0  0  0
  4  5  1  0  0  0
  4  9  2  0  0  0
  5  6  2  0  0  0
  5 22  1  0  0  0
  6  7  1  0  0  0
  6 18  1  0  0  0
  7  8  2  0  0  0
  7 23  1  0  0  0
  8  9  1  0  0  0
  8 24  1  0  0  0
 11 12  1  0  0  0
 11 25  1  0  0  0
 12 13  1  0  0  0
 12 17  2  0  0  0
 13 14  2  0  0  0
 13 26  1  0  0  0
 14 15  1  0  0  0
 14 19  1  0  0  0
 15 16  2  0  0  0
 15 27  1  0  0  0
 16 17  1  0  0  0
 16 28  1  0  0  0
 17 29  1  0  0  0
 18 30  1  0  0  0
M  END
> <s_m_entry_id>
10403

> <s_m_entry_name>
dock_pv.439

> <s_m_Source_Path>
/home/csk/Desktop/cluster/DUD-E-result/aofb

> <s_m_Source_File>
dock_pv.maegz

> <i_m_Source_File_Index>
439

> <chembl_id>
CHEMBL3924440

> <chembl_pref_name>
None

> <i_lp_mmshare_version>
53161

> <i_f3d_flags>
0

> <r_lp_tautomer_probability>
1

> <s_lp_Force_Field>
OPLS_2005

> <r_lp_Energy>
24.467866

> <b_lp_Chiralities_Consistent>
1

> <s_lp_Variant>
CHEMBL2039_lig1729-1

> <s_i_glide_gridfile>
glide-grid_1s3b

> <i_i_glide_lignum>
2017

> <i_i_glide_rotatable_bonds>
2

> <r_i_docking_score>
-7.03608758418201

> <r_i_glide_ligand_efficiency>
-0.370320399167474

> <r_i_glide_ligand_efficiency_sa>
-0.988163562723995

> <r_i_glide_ligand_efficiency_ln>
-1.78379932389496

> <r_i_glide_gscore>
-7.03608758418201

> <r_i_glide_lipo>
-3.10557629942476

> <r_i_glide_hbond>
-0.32

> <r_i_glide_metal>
0

> <r_i_glide_rewards>
-2.15939530699312

> <r_i_glide_evdw>
-20.2140331268311

> <r_i_glide_ecoul>
-2.93609547615051

> <r_i_glide_erotb>
0

> <r_i_glide_esite>
0

> <r_i_glide_emodel>
-24.1995866376211

> <r_i_glide_energy>
-23.1501286029816

> <r_i_glide_einternal>
0.862639367580414

> <i_i_glide_confnum>
1

> <i_i_glide_posenum>
117

> <r_i_glide_eff_state_penalty>
0

> <s_user_duplicate_titles>
CHEMBL2039_lig1729

> <s_m_subgroup_title>
dock_pv

> <s_m_subgroupid>
dock_pv

> <b_m_subgroup_collapsed>
1

$$$$
CHEMBL2039_lig2102
                    3D
 Schrodinger Suite 2021-1.
 43 45  0  0  1  0            999 V2000
   51.5801  153.2255   26.6013 C   0  0  0  0  0  0
   51.2270  153.2235   27.9461 C   0  0  0  0  0  0
   51.2560  154.4056   28.6821 C   0  0  0  0  0  0
   51.7082  155.5832   28.0974 C   0  0  0  0  0  0
   52.0560  154.4007   26.0168 C   0  0  0  0  0  0
   52.1453  155.5556   26.7905 C   0  0  0  0  0  0
   52.8464  156.6439   26.0735 C   0  0  0  0  0  0
   53.4123  155.9923   24.8541 C   0  0  0  0  0  0
   52.7216  154.6348   24.6722 C   0  0  1  0  0  0
   53.7178  153.5954   24.4164 N   0  0  1  0  0  0
   53.2475  152.5143   23.5801 C   0  0  0  0  0  0
   53.2568  151.2254   24.2933 C   0  0  0  0  0  0
   53.2558  150.1268   24.8268 C   0  0  0  0  0  0
   52.0972  156.6102   28.9040 O   0  0  0  0  0  0
   51.8881  158.0005   28.7159 C   0  0  0  0  0  0
   50.8554  158.5919   29.6891 C   0  0  0  0  0  0
   50.9912  159.9164   30.1065 C   0  0  0  0  0  0
   49.9888  160.5137   30.8665 C   0  0  0  0  0  0
   48.8195  159.8092   31.1659 C   0  0  0  0  0  0
   48.7068  158.4715   30.7982 C   0  0  0  0  0  0
   49.7404  157.8589   30.1039 C   0  0  0  0  0  0
   47.6461  160.5014   31.8398 C   0  0  0  0  0  0
   46.8774  159.6461   32.5043 F   0  0  0  0  0  0
   48.0481  161.4475   32.6865 F   0  0  0  0  0  0
   46.9023  161.0439   30.8794 F   0  0  0  0  0  0
   51.5453  152.2978   26.0573 H   0  0  0  0  0  0
   50.9068  152.3074   28.4227 H   0  0  0  0  0  0
   51.0188  154.3857   29.7354 H   0  0  0  0  0  0
   53.6288  157.1283   26.6590 H   0  0  0  0  0  0
   52.0932  157.3744   25.7872 H   0  0  0  0  0  0
   54.4956  155.8967   24.9040 H   0  0  0  0  0  0
   53.2335  156.7047   24.0696 H   0  0  0  0  0  0
   51.9591  154.7110   23.8949 H   0  0  0  0  0  0
   54.5731  153.9806   24.0400 H   0  0  0  0  0  0
   53.8233  152.4587   22.6595 H   0  0  0  0  0  0
   52.2143  152.6777   23.3047 H   0  0  0  0  0  0
   53.2292  149.1585   25.2763 H   0  0  0  0  0  0
   52.8540  158.4670   28.9074 H   0  0  0  0  0  0
   51.6560  158.2723   27.7009 H   0  0  0  0  0  0
   51.8632  160.4898   29.8297 H   0  0  0  0  0  0
   50.1040  161.5346   31.1881 H   0  0  0  0  0  0
   47.8154  157.9070   31.0294 H   0  0  0  0  0  0
   49.6325  156.8318   29.7862 H   0  0  0  0  0  0
  1  2  2  0  0  0
  1  5  1  0  0  0
  1 26  1  0  0  0
  2  3  1  0  0  0
  2 27  1  0  0  0
  3  4  2  0  0  0
  3 28  1  0  0  0
  4  6  1  0  0  0
  4 14  1  0  0  0
  5  6  2  0  0  0
  5  9  1  0  0  0
  6  7  1  0  0  0
  7  8  1  0  0  0
  7 29  1  0  0  0
  7 30  1  0  0  0
  8  9  1  0  0  0
  8 31  1  0  0  0
  8 32  1  0  0  0
  9 10  1  0  0  0
  9 33  1  0  0  0
 10 11  1  0  0  0
 10 34  1  0  0  0
 11 12  1  0  0  0
 11 35  1  0  0  0
 11 36  1  0  0  0
 12 13  3  0  0  0
 13 37  1  0  0  0
 14 15  1  0  0  0
 15 16  1  0  0  0
 15 38  1  0  0  0
 15 39  1  0  0  0
 16 17  2  0  0  0
 16 21  1  0  0  0
 17 18  1  0  0  0
 17 40  1  0  0  0
 18 19  2  0  0  0
 18 41  1  0  0  0
 19 20  1  0  0  0
 19 22  1  0  0  0
 20 21  2  0  0  0
 20 42  1  0  0  0
 21 43  1  0  0  0
 22 23  1  0  0  0
 22 24  1  0  0  0
 22 25  1  0  0  0
M  END
> <s_m_entry_id>
10404

> <s_m_entry_name>
dock_pv.440

> <s_m_Source_Path>
/home/csk/Desktop/cluster/DUD-E-result/aofb

> <s_m_Source_File>
dock_pv.maegz

> <i_m_Source_File_Index>
440

> <chembl_id>
CHEMBL4162054

> <chembl_pref_name>
None

> <i_lp_mmshare_version>
53161

> <i_f3d_flags>
0

> <r_lp_tautomer_probability>
1

> <s_lp_Force_Field>
OPLS_2005

> <r_lp_Energy>
30.94741

> <b_lp_Chiralities_Consistent>
1

> <s_lp_Variant>
CHEMBL2039_lig2102-1

> <s_i_glide_gridfile>
glide-grid_1s3b

> <i_i_glide_lignum>
2447

> <i_i_glide_rotatable_bonds>
7

> <r_i_docking_score>
-7.03560464482426

> <r_i_glide_ligand_efficiency>
-0.28142418579297

> <r_i_glide_ligand_efficiency_sa>
-0.822889310337832

> <r_i_glide_ligand_efficiency_ln>
-1.66764914088081

> <r_i_glide_gscore>
-7.03560464482426

> <r_i_glide_lipo>
-4.96362294346806

> <r_i_glide_hbond>
0

> <r_i_glide_metal>
0

> <r_i_glide_rewards>
-1.70208016925754

> <r_i_glide_evdw>
-24.5680637359619

> <r_i_glide_ecoul>
-0.64823043346405

> <r_i_glide_erotb>
0.955736219719043

> <r_i_glide_esite>
0

> <r_i_glide_emodel>
-23.7923317470753

> <r_i_glide_energy>
-25.216294169426

> <r_i_glide_einternal>
11.5411424636841

> <i_i_glide_confnum>
158

> <i_i_glide_posenum>
30

> <r_i_glide_eff_state_penalty>
0

> <s_user_duplicate_titles>
CHEMBL2039_lig2102

> <s_m_subgroup_title>
dock_pv

> <s_m_subgroupid>
dock_pv

> <b_m_subgroup_collapsed>
1

$$$$
CHEMBL2039_lig2733
                    3D
 Schrodinger Suite 2021-1.
 43 46  0  0  1  0            999 V2000
   47.0166  160.4617   32.6198 C   0  0  0  0  0  0
   48.3475  160.3945   32.2444 C   0  0  0  0  0  0
   48.6914  159.7135   31.0775 C   0  0  0  0  0  0
   47.7160  159.1120   30.2800 C   0  0  0  0  0  0
   46.3927  159.1644   30.6648 C   0  0  0  0  0  0
   46.0549  159.8426   31.8252 C   0  0  0  0  0  0
   50.1428  159.5929   30.7080 C   0  0  2  0  0  0
   50.7830  160.4267   29.7048 C   0  0  0  0  0  0
   50.5523  159.0058   29.3327 C   0  0  1  0  0  0
   51.4989  157.8921   29.3384 N   0  0  2  0  0  0
   52.2096  157.5765   28.1057 C   0  0  2  0  0  0
   52.0130  156.1687   27.5426 C   0  0  0  0  0  0
   53.6904  157.8426   28.3054 C   0  0  0  0  0  0
   51.4752  155.0965   28.2759 C   0  0  0  0  0  0
   51.4455  153.8101   27.7274 C   0  0  0  0  0  0
   52.4558  155.9491   26.2338 C   0  0  0  0  0  0
   52.4543  154.6695   25.6986 C   0  0  0  0  0  0
   51.9778  153.5903   26.4581 C   0  0  0  0  0  0
   52.0833  152.2908   26.0098 O   0  0  0  0  0  0
   53.1916  152.1082   25.1177 C   0  0  0  0  0  0
   53.1386  153.1766   23.9984 C   0  0  0  0  0  0
   53.1276  154.5113   24.5047 O   0  0  0  0  0  0
   46.7329  160.9858   33.5203 H   0  0  0  0  0  0
   49.1048  160.8590   32.8599 H   0  0  0  0  0  0
   47.9616  158.5855   29.3749 H   0  0  0  0  0  0
   45.6316  158.6772   30.0711 H   0  0  0  0  0  0
   45.0157  159.8448   32.1020 H   0  0  0  0  0  0
   50.8011  159.8252   31.5526 H   0  0  0  0  0  0
   51.7995  160.8001   29.8353 H   0  0  0  0  0  0
   50.0934  161.0969   29.2240 H   0  0  0  0  0  0
   49.8504  158.9928   28.5045 H   0  0  0  0  0  0
   51.0537  157.0699   29.7130 H   0  0  0  0  0  0
   51.8475  158.2454   27.3380 H   0  0  0  0  0  0
   54.2467  157.8967   27.3717 H   0  0  0  0  0  0
   53.8893  158.7271   28.9040 H   0  0  0  0  0  0
   54.0872  157.0456   28.9044 H   0  0  0  0  0  0
   51.1257  155.2307   29.2874 H   0  0  0  0  0  0
   51.0770  152.9795   28.3121 H   0  0  0  0  0  0
   52.8849  156.7584   25.6609 H   0  0  0  0  0  0
   53.1629  151.1025   24.6972 H   0  0  0  0  0  0
   54.1292  152.2129   25.6680 H   0  0  0  0  0  0
   52.2315  153.0446   23.4225 H   0  0  0  0  0  0
   53.9612  153.0619   23.2974 H   0  0  0  0  0  0
  1  6  1  0  0  0
  1  2  2  0  0  0
  1 23  1  0  0  0
  2  3  1  0  0  0
  2 24  1  0  0  0
  3  7  1  0  0  0
  3  4  2  0  0  0
  4  5  1  0  0  0
  4 25  1  0  0  0
  5  6  2  0  0  0
  5 26  1  0  0  0
  6 27  1  0  0  0
  7  8  1  0  0  0
  7  9  1  0  0  0
  7 28  1  0  0  0
  8  9  1  0  0  0
  8 29  1  0  0  0
  8 30  1  0  0  0
  9 10  1  0  0  0
  9 31  1  0  0  0
 10 11  1  0  0  0
 10 32  1  0  0  0
 11 12  1  0  0  0
 11 13  1  0  0  0
 11 33  1  0  0  0
 12 14  2  0  0  0
 12 16  1  0  0  0
 13 34  1  0  0  0
 13 35  1  0  0  0
 13 36  1  0  0  0
 14 15  1  0  0  0
 14 37  1  0  0  0
 15 18  2  0  0  0
 15 38  1  0  0  0
 16 17  2  0  0  0
 16 39  1  0  0  0
 17 18  1  0  0  0
 17 22  1  0  0  0
 18 19  1  0  0  0
 19 20  1  0  0  0
 20 21  1  0  0  0
 20 40  1  0  0  0
 20 41  1  0  0  0
 21 22  1  0  0  0
 21 42  1  0  0  0
 21 43  1  0  0  0
M  END
> <s_m_entry_id>
10405

> <s_m_entry_name>
dock_pv.441

> <s_m_Source_Path>
/home/csk/Desktop/cluster/DUD-E-result/aofb

> <s_m_Source_File>
dock_pv.maegz

> <i_m_Source_File_Index>
441

> <chembl_id>
CHEMBL1938897

> <chembl_pref_name>
None

> <i_lp_mmshare_version>
53161

> <i_f3d_flags>
0

> <r_lp_tautomer_probability>
1

> <s_lp_Force_Field>
OPLS_2005

> <r_lp_Energy>
26.789516

> <b_lp_Chiralities_Consistent>
1

> <s_lp_Variant>
CHEMBL2039_lig2733-1

> <s_i_glide_gridfile>
glide-grid_1s3b

> <i_i_glide_lignum>
3182

> <i_i_glide_rotatable_bonds>
4

> <r_i_docking_score>
-7.03094512433906

> <r_i_glide_ligand_efficiency>
-0.319588414742684

> <r_i_glide_ligand_efficiency_sa>
-0.895499306808132

> <r_i_glide_ligand_efficiency_ln>
-1.71861944834315

> <r_i_glide_gscore>
-7.03094512433906

> <r_i_glide_lipo>
-4.92444996176104

> <r_i_glide_hbond>
0

> <r_i_glide_metal>
0

> <r_i_glide_rewards>
-2.29516677272727

> <r_i_glide_evdw>
-15.7203140258789

> <r_i_glide_ecoul>
0.903554379940033

> <r_i_glide_erotb>
0.839154154452198

> <r_i_glide_esite>
0

> <r_i_glide_emodel>
-33.4600273174229

> <r_i_glide_energy>
-14.8167596459389

> <r_i_glide_einternal>
12.5952491760254

> <i_i_glide_confnum>
109

> <i_i_glide_posenum>
149

> <r_i_glide_eff_state_penalty>
0

> <s_user_duplicate_titles>
CHEMBL2039_lig2733

> <s_m_subgroup_title>
dock_pv

> <s_m_subgroupid>
dock_pv

> <b_m_subgroup_collapsed>
1

$$$$
CHEMBL2039_lig1491
                    3D
 Schrodinger Suite 2021-1.
 35 36  0  0  1  0            999 V2000
   48.5580  160.4730   31.7874 C   0  0  0  0  0  0
   49.8264  160.9227   31.4497 C   0  0  0  0  0  0
   50.6212  160.1823   30.5859 C   0  0  0  0  0  0
   50.1942  158.9319   30.1040 C   0  0  0  0  0  0
   48.9162  158.4827   30.4686 C   0  0  0  0  0  0
   48.0884  159.2482   31.2911 C   0  0  0  0  0  0
   51.1595  158.1176   29.3040 C   0  0  0  0  0  0
   52.1876  158.6440   28.9041 O   0  0  0  0  0  0
   50.9141  156.7176   28.9040 C   0  0  0  0  0  0
   51.7205  156.1339   27.9775 C   0  0  0  0  0  0
   51.6560  154.7736   27.4098 C   0  0  0  0  0  0
   52.0583  154.4459   26.0871 C   0  0  0  0  0  0
   52.0560  153.1165   25.6606 C   0  0  0  0  0  0
   51.6500  152.1100   26.5040 C   0  0  0  0  0  0
   51.2560  152.4271   27.8001 C   0  0  0  0  0  0
   51.2560  153.7396   28.2496 C   0  0  0  0  0  0
   52.5877  155.4139   25.0422 C   0  0  0  0  0  0
   52.8184  156.6440   25.4495 F   0  0  0  0  0  0
   53.7234  154.9620   24.5040 F   0  0  0  0  0  0
   51.6560  155.4432   24.1040 F   0  0  0  0  0  0
   46.8557  158.7178   31.5898 O   0  0  0  0  0  0
   45.8344  159.5986   32.0484 C   0  0  0  0  0  0
   47.9731  161.0863   32.4529 H   0  0  0  0  0  0
   50.2015  161.8444   31.8649 H   0  0  0  0  0  0
   51.6064  160.5652   30.3558 H   0  0  0  0  0  0
   48.5402  157.5335   30.1181 H   0  0  0  0  0  0
   50.0787  156.1922   29.3377 H   0  0  0  0  0  0
   52.5625  156.7044   27.6200 H   0  0  0  0  0  0
   52.3756  152.8553   24.6609 H   0  0  0  0  0  0
   51.6467  151.0827   26.1687 H   0  0  0  0  0  0
   50.9333  151.6410   28.4684 H   0  0  0  0  0  0
   50.9668  153.9384   29.2718 H   0  0  0  0  0  0
   44.9598  159.0440   32.3765 H   0  0  0  0  0  0
   46.1279  160.2043   32.9040 H   0  0  0  0  0  0
   45.5197  160.2440   31.2313 H   0  0  0  0  0  0
  1  6  1  0  0  0
  1  2  2  0  0  0
  1 23  1  0  0  0
  2  3  1  0  0  0
  2 24  1  0  0  0
  3  4  2  0  0  0
  3 25  1  0  0  0
  4  7  1  0  0  0
  4  5  1  0  0  0
  5  6  2  0  0  0
  5 26  1  0  0  0
  6 21  1  0  0  0
  7  8  2  0  0  0
  7  9  1  0  0  0
  9 10  2  0  0  0
  9 27  1  0  0  0
 10 11  1  0  0  0
 10 28  1  0  0  0
 11 12  2  0  0  0
 11 16  1  0  0  0
 12 13  1  0  0  0
 12 17  1  0  0  0
 13 14  2  0  0  0
 13 29  1  0  0  0
 14 15  1  0  0  0
 14 30  1  0  0  0
 15 16  2  0  0  0
 15 31  1  0  0  0
 16 32  1  0  0  0
 17 18  1  0  0  0
 17 19  1  0  0  0
 17 20  1  0  0  0
 21 22  1  0  0  0
 22 33  1  0  0  0
 22 34  1  0  0  0
 22 35  1  0  0  0
M  END
> <s_m_entry_id>
10406

> <s_m_entry_name>
dock_pv.442

> <s_m_Source_Path>
/home/csk/Desktop/cluster/DUD-E-result/aofb

> <s_m_Source_File>
dock_pv.maegz

> <i_m_Source_File_Index>
442

> <chembl_id>
CHEMBL1801963

> <chembl_pref_name>
None

> <i_lp_mmshare_version>
53161

> <i_f3d_flags>
0

> <r_lp_tautomer_probability>
1

> <s_lp_Force_Field>
OPLS_2005

> <r_lp_Energy>
23.180037

> <b_lp_Chiralities_Consistent>
1

> <s_lp_Variant>
CHEMBL2039_lig1491-1

> <s_i_glide_gridfile>
glide-grid_1s3b

> <i_i_glide_lignum>
1715

> <i_i_glide_rotatable_bonds>
5

> <r_i_docking_score>
-7.02754701668001

> <r_i_glide_ligand_efficiency>
-0.319433955303637

> <r_i_glide_ligand_efficiency_sa>
-0.895066505385375

> <r_i_glide_ligand_efficiency_ln>
-1.71778882688228

> <r_i_glide_gscore>
-7.02754701668001

> <r_i_glide_lipo>
-4.16176902496459

> <r_i_glide_hbond>
0

> <r_i_glide_metal>
0

> <r_i_glide_rewards>
-2.54876054501319

> <r_i_glide_evdw>
-19.022819519043

> <r_i_glide_ecoul>
0.28968557715416

> <r_i_glide_erotb>
0.590670692676796

> <r_i_glide_esite>
0

> <r_i_glide_emodel>
-14.8302999142746

> <r_i_glide_energy>
-18.7331339418888

> <r_i_glide_einternal>
9.29688549041748

> <i_i_glide_confnum>
4

> <i_i_glide_posenum>
203

> <r_i_glide_eff_state_penalty>
0

> <s_user_duplicate_titles>
CHEMBL2039_lig1491

> <s_m_subgroup_title>
dock_pv

> <s_m_subgroupid>
dock_pv

> <b_m_subgroup_collapsed>
1

$$$$
CHEMBL2039_lig263
                    3D
 Schrodinger Suite 2021-1.
 34 36  0  0  1  0            999 V2000
   53.4584  153.2382   24.0136 C   0  0  0  0  0  0
   53.0182  152.0910   24.6756 C   0  0  0  0  0  0
   52.2599  152.2025   25.8384 C   0  0  0  0  0  0
   53.1992  154.4998   24.5425 C   0  0  0  0  0  0
   52.4542  154.6044   25.7081 C   0  0  0  0  0  0
   51.9788  153.4575   26.3615 C   0  0  0  0  0  0
   51.2806  153.5356   27.5579 O   0  0  0  0  0  0
   51.3275  154.6848   28.3439 C   0  0  0  0  0  0
   51.9172  155.8988   27.7401 C   0  0  0  0  0  0
   52.3608  155.8506   26.4570 C   0  0  0  0  0  0
   50.8546  154.5966   29.4733 O   0  0  0  0  0  0
   52.0560  157.1561   28.4492 C   0  0  0  0  0  0
   51.0213  157.5126   29.2534 N   0  0  0  0  0  0
   53.0401  157.8440   28.2103 O   0  0  0  0  0  0
   50.7125  158.7503   29.8444 C   0  0  0  0  0  0
   51.6525  159.7650   30.1007 C   0  0  0  0  0  0
   51.3027  160.8545   30.8973 C   0  0  0  0  0  0
   50.0173  160.9571   31.4111 C   0  0  0  0  0  0
   49.0541  160.0004   31.0920 C   0  0  0  0  0  0
   49.4045  158.9008   30.3097 C   0  0  0  0  0  0
   47.6380  160.1594   31.6122 C   0  0  0  0  0  0
   54.0562  153.1200   23.1230 H   0  0  0  0  0  0
   53.2608  151.1207   24.2673 H   0  0  0  0  0  0
   51.8819  151.3193   26.3330 H   0  0  0  0  0  0
   53.6529  155.3739   24.1041 H   0  0  0  0  0  0
   52.7592  156.7380   25.9812 H   0  0  0  0  0  0
   50.3225  156.7976   29.3949 H   0  0  0  0  0  0
   52.6607  159.6872   29.7466 H   0  0  0  0  0  0
   52.0252  161.6249   31.1270 H   0  0  0  0  0  0
   49.7709  161.7958   32.0547 H   0  0  0  0  0  0
   48.6723  158.1320   30.1046 H   0  0  0  0  0  0
   47.1337  160.9985   31.1194 H   0  0  0  0  0  0
   47.6531  160.3621   32.6878 H   0  0  0  0  0  0
   47.0375  159.2585   31.4619 H   0  0  0  0  0  0
  1  2  2  0  0  0
  1  4  1  0  0  0
  1 22  1  0  0  0
  2  3  1  0  0  0
  2 23  1  0  0  0
  3  6  2  0  0  0
  3 24  1  0  0  0
  4  5  2  0  0  0
  4 25  1  0  0  0
  5  6  1  0  0  0
  5 10  1  0  0  0
  6  7  1  0  0  0
  7  8  1  0  0  0
  8 11  2  0  0  0
  8  9  1  0  0  0
  9 10  2  0  0  0
  9 12  1  0  0  0
 10 26  1  0  0  0
 12 13  1  0  0  0
 12 14  2  0  0  0
 13 15  1  0  0  0
 13 27  1  0  0  0
 15 16  2  0  0  0
 15 20  1  0  0  0
 16 17  1  0  0  0
 16 28  1  0  0  0
 17 18  2  0  0  0
 17 29  1  0  0  0
 18 19  1  0  0  0
 18 30  1  0  0  0
 19 20  2  0  0  0
 19 21  1  0  0  0
 20 31  1  0  0  0
 21 32  1  0  0  0
 21 33  1  0  0  0
 21 34  1  0  0  0
M  END
> <s_m_entry_id>
10407

> <s_m_entry_name>
dock_pv.443

> <s_m_Source_Path>
/home/csk/Desktop/cluster/DUD-E-result/aofb

> <s_m_Source_File>
dock_pv.maegz

> <i_m_Source_File_Index>
443

> <chembl_id>
CHEMBL445184

> <chembl_pref_name>
None

> <i_lp_mmshare_version>
53161

> <i_f3d_flags>
0

> <r_lp_tautomer_probability>
1

> <s_lp_Force_Field>
OPLS_2005

> <r_lp_Energy>
30.092277

> <b_lp_Chiralities_Consistent>
1

> <s_lp_Variant>
CHEMBL2039_lig263-1

> <s_i_glide_gridfile>
glide-grid_1s3b

> <i_i_glide_lignum>
312

> <i_i_glide_rotatable_bonds>
3

> <r_i_docking_score>
-7.0213139269246

> <r_i_glide_ligand_efficiency>
-0.334348282234505

> <r_i_glide_ligand_efficiency_sa>
-0.922441558252142

> <r_i_glide_ligand_efficiency_ln>
-1.73600568053141

> <r_i_glide_gscore>
-7.0213139269246

> <r_i_glide_lipo>
-4.10002148491222

> <r_i_glide_hbond>
0

> <r_i_glide_metal>
0

> <r_i_glide_rewards>
-2.71007106836815

> <r_i_glide_evdw>
-28.0993843078613

> <r_i_glide_ecoul>
3.33270645141602

> <r_i_glide_erotb>
0.693841874036436

> <r_i_glide_esite>
0

> <r_i_glide_emodel>
-27.566479940751

> <r_i_glide_energy>
-24.7666778564453

> <r_i_glide_einternal>
5.2021746635437

> <i_i_glide_confnum>
2

> <i_i_glide_posenum>
286

> <r_i_glide_eff_state_penalty>
0

> <s_user_duplicate_titles>
CHEMBL2039_lig263,521506

> <s_m_subgroup_title>
dock_pv

> <s_m_subgroupid>
dock_pv

> <b_m_subgroup_collapsed>
1

$$$$
CHEMBL2039_lig307
                    3D
 Schrodinger Suite 2021-1.
 28 29  0  0  1  0            999 V2000
   47.3585  159.0920   31.2840 C   0  0  0  0  0  0
   47.6261  160.2183   32.0569 C   0  0  0  0  0  0
   48.8938  160.7950   32.0505 C   0  0  0  0  0  0
   49.8992  160.2440   31.2596 C   0  0  0  0  0  0
   49.6496  159.1031   30.4887 C   0  0  0  0  0  0
   48.3687  158.5332   30.5055 C   0  0  0  0  0  0
   50.7594  158.5141   29.7040 C   0  0  0  0  0  0
   50.8560  157.2251   29.3035 C   0  0  0  0  0  0
   51.9507  156.7330   28.4577 C   0  0  0  0  0  0
   51.7397  155.4539   27.7229 C   0  0  0  0  0  0
   52.9181  157.4441   28.1898 O   0  0  0  0  0  0
   51.3302  154.2933   28.3880 C   0  0  0  0  0  0
   51.2942  153.0817   27.7021 C   0  0  0  0  0  0
   51.6552  153.0313   26.3590 C   0  0  0  0  0  0
   52.0108  154.1883   25.6749 C   0  0  0  0  0  0
   52.0563  155.3987   26.3581 C   0  0  0  0  0  0
   46.3746  158.6483   31.2914 H   0  0  0  0  0  0
   46.8447  160.6458   32.6676 H   0  0  0  0  0  0
   49.0983  161.6669   32.6545 H   0  0  0  0  0  0
   50.8813  160.6949   31.2695 H   0  0  0  0  0  0
   48.1426  157.6524   29.9251 H   0  0  0  0  0  0
   51.5375  159.2101   29.4159 H   0  0  0  0  0  0
   50.0981  156.5054   29.5718 H   0  0  0  0  0  0
   51.0978  154.3039   29.4441 H   0  0  0  0  0  0
   51.0132  152.1765   28.2207 H   0  0  0  0  0  0
   51.6559  152.0829   25.8434 H   0  0  0  0  0  0
   52.2838  154.1413   24.6304 H   0  0  0  0  0  0
   52.3798  156.2850   25.8297 H   0  0  0  0  0  0
  1  6  1  0  0  0
  1  2  2  0  0  0
  1 17  1  0  0  0
  2  3  1  0  0  0
  2 18  1  0  0  0
  3  4  2  0  0  0
  3 19  1  0  0  0
  4  5  1  0  0  0
  4 20  1  0  0  0
  5  6  2  0  0  0
  5  7  1  0  0  0
  6 21  1  0  0  0
  7  8  2  0  0  0
  7 22  1  0  0  0
  8  9  1  0  0  0
  8 23  1  0  0  0
  9 10  1  0  0  0
  9 11  2  0  0  0
 10 12  2  0  0  0
 10 16  1  0  0  0
 12 13  1  0  0  0
 12 24  1  0  0  0
 13 14  2  0  0  0
 13 25  1  0  0  0
 14 15  1  0  0  0
 14 26  1  0  0  0
 15 16  2  0  0  0
 15 27  1  0  0  0
 16 28  1  0  0  0
M  END
> <s_m_entry_id>
10408

> <s_m_entry_name>
dock_pv.444

> <s_m_Source_Path>
/home/csk/Desktop/cluster/DUD-E-result/aofb

> <s_m_Source_File>
dock_pv.maegz

> <i_m_Source_File_Index>
444

> <chembl_id>
CHEMBL7976

> <chembl_pref_name>
CHALCONE

> <i_lp_mmshare_version>
53161

> <i_f3d_flags>
0

> <r_lp_tautomer_probability>
1

> <s_lp_Force_Field>
OPLS_2005

> <r_lp_Energy>
15.682979

> <b_lp_Chiralities_Consistent>
1

> <s_lp_Variant>
CHEMBL2039_lig307-1

> <s_i_glide_gridfile>
glide-grid_1s3b

> <i_i_glide_lignum>
356

> <i_i_glide_rotatable_bonds>
3

> <r_i_docking_score>
-7.01576850676012

> <r_i_glide_ligand_efficiency>
-0.438485531672507

> <r_i_glide_ligand_efficiency_sa>
-1.10491430183592

> <r_i_glide_ligand_efficiency_ln>
-1.85966958587388

> <r_i_glide_gscore>
-7.01576850676012

> <r_i_glide_lipo>
-4.02307368492706

> <r_i_glide_hbond>
0

> <r_i_glide_metal>
0

> <r_i_glide_rewards>
-1.9840246582446

> <r_i_glide_evdw>
-33.2288398742676

> <r_i_glide_ecoul>
1.80751037597656

> <r_i_glide_erotb>
0.381645273728435

> <r_i_glide_esite>
0

> <r_i_glide_emodel>
-39.7499834930487

> <r_i_glide_energy>
-31.421329498291

> <r_i_glide_einternal>
7.17535161972046

> <i_i_glide_confnum>
2

> <i_i_glide_posenum>
160

> <r_i_glide_eff_state_penalty>
0

> <s_user_duplicate_titles>
CHEMBL2039_lig307

> <s_m_subgroup_title>
dock_pv

> <s_m_subgroupid>
dock_pv

> <b_m_subgroup_collapsed>
1

$$$$
CHEMBL2039_lig867
                    3D
 Schrodinger Suite 2021-1.
 40 42  0  0  1  0            999 V2000
   52.1400  152.5429   25.9619 N   0  0  0  0  0  0
   52.8000  153.1418   24.8980 C   0  0  0  0  0  0
   52.9908  154.4940   25.0363 N   0  0  0  0  0  0
   51.6560  153.0995   27.1340 C   0  0  0  0  0  0
   51.7788  154.5362   27.1074 C   0  0  0  0  0  0
   52.4561  155.2069   26.1041 C   0  0  0  0  0  0
   52.6633  156.5054   26.5623 C   0  0  0  0  0  0
   52.0560  156.6451   27.7914 C   0  0  0  0  0  0
   51.4477  155.4398   28.1018 N   0  0  0  0  0  0
   50.5791  155.1626   29.2415 C   0  0  0  0  0  0
   51.9126  157.8376   28.6178 C   0  0  0  0  0  0
   51.6559  158.8121   29.3078 C   0  0  0  0  0  0
   53.2560  152.5087   23.9379 O   0  0  0  0  0  0
   54.0554  155.1156   24.2403 C   0  0  0  0  0  0
   51.2560  152.4514   28.0957 O   0  0  0  0  0  0
   52.0769  151.0639   25.8866 C   0  0  0  0  0  0
   51.3171  159.9438   30.1982 C   0  0  0  0  0  0
   49.8620  160.0200   30.6829 C   0  0  0  0  0  0
   48.7898  159.4996   29.9448 C   0  0  0  0  0  0
   47.4924  159.5582   30.4467 C   0  0  0  0  0  0
   47.2560  160.1624   31.6785 C   0  0  0  0  0  0
   48.3062  160.7127   32.4085 C   0  0  0  0  0  0
   49.6035  160.6447   31.9063 C   0  0  0  0  0  0
   53.2544  157.2619   26.0905 H   0  0  0  0  0  0
   51.1117  154.5530   29.9713 H   0  0  0  0  0  0
   50.2479  156.0885   29.7042 H   0  0  0  0  0  0
   49.6937  154.6440   28.8828 H   0  0  0  0  0  0
   54.1598  154.6474   23.2592 H   0  0  0  0  0  0
   53.8785  156.1818   24.1040 H   0  0  0  0  0  0
   55.0069  154.9964   24.7557 H   0  0  0  0  0  0
   53.0592  150.6528   26.1040 H   0  0  0  0  0  0
   51.3336  150.6141   26.5477 H   0  0  0  0  0  0
   51.8670  150.6739   24.9040 H   0  0  0  0  0  0
   51.5786  160.8767   29.7040 H   0  0  0  0  0  0
   51.9847  159.8524   31.0566 H   0  0  0  0  0  0
   48.9595  159.0440   28.9825 H   0  0  0  0  0  0
   46.6732  159.1383   29.8814 H   0  0  0  0  0  0
   46.2488  160.2098   32.0674 H   0  0  0  0  0  0
   48.1180  161.1860   33.3608 H   0  0  0  0  0  0
   50.4135  161.0705   32.4824 H   0  0  0  0  0  0
  1  2  1  0  0  0
  1  4  1  0  0  0
  1 16  1  0  0  0
  2  3  1  0  0  0
  2 13  2  0  0  0
  3  6  1  0  0  0
  3 14  1  0  0  0
  4  5  1  0  0  0
  4 15  2  0  0  0
  5  6  2  0  0  0
  5  9  1  0  0  0
  6  7  1  0  0  0
  7  8  2  0  0  0
  7 24  1  0  0  0
  8  9  1  0  0  0
  8 11  1  0  0  0
  9 10  1  0  0  0
 10 25  1  0  0  0
 10 26  1  0  0  0
 10 27  1  0  0  0
 11 12  3  0  0  0
 12 17  1  0  0  0
 14 28  1  0  0  0
 14 29  1  0  0  0
 14 30  1  0  0  0
 16 31  1  0  0  0
 16 32  1  0  0  0
 16 33  1  0  0  0
 17 18  1  0  0  0
 17 34  1  0  0  0
 17 35  1  0  0  0
 18 19  2  0  0  0
 18 23  1  0  0  0
 19 20  1  0  0  0
 19 36  1  0  0  0
 20 21  2  0  0  0
 20 37  1  0  0  0
 21 22  1  0  0  0
 21 38  1  0  0  0
 22 23  2  0  0  0
 22 39  1  0  0  0
 23 40  1  0  0  0
M  END
> <s_m_entry_id>
10409

> <s_m_entry_name>
dock_pv.445

> <s_m_Source_Path>
/home/csk/Desktop/cluster/DUD-E-result/aofb

> <s_m_Source_File>
dock_pv.maegz

> <i_m_Source_File_Index>
445

> <chembl_id>
CHEMBL2312974

> <chembl_pref_name>
None

> <i_lp_mmshare_version>
53161

> <i_f3d_flags>
0

> <r_lp_tautomer_probability>
1

> <s_lp_Force_Field>
OPLS_2005

> <r_lp_Energy>
35.96942

> <b_lp_Chiralities_Consistent>
1

> <s_lp_Variant>
CHEMBL2039_lig867-1

> <s_i_glide_gridfile>
glide-grid_1s3b

> <i_i_glide_lignum>
1000

> <i_i_glide_rotatable_bonds>
3

> <r_i_docking_score>
-7.01451526464629

> <r_i_glide_ligand_efficiency>
-0.304978924549839

> <r_i_glide_ligand_efficiency_sa>
-0.867319492171437

> <r_i_glide_ligand_efficiency_ln>
-1.69617339509936

> <r_i_glide_gscore>
-7.01451526464629

> <r_i_glide_lipo>
-3.45740824578223

> <r_i_glide_hbond>
0

> <r_i_glide_metal>
0

> <r_i_glide_rewards>
-2.4371178037587

> <r_i_glide_evdw>
-37.8091201782227

> <r_i_glide_ecoul>
2.52721381187439

> <r_i_glide_erotb>
0.39138472202462

> <r_i_glide_esite>
0

> <r_i_glide_emodel>
-39.0156629740366

> <r_i_glide_energy>
-35.2819063663483

> <r_i_glide_einternal>
1.86355304718018

> <i_i_glide_confnum>
1

> <i_i_glide_posenum>
9

> <r_i_glide_eff_state_penalty>
0

> <s_user_duplicate_titles>
CHEMBL2039_lig867

> <s_m_subgroup_title>
dock_pv

> <s_m_subgroupid>
dock_pv

> <b_m_subgroup_collapsed>
1

$$$$
CHEMBL2039_lig1948
                    3D
 Schrodinger Suite 2021-1.
 35 37  0  0  1  0            999 V2000
   53.0772  154.8981   25.1361 C   0  0  0  0  0  0
   52.4519  153.7450   25.7948 C   0  0  0  0  0  0
   51.7929  153.8973   26.9763 C   0  0  0  0  0  0
   52.9965  156.1164   25.7947 O   0  0  0  0  0  0
   52.4102  156.2355   27.0501 C   0  0  0  0  0  0
   51.6557  155.2202   27.6296 C   0  0  0  0  0  0
   50.8949  155.5130   28.7871 C   0  0  0  0  0  0
   50.8561  156.8199   29.3039 C   0  0  0  0  0  0
   51.7011  157.7926   28.7635 C   0  0  0  0  0  0
   52.5317  157.4440   27.7060 C   0  0  0  0  0  0
   53.7584  154.8686   24.1120 O   0  0  0  0  0  0
   51.6229  159.1530   28.9429 O   0  0  0  0  0  0
   51.3858  159.8430   30.1575 C   0  0  0  0  0  0
   49.9209  159.9100   30.5679 C   0  0  0  0  0  0
   49.5859  160.4271   31.8206 C   0  0  0  0  0  0
   48.2608  160.4140   32.2483 C   0  0  0  0  0  0
   47.2739  159.9028   31.4087 C   0  0  0  0  0  0
   47.5913  159.4508   30.1304 C   0  0  0  0  0  0
   48.9125  159.4815   29.7076 C   0  0  0  0  0  0
   45.9976  159.8503   31.8373 F   0  0  0  0  0  0
   51.2577  152.7433   27.7735 C   0  0  0  0  0  0
   52.8159  152.4581   25.2879 C   0  0  0  0  0  0
   53.2011  151.4328   24.9112 N   0  0  0  0  0  0
   50.2840  154.7648   29.2669 H   0  0  0  0  0  0
   50.1787  157.0701   30.1025 H   0  0  0  0  0  0
   53.1791  158.2030   27.3049 H   0  0  0  0  0  0
   52.0484  159.4433   30.9099 H   0  0  0  0  0  0
   51.7196  160.8701   30.0035 H   0  0  0  0  0  0
   50.3520  160.8212   32.4724 H   0  0  0  0  0  0
   47.9993  160.7835   33.2288 H   0  0  0  0  0  0
   46.8232  159.0686   29.4768 H   0  0  0  0  0  0
   49.1597  159.1677   28.7096 H   0  0  0  0  0  0
   50.2580  152.9821   28.1030 H   0  0  0  0  0  0
   51.8716  152.6275   28.6666 H   0  0  0  0  0  0
   51.2454  151.7989   27.2291 H   0  0  0  0  0  0
  1  2  1  0  0  0
  1  4  1  0  0  0
  1 11  2  0  0  0
  2  3  2  0  0  0
  2 22  1  0  0  0
  3  6  1  0  0  0
  3 21  1  0  0  0
  4  5  1  0  0  0
  5  6  2  0  0  0
  5 10  1  0  0  0
  6  7  1  0  0  0
  7  8  2  0  0  0
  7 24  1  0  0  0
  8  9  1  0  0  0
  8 25  1  0  0  0
  9 10  2  0  0  0
  9 12  1  0  0  0
 10 26  1  0  0  0
 12 13  1  0  0  0
 13 14  1  0  0  0
 13 27  1  0  0  0
 13 28  1  0  0  0
 14 15  2  0  0  0
 14 19  1  0  0  0
 15 16  1  0  0  0
 15 29  1  0  0  0
 16 17  2  0  0  0
 16 30  1  0  0  0
 17 18  1  0  0  0
 17 20  1  0  0  0
 18 19  2  0  0  0
 18 31  1  0  0  0
 19 32  1  0  0  0
 21 33  1  0  0  0
 21 34  1  0  0  0
 21 35  1  0  0  0
 22 23  3  0  0  0
M  END
> <s_m_entry_id>
10410

> <s_m_entry_name>
dock_pv.446

> <s_m_Source_Path>
/home/csk/Desktop/cluster/DUD-E-result/aofb

> <s_m_Source_File>
dock_pv.maegz

> <i_m_Source_File_Index>
446

> <chembl_id>
CHEMBL4082300

> <chembl_pref_name>
None

> <i_lp_mmshare_version>
53161

> <i_f3d_flags>
0

> <r_lp_tautomer_probability>
1

> <s_lp_Force_Field>
OPLS_2005

> <r_lp_Energy>
29.738398

> <b_lp_Chiralities_Consistent>
1

> <s_lp_Variant>
CHEMBL2039_lig1948-1

> <s_i_glide_gridfile>
glide-grid_1s3b

> <i_i_glide_lignum>
2283

> <i_i_glide_rotatable_bonds>
3

> <r_i_docking_score>
-7.0143605185363

> <r_i_glide_ligand_efficiency>
-0.3049721964581

> <r_i_glide_ligand_efficiency_sa>
-0.867300358373523

> <r_i_glide_ligand_efficiency_ln>
-1.6961359760868

> <r_i_glide_gscore>
-7.0143605185363

> <r_i_glide_lipo>
-3.83591182759995

> <r_i_glide_hbond>
0

> <r_i_glide_metal>
0

> <r_i_glide_rewards>
-2.54401431274619

> <r_i_glide_evdw>
-18.0284004211426

> <r_i_glide_ecoul>
-2.09085488319397

> <r_i_glide_erotb>
0.580613875346068

> <r_i_glide_esite>
0

> <r_i_glide_emodel>
-26.0758952311808

> <r_i_glide_energy>
-20.1192553043365

> <r_i_glide_einternal>
1.00340855121613

> <i_i_glide_confnum>
9

> <i_i_glide_posenum>
2

> <r_i_glide_eff_state_penalty>
0

> <s_user_duplicate_titles>
CHEMBL2039_lig1948

> <s_m_subgroup_title>
dock_pv

> <s_m_subgroupid>
dock_pv

> <b_m_subgroup_collapsed>
1

$$$$
CHEMBL2039_lig2388 
                    3D
 Schrodinger Suite 2021-1.
 41 42  0  0  1  0            999 V2000
   52.6999  153.8346   25.3407 N   0  0  1  0  0  0
   52.5940  155.2483   24.9733 C   0  0  0  0  0  0
   52.6218  156.2000   26.1914 C   0  0  0  0  0  0
   51.8297  155.7457   27.4296 C   0  0  0  0  0  0
   51.6390  154.2177   27.5559 C   0  0  0  0  0  0
   51.5754  153.4630   26.2122 C   0  0  0  0  0  0
   52.9275  152.9909   24.1662 C   0  0  0  0  0  0
   53.1897  151.5778   24.5190 C   0  0  0  0  0  0
   53.2888  150.3825   24.7468 C   0  0  0  0  0  0
   51.9787  156.5141   28.7642 C   0  0  0  0  0  0
   51.8653  158.0729   28.7258 C   0  0  0  0  0  0
   50.8873  158.7684   29.7050 C   0  0  0  0  0  0
   49.6770  158.1877   30.1044 C   0  0  0  0  0  0
   48.8067  158.8297   30.9753 C   0  0  0  0  0  0
   49.1554  160.0560   31.5430 C   0  0  0  0  0  0
   50.3716  160.6434   31.1714 C   0  0  0  0  0  0
   51.2151  160.0178   30.2464 C   0  0  0  0  0  0
   48.2321  160.7122   32.5826 C   0  0  0  0  0  0
   47.6638  161.8139   32.1058 F   0  0  0  0  0  0
   47.2495  159.8869   32.9328 F   0  0  0  0  0  0
   48.8860  161.0443   33.6934 F   0  0  0  0  0  0
   53.4691  155.4891   24.3685 H   0  0  0  0  0  0
   51.7252  155.4317   24.3376 H   0  0  0  0  0  0
   53.6560  156.3226   26.4723 H   0  0  0  0  0  0
   52.2989  157.1878   25.8846 H   0  0  0  0  0  0
   50.8568  156.0229   27.0949 H   0  0  0  0  0  0
   50.7416  154.0021   28.1372 H   0  0  0  0  0  0
   52.4474  153.7897   28.1478 H   0  0  0  0  0  0
   50.6230  153.6005   25.7006 H   0  0  0  0  0  0
   51.6377  152.4032   26.4575 H   0  0  0  0  0  0
   53.7854  153.3528   23.5981 H   0  0  0  0  0  0
   52.0628  153.0422   23.5106 H   0  0  0  0  0  0
   53.3578  149.3304   24.9207 H   0  0  0  0  0  0
   51.1885  156.0990   29.3732 H   0  0  0  0  0  0
   52.9074  156.2245   29.2659 H   0  0  0  0  0  0
   52.8633  158.4670   28.9049 H   0  0  0  0  0  0
   51.6553  158.4126   27.7198 H   0  0  0  0  0  0
   49.3881  157.2279   29.7073 H   0  0  0  0  0  0
   47.8800  158.3390   31.2364 H   0  0  0  0  0  0
   50.6714  161.5847   31.6086 H   0  0  0  0  0  0
   52.1482  160.4926   29.9817 H   0  0  0  0  0  0
  1  2  1  0  0  0
  1  6  1  0  0  0
  1  7  1  0  0  0
  2  3  1  0  0  0
  2 22  1  0  0  0
  2 23  1  0  0  0
  3  4  1  0  0  0
  3 24  1  0  0  0
  3 25  1  0  0  0
  4  5  1  0  0  0
  4 10  1  0  0  0
  4 26  1  0  0  0
  5  6  1  0  0  0
  5 27  1  0  0  0
  5 28  1  0  0  0
  6 29  1  0  0  0
  6 30  1  0  0  0
  7  8  1  0  0  0
  7 31  1  0  0  0
  7 32  1  0  0  0
  8  9  3  0  0  0
  9 33  1  0  0  0
 10 11  1  0  0  0
 10 34  1  0  0  0
 10 35  1  0  0  0
 11 12  1  0  0  0
 11 36  1  0  0  0
 11 37  1  0  0  0
 12 13  2  0  0  0
 12 17  1  0  0  0
 13 14  1  0  0  0
 13 38  1  0  0  0
 14 15  2  0  0  0
 14 39  1  0  0  0
 15 16  1  0  0  0
 15 18  1  0  0  0
 16 17  2  0  0  0
 16 40  1  0  0  0
 17 41  1  0  0  0
 18 19  1  0  0  0
 18 20  1  0  0  0
 18 21  1  0  0  0
M  END
> <s_m_entry_id>
10411

> <s_m_entry_name>
dock_pv.447

> <s_m_Source_Path>
/home/csk/Desktop/cluster/DUD-E-result/aofb

> <s_m_Source_File>
dock_pv.maegz

> <i_m_Source_File_Index>
447

> <chembl_id>
CHEMBL4465204

> <chembl_pref_name>
None

> <i_lp_mmshare_version>
53161

> <i_f3d_flags>
0

> <r_lp_tautomer_probability>
1

> <s_lp_Force_Field>
OPLS_2005

> <r_lp_Energy>
20.092226

> <b_lp_Chiralities_Consistent>
1

> <s_lp_Variant>
CHEMBL2039_lig2388 -1

> <s_i_glide_gridfile>
glide-grid_1s3b

> <i_i_glide_lignum>
2780

> <i_i_glide_rotatable_bonds>
6

> <r_i_docking_score>
-7.0114840790576

> <r_i_glide_ligand_efficiency>
-0.333880194240838

> <r_i_glide_ligand_efficiency_sa>
-0.921150138971052

> <r_i_glide_ligand_efficiency_ln>
-1.73357527050937

> <r_i_glide_gscore>
-7.0114840790576

> <r_i_glide_lipo>
-4.13387499434317

> <r_i_glide_hbond>
0

> <r_i_glide_metal>
0

> <r_i_glide_rewards>
-2.72134548439193

> <r_i_glide_evdw>
-26.5034217834473

> <r_i_glide_ecoul>
0.798403024673462

> <r_i_glide_erotb>
1.04914703514884

> <r_i_glide_esite>
0

> <r_i_glide_emodel>
-24.9242401495987

> <r_i_glide_energy>
-25.7050187587738

> <r_i_glide_einternal>
6.1085901260376

> <i_i_glide_confnum>
64

> <i_i_glide_posenum>
176

> <r_i_glide_eff_state_penalty>
0

> <s_user_duplicate_titles>
CHEMBL2039_lig2388 

> <s_m_subgroup_title>
dock_pv

> <s_m_subgroupid>
dock_pv

> <b_m_subgroup_collapsed>
1

$$$$
CHEMBL2039_lig1561
                    3D
 Schrodinger Suite 2021-1.
 26 27  0  0  1  0            999 V2000
   49.5398  159.8117   30.8936 C   0  0  0  0  0  0
   50.7165  159.4432   30.1032 C   0  0  0  0  0  0
   50.7038  158.0884   29.5290 C   0  0  0  0  0  0
   51.6800  160.2056   29.9950 O   0  0  0  0  0  0
   51.6669  157.5996   28.7132 C   0  0  0  0  0  0
   51.6718  156.2444   28.1052 C   0  0  0  0  0  0
   51.2225  155.1038   28.7848 C   0  0  0  0  0  0
   51.2506  153.8539   28.1657 C   0  0  0  0  0  0
   51.6515  153.7343   26.8400 C   0  0  0  0  0  0
   52.0562  154.8670   26.1408 C   0  0  0  0  0  0
   52.0892  156.1093   26.7757 C   0  0  0  0  0  0
   52.5645  154.7189   24.5039 Cl  0  0  0  0  0  0
   49.6366  160.8847   31.7450 N   0  0  0  0  0  0
   48.4441  161.0439   32.4067 C   0  0  0  0  0  0
   47.5695  160.0632   31.9566 C   0  0  0  0  0  0
   48.2541  159.2887   31.0103 C   0  0  0  0  0  0
   49.8613  157.4641   29.7815 H   0  0  0  0  0  0
   52.5178  158.2237   28.4704 H   0  0  0  0  0  0
   50.8558  155.1712   29.7987 H   0  0  0  0  0  0
   50.9311  152.9776   28.7082 H   0  0  0  0  0  0
   51.6502  152.7679   26.3584 H   0  0  0  0  0  0
   52.4178  156.9774   26.2214 H   0  0  0  0  0  0
   50.4678  161.4476   31.8793 H   0  0  0  0  0  0
   48.3205  161.8390   33.1263 H   0  0  0  0  0  0
   46.5472  159.9193   32.2781 H   0  0  0  0  0  0
   47.8511  158.4416   30.4746 H   0  0  0  0  0  0
  1  2  1  0  0  0
  1 13  1  0  0  0
  1 16  2  0  0  0
  2  3  1  0  0  0
  2  4  2  0  0  0
  3  5  2  0  0  0
  3 17  1  0  0  0
  5  6  1  0  0  0
  5 18  1  0  0  0
  6  7  2  0  0  0
  6 11  1  0  0  0
  7  8  1  0  0  0
  7 19  1  0  0  0
  8  9  2  0  0  0
  8 20  1  0  0  0
  9 10  1  0  0  0
  9 21  1  0  0  0
 10 11  2  0  0  0
 10 12  1  0  0  0
 11 22  1  0  0  0
 13 14  1  0  0  0
 13 23  1  0  0  0
 14 15  2  0  0  0
 14 24  1  0  0  0
 15 16  1  0  0  0
 15 25  1  0  0  0
 16 26  1  0  0  0
M  END
> <s_m_entry_id>
10412

> <s_m_entry_name>
dock_pv.448

> <s_m_Source_Path>
/home/csk/Desktop/cluster/DUD-E-result/aofb

> <s_m_Source_File>
dock_pv.maegz

> <i_m_Source_File_Index>
448

> <chembl_id>
CHEMBL3735451

> <chembl_pref_name>
None

> <i_lp_mmshare_version>
53161

> <i_f3d_flags>
0

> <r_lp_tautomer_probability>
1

> <s_lp_Force_Field>
OPLS_2005

> <r_lp_Energy>
7.778144

> <b_lp_Chiralities_Consistent>
1

> <s_lp_Variant>
CHEMBL2039_lig1561-1

> <s_i_glide_gridfile>
glide-grid_1s3b

> <i_i_glide_lignum>
1822

> <i_i_glide_rotatable_bonds>
3

> <r_i_docking_score>
-7.01045894131376

> <r_i_glide_ligand_efficiency>
-0.43815368383211

> <r_i_glide_ligand_efficiency_sa>
-1.10407809767773

> <r_i_glide_ligand_efficiency_ln>
-1.85826217949135

> <r_i_glide_gscore>
-7.01045894131376

> <r_i_glide_lipo>
-3.43827264510355

> <r_i_glide_hbond>
0

> <r_i_glide_metal>
0

> <r_i_glide_rewards>
-2.18897838966054

> <r_i_glide_evdw>
-31.8812580108643

> <r_i_glide_ecoul>
-0.719870924949646

> <r_i_glide_erotb>
0.318835632735987

> <r_i_glide_esite>
0

> <r_i_glide_emodel>
-43.1660154765765

> <r_i_glide_energy>
-32.6011289358139

> <r_i_glide_einternal>
4.04656219482422

> <i_i_glide_confnum>
2

> <i_i_glide_posenum>
102

> <r_i_glide_eff_state_penalty>
0

> <s_user_duplicate_titles>
CHEMBL2039_lig1561

> <s_m_subgroup_title>
dock_pv

> <s_m_subgroupid>
dock_pv

> <b_m_subgroup_collapsed>
1

$$$$
CHEMBL2039_lig1693
                    3D
 Schrodinger Suite 2021-1.
 35 37  0  0  1  0            999 V2000
   51.8987  154.2982   25.9435 C   0  0  0  0  0  0
   51.4989  153.2358   26.7520 C   0  0  0  0  0  0
   51.2560  153.4440   28.1040 C   0  0  0  0  0  0
   51.3393  154.7235   28.6499 C   0  0  0  0  0  0
   51.7699  155.7966   27.8636 C   0  0  0  0  0  0
   52.0560  155.5687   26.5047 C   0  0  0  0  0  0
   52.0560  157.1310   28.4662 C   0  0  0  0  0  0
   51.0353  157.7904   29.3040 C   0  0  0  0  0  0
   53.0711  157.7280   28.1158 O   0  0  0  0  0  0
   51.1476  159.0753   29.7238 C   0  0  0  0  0  0
   50.1662  159.8368   30.5395 C   0  0  0  0  0  0
   50.6114  160.7980   31.4631 C   0  0  0  0  0  0
   49.7097  161.4440   32.3340 C   0  0  0  0  0  0
   48.3494  161.1620   32.3208 C   0  0  0  0  0  0
   48.7882  159.6044   30.5296 C   0  0  0  0  0  0
   47.9268  160.2427   31.3879 C   0  0  0  0  0  0
   46.6606  159.8371   31.1685 O   0  0  0  0  0  0
   46.8248  158.7093   30.3825 C   0  0  0  0  0  0
   48.0548  158.7920   29.7327 O   0  0  0  0  0  0
   52.1043  154.0986   24.6017 O   0  0  0  0  0  0
   53.3217  153.4440   24.2511 C   0  0  0  0  0  0
   54.3635  154.2542   24.4439 F   0  0  0  0  0  0
   53.5003  152.2925   24.9040 F   0  0  0  0  0  0
   53.2560  153.1485   22.9553 F   0  0  0  0  0  0
   51.3787  152.2477   26.3335 H   0  0  0  0  0  0
   50.9592  152.6122   28.7248 H   0  0  0  0  0  0
   51.1378  154.8497   29.7040 H   0  0  0  0  0  0
   52.3991  156.3764   25.8734 H   0  0  0  0  0  0
   50.1708  157.2006   29.5686 H   0  0  0  0  0  0
   52.0313  159.6344   29.4457 H   0  0  0  0  0  0
   51.6642  161.0318   31.5405 H   0  0  0  0  0  0
   50.0560  162.1795   33.0341 H   0  0  0  0  0  0
   47.6642  161.6596   32.9905 H   0  0  0  0  0  0
   46.8560  157.8440   31.0345 H   0  0  0  0  0  0
   45.9845  158.6440   29.7040 H   0  0  0  0  0  0
  1  2  2  0  0  0
  1  6  1  0  0  0
  1 20  1  0  0  0
  2  3  1  0  0  0
  2 25  1  0  0  0
  3  4  2  0  0  0
  3 26  1  0  0  0
  4  5  1  0  0  0
  4 27  1  0  0  0
  5  6  2  0  0  0
  5  7  1  0  0  0
  6 28  1  0  0  0
  7  8  1  0  0  0
  7  9  2  0  0  0
  8 10  2  0  0  0
  8 29  1  0  0  0
 10 11  1  0  0  0
 10 30  1  0  0  0
 11 12  2  0  0  0
 11 15  1  0  0  0
 12 13  1  0  0  0
 12 31  1  0  0  0
 13 14  2  0  0  0
 13 32  1  0  0  0
 14 16  1  0  0  0
 14 33  1  0  0  0
 15 16  2  0  0  0
 15 19  1  0  0  0
 16 17  1  0  0  0
 17 18  1  0  0  0
 18 19  1  0  0  0
 18 34  1  0  0  0
 18 35  1  0  0  0
 20 21  1  0  0  0
 21 22  1  0  0  0
 21 23  1  0  0  0
 21 24  1  0  0  0
M  END
> <s_m_entry_id>
10413

> <s_m_entry_name>
dock_pv.449

> <s_m_Source_Path>
/home/csk/Desktop/cluster/DUD-E-result/aofb

> <s_m_Source_File>
dock_pv.maegz

> <i_m_Source_File_Index>
449

> <chembl_id>
CHEMBL3780160

> <chembl_pref_name>
None

> <i_lp_mmshare_version>
53161

> <i_f3d_flags>
0

> <r_lp_tautomer_probability>
1

> <s_lp_Force_Field>
OPLS_2005

> <r_lp_Energy>
28.163093

> <b_lp_Chiralities_Consistent>
1

> <s_lp_Variant>
CHEMBL2039_lig1693-1

> <s_i_glide_gridfile>
glide-grid_1s3b

> <i_i_glide_lignum>
1981

> <i_i_glide_rotatable_bonds>
5

> <r_i_docking_score>
-7.0096655670819

> <r_i_glide_ligand_efficiency>
-0.292069398628413

> <r_i_glide_ligand_efficiency_sa>
-0.842473928451067

> <r_i_glide_ligand_efficiency_ln>
-1.67773462279641

> <r_i_glide_gscore>
-7.0096655670819

> <r_i_glide_lipo>
-4.0030792210305

> <r_i_glide_hbond>
0

> <r_i_glide_metal>
0

> <r_i_glide_rewards>
-1.74564570413977

> <r_i_glide_evdw>
-37.885326385498

> <r_i_glide_ecoul>
0.881984114646912

> <r_i_glide_erotb>
0.501028060166238

> <r_i_glide_esite>
0

> <r_i_glide_emodel>
-34.0995781600046

> <r_i_glide_energy>
-37.0033422708511

> <r_i_glide_einternal>
11.0051298141479

> <i_i_glide_confnum>
9

> <i_i_glide_posenum>
12

> <r_i_glide_eff_state_penalty>
0

> <s_user_duplicate_titles>
CHEMBL2039_lig1693

> <s_m_subgroup_title>
dock_pv

> <s_m_subgroupid>
dock_pv

> <b_m_subgroup_collapsed>
1

$$$$
CHEMBL2039_lig1812
                    3D
 Schrodinger Suite 2021-1.
 35 38  0  0  1  0            999 V2000
   53.2562  150.9041   24.2913 F   0  0  0  0  0  0
   52.8560  151.9997   24.9730 C   0  0  0  0  0  0
   53.2000  153.2687   24.5182 C   0  0  0  0  0  0
   52.7890  154.3840   25.2428 C   0  0  0  0  0  0
   52.0560  154.2164   26.4262 C   0  0  0  0  0  0
   51.6560  152.9493   26.8351 C   0  0  0  0  0  0
   52.0560  151.8445   26.1039 C   0  0  0  0  0  0
   51.8642  155.3474   27.3595 C   0  0  0  0  0  0
   50.8560  155.2636   28.2811 O   0  0  0  0  0  0
   50.9353  156.4607   28.9040 C   0  0  0  0  0  0
   50.0102  156.9554   29.7040 N   0  0  0  0  0  0
   50.1088  158.2899   30.0062 C   0  0  0  0  0  0
   51.2560  159.0175   29.6923 C   0  0  0  0  0  0
   52.2428  158.4257   28.9041 C   0  0  0  0  0  0
   52.0276  157.1527   28.4041 C   0  0  0  0  0  0
   52.6164  156.4280   27.4249 N   0  0  0  0  0  0
   49.0404  158.9262   30.6595 N   0  0  0  0  0  0
   47.7480  158.3436   31.0153 C   0  0  0  0  0  0
   46.9217  159.4306   31.7041 C   0  0  0  0  0  0
   47.4495  160.6884   31.0635 C   0  0  0  0  0  0
   48.9284  160.3708   30.8830 C   0  0  0  0  0  0
   53.8040  153.3794   23.6297 H   0  0  0  0  0  0
   53.1103  155.3669   24.9305 H   0  0  0  0  0  0
   51.0937  152.8086   27.7478 H   0  0  0  0  0  0
   51.7495  150.8569   26.4164 H   0  0  0  0  0  0
   51.4077  160.0184   30.0655 H   0  0  0  0  0  0
   53.2058  158.9021   28.8976 H   0  0  0  0  0  0
   47.9279  157.5183   31.7031 H   0  0  0  0  0  0
   47.2393  157.9592   30.1305 H   0  0  0  0  0  0
   47.0966  159.4377   32.7815 H   0  0  0  0  0  0
   45.8499  159.3032   31.5443 H   0  0  0  0  0  0
   46.9734  160.8923   30.1034 H   0  0  0  0  0  0
   47.2962  161.5649   31.6923 H   0  0  0  0  0  0
   49.2616  160.9080   29.9937 H   0  0  0  0  0  0
   49.4989  160.6856   31.7584 H   0  0  0  0  0  0
  1  2  1  0  0  0
  2  3  2  0  0  0
  2  7  1  0  0  0
  3  4  1  0  0  0
  3 22  1  0  0  0
  4  5  2  0  0  0
  4 23  1  0  0  0
  5  6  1  0  0  0
  5  8  1  0  0  0
  6  7  2  0  0  0
  6 24  1  0  0  0
  7 25  1  0  0  0
  8  9  1  0  0  0
  8 16  2  0  0  0
  9 10  1  0  0  0
 10 11  2  0  0  0
 10 15  1  0  0  0
 11 12  1  0  0  0
 12 13  2  0  0  0
 12 17  1  0  0  0
 13 14  1  0  0  0
 13 26  1  0  0  0
 14 15  2  0  0  0
 14 27  1  0  0  0
 15 16  1  0  0  0
 17 18  1  0  0  0
 17 21  1  0  0  0
 18 19  1  0  0  0
 18 28  1  0  0  0
 18 29  1  0  0  0
 19 20  1  0  0  0
 19 30  1  0  0  0
 19 31  1  0  0  0
 20 21  1  0  0  0
 20 32  1  0  0  0
 20 33  1  0  0  0
 21 34  1  0  0  0
 21 35  1  0  0  0
M  END
> <s_m_entry_id>
10414

> <s_m_entry_name>
dock_pv.450

> <s_m_Source_Path>
/home/csk/Desktop/cluster/DUD-E-result/aofb

> <s_m_Source_File>
dock_pv.maegz

> <i_m_Source_File_Index>
450

> <chembl_id>
CHEMBL3967344

> <chembl_pref_name>
None

> <i_lp_mmshare_version>
53161

> <i_f3d_flags>
0

> <r_lp_tautomer_probability>
1

> <s_lp_Force_Field>
OPLS_2005

> <r_lp_Energy>
37.392177

> <b_lp_Chiralities_Consistent>
1

> <s_lp_Variant>
CHEMBL2039_lig1812-1

> <s_i_glide_gridfile>
glide-grid_1s3b

> <i_i_glide_lignum>
2100

> <i_i_glide_rotatable_bonds>
2

> <r_i_docking_score>
-7.00570540978266

> <r_i_glide_ligand_efficiency>
-0.33360501951346

> <r_i_glide_ligand_efficiency_sa>
-0.92039095276373

> <r_i_glide_ligand_efficiency_ln>
-1.73214650620804

> <r_i_glide_gscore>
-7.00570540978266

> <r_i_glide_lipo>
-3.85946273996161

> <r_i_glide_hbond>
0

> <r_i_glide_metal>
0

> <r_i_glide_rewards>
-3.01637020403961

> <r_i_glide_evdw>
-6.19786930084229

> <r_i_glide_ecoul>
-1.80814325809479

> <r_i_glide_erotb>
0.451242487974884

> <r_i_glide_esite>
0

> <r_i_glide_emodel>
-26.7507362054322

> <r_i_glide_energy>
-8.00601255893707

> <r_i_glide_einternal>
1.03401982784271

> <i_i_glide_confnum>
8

> <i_i_glide_posenum>
60

> <r_i_glide_eff_state_penalty>
0

> <s_user_duplicate_titles>
CHEMBL2039_lig1812

> <s_m_subgroup_title>
dock_pv

> <s_m_subgroupid>
dock_pv

> <b_m_subgroup_collapsed>
1

$$$$
CHEMBL2039_lig197
                    3D
 Schrodinger Suite 2021-1.
 34 37  0  0  1  0            999 V2000
   52.2389  156.0137   26.9670 C   0  0  0  0  0  0
   51.6522  154.8373   27.3847 C   0  0  0  0  0  0
   52.8560  155.8205   25.6277 C   0  0  0  0  0  0
   50.8889  154.7383   28.5040 N   0  0  0  0  0  0
   52.7059  154.3662   25.3873 C   0  0  0  0  0  0
   51.9998  153.7833   26.4405 C   0  0  0  0  0  0
   50.6363  155.8533   29.2140 N   0  0  0  0  0  0
   52.1374  157.1155   27.8116 C   0  0  0  0  0  0
   51.2560  157.0399   28.9040 C   0  0  0  0  0  0
   50.8099  158.2759   29.6358 C   0  0  0  0  0  0
   53.4128  156.6440   24.9040 O   0  0  0  0  0  0
   51.6560  159.3854   29.7697 C   0  0  0  0  0  0
   51.2829  160.5203   30.5040 C   0  0  0  0  0  0
   53.2600  153.5697   24.3862 C   0  0  0  0  0  0
   51.8248  152.4067   26.5040 C   0  0  0  0  0  0
   52.1224  161.5834   30.7638 O   0  0  0  0  0  0
   49.5179  158.3828   30.1756 C   0  0  0  0  0  0
   49.1059  159.5279   30.8534 C   0  0  0  0  0  0
   49.9917  160.5870   31.0228 C   0  0  0  0  0  0
   53.5305  161.3745   30.7248 C   0  0  0  0  0  0
   52.4571  151.6044   25.5556 C   0  0  0  0  0  0
   53.1754  152.1821   24.5040 C   0  0  0  0  0  0
   52.5992  158.0505   27.5429 H   0  0  0  0  0  0
   52.6487  159.3293   29.3544 H   0  0  0  0  0  0
   53.8316  153.9993   23.5760 H   0  0  0  0  0  0
   51.2774  151.9507   27.3171 H   0  0  0  0  0  0
   48.8220  157.5601   30.1040 H   0  0  0  0  0  0
   48.1120  159.5815   31.2727 H   0  0  0  0  0  0
   49.6864  161.4514   31.5908 H   0  0  0  0  0  0
   54.0340  162.2440   31.1447 H   0  0  0  0  0  0
   53.8278  160.5152   31.3267 H   0  0  0  0  0  0
   53.8965  161.2466   29.7068 H   0  0  0  0  0  0
   52.3784  150.5293   25.6270 H   0  0  0  0  0  0
   53.6475  151.5544   23.7632 H   0  0  0  0  0  0
  1  2  1  0  0  0
  1  3  1  0  0  0
  1  8  2  0  0  0
  2  4  2  0  0  0
  2  6  1  0  0  0
  3  5  1  0  0  0
  3 11  2  0  0  0
  4  7  1  0  0  0
  5 14  2  0  0  0
  5  6  1  0  0  0
  6 15  2  0  0  0
  7  9  2  0  0  0
  8  9  1  0  0  0
  8 23  1  0  0  0
  9 10  1  0  0  0
 10 12  1  0  0  0
 10 17  2  0  0  0
 12 13  2  0  0  0
 12 24  1  0  0  0
 13 16  1  0  0  0
 13 19  1  0  0  0
 14 22  1  0  0  0
 14 25  1  0  0  0
 15 21  1  0  0  0
 15 26  1  0  0  0
 16 20  1  0  0  0
 17 18  1  0  0  0
 17 27  1  0  0  0
 18 19  2  0  0  0
 18 28  1  0  0  0
 19 29  1  0  0  0
 20 30  1  0  0  0
 20 31  1  0  0  0
 20 32  1  0  0  0
 21 22  2  0  0  0
 21 33  1  0  0  0
 22 34  1  0  0  0
M  END
> <s_m_entry_id>
10415

> <s_m_entry_name>
dock_pv.451

> <s_m_Source_Path>
/home/csk/Desktop/cluster/DUD-E-result/aofb

> <s_m_Source_File>
dock_pv.maegz

> <i_m_Source_File_Index>
451

> <chembl_id>
CHEMBL125094

> <chembl_pref_name>
None

> <i_lp_mmshare_version>
53161

> <i_f3d_flags>
0

> <r_lp_tautomer_probability>
1

> <s_lp_Force_Field>
OPLS_2005

> <r_lp_Energy>
46.842152

> <b_lp_Chiralities_Consistent>
1

> <s_lp_Variant>
CHEMBL2039_lig197-1

> <s_i_glide_gridfile>
glide-grid_1s3b

> <i_i_glide_lignum>
238

> <i_i_glide_rotatable_bonds>
2

> <r_i_docking_score>
-7.0042097873175

> <r_i_glide_ligand_efficiency>
-0.318373172150795

> <r_i_glide_ligand_efficiency_sa>
-0.89209414927288

> <r_i_glide_ligand_efficiency_ln>
-1.71208435677996

> <r_i_glide_gscore>
-7.0042097873175

> <r_i_glide_lipo>
-3.67797411203708

> <r_i_glide_hbond>
0

> <r_i_glide_metal>
0

> <r_i_glide_rewards>
-2.1784566730175

> <r_i_glide_evdw>
-22.0486717224121

> <r_i_glide_ecoul>
-1.76132726669312

> <r_i_glide_erotb>
0.218853673861658

> <r_i_glide_esite>
0

> <r_i_glide_emodel>
-23.755388359082

> <r_i_glide_energy>
-23.8099989891052

> <r_i_glide_einternal>
1.99584567546844

> <i_i_glide_confnum>
3

> <i_i_glide_posenum>
18

> <r_i_glide_eff_state_penalty>
0

> <s_user_duplicate_titles>
CHEMBL2039_lig197

> <s_m_subgroup_title>
dock_pv

> <s_m_subgroupid>
dock_pv

> <b_m_subgroup_collapsed>
1

$$$$
CHEMBL2039_lig2553
                    3D
 Schrodinger Suite 2021-1.
 45 47  0  0  1  0            999 V2000
   54.4560  154.8129   23.8343 O   0  0  0  0  0  0
   53.5186  154.5260   24.5827 C   0  0  0  0  0  0
   52.9258  153.1881   24.8317 C   0  0  0  0  0  0
   53.2955  152.1225   23.8135 C   0  0  0  0  0  0
   52.0625  152.9868   25.8556 C   0  0  0  0  0  0
   51.5258  151.6098   26.2232 C   0  0  0  0  0  0
   51.7424  154.0863   26.7797 C   0  0  0  0  0  0
   52.2389  155.3564   26.4579 C   0  0  0  0  0  0
   52.0560  156.4265   27.3306 C   0  0  0  0  0  0
   51.3056  156.2441   28.5039 C   0  0  0  0  0  0
   50.8561  157.2311   29.3427 O   0  0  0  0  0  0
   51.3972  158.5363   29.3475 C   0  0  0  0  0  0
   50.3045  159.6130   29.4999 C   0  0  2  0  0  0
   50.9869  160.8771   30.0678 C   0  0  0  0  0  0
   50.9026  161.0426   31.5724 C   0  0  0  0  0  0
   49.4811  160.8318   32.1030 C   0  0  0  0  0  0
   48.9985  159.4945   31.7575 N   0  0  1  0  0  0
   47.6596  159.2793   32.2965 C   0  0  0  0  0  0
   49.0625  159.1447   30.3298 C   0  0  0  0  0  0
   50.8553  154.9784   28.8389 C   0  0  0  0  0  0
   51.0814  153.9042   27.9962 C   0  0  0  0  0  0
   52.9652  155.5831   25.2967 O   0  0  0  0  0  0
   52.4561  151.4893   23.5678 H   0  0  0  0  0  0
   53.6563  152.5323   22.8693 H   0  0  0  0  0  0
   54.0557  151.4754   24.2439 H   0  0  0  0  0  0
   51.9993  150.7821   25.6969 H   0  0  0  0  0  0
   51.6560  151.4441   27.2774 H   0  0  0  0  0  0
   50.4560  151.5462   26.1040 H   0  0  0  0  0  0
   52.4391  157.3895   27.0361 H   0  0  0  0  0  0
   52.0321  158.7720   28.5036 H   0  0  0  0  0  0
   52.0559  158.5879   30.1997 H   0  0  0  0  0  0
   49.9136  159.8901   28.5206 H   0  0  0  0  0  0
   50.4558  161.7250   29.6606 H   0  0  0  0  0  0
   52.0056  161.0145   29.7043 H   0  0  0  0  0  0
   51.2421  162.0563   31.7669 H   0  0  0  0  0  0
   51.6066  160.3867   32.0863 H   0  0  0  0  0  0
   48.7892  161.5714   31.7043 H   0  0  0  0  0  0
   49.4682  160.9713   33.1850 H   0  0  0  0  0  0
   47.6546  159.4294   33.3771 H   0  0  0  0  0  0
   47.3288  158.2577   32.1041 H   0  0  0  0  0  0
   46.9312  159.9613   31.8540 H   0  0  0  0  0  0
   48.7989  158.1001   30.1612 H   0  0  0  0  0  0
   48.2283  159.7071   29.9042 H   0  0  0  0  0  0
   50.2982  154.8309   29.7521 H   0  0  0  0  0  0
   50.7096  152.9460   28.3135 H   0  0  0  0  0  0
  1  2  2  0  0  0
  2  3  1  0  0  0
  2 22  1  0  0  0
  3  4  1  0  0  0
  3  5  2  0  0  0
  4 23  1  0  0  0
  4 24  1  0  0  0
  4 25  1  0  0  0
  5  6  1  0  0  0
  5  7  1  0  0  0
  6 26  1  0  0  0
  6 27  1  0  0  0
  6 28  1  0  0  0
  7  8  2  0  0  0
  7 21  1  0  0  0
  8  9  1  0  0  0
  8 22  1  0  0  0
  9 10  2  0  0  0
  9 29  1  0  0  0
 10 11  1  0  0  0
 10 20  1  0  0  0
 11 12  1  0  0  0
 12 13  1  0  0  0
 12 30  1  0  0  0
 12 31  1  0  0  0
 13 14  1  0  0  0
 13 19  1  0  0  0
 13 32  1  0  0  0
 14 15  1  0  0  0
 14 33  1  0  0  0
 14 34  1  0  0  0
 15 16  1  0  0  0
 15 35  1  0  0  0
 15 36  1  0  0  0
 16 17  1  0  0  0
 16 37  1  0  0  0
 16 38  1  0  0  0
 17 18  1  0  0  0
 17 19  1  0  0  0
 18 39  1  0  0  0
 18 40  1  0  0  0
 18 41  1  0  0  0
 19 42  1  0  0  0
 19 43  1  0  0  0
 20 21  2  0  0  0
 20 44  1  0  0  0
 21 45  1  0  0  0
M  END
> <s_m_entry_id>
10416

> <s_m_entry_name>
dock_pv.452

> <s_m_Source_Path>
/home/csk/Desktop/cluster/DUD-E-result/aofb

> <s_m_Source_File>
dock_pv.maegz

> <i_m_Source_File_Index>
452

> <chembl_id>
CHEMBL4441966

> <chembl_pref_name>
None

> <i_lp_mmshare_version>
53161

> <i_f3d_flags>
0

> <r_lp_tautomer_probability>
1

> <s_lp_Force_Field>
OPLS_2005

> <r_lp_Energy>
28.618608

> <b_lp_Chiralities_Consistent>
1

> <s_lp_Variant>
CHEMBL2039_lig2553-1

> <s_i_glide_gridfile>
glide-grid_1s3b

> <i_i_glide_lignum>
2958

> <i_i_glide_rotatable_bonds>
3

> <r_i_docking_score>
-7.00389704587672

> <r_i_glide_ligand_efficiency>
-0.31835895663076

> <r_i_glide_ligand_efficiency_sa>
-0.892054316826677

> <r_i_glide_ligand_efficiency_ln>
-1.71200791136432

> <r_i_glide_gscore>
-7.00389704587672

> <r_i_glide_lipo>
-4.35451375914316

> <r_i_glide_hbond>
0

> <r_i_glide_metal>
0

> <r_i_glide_rewards>
-1.97719199435234

> <r_i_glide_evdw>
-23.2035007476807

> <r_i_glide_ecoul>
-0.797433435916901

> <r_i_glide_erotb>
0.607598760390352

> <r_i_glide_esite>
0

> <r_i_glide_emodel>
-22.8621716694827

> <r_i_glide_energy>
-24.0009341835976

> <r_i_glide_einternal>
6.72943687438965

> <i_i_glide_confnum>
45

> <i_i_glide_posenum>
100

> <r_i_glide_eff_state_penalty>
0

> <s_user_duplicate_titles>
CHEMBL2039_lig2553

> <s_m_subgroup_title>
dock_pv

> <s_m_subgroupid>
dock_pv

> <b_m_subgroup_collapsed>
1

$$$$
CHEMBL2039_lig275
                    3D
 Schrodinger Suite 2021-1.
 32 34  0  0  1  0            999 V2000
   53.5814  153.4440   23.9271 C   0  0  0  0  0  0
   53.2228  152.2400   24.5356 C   0  0  0  0  0  0
   52.4555  152.2440   25.7040 C   0  0  0  0  0  0
   53.2222  154.6526   24.5109 C   0  0  0  0  0  0
   52.4560  154.6591   25.6738 C   0  0  0  0  0  0
   52.0560  153.4582   26.2660 C   0  0  0  0  0  0
   51.3572  153.4491   27.4656 O   0  0  0  0  0  0
   51.3326  154.5735   28.2948 C   0  0  0  0  0  0
   51.8622  155.8448   27.7468 C   0  0  0  0  0  0
   52.3082  155.8654   26.4693 C   0  0  0  0  0  0
   50.8560  154.4158   29.4137 O   0  0  0  0  0  0
   51.9265  157.0798   28.5040 C   0  0  0  0  0  0
   50.8560  157.3310   29.3040 N   0  0  0  0  0  0
   52.8704  157.8440   28.3562 O   0  0  0  0  0  0
   50.4503  158.5223   29.9280 C   0  0  0  0  0  0
   49.1758  158.4964   30.5040 C   0  0  0  0  0  0
   48.7748  159.5142   31.3596 C   0  0  0  0  0  0
   49.6558  160.5507   31.6389 C   0  0  0  0  0  0
   50.8823  160.6440   30.9856 C   0  0  0  0  0  0
   51.2737  159.6425   30.1040 C   0  0  0  0  0  0
   49.3439  161.4440   32.6197 O   0  0  0  0  0  0
   54.1784  153.4438   23.0271 H   0  0  0  0  0  0
   53.5245  151.3034   24.0916 H   0  0  0  0  0  0
   52.1628  151.3087   26.1561 H   0  0  0  0  0  0
   53.5985  155.5783   24.1040 H   0  0  0  0  0  0
   52.6733  156.7917   26.0433 H   0  0  0  0  0  0
   50.2082  156.5626   29.3943 H   0  0  0  0  0  0
   48.5212  157.6488   30.3607 H   0  0  0  0  0  0
   47.8210  159.4587   31.8633 H   0  0  0  0  0  0
   51.5609  161.4551   31.2053 H   0  0  0  0  0  0
   52.2649  159.6989   29.6843 H   0  0  0  0  0  0
   50.1372  161.8880   32.9420 H   0  0  0  0  0  0
  1  2  2  0  0  0
  1  4  1  0  0  0
  1 22  1  0  0  0
  2  3  1  0  0  0
  2 23  1  0  0  0
  3  6  2  0  0  0
  3 24  1  0  0  0
  4  5  2  0  0  0
  4 25  1  0  0  0
  5  6  1  0  0  0
  5 10  1  0  0  0
  6  7  1  0  0  0
  7  8  1  0  0  0
  8 11  2  0  0  0
  8  9  1  0  0  0
  9 10  2  0  0  0
  9 12  1  0  0  0
 10 26  1  0  0  0
 12 13  1  0  0  0
 12 14  2  0  0  0
 13 15  1  0  0  0
 13 27  1  0  0  0
 15 16  2  0  0  0
 15 20  1  0  0  0
 16 17  1  0  0  0
 16 28  1  0  0  0
 17 18  2  0  0  0
 17 29  1  0  0  0
 18 19  1  0  0  0
 18 21  1  0  0  0
 19 20  2  0  0  0
 19 30  1  0  0  0
 20 31  1  0  0  0
 21 32  1  0  0  0
M  END
> <s_m_entry_id>
10417

> <s_m_entry_name>
dock_pv.453

> <s_m_Source_Path>
/home/csk/Desktop/cluster/DUD-E-result/aofb

> <s_m_Source_File>
dock_pv.maegz

> <i_m_Source_File_Index>
453

> <chembl_id>
CHEMBL453410

> <chembl_pref_name>
None

> <i_lp_mmshare_version>
53161

> <i_f3d_flags>
0

> <r_lp_tautomer_probability>
0.999999999997365

> <s_lp_Force_Field>
OPLS_2005

> <r_lp_Energy>
28.966245

> <b_lp_Chiralities_Consistent>
1

> <s_lp_Variant>
CHEMBL2039_lig275-1

> <s_i_glide_gridfile>
glide-grid_1s3b

> <i_i_glide_lignum>
324

> <i_i_glide_rotatable_bonds>
4

> <r_i_docking_score>
-7.00344287164516

> <r_i_glide_ligand_efficiency>
-0.33349727960215

> <r_i_glide_ligand_efficiency_sa>
-0.920093706517959

> <r_i_glide_ligand_efficiency_ln>
-1.73158709822543

> <r_i_glide_gscore>
-7.00344287164516

> <r_i_glide_lipo>
-3.83049406294481

> <r_i_glide_hbond>
-0.281297321524836

> <r_i_glide_metal>
0

> <r_i_glide_rewards>
-2.23373074977002

> <r_i_glide_evdw>
-29.6202144622803

> <r_i_glide_ecoul>
0.917865872383118

> <r_i_glide_erotb>
0.685410104851049

> <r_i_glide_esite>
0

> <r_i_glide_emodel>
-32.1057325225656

> <r_i_glide_energy>
-28.7023485898972

> <r_i_glide_einternal>
4.64059782028198

> <i_i_glide_confnum>
2

> <i_i_glide_posenum>
65

> <r_i_glide_eff_state_penalty>
0

> <s_user_duplicate_titles>
CHEMBL2039_lig275,521670

> <s_m_subgroup_title>
dock_pv

> <s_m_subgroupid>
dock_pv

> <b_m_subgroup_collapsed>
1

$$$$
CHEMBL2039_lig333
                    3D
 Schrodinger Suite 2021-1.
 35 37  0  0  1  0            999 V2000
   47.7041  160.1853   31.9440 C   0  0  0  0  0  0
   48.5683  161.1661   32.4120 C   0  0  0  0  0  0
   49.8553  161.2469   31.9052 C   0  0  0  0  0  0
   48.1279  159.2461   31.0108 C   0  0  0  0  0  0
   49.4316  159.3064   30.5389 C   0  0  0  0  0  0
   50.3099  160.3081   30.9802 C   0  0  0  0  0  0
   51.6298  160.4289   30.3456 C   0  0  0  0  0  0
   52.0574  159.1276   29.7137 C   0  0  0  0  0  0
   51.0200  158.4022   28.9464 C   0  0  2  0  0  0
   49.8059  158.2755   29.7053 O   0  0  0  0  0  0
   51.5369  157.0090   28.5041 C   0  0  0  0  0  0
   52.4448  156.9388   27.4428 C   0  0  0  0  0  0
   51.7449  154.6578   27.0177 C   0  0  0  0  0  0
   50.9989  154.6618   28.1913 C   0  0  0  0  0  0
   52.4560  155.7995   26.6417 C   0  0  0  0  0  0
   50.8561  155.8460   28.9041 C   0  0  0  0  0  0
   52.2963  161.4621   30.3229 O   0  0  0  0  0  0
   46.3234  160.1244   32.4954 C   0  0  0  0  0  0
   51.8138  153.4078   26.1593 C   0  0  0  0  0  0
   48.2379  161.8798   33.1494 H   0  0  0  0  0  0
   50.4831  162.0581   32.2344 H   0  0  0  0  0  0
   47.4659  158.4621   30.6731 H   0  0  0  0  0  0
   52.0560  158.4190   30.5043 H   0  0  0  0  0  0
   53.0627  159.1520   29.3039 H   0  0  0  0  0  0
   50.7913  159.0440   28.0980 H   0  0  0  0  0  0
   52.9888  157.8180   27.1348 H   0  0  0  0  0  0
   50.4562  153.7827   28.4995 H   0  0  0  0  0  0
   53.0675  155.7833   25.7515 H   0  0  0  0  0  0
   50.1356  155.8741   29.7042 H   0  0  0  0  0  0
   45.5645  159.8297   31.7690 H   0  0  0  0  0  0
   46.3891  159.4440   33.3040 H   0  0  0  0  0  0
   46.0560  161.0440   32.9752 H   0  0  0  0  0  0
   51.3082  152.5599   26.6223 H   0  0  0  0  0  0
   51.3616  153.5957   25.1848 H   0  0  0  0  0  0
   52.8540  153.1263   25.9900 H   0  0  0  0  0  0
  1  2  2  0  0  0
  1  4  1  0  0  0
  1 18  1  0  0  0
  2  3  1  0  0  0
  2 20  1  0  0  0
  3  6  2  0  0  0
  3 21  1  0  0  0
  4  5  2  0  0  0
  4 22  1  0  0  0
  5  6  1  0  0  0
  5 10  1  0  0  0
  6  7  1  0  0  0
  7  8  1  0  0  0
  7 17  2  0  0  0
  8  9  1  0  0  0
  8 23  1  0  0  0
  8 24  1  0  0  0
  9 10  1  0  0  0
  9 11  1  0  0  0
  9 25  1  0  0  0
 11 12  2  0  0  0
 11 16  1  0  0  0
 12 15  1  0  0  0
 12 26  1  0  0  0
 13 14  1  0  0  0
 13 15  2  0  0  0
 13 19  1  0  0  0
 14 16  2  0  0  0
 14 27  1  0  0  0
 15 28  1  0  0  0
 16 29  1  0  0  0
 18 30  1  0  0  0
 18 31  1  0  0  0
 18 32  1  0  0  0
 19 33  1  0  0  0
 19 34  1  0  0  0
 19 35  1  0  0  0
M  END
> <s_m_entry_id>
10418

> <s_m_entry_name>
dock_pv.454

> <s_m_Source_Path>
/home/csk/Desktop/cluster/DUD-E-result/aofb

> <s_m_Source_File>
dock_pv.maegz

> <i_m_Source_File_Index>
454

> <chembl_id>
CHEMBL600384

> <chembl_pref_name>
None

> <i_lp_mmshare_version>
53161

> <i_f3d_flags>
0

> <r_lp_tautomer_probability>
0.99995

> <s_lp_Force_Field>
OPLS_2005

> <r_lp_Energy>
19.133233

> <b_lp_Chiralities_Consistent>
1

> <s_lp_Variant>
CHEMBL2039_lig333-1

> <s_i_glide_gridfile>
glide-grid_1s3b

> <i_i_glide_lignum>
385

> <i_i_glide_rotatable_bonds>
1

> <r_i_docking_score>
-6.99648148926205

> <r_i_glide_ligand_efficiency>
-0.368235867855897

> <r_i_glide_ligand_efficiency_sa>
-0.98260119594083

> <r_i_glide_ligand_efficiency_ln>
-1.77375832817183

> <r_i_glide_gscore>
-6.99648148926205

> <r_i_glide_lipo>
-3.80695891274719

> <r_i_glide_hbond>
-0.0201330995851198

> <r_i_glide_metal>
0

> <r_i_glide_rewards>
-2.51433024279282

> <r_i_glide_evdw>
-11.8391122817993

> <r_i_glide_ecoul>
-2.2581684589386

> <r_i_glide_erotb>
0.275621648793833

> <r_i_glide_esite>
0

> <r_i_glide_emodel>
-26.66234584629

> <r_i_glide_energy>
-14.0972807407379

> <r_i_glide_einternal>
0.000557976658456028

> <i_i_glide_confnum>
1

> <i_i_glide_posenum>
27

> <r_i_glide_eff_state_penalty>
0

> <s_user_duplicate_titles>
CHEMBL2039_lig333,CHEMBL2039_lig358,601854

> <s_m_subgroup_title>
dock_pv

> <s_m_subgroupid>
dock_pv

> <b_m_subgroup_collapsed>
1

$$$$
CHEMBL2039_lig401
                    3D
 Schrodinger Suite 2021-1.
 46 48  0  0  1  0            999 V2000
   53.2561  151.7907   23.8305 N   0  0  0  0  0  0
   52.8946  151.0965   24.9039 C   0  0  0  0  0  0
   53.2373  153.1166   23.8283 C   0  0  0  0  0  0
   52.2390  152.2452   26.1040 S   0  0  0  0  0  0
   52.3129  153.6090   24.9289 C   0  0  1  0  0  0
   52.9952  149.8818   25.0359 O   0  0  0  0  0  0
   53.8421  153.8325   23.0372 O   0  0  0  0  0  0
   52.7990  154.9872   25.4037 C   0  0  0  0  0  0
   49.9690  159.8935   30.6486 C   0  0  0  0  0  0
   50.7124  157.7275   29.8385 O   0  0  0  0  0  0
   52.2653  155.5757   26.6954 C   0  0  0  0  0  0
   51.1472  159.0603   30.1035 C   0  0  0  0  0  0
   51.3657  156.9730   28.9040 C   0  0  0  0  0  0
   51.3083  154.9943   27.5381 C   0  0  0  0  0  0
   52.8560  156.7739   27.0560 C   0  0  0  0  0  0
   52.4574  157.4440   28.1839 C   0  0  0  0  0  0
   50.8560  155.7038   28.6425 C   0  0  0  0  0  0
   50.5125  161.1771   31.3027 C   0  0  0  0  0  0
   49.0632  160.1149   29.4109 C   0  0  0  0  0  0
   49.0952  159.1179   31.6775 C   0  0  0  0  0  0
   47.7635  159.8080   32.0353 C   0  0  0  0  0  0
   47.7700  160.8497   29.7336 C   0  0  0  0  0  0
   46.9328  160.0841   30.7713 C   0  0  0  0  0  0
   53.7102  151.3206   23.0634 H   0  0  0  0  0  0
   51.3153  153.7148   24.5042 H   0  0  0  0  0  0
   53.8886  155.0005   25.4727 H   0  0  0  0  0  0
   52.5631  155.7110   24.6201 H   0  0  0  0  0  0
   52.0286  159.0866   30.7452 H   0  0  0  0  0  0
   51.4868  159.5687   29.2016 H   0  0  0  0  0  0
   50.8248  154.0603   27.3124 H   0  0  0  0  0  0
   53.6558  157.1961   26.4687 H   0  0  0  0  0  0
   52.9714  158.3520   28.4431 H   0  0  0  0  0  0
   50.0445  155.3134   29.2382 H   0  0  0  0  0  0
   49.7357  161.8440   31.6693 H   0  0  0  0  0  0
   51.1305  160.9292   32.1634 H   0  0  0  0  0  0
   51.1789  161.7053   30.6211 H   0  0  0  0  0  0
   49.6009  160.6441   28.6286 H   0  0  0  0  0  0
   48.7992  159.1590   28.9577 H   0  0  0  0  0  0
   48.8551  158.1217   31.3042 H   0  0  0  0  0  0
   49.6558  158.9967   32.5895 H   0  0  0  0  0  0
   47.9478  160.7396   32.5711 H   0  0  0  0  0  0
   47.2040  159.1777   32.7231 H   0  0  0  0  0  0
   47.9766  161.8438   30.1028 H   0  0  0  0  0  0
   47.2560  160.9699   28.7950 H   0  0  0  0  0  0
   46.0362  160.6440   31.0265 H   0  0  0  0  0  0
   46.5893  159.1407   30.3430 H   0  0  0  0  0  0
  1  2  1  0  0  0
  1  3  1  0  0  0
  1 24  1  0  0  0
  2  4  1  0  0  0
  2  6  2  0  0  0
  3  5  1  0  0  0
  3  7  2  0  0  0
  4  5  1  0  0  0
  5  8  1  0  0  0
  5 25  1  0  0  0
  8 11  1  0  0  0
  8 26  1  0  0  0
  8 27  1  0  0  0
  9 12  1  0  0  0
  9 18  1  0  0  0
  9 19  1  0  0  0
  9 20  1  0  0  0
 10 13  1  0  0  0
 10 12  1  0  0  0
 11 14  2  0  0  0
 11 15  1  0  0  0
 12 28  1  0  0  0
 12 29  1  0  0  0
 13 16  1  0  0  0
 13 17  2  0  0  0
 14 17  1  0  0  0
 14 30  1  0  0  0
 15 16  2  0  0  0
 15 31  1  0  0  0
 16 32  1  0  0  0
 17 33  1  0  0  0
 18 34  1  0  0  0
 18 35  1  0  0  0
 18 36  1  0  0  0
 19 22  1  0  0  0
 19 37  1  0  0  0
 19 38  1  0  0  0
 20 21  1  0  0  0
 20 39  1  0  0  0
 20 40  1  0  0  0
 21 23  1  0  0  0
 21 41  1  0  0  0
 21 42  1  0  0  0
 22 23  1  0  0  0
 22 43  1  0  0  0
 22 44  1  0  0  0
 23 45  1  0  0  0
 23 46  1  0  0  0
M  END
> <s_m_entry_id>
10420

> <s_m_entry_name>
dock_pv.456

> <s_m_Source_Path>
/home/csk/Desktop/cluster/DUD-E-result/aofb

> <s_m_Source_File>
dock_pv.maegz

> <i_m_Source_File_Index>
456

> <chembl_id>
CHEMBL7002

> <chembl_pref_name>
CIGLITAZONE

> <i_lp_mmshare_version>
53161

> <i_f3d_flags>
0

> <r_lp_tautomer_probability>
0.999986600176988

> <s_lp_Force_Field>
OPLS_2005

> <r_lp_Energy>
26.09224

> <b_lp_Chiralities_Consistent>
1

> <s_lp_Variant>
CHEMBL2039_lig401-1

> <s_i_glide_gridfile>
glide-grid_1s3b

> <i_i_glide_lignum>
476

> <i_i_glide_rotatable_bonds>
5

> <r_i_docking_score>
-6.99640898773395

> <r_i_glide_ligand_efficiency>
-0.304191695118867

> <r_i_glide_ligand_efficiency_sa>
-0.865080716389469

> <r_i_glide_ligand_efficiency_ln>
-1.69179513316331

> <r_i_glide_gscore>
-6.99640898773395

> <r_i_glide_lipo>
-4.11941954516994

> <r_i_glide_hbond>
-0.282172318071554

> <r_i_glide_metal>
0

> <r_i_glide_rewards>
-2.89061291921585

> <r_i_glide_evdw>
-7.67161560058594

> <r_i_glide_ecoul>
-1.12128591537476

> <r_i_glide_erotb>
0.847569462058907

> <r_i_glide_esite>
0

> <r_i_glide_emodel>
-11.0887424652347

> <r_i_glide_energy>
-8.79290151596069

> <r_i_glide_einternal>
15.3684492111206

> <i_i_glide_confnum>
249

> <i_i_glide_posenum>
192

> <r_i_glide_eff_state_penalty>
0

> <s_user_duplicate_titles>
CHEMBL2039_lig401,1529

> <s_m_subgroup_title>
dock_pv

> <s_m_subgroupid>
dock_pv

> <b_m_subgroup_collapsed>
1

$$$$
CHEMBL2039_lig498
                    3D
 Schrodinger Suite 2021-1.
 30 32  0  0  1  0            999 V2000
   52.4548  157.0440   27.3899 C   0  0  0  0  0  0
   51.6559  156.5678   28.4443 C   0  0  0  0  0  0
   51.3081  155.2124   28.4658 C   0  0  0  0  0  0
   52.6860  156.2606   26.2570 C   0  0  0  0  0  0
   52.2636  154.9410   26.2644 C   0  0  0  0  0  0
   51.6559  154.4020   27.3850 C   0  0  0  0  0  0
   51.5283  153.0318   27.2426 N   0  0  0  0  0  0
   52.0562  152.5903   26.0883 C   0  0  0  0  0  0
   52.4640  153.8688   25.3043 C   0  0  0  0  0  0
   52.9153  153.8696   24.1588 O   0  0  0  0  0  0
   52.2075  151.4319   25.7041 O   0  0  0  0  0  0
   51.0676  157.3772   29.4010 O   0  0  0  0  0  0
   51.1318  158.7961   29.3040 C   0  0  0  0  0  0
   50.1391  159.4441   30.2684 C   0  0  0  0  0  0
   48.8184  158.9879   30.3393 C   0  0  0  0  0  0
   47.9234  159.5561   31.2421 C   0  0  0  0  0  0
   48.3519  160.5805   32.0819 C   0  0  0  0  0  0
   49.6634  161.0444   32.0167 C   0  0  0  0  0  0
   50.5539  160.4875   31.1015 C   0  0  0  0  0  0
   52.7981  158.0626   27.3945 H   0  0  0  0  0  0
   50.7587  154.8161   29.3066 H   0  0  0  0  0  0
   53.2351  156.6683   25.4209 H   0  0  0  0  0  0
   51.1914  152.4122   27.9641 H   0  0  0  0  0  0
   50.8545  159.1029   28.2987 H   0  0  0  0  0  0
   52.1494  159.1377   29.4962 H   0  0  0  0  0  0
   48.4853  158.1826   29.7053 H   0  0  0  0  0  0
   46.9058  159.1978   31.2969 H   0  0  0  0  0  0
   47.6633  161.0167   32.7905 H   0  0  0  0  0  0
   49.9959  161.8349   32.6735 H   0  0  0  0  0  0
   51.5717  160.8494   31.0669 H   0  0  0  0  0  0
  1  4  1  0  0  0
  1  2  2  0  0  0
  1 20  1  0  0  0
  2 12  1  0  0  0
  2  3  1  0  0  0
  3  6  2  0  0  0
  3 21  1  0  0  0
  4  5  2  0  0  0
  4 22  1  0  0  0
  5  9  1  0  0  0
  5  6  1  0  0  0
  6  7  1  0  0  0
  7  8  1  0  0  0
  7 23  1  0  0  0
  8 11  2  0  0  0
  8  9  1  0  0  0
  9 10  2  0  0  0
 12 13  1  0  0  0
 13 14  1  0  0  0
 13 24  1  0  0  0
 13 25  1  0  0  0
 14 15  2  0  0  0
 14 19  1  0  0  0
 15 16  1  0  0  0
 15 26  1  0  0  0
 16 17  2  0  0  0
 16 27  1  0  0  0
 17 18  1  0  0  0
 17 28  1  0  0  0
 18 19  2  0  0  0
 18 29  1  0  0  0
 19 30  1  0  0  0
M  END
> <s_m_entry_id>
10421

> <s_m_entry_name>
dock_pv.457

> <s_m_Source_Path>
/home/csk/Desktop/cluster/DUD-E-result/aofb

> <s_m_Source_File>
dock_pv.maegz

> <i_m_Source_File_Index>
457

> <chembl_id>
CHEMBL1642671

> <chembl_pref_name>
None

> <i_lp_mmshare_version>
53161

> <i_f3d_flags>
0

> <r_lp_tautomer_probability>
1

> <s_lp_Force_Field>
OPLS_2005

> <r_lp_Energy>
38.339459

> <b_lp_Chiralities_Consistent>
1

> <s_lp_Variant>
CHEMBL2039_lig498-1

> <s_i_glide_gridfile>
glide-grid_1s3b

> <i_i_glide_lignum>
597

> <i_i_glide_rotatable_bonds>
3

> <r_i_docking_score>
-6.99518395802605

> <r_i_glide_ligand_efficiency>
-0.368167576738213

> <r_i_glide_ligand_efficiency_sa>
-0.982418967809987

> <r_i_glide_ligand_efficiency_ln>
-1.77342937613509

> <r_i_glide_gscore>
-6.99518395802605

> <r_i_glide_lipo>
-3.15087530387792

> <r_i_glide_hbond>
0

> <r_i_glide_metal>
0

> <r_i_glide_rewards>
-3.0837162939946

> <r_i_glide_evdw>
-29.4059715270996

> <r_i_glide_ecoul>
-0.745797336101532

> <r_i_glide_erotb>
0.82157581661667

> <r_i_glide_esite>
0

> <r_i_glide_emodel>
-37.3779426693978

> <r_i_glide_energy>
-30.1517688632011

> <r_i_glide_einternal>
0.769832670688629

> <i_i_glide_confnum>
15

> <i_i_glide_posenum>
198

> <r_i_glide_eff_state_penalty>
0

> <s_user_duplicate_titles>
CHEMBL2039_lig498

> <s_m_subgroup_title>
dock_pv

> <s_m_subgroupid>
dock_pv

> <b_m_subgroup_collapsed>
1

$$$$
CHEMBL2039_lig230
                    3D
 Schrodinger Suite 2021-1.
 41 44  0  0  1  0            999 V2000
   51.2565  152.9657   27.7900 C   0  0  0  0  0  0
   52.2060  154.7127   26.3357 C   0  0  0  0  0  0
   52.0220  153.3860   26.6037 C   0  0  0  0  0  0
   50.8560  153.9258   28.6412 O   0  0  0  0  0  0
   51.0892  155.2501   28.4288 C   0  0  0  0  0  0
   51.9288  155.6929   27.4121 C   0  0  0  0  0  0
   50.4753  156.1220   29.3039 C   0  0  0  0  0  0
   52.4561  156.9834   27.5222 C   0  0  0  0  0  0
   50.8560  151.8456   28.1040 O   0  0  0  0  0  0
   50.8712  157.4532   29.3041 C   0  0  0  0  0  0
   50.1319  158.2788   30.1039 O   0  0  0  0  0  0
   51.9571  157.8446   28.5041 C   0  0  0  0  0  0
   53.0435  155.1716   25.1412 C   0  0  0  0  0  0
   52.5203  152.2480   25.7180 C   0  0  0  0  0  0
   50.2032  159.6852   29.9599 C   0  0  0  0  0  0
   49.1562  160.2126   30.9155 C   0  0  0  0  0  0
   47.8084  159.9381   30.6698 C   0  0  0  0  0  0
   49.5455  160.8293   32.1035 C   0  0  0  0  0  0
   53.1191  154.0795   24.0637 C   0  0  0  0  0  0
   53.5060  152.7263   24.6521 C   0  0  0  0  0  0
   48.5942  161.1026   33.0796 C   0  0  0  0  0  0
   46.8564  160.2410   31.6365 C   0  0  0  0  0  0
   47.2565  160.8108   32.8429 C   0  0  0  0  0  0
   49.7135  155.7580   29.9741 H   0  0  0  0  0  0
   53.2086  157.3421   26.8370 H   0  0  0  0  0  0
   52.3330  158.8496   28.5638 H   0  0  0  0  0  0
   54.0558  155.4007   25.4740 H   0  0  0  0  0  0
   52.6707  156.1165   24.7443 H   0  0  0  0  0  0
   51.6570  151.7482   25.3040 H   0  0  0  0  0  0
   53.0111  151.4655   26.2883 H   0  0  0  0  0  0
   49.9720  159.9961   28.9393 H   0  0  0  0  0  0
   51.1968  160.0584   30.2155 H   0  0  0  0  0  0
   47.5074  159.4466   29.7552 H   0  0  0  0  0  0
   50.5870  161.0410   32.3030 H   0  0  0  0  0  0
   52.1583  153.9984   23.5553 H   0  0  0  0  0  0
   53.8535  154.3516   23.3056 H   0  0  0  0  0  0
   54.4941  152.8150   25.1056 H   0  0  0  0  0  0
   53.5980  151.9786   23.8634 H   0  0  0  0  0  0
   48.8952  161.5323   34.0220 H   0  0  0  0  0  0
   45.8139  160.0168   31.4610 H   0  0  0  0  0  0
   46.5211  161.0437   33.5981 H   0  0  0  0  0  0
  1  3  1  0  0  0
  1  4  1  0  0  0
  1  9  2  0  0  0
  2  3  2  0  0  0
  2 13  1  0  0  0
  2  6  1  0  0  0
  3 14  1  0  0  0
  4  5  1  0  0  0
  5  6  1  0  0  0
  5  7  2  0  0  0
  6  8  2  0  0  0
  7 10  1  0  0  0
  7 24  1  0  0  0
  8 12  1  0  0  0
  8 25  1  0  0  0
 10 11  1  0  0  0
 10 12  2  0  0  0
 11 15  1  0  0  0
 12 26  1  0  0  0
 13 19  1  0  0  0
 13 27  1  0  0  0
 13 28  1  0  0  0
 14 20  1  0  0  0
 14 29  1  0  0  0
 14 30  1  0  0  0
 15 16  1  0  0  0
 15 31  1  0  0  0
 15 32  1  0  0  0
 16 17  2  0  0  0
 16 18  1  0  0  0
 17 22  1  0  0  0
 17 33  1  0  0  0
 18 21  2  0  0  0
 18 34  1  0  0  0
 19 20  1  0  0  0
 19 35  1  0  0  0
 19 36  1  0  0  0
 20 37  1  0  0  0
 20 38  1  0  0  0
 21 23  1  0  0  0
 21 39  1  0  0  0
 22 23  2  0  0  0
 22 40  1  0  0  0
 23 41  1  0  0  0
M  END
> <s_m_entry_id>
10422

> <s_m_entry_name>
dock_pv.458

> <s_m_Source_Path>
/home/csk/Desktop/cluster/DUD-E-result/aofb

> <s_m_Source_File>
dock_pv.maegz

> <i_m_Source_File_Index>
458

> <chembl_id>
CHEMBL146222

> <chembl_pref_name>
None

> <i_lp_mmshare_version>
53161

> <i_f3d_flags>
0

> <r_lp_tautomer_probability>
1

> <s_lp_Force_Field>
OPLS_2005

> <r_lp_Energy>
25.502088

> <b_lp_Chiralities_Consistent>
1

> <s_lp_Variant>
CHEMBL2039_lig230-1

> <s_i_glide_gridfile>
glide-grid_1s3b

> <i_i_glide_lignum>
271

> <i_i_glide_rotatable_bonds>
3

> <r_i_docking_score>
-6.99411478138682

> <r_i_glide_ligand_efficiency>
-0.304091947016818

> <r_i_glide_ligand_efficiency_sa>
-0.864797046056046

> <r_i_glide_ligand_efficiency_ln>
-1.69124037326586

> <r_i_glide_gscore>
-6.99411478138682

> <r_i_glide_lipo>
-5.25047388715877

> <r_i_glide_hbond>
0

> <r_i_glide_metal>
0

> <r_i_glide_rewards>
-1.91019006675764

> <r_i_glide_evdw>
-12.891697883606

> <r_i_glide_ecoul>
1.47146880626678

> <r_i_glide_erotb>
0.590413745769863

> <r_i_glide_esite>
0

> <r_i_glide_emodel>
-24.3014183319033

> <r_i_glide_energy>
-11.4202290773392

> <r_i_glide_einternal>
5.07538652420044

> <i_i_glide_confnum>
1

> <i_i_glide_posenum>
204

> <r_i_glide_eff_state_penalty>
0

> <s_user_duplicate_titles>
CHEMBL2039_lig230

> <s_m_subgroup_title>
dock_pv

> <s_m_subgroupid>
dock_pv

> <b_m_subgroup_collapsed>
1

$$$$
CHEMBL2039_lig843
                    3D
 Schrodinger Suite 2021-1.
 31 32  0  0  1  0            999 V2000
   51.6944  153.4466   26.6959 C   0  0  0  0  0  0
   51.5995  154.7094   27.4283 C   0  0  0  0  0  0
   52.1811  155.9128   26.9906 C   0  0  0  0  0  0
   52.8560  156.0608   25.7083 C   0  0  0  0  0  0
   52.1117  157.0440   27.8070 C   0  0  0  0  0  0
   51.2560  157.0879   28.9040 C   0  0  0  0  0  0
   50.5948  155.9137   29.2816 C   0  0  0  0  0  0
   50.8560  154.7238   28.6053 C   0  0  0  0  0  0
   51.7800  152.4516   26.1159 N   0  0  0  0  0  0
   53.4070  156.1847   24.7030 N   0  0  0  0  0  0
   51.0296  158.6667   29.7040 S   0  0  0  0  0  0
   49.2968  159.2233   29.8691 C   0  0  0  0  0  0
   48.3953  158.1571   30.5040 C   0  0  0  0  0  0
   46.9792  158.6489   30.7941 C   0  0  0  0  0  0
   46.9785  159.8980   31.6764 C   0  0  0  0  0  0
   47.8399  161.0028   31.0502 C   0  0  0  0  0  0
   49.2717  160.5211   30.7125 C   0  0  0  0  0  0
   52.6181  157.9529   27.5193 H   0  0  0  0  0  0
   49.9151  155.8885   30.1040 H   0  0  0  0  0  0
   50.4560  153.8048   28.9852 H   0  0  0  0  0  0
   48.9437  159.4441   28.8613 H   0  0  0  0  0  0
   48.3079  157.2800   29.8695 H   0  0  0  0  0  0
   48.8474  157.8440   31.4347 H   0  0  0  0  0  0
   46.4464  158.8414   29.8614 H   0  0  0  0  0  0
   46.4560  157.8471   31.2981 H   0  0  0  0  0  0
   45.9551  160.2440   31.8235 H   0  0  0  0  0  0
   47.3631  159.6499   32.6674 H   0  0  0  0  0  0
   47.3582  161.3709   30.1430 H   0  0  0  0  0  0
   47.8811  161.8440   31.7411 H   0  0  0  0  0  0
   49.8063  160.3550   31.6499 H   0  0  0  0  0  0
   49.8123  161.3104   30.1898 H   0  0  0  0  0  0
  1  2  1  0  0  0
  1  9  3  0  0  0
  2  3  1  0  0  0
  2  8  2  0  0  0
  3  4  1  0  0  0
  3  5  2  0  0  0
  4 10  3  0  0  0
  5  6  1  0  0  0
  5 18  1  0  0  0
  6  7  2  0  0  0
  6 11  1  0  0  0
  7  8  1  0  0  0
  7 19  1  0  0  0
  8 20  1  0  0  0
 11 12  1  0  0  0
 12 13  1  0  0  0
 12 17  1  0  0  0
 12 21  1  0  0  0
 13 14  1  0  0  0
 13 22  1  0  0  0
 13 23  1  0  0  0
 14 15  1  0  0  0
 14 24  1  0  0  0
 14 25  1  0  0  0
 15 16  1  0  0  0
 15 26  1  0  0  0
 15 27  1  0  0  0
 16 17  1  0  0  0
 16 28  1  0  0  0
 16 29  1  0  0  0
 17 30  1  0  0  0
 17 31  1  0  0  0
M  END
> <s_m_entry_id>
10423

> <s_m_entry_name>
dock_pv.459

> <s_m_Source_Path>
/home/csk/Desktop/cluster/DUD-E-result/aofb

> <s_m_Source_File>
dock_pv.maegz

> <i_m_Source_File_Index>
459

> <chembl_id>
CHEMBL2204763

> <chembl_pref_name>
None

> <i_lp_mmshare_version>
53161

> <i_f3d_flags>
0

> <r_lp_tautomer_probability>
1

> <s_lp_Force_Field>
OPLS_2005

> <r_lp_Energy>
12.515625

> <b_lp_Chiralities_Consistent>
1

> <s_lp_Variant>
CHEMBL2039_lig843-1

> <s_i_glide_gridfile>
glide-grid_1s3b

> <i_i_glide_lignum>
976

> <i_i_glide_rotatable_bonds>
2

> <r_i_docking_score>
-6.99384887271299

> <r_i_glide_ligand_efficiency>
-0.41140287486547

> <r_i_glide_ligand_efficiency_sa>
-1.05783263748643

> <r_i_glide_ligand_efficiency_ln>
-1.82453942553384

> <r_i_glide_gscore>
-6.99384887271299

> <r_i_glide_lipo>
-3.49595825316776

> <r_i_glide_hbond>
0

> <r_i_glide_metal>
0

> <r_i_glide_rewards>
-3.1009714007828

> <r_i_glide_evdw>
-17.2146301269531

> <r_i_glide_ecoul>
-0.845421731472015

> <r_i_glide_erotb>
0.590625547306038

> <r_i_glide_esite>
0

> <r_i_glide_emodel>
-17.3160864740348

> <r_i_glide_energy>
-18.0600518584251

> <r_i_glide_einternal>
1.52124738693237

> <i_i_glide_confnum>
4

> <i_i_glide_posenum>
80

> <r_i_glide_eff_state_penalty>
0

> <s_user_duplicate_titles>
CHEMBL2039_lig843

> <s_m_subgroup_title>
dock_pv

> <s_m_subgroupid>
dock_pv

> <b_m_subgroup_collapsed>
1

$$$$
CHEMBL2039_lig1617
                    3D
 Schrodinger Suite 2021-1.
 28 30  0  0  1  0            999 V2000
   53.5171  154.7098   24.6820 C   0  0  0  0  0  0
   52.4561  153.3500   25.3028 S   0  0  0  0  0  0
   53.2452  155.8463   25.3626 O   0  0  0  0  0  0
   52.4381  155.6619   26.4542 C   0  0  0  0  0  0
   51.9224  154.3834   26.6048 C   0  0  0  0  0  0
   52.1809  156.6440   27.4190 C   0  0  0  0  0  0
   54.3617  154.6438   23.7894 O   0  0  0  0  0  0
   51.1662  154.0517   27.7230 C   0  0  0  0  0  0
   51.3331  156.3509   28.5042 C   0  0  0  0  0  0
   50.8558  157.2748   29.4265 O   0  0  0  0  0  0
   50.8602  155.0437   28.6565 C   0  0  0  0  0  0
   51.0803  158.6851   29.3038 C   0  0  0  0  0  0
   50.0990  159.4661   30.1908 C   0  0  0  0  0  0
   50.5771  160.3693   31.1479 C   0  0  0  0  0  0
   48.7164  159.2924   30.0581 C   0  0  0  0  0  0
   49.6878  161.0438   31.9865 C   0  0  0  0  0  0
   47.8270  159.9623   30.8936 C   0  0  0  0  0  0
   48.3185  160.8267   31.8649 C   0  0  0  0  0  0
   52.5920  157.6352   27.3078 H   0  0  0  0  0  0
   50.8011  153.0463   27.8697 H   0  0  0  0  0  0
   50.2350  154.8019   29.5031 H   0  0  0  0  0  0
   50.9394  159.0433   28.2843 H   0  0  0  0  0  0
   52.1076  158.9129   29.5810 H   0  0  0  0  0  0
   51.6389  160.5324   31.2660 H   0  0  0  0  0  0
   48.3120  158.6438   29.3047 H   0  0  0  0  0  0
   50.0559  161.7279   32.7357 H   0  0  0  0  0  0
   46.7624  159.8124   30.7871 H   0  0  0  0  0  0
   47.6342  161.3477   32.5178 H   0  0  0  0  0  0
  1  2  1  0  0  0
  1  3  1  0  0  0
  1  7  2  0  0  0
  2  5  1  0  0  0
  3  4  1  0  0  0
  4  6  2  0  0  0
  4  5  1  0  0  0
  5  8  2  0  0  0
  6  9  1  0  0  0
  6 19  1  0  0  0
  8 11  1  0  0  0
  8 20  1  0  0  0
  9 10  1  0  0  0
  9 11  2  0  0  0
 10 12  1  0  0  0
 11 21  1  0  0  0
 12 13  1  0  0  0
 12 22  1  0  0  0
 12 23  1  0  0  0
 13 14  1  0  0  0
 13 15  2  0  0  0
 14 16  2  0  0  0
 14 24  1  0  0  0
 15 17  1  0  0  0
 15 25  1  0  0  0
 16 18  1  0  0  0
 16 26  1  0  0  0
 17 18  2  0  0  0
 17 27  1  0  0  0
 18 28  1  0  0  0
M  END
> <s_m_entry_id>
10424

> <s_m_entry_name>
dock_pv.460

> <s_m_Source_Path>
/home/csk/Desktop/cluster/DUD-E-result/aofb

> <s_m_Source_File>
dock_pv.maegz

> <i_m_Source_File_Index>
460

> <chembl_id>
CHEMBL145007

> <chembl_pref_name>
None

> <i_lp_mmshare_version>
53161

> <i_f3d_flags>
0

> <r_lp_tautomer_probability>
1

> <s_lp_Force_Field>
OPLS_2005

> <r_lp_Energy>
23.051204

> <b_lp_Chiralities_Consistent>
1

> <s_lp_Variant>
CHEMBL2039_lig1617-1

> <s_i_glide_gridfile>
glide-grid_1s3b

> <i_i_glide_lignum>
1878

> <i_i_glide_rotatable_bonds>
3

> <r_i_docking_score>
-6.99202232268032

> <r_i_glide_ligand_efficiency>
-0.388445684593351

> <r_i_glide_ligand_efficiency_sa>
-1.01801568403479

> <r_i_glide_ligand_efficiency_ln>
-1.79726328428352

> <r_i_glide_gscore>
-6.99202232268032

> <r_i_glide_lipo>
-3.78221883299867

> <r_i_glide_hbond>
0

> <r_i_glide_metal>
0

> <r_i_glide_rewards>
-2.27374543651421

> <r_i_glide_evdw>
-28.9842147827148

> <r_i_glide_ecoul>
-1.87371385097504

> <r_i_glide_erotb>
0.794209763614559

> <r_i_glide_esite>
0

> <r_i_glide_emodel>
-38.0891718226208

> <r_i_glide_energy>
-30.8579286336899

> <r_i_glide_einternal>
6.0675048828125

> <i_i_glide_confnum>
38

> <i_i_glide_posenum>
269

> <r_i_glide_eff_state_penalty>
0

> <s_user_duplicate_titles>
CHEMBL2039_lig1617

> <s_m_subgroup_title>
dock_pv

> <s_m_subgroupid>
dock_pv

> <b_m_subgroup_collapsed>
1

$$$$
CHEMBL2039_lig1408
                    3D
 Schrodinger Suite 2021-1.
 47 48  0  0  1  0            999 V2000
   51.4309  156.0557   28.4695 C   0  0  0  0  0  0
   51.0748  154.7903   28.9094 C   0  0  0  0  0  0
   51.2399  153.6853   28.0978 C   0  0  0  0  0  0
   51.6503  153.8634   26.7919 C   0  0  0  0  0  0
   52.0986  155.1127   26.3226 C   0  0  0  0  0  0
   52.0390  156.2026   27.2145 C   0  0  0  0  0  0
   52.7652  155.2268   24.9846 C   0  0  0  0  0  0
   52.6862  154.0481   24.0110 C   0  0  0  0  0  0
   53.5356  156.2763   24.6530 C   0  0  0  0  0  0
   53.2716  152.8237   24.5369 N   0  0  1  0  0  0
   53.2549  151.7520   23.5657 C   0  0  0  0  0  0
   54.6398  153.1586   24.9054 C   0  0  0  0  0  0
   53.2573  150.4099   24.1791 C   0  0  0  0  0  0
   51.0547  157.0754   29.3040 O   0  0  0  0  0  0
   51.4027  158.4284   29.0773 C   0  0  0  0  0  0
   50.5352  159.2766   29.9909 C   0  0  0  0  0  0
   49.1995  158.9318   30.2227 C   0  0  0  0  0  0
   48.4513  159.6164   31.1728 C   0  0  0  0  0  0
   49.0306  160.6746   31.8824 C   0  0  0  0  0  0
   50.3414  161.0439   31.5971 C   0  0  0  0  0  0
   51.0999  160.3551   30.6624 C   0  0  0  0  0  0
   53.2644  149.2559   24.5783 C   0  0  0  0  0  0
   48.3828  161.4025   32.8590 O   0  0  0  0  0  0
   47.2709  160.8013   33.5065 C   0  0  0  0  0  0
   50.6464  154.6647   29.8925 H   0  0  0  0  0  0
   50.9455  152.7070   28.4485 H   0  0  0  0  0  0
   51.6291  152.9729   26.1913 H   0  0  0  0  0  0
   52.3486  157.1870   26.9091 H   0  0  0  0  0  0
   53.2034  154.2440   23.0735 H   0  0  0  0  0  0
   51.6563  153.8975   23.7496 H   0  0  0  0  0  0
   53.6984  157.0443   25.3667 H   0  0  0  0  0  0
   54.0560  156.3682   23.7118 H   0  0  0  0  0  0
   54.0561  151.9003   22.9040 H   0  0  0  0  0  0
   52.4559  151.8099   22.8598 H   0  0  0  0  0  0
   54.6393  153.8661   25.7038 H   0  0  0  0  0  0
   55.1987  152.3097   25.3041 H   0  0  0  0  0  0
   55.1709  153.7106   24.1265 H   0  0  0  0  0  0
   52.4561  158.5681   29.3037 H   0  0  0  0  0  0
   51.2561  158.7579   28.0638 H   0  0  0  0  0  0
   48.7497  158.1012   29.7041 H   0  0  0  0  0  0
   47.4324  159.3100   31.3478 H   0  0  0  0  0  0
   50.7758  161.8873   32.1042 H   0  0  0  0  0  0
   52.1295  160.6364   30.4933 H   0  0  0  0  0  0
   53.2620  148.2404   24.9057 H   0  0  0  0  0  0
   46.9216  161.4438   34.3130 H   0  0  0  0  0  0
   46.4364  160.6431   32.8241 H   0  0  0  0  0  0
   47.5617  159.8458   33.9461 H   0  0  0  0  0  0
  1  2  2  0  0  0
  1  6  1  0  0  0
  1 14  1  0  0  0
  2  3  1  0  0  0
  2 25  1  0  0  0
  3  4  2  0  0  0
  3 26  1  0  0  0
  4  5  1  0  0  0
  4 27  1  0  0  0
  5  6  2  0  0  0
  5  7  1  0  0  0
  6 28  1  0  0  0
  7  8  1  0  0  0
  7  9  2  0  0  0
  8 10  1  0  0  0
  8 29  1  0  0  0
  8 30  1  0  0  0
  9 31  1  0  0  0
  9 32  1  0  0  0
 10 11  1  0  0  0
 10 12  1  0  0  0
 11 13  1  0  0  0
 11 33  1  0  0  0
 11 34  1  0  0  0
 12 35  1  0  0  0
 12 36  1  0  0  0
 12 37  1  0  0  0
 13 22  3  0  0  0
 14 15  1  0  0  0
 15 16  1  0  0  0
 15 38  1  0  0  0
 15 39  1  0  0  0
 16 17  2  0  0  0
 16 21  1  0  0  0
 17 18  1  0  0  0
 17 40  1  0  0  0
 18 19  2  0  0  0
 18 41  1  0  0  0
 19 20  1  0  0  0
 19 23  1  0  0  0
 20 21  2  0  0  0
 20 42  1  0  0  0
 21 43  1  0  0  0
 22 44  1  0  0  0
 23 24  1  0  0  0
 24 45  1  0  0  0
 24 46  1  0  0  0
 24 47  1  0  0  0
M  END
> <s_m_entry_id>
10425

> <s_m_entry_name>
dock_pv.461

> <s_m_Source_Path>
/home/csk/Desktop/cluster/DUD-E-result/aofb

> <s_m_Source_File>
dock_pv.maegz

> <i_m_Source_File_Index>
461

> <chembl_id>
CHEMBL3415781

> <chembl_pref_name>
None

> <i_lp_mmshare_version>
53161

> <i_f3d_flags>
0

> <r_lp_tautomer_probability>
1

> <s_lp_Force_Field>
OPLS_2005

> <r_lp_Energy>
26.385613

> <b_lp_Chiralities_Consistent>
1

> <s_lp_Variant>
CHEMBL2039_lig1408-1

> <s_i_glide_gridfile>
glide-grid_1s3b

> <i_i_glide_lignum>
1629

> <i_i_glide_rotatable_bonds>
9

> <r_i_docking_score>
-6.99188726195765

> <r_i_glide_ligand_efficiency>
-0.291328635914902

> <r_i_glide_ligand_efficiency_sa>
-0.840337199042809

> <r_i_glide_ligand_efficiency_ln>
-1.67347945858691

> <r_i_glide_gscore>
-6.99188726195765

> <r_i_glide_lipo>
-4.96450635368709

> <r_i_glide_hbond>
0

> <r_i_glide_metal>
0

> <r_i_glide_rewards>
-2.07553049319697

> <r_i_glide_evdw>
-19.4819507598877

> <r_i_glide_ecoul>
-2.83205461502075

> <r_i_glide_erotb>
1.44705531517391

> <r_i_glide_esite>
0

> <r_i_glide_emodel>
-26.7787548131861

> <r_i_glide_energy>
-22.3140053749084

> <r_i_glide_einternal>
8.40539455413818

> <i_i_glide_confnum>
81

> <i_i_glide_posenum>
253

> <r_i_glide_eff_state_penalty>
0

> <s_user_duplicate_titles>
CHEMBL2039_lig1408

> <s_m_subgroup_title>
dock_pv

> <s_m_subgroupid>
dock_pv

> <b_m_subgroup_collapsed>
1

$$$$
CHEMBL2039_lig748
                    3D
 Schrodinger Suite 2021-1.
 30 32  0  0  1  0            999 V2000
   52.6490  154.0758   25.0796 C   0  0  0  0  0  0
   52.9623  152.8014   24.6132 C   0  0  0  0  0  0
   52.5071  151.6846   25.3068 C   0  0  0  0  0  0
   51.6605  151.8454   26.4024 C   0  0  0  0  0  0
   51.4544  153.1050   26.9319 C   0  0  0  0  0  0
   51.9593  154.2384   26.2942 C   0  0  0  0  0  0
   51.9790  155.5537   27.0029 C   0  0  0  0  0  0
   52.8595  156.5552   26.6567 C   0  0  0  0  0  0
   53.1879  157.4441   28.0867 S   0  0  0  0  0  0
   51.6536  156.9629   28.6329 C   0  0  0  0  0  0
   51.2558  155.8440   28.0837 N   0  0  0  0  0  0
   50.9068  157.7978   29.4534 N   0  0  0  0  0  0
   51.2495  159.1467   29.7036 N   0  0  0  0  0  0
   50.4817  159.9570   30.3192 C   0  0  0  0  0  0
   49.1365  159.7321   30.8437 C   0  0  0  0  0  0
   48.3193  160.5155   31.6516 C   0  0  0  0  0  0
   47.1087  159.8444   31.8035 C   0  0  0  0  0  0
   47.2386  158.6706   31.0902 C   0  0  0  0  0  0
   48.4614  158.5991   30.5103 O   0  0  0  0  0  0
   52.8616  150.4442   24.9037 F   0  0  0  0  0  0
   50.8554  153.1910   28.1281 F   0  0  0  0  0  0
   53.0522  154.9226   24.5475 H   0  0  0  0  0  0
   53.5774  152.6763   23.7340 H   0  0  0  0  0  0
   51.2546  150.9809   26.9091 H   0  0  0  0  0  0
   53.5709  156.5862   25.8472 H   0  0  0  0  0  0
   49.9687  157.5593   29.7465 H   0  0  0  0  0  0
   50.8146  160.9697   30.5261 H   0  0  0  0  0  0
   48.5741  161.4744   32.0796 H   0  0  0  0  0  0
   46.2444  160.1735   32.3611 H   0  0  0  0  0  0
   46.5739  157.8443   30.9061 H   0  0  0  0  0  0
  1  6  1  0  0  0
  1  2  2  0  0  0
  1 22  1  0  0  0
  2  3  1  0  0  0
  2 23  1  0  0  0
  3  4  2  0  0  0
  3 20  1  0  0  0
  4  5  1  0  0  0
  4 24  1  0  0  0
  5  6  2  0  0  0
  5 21  1  0  0  0
  6  7  1  0  0  0
  7 11  1  0  0  0
  7  8  2  0  0  0
  8  9  1  0  0  0
  8 25  1  0  0  0
  9 10  1  0  0  0
 10 11  2  0  0  0
 10 12  1  0  0  0
 12 13  1  0  0  0
 12 26  1  0  0  0
 13 14  2  0  0  0
 14 15  1  0  0  0
 14 27  1  0  0  0
 15 16  2  0  0  0
 15 19  1  0  0  0
 16 17  1  0  0  0
 16 28  1  0  0  0
 17 18  2  0  0  0
 17 29  1  0  0  0
 18 19  1  0  0  0
 18 30  1  0  0  0
M  END
> <s_m_entry_id>
10426

> <s_m_entry_name>
dock_pv.462

> <s_m_Source_Path>
/home/csk/Desktop/cluster/DUD-E-result/aofb

> <s_m_Source_File>
dock_pv.maegz

> <i_m_Source_File_Index>
462

> <chembl_id>
CHEMBL2151675

> <chembl_pref_name>
None

> <i_lp_mmshare_version>
53161

> <i_f3d_flags>
0

> <r_lp_tautomer_probability>
1

> <s_lp_Force_Field>
OPLS_2005

> <r_lp_Energy>
15.757619

> <b_lp_Chiralities_Consistent>
1

> <s_lp_Variant>
CHEMBL2039_lig748-1

> <s_i_glide_gridfile>
glide-grid_1s3b

> <i_i_glide_lignum>
878

> <i_i_glide_rotatable_bonds>
4

> <r_i_docking_score>
-6.98976368029508

> <r_i_glide_ligand_efficiency>
-0.332845889537861

> <r_i_glide_ligand_efficiency_sa>
-0.91829657072316

> <r_i_glide_ligand_efficiency_ln>
-1.72820494580554

> <r_i_glide_gscore>
-6.98976368029508

> <r_i_glide_lipo>
-3.37698943324693

> <r_i_glide_hbond>
0

> <r_i_glide_metal>
0

> <r_i_glide_rewards>
-3.52737155195596

> <r_i_glide_evdw>
-18.3102264404297

> <r_i_glide_ecoul>
1.57416152954102

> <r_i_glide_erotb>
0.593984397498143

> <r_i_glide_esite>
0

> <r_i_glide_emodel>
-34.2186244933639

> <r_i_glide_energy>
-16.7360649108887

> <r_i_glide_einternal>
4.32897281646729

> <i_i_glide_confnum>
5

> <i_i_glide_posenum>
283

> <r_i_glide_eff_state_penalty>
0

> <s_user_duplicate_titles>
CHEMBL2039_lig748

> <s_m_subgroup_title>
dock_pv

> <s_m_subgroupid>
dock_pv

> <b_m_subgroup_collapsed>
1

$$$$
CHEMBL2039_lig1485
                    3D
 Schrodinger Suite 2021-1.
 36 37  0  0  1  0            999 V2000
   51.6560  155.1658   27.6454 C   0  0  0  0  0  0
   51.2561  154.1393   28.5040 C   0  0  0  0  0  0
   51.2560  152.8208   28.0738 C   0  0  0  0  0  0
   51.6560  152.5096   26.7834 C   0  0  0  0  0  0
   52.0621  153.5018   25.9062 C   0  0  0  0  0  0
   52.0559  154.8426   26.3379 C   0  0  0  0  0  0
   51.6560  156.5642   28.1056 C   0  0  0  0  0  0
   50.8561  157.0443   29.0850 C   0  0  0  0  0  0
   50.8764  158.4409   29.5125 C   0  0  0  0  0  0
   49.7366  159.0031   30.2985 C   0  0  0  0  0  0
   51.8753  159.1211   29.3040 O   0  0  0  0  0  0
   49.9229  160.2488   30.9042 C   0  0  0  0  0  0
   48.9674  160.7514   31.7648 C   0  0  0  0  0  0
   47.7990  160.0257   32.0200 C   0  0  0  0  0  0
   47.5680  158.8304   31.3519 C   0  0  0  0  0  0
   48.5341  158.3106   30.5040 C   0  0  0  0  0  0
   46.8560  160.4065   32.9400 O   0  0  0  0  0  0
   47.2113  161.4439   33.8399 C   0  0  0  0  0  0
   52.4816  153.0440   24.6786 O   0  0  0  0  0  0
   52.8876  153.9775   23.7041 C   0  0  0  0  0  0
   50.9590  154.3435   29.5219 H   0  0  0  0  0  0
   50.9372  152.0312   28.7378 H   0  0  0  0  0  0
   51.6560  151.4777   26.4634 H   0  0  0  0  0  0
   52.3760  155.6321   25.6759 H   0  0  0  0  0  0
   52.3623  157.2220   27.6139 H   0  0  0  0  0  0
   50.1563  156.3926   29.5800 H   0  0  0  0  0  0
   50.8315  160.8198   30.7654 H   0  0  0  0  0  0
   49.1721  161.6959   32.2445 H   0  0  0  0  0  0
   46.6603  158.2779   31.5371 H   0  0  0  0  0  0
   48.3350  157.3501   30.0580 H   0  0  0  0  0  0
   46.5451  161.4440   34.6983 H   0  0  0  0  0  0
   48.2188  161.3366   34.2467 H   0  0  0  0  0  0
   47.1230  162.3879   33.3040 H   0  0  0  0  0  0
   53.1587  153.4439   22.7928 H   0  0  0  0  0  0
   52.0560  154.6440   23.4778 H   0  0  0  0  0  0
   53.7521  154.5576   24.0310 H   0  0  0  0  0  0
  1  2  2  0  0  0
  1  6  1  0  0  0
  1  7  1  0  0  0
  2  3  1  0  0  0
  2 21  1  0  0  0
  3  4  2  0  0  0
  3 22  1  0  0  0
  4  5  1  0  0  0
  4 23  1  0  0  0
  5  6  2  0  0  0
  5 19  1  0  0  0
  6 24  1  0  0  0
  7  8  2  0  0  0
  7 25  1  0  0  0
  8  9  1  0  0  0
  8 26  1  0  0  0
  9 10  1  0  0  0
  9 11  2  0  0  0
 10 12  2  0  0  0
 10 16  1  0  0  0
 12 13  1  0  0  0
 12 27  1  0  0  0
 13 14  2  0  0  0
 13 28  1  0  0  0
 14 15  1  0  0  0
 14 17  1  0  0  0
 15 16  2  0  0  0
 15 29  1  0  0  0
 16 30  1  0  0  0
 17 18  1  0  0  0
 18 31  1  0  0  0
 18 32  1  0  0  0
 18 33  1  0  0  0
 19 20  1  0  0  0
 20 34  1  0  0  0
 20 35  1  0  0  0
 20 36  1  0  0  0
M  END
> <s_m_entry_id>
10427

> <s_m_entry_name>
dock_pv.463

> <s_m_Source_Path>
/home/csk/Desktop/cluster/DUD-E-result/aofb

> <s_m_Source_File>
dock_pv.maegz

> <i_m_Source_File_Index>
463

> <chembl_id>
CHEMBL3613068

> <chembl_pref_name>
None

> <i_lp_mmshare_version>
53161

> <i_f3d_flags>
0

> <r_lp_tautomer_probability>
1

> <s_lp_Force_Field>
OPLS_2005

> <r_lp_Energy>
22.700762

> <b_lp_Chiralities_Consistent>
1

> <s_lp_Variant>
CHEMBL2039_lig1485-1

> <s_i_glide_gridfile>
glide-grid_1s3b

> <i_i_glide_lignum>
1709

> <i_i_glide_rotatable_bonds>
5

> <r_i_docking_score>
-6.98562658595925

> <r_i_glide_ligand_efficiency>
-0.349281329297963

> <r_i_glide_ligand_efficiency_sa>
-0.94809539244733

> <r_i_glide_ligand_efficiency_ln>
-1.74827193308072

> <r_i_glide_gscore>
-6.98562658595925

> <r_i_glide_lipo>
-4.14072665312628

> <r_i_glide_hbond>
0

> <r_i_glide_metal>
0

> <r_i_glide_rewards>
-2.54011645500056

> <r_i_glide_evdw>
-27.3552093505859

> <r_i_glide_ecoul>
2.12797451019287

> <r_i_glide_erotb>
0.74378081316795

> <r_i_glide_esite>
0

> <r_i_glide_emodel>
-33.3412158489127

> <r_i_glide_energy>
-25.2272348403931

> <r_i_glide_einternal>
4.87961912155151

> <i_i_glide_confnum>
11

> <i_i_glide_posenum>
227

> <r_i_glide_eff_state_penalty>
0

> <s_user_duplicate_titles>
CHEMBL2039_lig1485

> <s_m_subgroup_title>
dock_pv

> <s_m_subgroupid>
dock_pv

> <b_m_subgroup_collapsed>
1

$$$$
CHEMBL2039_lig605
                    3D
 Schrodinger Suite 2021-1.
 30 31  0  0  1  0            999 V2000
   51.6560  156.4275   28.5040 C   0  0  0  0  0  0
   50.5868  156.9384   29.3319 C   0  0  0  0  0  0
   50.5315  158.2404   29.7042 C   0  0  0  0  0  0
   51.3089  155.2990   27.8451 N   0  0  0  0  0  0
   49.4438  158.9004   30.4664 C   0  0  0  0  0  0
   48.1411  158.3858   30.5035 C   0  0  0  0  0  0
   47.1495  159.0302   31.2382 C   0  0  0  0  0  0
   47.4615  160.1742   31.9655 C   0  0  0  0  0  0
   48.7536  160.6921   31.9449 C   0  0  0  0  0  0
   49.7358  160.0669   31.1829 C   0  0  0  0  0  0
   51.9573  154.7720   26.7123 C   0  0  0  0  0  0
   52.5882  155.6007   25.7714 C   0  0  0  0  0  0
   53.3245  155.0436   24.7331 C   0  0  0  0  0  0
   53.3665  153.6638   24.5580 C   0  0  0  0  0  0
   52.6993  152.8364   25.4588 C   0  0  0  0  0  0
   51.9748  153.3855   26.5222 C   0  0  0  0  0  0
   52.7065  157.0441   28.3231 O   0  0  0  0  0  0
   52.8564  151.1299   25.3010 Cl  0  0  0  0  0  0
   49.8087  156.2419   29.6139 H   0  0  0  0  0  0
   51.3350  158.9014   29.3997 H   0  0  0  0  0  0
   50.5515  154.7514   28.2219 H   0  0  0  0  0  0
   47.8832  157.4953   29.9524 H   0  0  0  0  0  0
   46.1422  158.6440   31.2490 H   0  0  0  0  0  0
   46.6915  160.6585   32.5475 H   0  0  0  0  0  0
   48.9941  161.5801   32.5121 H   0  0  0  0  0  0
   50.7350  160.4781   31.1767 H   0  0  0  0  0  0
   52.5781  156.6748   25.8785 H   0  0  0  0  0  0
   53.8988  155.6978   24.1037 H   0  0  0  0  0  0
   53.9571  153.2354   23.7607 H   0  0  0  0  0  0
   51.4881  152.7300   27.2302 H   0  0  0  0  0  0
  1  2  1  0  0  0
  1  4  1  0  0  0
  1 17  2  0  0  0
  2  3  2  0  0  0
  2 19  1  0  0  0
  3  5  1  0  0  0
  3 20  1  0  0  0
  4 11  1  0  0  0
  4 21  1  0  0  0
  5  6  1  0  0  0
  5 10  2  0  0  0
  6  7  2  0  0  0
  6 22  1  0  0  0
  7  8  1  0  0  0
  7 23  1  0  0  0
  8  9  2  0  0  0
  8 24  1  0  0  0
  9 10  1  0  0  0
  9 25  1  0  0  0
 10 26  1  0  0  0
 11 12  1  0  0  0
 11 16  2  0  0  0
 12 13  2  0  0  0
 12 27  1  0  0  0
 13 14  1  0  0  0
 13 28  1  0  0  0
 14 15  2  0  0  0
 14 29  1  0  0  0
 15 16  1  0  0  0
 15 18  1  0  0  0
 16 30  1  0  0  0
M  END
> <s_m_entry_id>
10428

> <s_m_entry_name>
dock_pv.464

> <s_m_Source_Path>
/home/csk/Desktop/cluster/DUD-E-result/aofb

> <s_m_Source_File>
dock_pv.maegz

> <i_m_Source_File_Index>
464

> <chembl_id>
CHEMBL1830131

> <chembl_pref_name>
N-(3-CHLOROPHENYL)CINNAMAMIDE

> <i_lp_mmshare_version>
53161

> <i_f3d_flags>
0

> <r_lp_tautomer_probability>
1

> <s_lp_Force_Field>
OPLS_2005

> <r_lp_Energy>
17.587089

> <b_lp_Chiralities_Consistent>
1

> <s_lp_Variant>
CHEMBL2039_lig605-1

> <s_i_glide_gridfile>
glide-grid_1s3b

> <i_i_glide_lignum>
714

> <i_i_glide_rotatable_bonds>
4

> <r_i_docking_score>
-6.98403508223551

> <r_i_glide_ligand_efficiency>
-0.388001949013084

> <r_i_glide_ligand_efficiency_sa>
-1.01685276783262

> <r_i_glide_ligand_efficiency_ln>
-1.7952102053127

> <r_i_glide_gscore>
-6.98403508223551

> <r_i_glide_lipo>
-3.51292824046036

> <r_i_glide_hbond>
0

> <r_i_glide_metal>
0

> <r_i_glide_rewards>
-2.7754417959116

> <r_i_glide_evdw>
-31.8667678833008

> <r_i_glide_ecoul>
2.44101548194885

> <r_i_glide_erotb>
0.531521026009168

> <r_i_glide_esite>
0

> <r_i_glide_emodel>
-37.0198945856476

> <r_i_glide_energy>
-29.4257524013519

> <r_i_glide_einternal>
5.50204706192017

> <i_i_glide_confnum>
5

> <i_i_glide_posenum>
57

> <r_i_glide_eff_state_penalty>
0

> <s_user_duplicate_titles>
CHEMBL2039_lig605

> <s_m_subgroup_title>
dock_pv

> <s_m_subgroupid>
dock_pv

> <b_m_subgroup_collapsed>
1

$$$$
CHEMBL2039_lig1467
                    3D
 Schrodinger Suite 2021-1.
 32 33  0  0  1  0            999 V2000
   51.7299  155.0077   27.6333 C   0  0  0  0  0  0
   51.3088  153.9927   28.5020 C   0  0  0  0  0  0
   51.2560  152.6677   28.0919 C   0  0  0  0  0  0
   51.5413  152.3227   26.7803 C   0  0  0  0  0  0
   51.9508  153.2989   25.8953 C   0  0  0  0  0  0
   52.0860  154.6276   26.3096 C   0  0  0  0  0  0
   51.7801  156.3975   28.1813 C   0  0  0  0  0  0
   50.8561  156.8557   29.0509 C   0  0  0  0  0  0
   50.7553  158.1985   29.6176 C   0  0  0  0  0  0
   49.4896  158.3405   30.1040 O   0  0  0  0  0  0
   51.6508  159.0432   29.6025 O   0  0  0  0  0  0
   48.9983  159.3494   30.9040 C   0  0  0  0  0  0
   49.7727  160.2688   31.6233 C   0  0  0  0  0  0
   49.1591  161.1526   32.5041 C   0  0  0  0  0  0
   47.7759  161.1363   32.6579 C   0  0  0  0  0  0
   46.9956  160.2413   31.9332 C   0  0  0  0  0  0
   47.6097  159.3517   31.0594 C   0  0  0  0  0  0
   52.8438  155.5052   25.3196 C   0  0  0  0  0  0
   52.0560  155.7621   24.3068 F   0  0  0  0  0  0
   53.2557  156.6444   25.8225 F   0  0  0  0  0  0
   53.9178  154.8796   24.8327 F   0  0  0  0  0  0
   51.0624  154.2080   29.5316 H   0  0  0  0  0  0
   50.9356  151.9013   28.7823 H   0  0  0  0  0  0
   51.4677  151.2923   26.4634 H   0  0  0  0  0  0
   52.2291  153.0043   24.8925 H   0  0  0  0  0  0
   52.5871  157.0535   27.8934 H   0  0  0  0  0  0
   50.0595  156.1874   29.3477 H   0  0  0  0  0  0
   50.8494  160.2814   31.5512 H   0  0  0  0  0  0
   49.7611  161.8441   33.0729 H   0  0  0  0  0  0
   47.3040  161.8306   33.3378 H   0  0  0  0  0  0
   45.9223  160.2306   32.0540 H   0  0  0  0  0  0
   47.0039  158.6421   30.5151 H   0  0  0  0  0  0
  1  2  2  0  0  0
  1  6  1  0  0  0
  1  7  1  0  0  0
  2  3  1  0  0  0
  2 22  1  0  0  0
  3  4  2  0  0  0
  3 23  1  0  0  0
  4  5  1  0  0  0
  4 24  1  0  0  0
  5  6  2  0  0  0
  5 25  1  0  0  0
  6 18  1  0  0  0
  7  8  2  0  0  0
  7 26  1  0  0  0
  8  9  1  0  0  0
  8 27  1  0  0  0
  9 10  1  0  0  0
  9 11  2  0  0  0
 10 12  1  0  0  0
 12 13  2  0  0  0
 12 17  1  0  0  0
 13 14  1  0  0  0
 13 28  1  0  0  0
 14 15  2  0  0  0
 14 29  1  0  0  0
 15 16  1  0  0  0
 15 30  1  0  0  0
 16 17  2  0  0  0
 16 31  1  0  0  0
 17 32  1  0  0  0
 18 19  1  0  0  0
 18 20  1  0  0  0
 18 21  1  0  0  0
M  END
> <s_m_entry_id>
10429

> <s_m_entry_name>
dock_pv.465

> <s_m_Source_Path>
/home/csk/Desktop/cluster/DUD-E-result/aofb

> <s_m_Source_File>
dock_pv.maegz

> <i_m_Source_File_Index>
465

> <chembl_id>
CHEMBL3613274

> <chembl_pref_name>
None

> <i_lp_mmshare_version>
53161

> <i_f3d_flags>
0

> <r_lp_tautomer_probability>
1

> <s_lp_Force_Field>
OPLS_2005

> <r_lp_Energy>
20.492263

> <b_lp_Chiralities_Consistent>
1

> <s_lp_Variant>
CHEMBL2039_lig1467-1

> <s_i_glide_gridfile>
glide-grid_1s3b

> <i_i_glide_lignum>
1691

> <i_i_glide_rotatable_bonds>
5

> <r_i_docking_score>
-6.98396399446505

> <r_i_glide_ligand_efficiency>
-0.332569714022145

> <r_i_glide_ligand_efficiency_sa>
-0.9175346234167

> <r_i_glide_ligand_efficiency_ln>
-1.72677098520343

> <r_i_glide_gscore>
-6.98396399446505

> <r_i_glide_lipo>
-3.78110265266611

> <r_i_glide_hbond>
0

> <r_i_glide_metal>
0

> <r_i_glide_rewards>
-2.6278825478706

> <r_i_glide_evdw>
-21.8979206085205

> <r_i_glide_ecoul>
-0.722701787948608

> <r_i_glide_erotb>
0.641155329889627

> <r_i_glide_esite>
-0.012832825199642

> <r_i_glide_emodel>
-23.4762746746759

> <r_i_glide_energy>
-22.6206223964691

> <r_i_glide_einternal>
6.94208192825317

> <i_i_glide_confnum>
8

> <i_i_glide_posenum>
156

> <r_i_glide_eff_state_penalty>
0

> <s_user_duplicate_titles>
CHEMBL2039_lig1467

> <s_m_subgroup_title>
dock_pv

> <s_m_subgroupid>
dock_pv

> <b_m_subgroup_collapsed>
1

$$$$
CHEMBL2039_lig2130
                    3D
 Schrodinger Suite 2021-1.
 30 31  0  0  1  0            999 V2000
   53.0175  154.1114   24.9444 C   0  0  0  0  0  0
   52.0560  153.8362   26.1234 C   0  0  0  0  0  0
   53.2560  152.8885   24.1989 N   0  0  0  0  0  0
   51.2560  157.1010   28.9040 C   0  0  0  0  0  0
   52.2521  157.2258   27.9291 C   0  0  0  0  0  0
   52.4569  156.2238   26.9872 C   0  0  0  0  0  0
   51.8158  154.9894   27.1045 C   0  0  0  0  0  0
   50.9430  154.7890   28.1698 C   0  0  0  0  0  0
   50.6307  155.8440   29.0239 C   0  0  0  0  0  0
   50.7891  158.3104   29.6842 C   0  0  0  0  0  0
   49.4859  158.3794   30.2096 C   0  0  0  0  0  0
   49.0346  159.4977   30.9089 C   0  0  0  0  0  0
   49.8782  160.5876   31.0955 C   0  0  0  0  0  0
   51.1650  160.5642   30.5658 C   0  0  0  0  0  0
   51.6045  159.4440   29.8594 C   0  0  0  0  0  0
   47.7811  159.5173   31.4156 F   0  0  0  0  0  0
   53.9807  154.4730   25.3040 H   0  0  0  0  0  0
   52.6129  154.8763   24.2803 H   0  0  0  0  0  0
   51.0888  153.5168   25.7314 H   0  0  0  0  0  0
   52.4447  152.9997   26.7067 H   0  0  0  0  0  0
   52.5334  152.7452   23.5060 H   0  0  0  0  0  0
   54.1403  152.9308   23.7040 H   0  0  0  0  0  0
   52.7794  158.1555   27.7895 H   0  0  0  0  0  0
   53.1644  156.4077   26.1938 H   0  0  0  0  0  0
   50.4560  153.8345   28.2951 H   0  0  0  0  0  0
   49.8682  155.6704   29.7636 H   0  0  0  0  0  0
   48.7991  157.5550   30.1040 H   0  0  0  0  0  0
   49.5355  161.4440   31.6556 H   0  0  0  0  0  0
   51.8259  161.4055   30.7154 H   0  0  0  0  0  0
   52.6163  159.4440   29.4876 H   0  0  0  0  0  0
  1  2  1  0  0  0
  1  3  1  0  0  0
  1 17  1  0  0  0
  1 18  1  0  0  0
  2  7  1  0  0  0
  2 19  1  0  0  0
  2 20  1  0  0  0
  3 21  1  0  0  0
  3 22  1  0  0  0
  4  5  1  0  0  0
  4  9  2  0  0  0
  4 10  1  0  0  0
  5  6  2  0  0  0
  5 23  1  0  0  0
  6  7  1  0  0  0
  6 24  1  0  0  0
  7  8  2  0  0  0
  8  9  1  0  0  0
  8 25  1  0  0  0
  9 26  1  0  0  0
 10 11  1  0  0  0
 10 15  2  0  0  0
 11 12  2  0  0  0
 11 27  1  0  0  0
 12 13  1  0  0  0
 12 16  1  0  0  0
 13 14  2  0  0  0
 13 28  1  0  0  0
 14 15  1  0  0  0
 14 29  1  0  0  0
 15 30  1  0  0  0
M  END
> <s_m_entry_id>
10430

> <s_m_entry_name>
dock_pv.466

> <s_m_Source_Path>
/home/csk/Desktop/cluster/DUD-E-result/aofb

> <s_m_Source_File>
dock_pv.maegz

> <i_m_Source_File_Index>
466

> <chembl_id>
CHEMBL4211517

> <chembl_pref_name>
None

> <i_lp_mmshare_version>
53161

> <i_f3d_flags>
0

> <r_lp_tautomer_probability>
1

> <s_lp_Force_Field>
OPLS_2005

> <r_lp_Energy>
13.147888

> <b_lp_Chiralities_Consistent>
1

> <s_lp_Variant>
CHEMBL2039_lig2130-1

> <s_i_glide_gridfile>
glide-grid_1s3b

> <i_i_glide_lignum>
2489

> <i_i_glide_rotatable_bonds>
3

> <r_i_docking_score>
-6.98238773270067

> <r_i_glide_ligand_efficiency>
-0.436399233293792

> <r_i_glide_ligand_efficiency_sa>
-1.09965715935336

> <r_i_glide_ligand_efficiency_ln>
-1.85082134491332

> <r_i_glide_gscore>
-6.98238773270067

> <r_i_glide_lipo>
-3.12858312429329

> <r_i_glide_hbond>
-0.254468985417696

> <r_i_glide_metal>
0

> <r_i_glide_rewards>
-3.22047108078344

> <r_i_glide_evdw>
-16.043493270874

> <r_i_glide_ecoul>
-1.99133336544037

> <r_i_glide_erotb>
0.722010126153511

> <r_i_glide_esite>
0

> <r_i_glide_emodel>
-20.6345761461412

> <r_i_glide_energy>
-18.0348266363144

> <r_i_glide_einternal>
1.38343691825867

> <i_i_glide_confnum>
10

> <i_i_glide_posenum>
75

> <r_i_glide_eff_state_penalty>
0

> <s_user_duplicate_titles>
CHEMBL2039_lig2130

> <s_m_subgroup_title>
dock_pv

> <s_m_subgroupid>
dock_pv

> <b_m_subgroup_collapsed>
1

$$$$
CHEMBL2039_lig2127
                    3D
 Schrodinger Suite 2021-1.
 30 31  0  0  1  0            999 V2000
   53.0257  154.1401   24.9328 C   0  0  0  0  0  0
   52.0560  153.8579   26.1033 C   0  0  0  0  0  0
   53.2560  152.9267   24.1695 N   0  0  0  0  0  0
   51.2560  157.1029   28.9040 C   0  0  0  0  0  0
   50.6336  155.8440   29.0179 C   0  0  0  0  0  0
   50.9455  154.7946   28.1575 C   0  0  0  0  0  0
   51.8172  155.0031   27.0931 C   0  0  0  0  0  0
   52.4566  156.2392   26.9829 C   0  0  0  0  0  0
   52.2520  157.2356   27.9306 C   0  0  0  0  0  0
   50.7821  158.3076   29.6884 C   0  0  0  0  0  0
   49.4769  158.3702   30.2108 C   0  0  0  0  0  0
   49.0150  159.4890   30.9041 C   0  0  0  0  0  0
   49.8538  160.5837   31.0919 C   0  0  0  0  0  0
   51.1437  160.5633   30.5696 C   0  0  0  0  0  0
   51.5919  159.4440   29.8675 C   0  0  0  0  0  0
   47.4085  159.5099   31.5367 Cl  0  0  0  0  0  0
   53.9901  154.4869   25.3040 H   0  0  0  0  0  0
   52.6321  154.9187   24.2783 H   0  0  0  0  0  0
   51.0890  153.5474   25.7040 H   0  0  0  0  0  0
   52.4381  153.0138   26.6800 H   0  0  0  0  0  0
   52.5311  152.7973   23.4762 H   0  0  0  0  0  0
   54.1394  152.9711   23.6735 H   0  0  0  0  0  0
   49.8713  155.6651   29.7565 H   0  0  0  0  0  0
   50.4560  153.8401   28.2759 H   0  0  0  0  0  0
   53.1633  156.4288   26.1900 H   0  0  0  0  0  0
   52.7775  158.1671   27.7968 H   0  0  0  0  0  0
   48.7983  157.5388   30.1040 H   0  0  0  0  0  0
   49.5087  161.4440   31.6455 H   0  0  0  0  0  0
   51.8003  161.4077   30.7208 H   0  0  0  0  0  0
   52.6054  159.4462   29.5005 H   0  0  0  0  0  0
  1  2  1  0  0  0
  1  3  1  0  0  0
  1 17  1  0  0  0
  1 18  1  0  0  0
  2  7  1  0  0  0
  2 19  1  0  0  0
  2 20  1  0  0  0
  3 21  1  0  0  0
  3 22  1  0  0  0
  4  5  1  0  0  0
  4  9  2  0  0  0
  4 10  1  0  0  0
  5  6  2  0  0  0
  5 23  1  0  0  0
  6  7  1  0  0  0
  6 24  1  0  0  0
  7  8  2  0  0  0
  8  9  1  0  0  0
  8 25  1  0  0  0
  9 26  1  0  0  0
 10 11  1  0  0  0
 10 15  2  0  0  0
 11 12  2  0  0  0
 11 27  1  0  0  0
 12 13  1  0  0  0
 12 16  1  0  0  0
 13 14  2  0  0  0
 13 28  1  0  0  0
 14 15  1  0  0  0
 14 29  1  0  0  0
 15 30  1  0  0  0
M  END
> <s_m_entry_id>
10431

> <s_m_entry_name>
dock_pv.467

> <s_m_Source_Path>
/home/csk/Desktop/cluster/DUD-E-result/aofb

> <s_m_Source_File>
dock_pv.maegz

> <i_m_Source_File_Index>
467

> <chembl_id>
CHEMBL4209564

> <chembl_pref_name>
None

> <i_lp_mmshare_version>
53161

> <i_f3d_flags>
0

> <r_lp_tautomer_probability>
1

> <s_lp_Force_Field>
OPLS_2005

> <r_lp_Energy>
13.287544

> <b_lp_Chiralities_Consistent>
1

> <s_lp_Variant>
CHEMBL2039_lig2127-1

> <s_i_glide_gridfile>
glide-grid_1s3b

> <i_i_glide_lignum>
2486

> <i_i_glide_rotatable_bonds>
3

> <r_i_docking_score>
-6.98177513986037

> <r_i_glide_ligand_efficiency>
-0.436360946241273

> <r_i_glide_ligand_efficiency_sa>
-1.09956068202664

> <r_i_glide_ligand_efficiency_ln>
-1.85065896494418

> <r_i_glide_gscore>
-6.98177513986037

> <r_i_glide_lipo>
-3.46554956591144

> <r_i_glide_hbond>
-0.236297089808179

> <r_i_glide_metal>
0

> <r_i_glide_rewards>
-2.65859743830952

> <r_i_glide_evdw>
-19.201831817627

> <r_i_glide_ecoul>
-1.99139642715454

> <r_i_glide_erotb>
0.637470009123296

> <r_i_glide_esite>
0

> <r_i_glide_emodel>
-25.0347032098077

> <r_i_glide_energy>
-21.1932282447815

> <r_i_glide_einternal>
1.42540860176086

> <i_i_glide_confnum>
3

> <i_i_glide_posenum>
76

> <r_i_glide_eff_state_penalty>
0

> <s_user_duplicate_titles>
CHEMBL2039_lig2127

> <s_m_subgroup_title>
dock_pv

> <s_m_subgroupid>
dock_pv

> <b_m_subgroup_collapsed>
1

$$$$
CHEMBL2039_lig2088
                    3D
 Schrodinger Suite 2021-1.
 38 39  0  0  1  0            999 V2000
   51.2560  154.2844   28.1995 S   0  0  0  0  0  0
   50.6275  155.5188   29.2351 C   0  0  0  0  0  0
   51.1794  156.7728   28.9040 C   0  0  0  0  0  0
   52.0560  156.7233   27.9123 N   0  0  0  0  0  0
   52.0312  155.5432   27.3401 C   0  0  0  0  0  0
   50.7848  158.0783   29.5759 C   0  0  0  0  0  0
   49.4944  158.2428   30.1040 C   0  0  0  0  0  0
   49.0833  159.4256   30.7404 C   0  0  0  0  0  0
   50.0067  160.4712   30.8577 C   0  0  0  0  0  0
   51.2886  160.3374   30.3357 C   0  0  0  0  0  0
   51.6560  159.1589   29.6890 C   0  0  0  0  0  0
   47.7119  159.5574   31.2895 N   0  3  0  0  0  0
   46.9142  158.6441   31.0962 O   0  0  0  0  0  0
   47.4248  160.5751   31.9140 O   0  5  0  0  0  0
   52.4560  155.2104   26.0881 N   0  0  0  0  0  0
   53.1427  156.0888   25.2804 N   0  0  0  0  0  0
   54.0381  155.6389   24.5040 C   0  0  0  0  0  0
   54.8560  156.6440   23.7425 C   0  0  0  0  0  0
   54.4205  154.1858   24.1723 C   0  0  0  0  0  0
   53.2560  153.1696   24.0550 C   0  0  0  0  0  0
   53.2535  152.1131   25.1433 C   0  0  0  0  0  0
   53.2560  150.7937   24.9040 C   0  0  0  0  0  0
   49.9190  155.2619   30.0072 H   0  0  0  0  0  0
   48.8002  157.4166   30.0590 H   0  0  0  0  0  0
   49.7402  161.3915   31.3585 H   0  0  0  0  0  0
   52.0000  161.1439   30.4375 H   0  0  0  0  0  0
   52.6602  159.0606   29.3035 H   0  0  0  0  0  0
   52.7846  154.2638   25.9552 H   0  0  0  0  0  0
   55.8843  156.6232   24.1025 H   0  0  0  0  0  0
   54.8560  156.4387   22.6729 H   0  0  0  0  0  0
   54.4560  157.6505   23.8646 H   0  0  0  0  0  0
   55.1983  153.8440   24.8575 H   0  0  0  0  0  0
   54.8915  154.1805   23.1903 H   0  0  0  0  0  0
   53.3338  152.6593   23.0919 H   0  0  0  0  0  0
   52.2793  153.6535   24.0163 H   0  0  0  0  0  0
   53.2521  152.4630   26.1651 H   0  0  0  0  0  0
   53.2560  150.4101   23.8939 H   0  0  0  0  0  0
   53.2489  150.0731   25.7040 H   0  0  0  0  0  0
  1  2  1  0  0  0
  1  5  1  0  0  0
  2  3  2  0  0  0
  2 23  1  0  0  0
  3  4  1  0  0  0
  3  6  1  0  0  0
  4  5  2  0  0  0
  5 15  1  0  0  0
  6  7  2  0  0  0
  6 11  1  0  0  0
  7  8  1  0  0  0
  7 24  1  0  0  0
  8  9  2  0  0  0
  8 12  1  0  0  0
  9 10  1  0  0  0
  9 25  1  0  0  0
 10 11  2  0  0  0
 10 26  1  0  0  0
 11 27  1  0  0  0
 12 13  2  0  0  0
 12 14  1  0  0  0
 15 16  1  0  0  0
 15 28  1  0  0  0
 16 17  2  0  0  0
 17 18  1  0  0  0
 17 19  1  0  0  0
 18 29  1  0  0  0
 18 30  1  0  0  0
 18 31  1  0  0  0
 19 20  1  0  0  0
 19 32  1  0  0  0
 19 33  1  0  0  0
 20 21  1  0  0  0
 20 34  1  0  0  0
 20 35  1  0  0  0
 21 22  2  0  0  0
 21 36  1  0  0  0
 22 37  1  0  0  0
 22 38  1  0  0  0
M  CHG  2  12   1  14  -1
M  END
> <s_m_entry_id>
10432

> <s_m_entry_name>
dock_pv.468

> <s_m_Source_Path>
/home/csk/Desktop/cluster/DUD-E-result/aofb

> <s_m_Source_File>
dock_pv.maegz

> <i_m_Source_File_Index>
468

> <chembl_id>
CHEMBL4161431

> <chembl_pref_name>
None

> <i_lp_mmshare_version>
53161

> <i_f3d_flags>
0

> <r_lp_tautomer_probability>
1

> <s_lp_Force_Field>
OPLS_2005

> <r_lp_Energy>
12.787565

> <b_lp_Chiralities_Consistent>
1

> <s_lp_Variant>
CHEMBL2039_lig2088-1

> <s_i_glide_gridfile>
glide-grid_1s3b

> <i_i_glide_lignum>
2426

> <i_i_glide_rotatable_bonds>
7

> <r_i_docking_score>
-6.98142183123779

> <r_i_glide_ligand_efficiency>
-0.317337355965354

> <r_i_glide_ligand_efficiency_sa>
-0.889191751584935

> <r_i_glide_ligand_efficiency_ln>
-1.70651414910319

> <r_i_glide_gscore>
-6.98142183123779

> <r_i_glide_lipo>
-3.65167721736136

> <r_i_glide_hbond>
-0.00352478803898163

> <r_i_glide_metal>
0

> <r_i_glide_rewards>
-2.60196040909091

> <r_i_glide_evdw>
-29.4232902526855

> <r_i_glide_ecoul>
-2.42360091209412

> <r_i_glide_erotb>
1.11588780061306

> <r_i_glide_esite>
-0.00544256791119906

> <r_i_glide_emodel>
-31.8031100849806

> <r_i_glide_energy>
-31.8468911647797

> <r_i_glide_einternal>
7.2207989692688

> <i_i_glide_confnum>
99

> <i_i_glide_posenum>
163

> <r_i_glide_eff_state_penalty>
0

> <s_user_duplicate_titles>
CHEMBL2039_lig2088

> <s_m_subgroup_title>
dock_pv

> <s_m_subgroupid>
dock_pv

> <b_m_subgroup_collapsed>
1

$$$$
CHEMBL2039_lig2081
                    3D
 Schrodinger Suite 2021-1.
 38 40  0  0  1  0            999 V2000
   50.4560  155.0705   29.3040 S   0  0  0  0  0  0
   50.8636  153.9653   28.0715 C   0  0  0  0  0  0
   51.6773  154.5795   27.1378 C   0  0  0  0  0  0
   51.9476  155.8603   27.3993 N   0  0  0  0  0  0
   51.3664  156.2819   28.5040 C   0  0  0  0  0  0
   52.2348  153.8446   25.9631 C   0  0  0  0  0  0
   52.3213  152.4431   26.0153 C   0  0  0  0  0  0
   52.8560  151.6981   24.9582 C   0  0  0  0  0  0
   53.2560  152.3845   23.8174 C   0  0  0  0  0  0
   53.2560  153.7701   23.7794 C   0  0  0  0  0  0
   52.7378  154.5071   24.8420 C   0  0  0  0  0  0
   52.8657  150.2185   24.9907 N   0  3  0  0  0  0
   52.0560  149.6478   25.7040 O   0  0  0  0  0  0
   53.6560  149.6049   24.2884 O   0  5  0  0  0  0
   51.2560  157.5990   28.9364 N   0  0  0  0  0  0
   50.4560  157.9828   30.0516 N   0  0  0  0  0  0
   49.9066  159.1213   30.1694 C   0  0  0  0  0  0
   49.3649  159.6572   31.5093 C   0  0  0  0  0  0
   47.8337  159.7476   31.4686 C   0  0  0  0  0  0
   47.3912  160.6516   30.3203 C   0  0  0  0  0  0
   48.0560  160.2440   28.9816 C   0  0  0  0  0  0
   49.5811  160.0921   29.0707 C   0  0  0  0  0  0
   50.4900  152.9548   28.1040 H   0  0  0  0  0  0
   51.9620  151.9115   26.8819 H   0  0  0  0  0  0
   53.6330  151.8449   22.9622 H   0  0  0  0  0  0
   53.6568  154.2440   22.9042 H   0  0  0  0  0  0
   52.7261  155.5861   24.7936 H   0  0  0  0  0  0
   51.5367  158.3651   28.3413 H   0  0  0  0  0  0
   49.6559  159.0409   32.3508 H   0  0  0  0  0  0
   49.8001  160.6375   31.7130 H   0  0  0  0  0  0
   47.4001  158.7524   31.3492 H   0  0  0  0  0  0
   47.4543  160.1334   32.4163 H   0  0  0  0  0  0
   47.6558  161.6807   30.5548 H   0  0  0  0  0  0
   46.3082  160.6427   30.2603 H   0  0  0  0  0  0
   47.8240  160.9878   28.2189 H   0  0  0  0  0  0
   47.6217  159.3067   28.6311 H   0  0  0  0  0  0
   50.0551  161.0445   29.3027 H   0  0  0  0  0  0
   49.9660  159.7430   28.1158 H   0  0  0  0  0  0
  1  2  1  0  0  0
  1  5  1  0  0  0
  2  3  2  0  0  0
  2 23  1  0  0  0
  3  4  1  0  0  0
  3  6  1  0  0  0
  4  5  2  0  0  0
  5 15  1  0  0  0
  6  7  2  0  0  0
  6 11  1  0  0  0
  7  8  1  0  0  0
  7 24  1  0  0  0
  8  9  2  0  0  0
  8 12  1  0  0  0
  9 10  1  0  0  0
  9 25  1  0  0  0
 10 11  2  0  0  0
 10 26  1  0  0  0
 11 27  1  0  0  0
 12 13  2  0  0  0
 12 14  1  0  0  0
 15 16  1  0  0  0
 15 28  1  0  0  0
 16 17  2  0  0  0
 17 18  1  0  0  0
 17 22  1  0  0  0
 18 19  1  0  0  0
 18 29  1  0  0  0
 18 30  1  0  0  0
 19 20  1  0  0  0
 19 31  1  0  0  0
 19 32  1  0  0  0
 20 21  1  0  0  0
 20 33  1  0  0  0
 20 34  1  0  0  0
 21 22  1  0  0  0
 21 35  1  0  0  0
 21 36  1  0  0  0
 22 37  1  0  0  0
 22 38  1  0  0  0
M  CHG  2  12   1  14  -1
M  END
> <s_m_entry_id>
10433

> <s_m_entry_name>
dock_pv.469

> <s_m_Source_Path>
/home/csk/Desktop/cluster/DUD-E-result/aofb

> <s_m_Source_File>
dock_pv.maegz

> <i_m_Source_File_Index>
469

> <chembl_id>
CHEMBL4159091

> <chembl_pref_name>
None

> <i_lp_mmshare_version>
53161

> <i_f3d_flags>
0

> <r_lp_tautomer_probability>
1

> <s_lp_Force_Field>
OPLS_2005

> <r_lp_Energy>
21.368357

> <b_lp_Chiralities_Consistent>
1

> <s_lp_Variant>
CHEMBL2039_lig2081-1

> <s_i_glide_gridfile>
glide-grid_1s3b

> <i_i_glide_lignum>
2419

> <i_i_glide_rotatable_bonds>
4

> <r_i_docking_score>
-6.97776571873993

> <r_i_glide_ligand_efficiency>
-0.317171169033633

> <r_i_glide_ligand_efficiency_sa>
-0.888726089266491

> <r_i_glide_ligand_efficiency_ln>
-1.70562046184877

> <r_i_glide_gscore>
-6.97776571873993

> <r_i_glide_lipo>
-3.90895596400863

> <r_i_glide_hbond>
0

> <r_i_glide_metal>
0

> <r_i_glide_rewards>
-3.05196040909091

> <r_i_glide_evdw>
-7.87768363952637

> <r_i_glide_ecoul>
-1.07592582702637

> <r_i_glide_erotb>
0.557943900306529

> <r_i_glide_esite>
-0.0195201899166399

> <r_i_glide_emodel>
-10.1771589071279

> <r_i_glide_energy>
-8.95360946655273

> <r_i_glide_einternal>
6.9852614402771

> <i_i_glide_confnum>
10

> <i_i_glide_posenum>
152

> <r_i_glide_eff_state_penalty>
0

> <s_user_duplicate_titles>
CHEMBL2039_lig2081

> <s_m_subgroup_title>
dock_pv

> <s_m_subgroupid>
dock_pv

> <b_m_subgroup_collapsed>
1

$$$$
CHEMBL2039_lig2132
                    3D
 Schrodinger Suite 2021-1.
 33 34  0  0  1  0            999 V2000
   48.3774  160.2383   33.3427 F   0  0  0  0  0  0
   48.7385  160.8962   32.2404 C   0  0  0  0  0  0
   49.5932  161.8440   32.5882 F   0  0  0  0  0  0
   53.1634  154.1450   24.8336 C   0  0  0  0  0  0
   52.1238  153.8288   25.9240 C   0  0  0  0  0  0
   53.2560  153.0260   23.9145 N   0  0  0  0  0  0
   51.2560  156.8649   28.9040 C   0  0  0  0  0  0
   52.1909  157.1281   27.8983 C   0  0  0  0  0  0
   52.4560  156.1837   26.9106 C   0  0  0  0  0  0
   51.9137  154.8976   26.9970 C   0  0  0  0  0  0
   51.1402  154.5639   28.1040 C   0  0  0  0  0  0
   50.7944  155.5410   29.0260 C   0  0  0  0  0  0
   50.6233  157.9859   29.6881 C   0  0  0  0  0  0
   49.3010  157.8440   30.1217 C   0  0  0  0  0  0
   48.6821  158.8038   30.8994 C   0  0  0  0  0  0
   49.3745  159.9586   31.2354 C   0  0  0  0  0  0
   50.6422  160.2011   30.6895 C   0  0  0  0  0  0
   51.2560  159.2187   29.9113 C   0  0  0  0  0  0
   47.6560  161.4440   31.7020 F   0  0  0  0  0  0
   54.1414  154.3170   25.2840 H   0  0  0  0  0  0
   52.8938  155.0440   24.2794 H   0  0  0  0  0  0
   51.1554  153.6297   25.4622 H   0  0  0  0  0  0
   52.4219  152.9079   26.4288 H   0  0  0  0  0  0
   52.5122  153.0576   23.2293 H   0  0  0  0  0  0
   54.1341  153.0439   23.4083 H   0  0  0  0  0  0
   52.5970  158.1192   27.7719 H   0  0  0  0  0  0
   53.0933  156.4647   26.0867 H   0  0  0  0  0  0
   50.7395  153.5662   28.2088 H   0  0  0  0  0  0
   50.1129  155.2594   29.8129 H   0  0  0  0  0  0
   48.7427  156.9416   29.9259 H   0  0  0  0  0  0
   47.6887  158.6222   31.2846 H   0  0  0  0  0  0
   51.1847  161.1069   30.9195 H   0  0  0  0  0  0
   52.2599  159.3925   29.5539 H   0  0  0  0  0  0
  1  2  1  0  0  0
  2  3  1  0  0  0
  2 16  1  0  0  0
  2 19  1  0  0  0
  4  5  1  0  0  0
  4  6  1  0  0  0
  4 20  1  0  0  0
  4 21  1  0  0  0
  5 10  1  0  0  0
  5 22  1  0  0  0
  5 23  1  0  0  0
  6 24  1  0  0  0
  6 25  1  0  0  0
  7  8  1  0  0  0
  7 12  2  0  0  0
  7 13  1  0  0  0
  8  9  2  0  0  0
  8 26  1  0  0  0
  9 10  1  0  0  0
  9 27  1  0  0  0
 10 11  2  0  0  0
 11 12  1  0  0  0
 11 28  1  0  0  0
 12 29  1  0  0  0
 13 14  1  0  0  0
 13 18  2  0  0  0
 14 15  2  0  0  0
 14 30  1  0  0  0
 15 16  1  0  0  0
 15 31  1  0  0  0
 16 17  2  0  0  0
 17 18  1  0  0  0
 17 32  1  0  0  0
 18 33  1  0  0  0
M  END
> <s_m_entry_id>
10434

> <s_m_entry_name>
dock_pv.470

> <s_m_Source_Path>
/home/csk/Desktop/cluster/DUD-E-result/aofb

> <s_m_Source_File>
dock_pv.maegz

> <i_m_Source_File_Index>
470

> <chembl_id>
CHEMBL4207154

> <chembl_pref_name>
None

> <i_lp_mmshare_version>
53161

> <i_f3d_flags>
0

> <r_lp_tautomer_probability>
1

> <s_lp_Force_Field>
OPLS_2005

> <r_lp_Energy>
14.847853

> <b_lp_Chiralities_Consistent>
1

> <s_lp_Variant>
CHEMBL2039_lig2132-1

> <s_i_glide_gridfile>
glide-grid_1s3b

> <i_i_glide_lignum>
2491

> <i_i_glide_rotatable_bonds>
4

> <r_i_docking_score>
-6.97773660617406

> <r_i_glide_ligand_efficiency>
-0.367249295061793

> <r_i_glide_ligand_efficiency_sa>
-0.97996862347304

> <r_i_glide_ligand_efficiency_ln>
-1.76900609770585

> <r_i_glide_gscore>
-6.97773660617406

> <r_i_glide_lipo>
-3.4395817660841

> <r_i_glide_hbond>
-0.194661650564101

> <r_i_glide_metal>
0

> <r_i_glide_rewards>
-2.88328485620391

> <r_i_glide_evdw>
-13.8998641967773

> <r_i_glide_ecoul>
-1.57546186447144

> <r_i_glide_erotb>
0.505689401494583

> <r_i_glide_esite>
-0.034585245306959

> <r_i_glide_emodel>
-16.5738416719115

> <r_i_glide_energy>
-15.4753260612488

> <r_i_glide_einternal>
2.78252601623535

> <i_i_glide_confnum>
4

> <i_i_glide_posenum>
277

> <r_i_glide_eff_state_penalty>
0

> <s_user_duplicate_titles>
CHEMBL2039_lig2132

> <s_m_subgroup_title>
dock_pv

> <s_m_subgroupid>
dock_pv

> <b_m_subgroup_collapsed>
1

$$$$
CHEMBL2039_lig41
                    3D
 Schrodinger Suite 2021-1.
 31 33  0  0  1  0            999 V2000
   51.7698  156.2440   27.8948 C   0  0  0  0  0  0
   52.5404  156.8593   26.9065 C   0  0  0  0  0  0
   52.8563  156.2334   25.7088 C   0  0  0  0  0  0
   51.4740  154.8899   27.7341 C   0  0  0  0  0  0
   51.9073  154.1976   26.5873 C   0  0  0  0  0  0
   52.5487  154.8974   25.5567 C   0  0  0  0  0  0
   53.0517  154.2809   24.4304 O   0  0  0  0  0  0
   53.1189  152.9302   24.4418 C   0  0  0  0  0  0
   52.5641  152.1515   25.3881 C   0  0  0  0  0  0
   51.8248  152.7266   26.5030 C   0  0  0  0  0  0
   51.2560  152.0733   27.3583 O   0  0  0  0  0  0
   51.2560  156.9338   28.9824 O   0  0  0  0  0  0
   51.4200  158.3644   29.0615 C   0  0  0  0  0  0
   50.4765  159.0353   30.0663 C   0  0  0  0  0  0
   49.2558  158.4528   30.4251 C   0  0  0  0  0  0
   48.4317  159.0632   31.3648 C   0  0  0  0  0  0
   48.8381  160.2491   31.9683 C   0  0  0  0  0  0
   50.0495  160.8417   31.6190 C   0  0  0  0  0  0
   50.8606  160.2441   30.6563 C   0  0  0  0  0  0
   47.7420  161.0440   33.3040 Br  0  0  0  0  0  0
   52.9126  157.8440   27.0604 H   0  0  0  0  0  0
   53.4310  156.7395   24.9495 H   0  0  0  0  0  0
   50.9440  154.3774   28.5261 H   0  0  0  0  0  0
   53.6507  152.5461   23.5812 H   0  0  0  0  0  0
   52.6466  151.0788   25.3093 H   0  0  0  0  0  0
   51.2370  158.8439   28.1040 H   0  0  0  0  0  0
   52.4561  158.5872   29.3040 H   0  0  0  0  0  0
   48.9574  157.5034   30.0103 H   0  0  0  0  0  0
   47.4977  158.6014   31.6492 H   0  0  0  0  0  0
   50.3662  161.7545   32.1040 H   0  0  0  0  0  0
   51.8053  160.7021   30.4013 H   0  0  0  0  0  0
  1 12  1  0  0  0
  1  2  2  0  0  0
  1  4  1  0  0  0
  2  3  1  0  0  0
  2 21  1  0  0  0
  3  6  2  0  0  0
  3 22  1  0  0  0
  4  5  2  0  0  0
  4 23  1  0  0  0
  5  6  1  0  0  0
  5 10  1  0  0  0
  6  7  1  0  0  0
  7  8  1  0  0  0
  8  9  2  0  0  0
  8 24  1  0  0  0
  9 10  1  0  0  0
  9 25  1  0  0  0
 10 11  2  0  0  0
 12 13  1  0  0  0
 13 14  1  0  0  0
 13 26  1  0  0  0
 13 27  1  0  0  0
 14 15  2  0  0  0
 14 19  1  0  0  0
 15 16  1  0  0  0
 15 28  1  0  0  0
 16 17  2  0  0  0
 16 29  1  0  0  0
 17 18  1  0  0  0
 17 20  1  0  0  0
 18 19  2  0  0  0
 18 30  1  0  0  0
 19 31  1  0  0  0
M  END
> <s_m_entry_id>
10435

> <s_m_entry_name>
dock_pv.471

> <s_m_Source_Path>
/home/csk/Desktop/cluster/DUD-E-result/aofb

> <s_m_Source_File>
dock_pv.maegz

> <i_m_Source_File_Index>
471

> <chembl_id>
CHEMBL1945155

> <chembl_pref_name>
None

> <i_lp_mmshare_version>
53161

> <i_f3d_flags>
0

> <r_lp_tautomer_probability>
1

> <s_lp_Force_Field>
OPLS_2005

> <r_lp_Energy>
14.824294

> <b_lp_Chiralities_Consistent>
1

> <s_lp_Variant>
CHEMBL2039_lig41-1

> <s_i_glide_gridfile>
glide-grid_1s3b

> <i_i_glide_lignum>
63

> <i_i_glide_rotatable_bonds>
3

> <r_i_docking_score>
-6.97713055645137

> <r_i_glide_ligand_efficiency>
-0.348856527822568

> <r_i_glide_ligand_efficiency_sa>
-0.946942303840116

> <r_i_glide_ligand_efficiency_ln>
-1.7461456571127

> <r_i_glide_gscore>
-6.97713055645137

> <r_i_glide_lipo>
-4.17446859446913

> <r_i_glide_hbond>
0

> <r_i_glide_metal>
0

> <r_i_glide_rewards>
-1.71805294652826

> <r_i_glide_evdw>
-26.625789642334

> <r_i_glide_ecoul>
-1.78723239898682

> <r_i_glide_erotb>
0.514765326510741

> <r_i_glide_esite>
0

> <r_i_glide_emodel>
-32.3100156513298

> <r_i_glide_energy>
-28.4130220413208

> <r_i_glide_einternal>
0.659060895442963

> <i_i_glide_confnum>
42

> <i_i_glide_posenum>
172

> <r_i_glide_eff_state_penalty>
0

> <s_user_duplicate_titles>
CHEMBL2039_lig41

> <s_m_subgroup_title>
dock_pv

> <s_m_subgroupid>
dock_pv

> <b_m_subgroup_collapsed>
1

$$$$
CHEMBL2039_lig1752
                    3D
 Schrodinger Suite 2021-1.
 32 33  0  0  1  0            999 V2000
   48.6994  160.7919   32.3205 C   0  0  0  0  0  0
   47.2334  160.5328   32.6402 C   0  0  0  0  0  0
   49.3847  159.9462   31.3040 C   0  0  0  0  0  0
   50.6752  160.2428   30.8127 C   0  0  0  0  0  0
   51.3040  159.3585   29.9342 C   0  0  0  0  0  0
   50.7404  158.1183   29.6315 C   0  0  0  0  0  0
   49.4517  157.8529   30.1040 C   0  0  0  0  0  0
   48.7699  158.7591   30.8979 C   0  0  0  0  0  0
   51.4079  161.3183   31.2416 O   0  0  0  0  0  0
   51.4966  157.2096   28.9040 O   0  0  0  0  0  0
   51.0422  155.8499   28.7332 C   0  0  0  0  0  0
   51.6560  155.1960   27.5063 C   0  0  0  0  0  0
   51.6011  153.8041   27.3744 C   0  0  0  0  0  0
   52.0560  153.1893   26.2088 C   0  0  0  0  0  0
   52.5581  153.9604   25.1609 C   0  0  0  0  0  0
   52.6328  155.3474   25.2954 C   0  0  0  0  0  0
   52.1820  155.9629   26.4614 C   0  0  0  0  0  0
   52.0191  151.8440   26.1040 F   0  0  0  0  0  0
   49.2560  161.7072   32.9040 O   0  0  0  0  0  0
   46.6411  160.5313   31.7254 H   0  0  0  0  0  0
   46.8416  161.3035   33.3040 H   0  0  0  0  0  0
   47.1228  159.5625   33.1216 H   0  0  0  0  0  0
   52.3074  159.5656   29.5942 H   0  0  0  0  0  0
   48.9539  156.9153   29.9230 H   0  0  0  0  0  0
   47.7913  158.4664   31.2501 H   0  0  0  0  0  0
   50.9671  161.7925   31.9584 H   0  0  0  0  0  0
   51.2560  155.2491   29.6178 H   0  0  0  0  0  0
   49.9735  155.7856   28.5505 H   0  0  0  0  0  0
   51.1960  153.1942   28.1690 H   0  0  0  0  0  0
   52.9124  153.4799   24.2607 H   0  0  0  0  0  0
   53.0441  155.9521   24.5040 H   0  0  0  0  0  0
   52.2275  157.0397   26.5401 H   0  0  0  0  0  0
  1  2  1  0  0  0
  1  3  1  0  0  0
  1 19  2  0  0  0
  2 20  1  0  0  0
  2 21  1  0  0  0
  2 22  1  0  0  0
  3  4  1  0  0  0
  3  8  2  0  0  0
  4  5  2  0  0  0
  4  9  1  0  0  0
  5  6  1  0  0  0
  5 23  1  0  0  0
  6  7  2  0  0  0
  6 10  1  0  0  0
  7  8  1  0  0  0
  7 24  1  0  0  0
  8 25  1  0  0  0
  9 26  1  0  0  0
 10 11  1  0  0  0
 11 12  1  0  0  0
 11 27  1  0  0  0
 11 28  1  0  0  0
 12 13  1  0  0  0
 12 17  2  0  0  0
 13 14  2  0  0  0
 13 29  1  0  0  0
 14 15  1  0  0  0
 14 18  1  0  0  0
 15 16  2  0  0  0
 15 30  1  0  0  0
 16 17  1  0  0  0
 16 31  1  0  0  0
 17 32  1  0  0  0
M  END
> <s_m_entry_id>
10436

> <s_m_entry_name>
dock_pv.472

> <s_m_Source_Path>
/home/csk/Desktop/cluster/DUD-E-result/aofb

> <s_m_Source_File>
dock_pv.maegz

> <i_m_Source_File_Index>
472

> <chembl_id>
CHEMBL3920226

> <chembl_pref_name>
None

> <i_lp_mmshare_version>
53161

> <i_f3d_flags>
0

> <r_lp_tautomer_probability>
0.99995

> <s_lp_Force_Field>
OPLS_2005

> <r_lp_Energy>
27.313901

> <b_lp_Chiralities_Consistent>
1

> <s_lp_Variant>
CHEMBL2039_lig1752-1

> <s_i_glide_gridfile>
glide-grid_1s3b

> <i_i_glide_lignum>
2040

> <i_i_glide_rotatable_bonds>
5

> <r_i_docking_score>
-6.97689982750309

> <r_i_glide_ligand_efficiency>
-0.36720525407911

> <r_i_glide_ligand_efficiency_sa>
-0.979851104442354

> <r_i_glide_ligand_efficiency_ln>
-1.7687939563404

> <r_i_glide_gscore>
-6.97689982750309

> <r_i_glide_lipo>
-3.32106181339564

> <r_i_glide_hbond>
0

> <r_i_glide_metal>
0

> <r_i_glide_rewards>
-3.20873668039894

> <r_i_glide_evdw>
-22.8792343139648

> <r_i_glide_ecoul>
-0.580291509628296

> <r_i_glide_erotb>
0.78390410843397

> <r_i_glide_esite>
0

> <r_i_glide_emodel>
-28.0948343143766

> <r_i_glide_energy>
-23.4595258235931

> <r_i_glide_einternal>
5.41125631332397

> <i_i_glide_confnum>
38

> <i_i_glide_posenum>
158

> <r_i_glide_eff_state_penalty>
0

> <s_user_duplicate_titles>
CHEMBL2039_lig1752

> <s_m_subgroup_title>
dock_pv

> <s_m_subgroupid>
dock_pv

> <b_m_subgroup_collapsed>
1

$$$$
CHEMBL2039_lig1528
                    3D
 Schrodinger Suite 2021-1.
 39 42  0  0  1  0            999 V2000
   52.0166  158.1767   28.6005 C   0  0  0  0  0  0
   52.8395  157.0440   28.9040 N   0  0  2  0  0  0
   52.3691  155.6865   28.6101 C   0  0  1  0  0  0
   50.9239  155.2597   28.6860 C   0  0  0  0  0  0
   51.6162  155.4018   27.3295 C   0  0  2  0  0  0
   51.9620  154.2120   26.4663 C   0  0  0  0  0  0
   51.6395  152.9159   26.8634 C   0  0  0  0  0  0
   52.0700  151.8459   26.1024 C   0  0  0  0  0  0
   52.8581  152.0630   24.9707 C   0  0  0  0  0  0
   53.1558  153.3560   24.5507 C   0  0  0  0  0  0
   52.6921  154.4350   25.2971 C   0  0  0  0  0  0
   51.3527  159.0256   29.7039 C   0  0  0  0  0  0
   52.0020  160.1526   30.2388 C   0  0  0  0  0  0
   51.3668  160.9647   31.1846 C   0  0  0  0  0  0
   50.0693  160.6417   31.5733 C   0  0  0  0  0  0
   49.3194  161.3644   32.4671 O   0  0  0  0  0  0
   48.1269  160.6192   32.7151 C   0  0  0  0  0  0
   48.0173  159.5464   31.6218 C   0  0  0  0  0  0
   49.3974  159.5580   31.0488 C   0  0  0  0  0  0
   50.0309  158.7528   30.1035 C   0  0  0  0  0  0
   51.2315  157.7327   28.1042 H   0  0  0  0  0  0
   52.5657  158.6438   27.8240 H   0  0  0  0  0  0
   53.2562  157.1948   29.8232 H   0  0  0  0  0  0
   53.0859  154.9310   28.9034 H   0  0  0  0  0  0
   50.7251  154.2871   29.1341 H   0  0  0  0  0  0
   50.1500  155.9705   28.9581 H   0  0  0  0  0  0
   51.2796  156.2406   26.7270 H   0  0  0  0  0  0
   51.0662  152.7155   27.7540 H   0  0  0  0  0  0
   51.7970  150.8410   26.3889 H   0  0  0  0  0  0
   53.2106  151.2215   24.3927 H   0  0  0  0  0  0
   53.7514  153.5149   23.6631 H   0  0  0  0  0  0
   52.9488  155.4398   24.9969 H   0  0  0  0  0  0
   53.0154  160.3753   29.9442 H   0  0  0  0  0  0
   51.8792  161.8178   31.6059 H   0  0  0  0  0  0
   47.2472  161.2582   32.7890 H   0  0  0  0  0  0
   48.2486  160.1242   33.6807 H   0  0  0  0  0  0
   47.7150  158.5864   32.0427 H   0  0  0  0  0  0
   47.2755  159.8419   30.8786 H   0  0  0  0  0  0
   49.4968  157.9094   29.7035 H   0  0  0  0  0  0
  1  2  1  0  0  0
  1 12  1  0  0  0
  1 21  1  0  0  0
  1 22  1  0  0  0
  2  3  1  0  0  0
  2 23  1  0  0  0
  3  4  1  0  0  0
  3  5  1  0  0  0
  3 24  1  0  0  0
  4  5  1  0  0  0
  4 25  1  0  0  0
  4 26  1  0  0  0
  5  6  1  0  0  0
  5 27  1  0  0  0
  6  7  2  0  0  0
  6 11  1  0  0  0
  7  8  1  0  0  0
  7 28  1  0  0  0
  8  9  2  0  0  0
  8 29  1  0  0  0
  9 10  1  0  0  0
  9 30  1  0  0  0
 10 11  2  0  0  0
 10 31  1  0  0  0
 11 32  1  0  0  0
 12 13  2  0  0  0
 12 20  1  0  0  0
 13 14  1  0  0  0
 13 33  1  0  0  0
 14 15  2  0  0  0
 14 34  1  0  0  0
 15 16  1  0  0  0
 15 19  1  0  0  0
 16 17  1  0  0  0
 17 18  1  0  0  0
 17 35  1  0  0  0
 17 36  1  0  0  0
 18 19  1  0  0  0
 18 37  1  0  0  0
 18 38  1  0  0  0
 19 20  2  0  0  0
 20 39  1  0  0  0
M  END
> <s_m_entry_id>
10437

> <s_m_entry_name>
dock_pv.473

> <s_m_Source_Path>
/home/csk/Desktop/cluster/DUD-E-result/aofb

> <s_m_Source_File>
dock_pv.maegz

> <i_m_Source_File_Index>
473

> <chembl_id>
CHEMBL3651123

> <chembl_pref_name>
None

> <i_lp_mmshare_version>
53161

> <i_f3d_flags>
0

> <r_lp_tautomer_probability>
1

> <s_lp_Force_Field>
OPLS_2005

> <r_lp_Energy>
35.100474

> <b_lp_Chiralities_Consistent>
1

> <s_lp_Variant>
CHEMBL2039_lig1528-2

> <s_i_glide_gridfile>
glide-grid_1s3b

> <i_i_glide_lignum>
1772

> <i_i_glide_rotatable_bonds>
4

> <r_i_docking_score>
-6.97519895458469

> <r_i_glide_ligand_efficiency>
-0.348759947729234

> <r_i_glide_ligand_efficiency_sa>
-0.946680145133619

> <r_i_glide_ligand_efficiency_ln>
-1.74566224087397

> <r_i_glide_gscore>
-6.97519895458469

> <r_i_glide_lipo>
-4.09495025682621

> <r_i_glide_hbond>
-0.32

> <r_i_glide_metal>
0

> <r_i_glide_rewards>
-2.49988936363636

> <r_i_glide_evdw>
-11.6076879501343

> <r_i_glide_ecoul>
-3.27235865592957

> <r_i_glide_erotb>
1.01087886177404

> <r_i_glide_esite>
0

> <r_i_glide_emodel>
-13.6205856965516

> <r_i_glide_energy>
-14.8800466060638

> <r_i_glide_einternal>
23.7522449493408

> <i_i_glide_confnum>
174

> <i_i_glide_posenum>
195

> <r_i_glide_eff_state_penalty>
0

> <s_user_duplicate_titles>
CHEMBL2039_lig1528

> <s_m_subgroup_title>
dock_pv

> <s_m_subgroupid>
dock_pv

> <b_m_subgroup_collapsed>
1

$$$$
CHEMBL2039_lig527
                    3D
 Schrodinger Suite 2021-1.
 33 35  0  0  1  0            999 V2000
   53.2652  153.3404   24.3388 C   0  0  0  0  0  0
   52.6961  152.4376   25.2350 C   0  0  0  0  0  0
   52.0644  152.9018   26.3831 C   0  0  0  0  0  0
   53.1668  154.7108   24.5790 C   0  0  0  0  0  0
   52.5104  155.1773   25.7179 C   0  0  0  0  0  0
   52.0430  154.2733   26.6727 C   0  0  0  0  0  0
   51.6070  154.7309   28.0182 C   0  0  0  0  0  0
   51.6290  156.1898   28.2332 C   0  0  0  0  0  0
   52.4380  157.0252   27.2516 C   0  0  0  0  0  0
   52.4136  156.5354   25.9025 O   0  0  0  0  0  0
   51.2561  153.9111   28.8660 O   0  0  0  0  0  0
   50.8400  156.6903   29.2172 C   0  0  0  0  0  0
   50.6444  158.0808   29.7096 C   0  0  0  0  0  0
   51.6371  159.0763   29.7040 C   0  0  0  0  0  0
   51.4858  160.2413   30.4945 C   0  0  0  0  0  0
   50.2581  160.4291   31.1602 C   0  0  0  0  0  0
   49.2028  159.5457   30.9822 C   0  0  0  0  0  0
   49.3999  158.3732   30.2739 C   0  0  0  0  0  0
   50.0581  161.4170   32.0782 O   0  0  0  0  0  0
   52.6220  161.1926   30.6563 N   0  3  0  0  0  0
   52.4632  162.2224   31.2975 O   0  0  0  0  0  0
   53.6850  160.9417   30.1013 O   0  5  0  0  0  0
   53.7918  152.9836   23.4647 H   0  0  0  0  0  0
   52.7519  151.3746   25.0416 H   0  0  0  0  0  0
   51.6558  152.1827   27.0812 H   0  0  0  0  0  0
   53.6706  155.4067   23.9372 H   0  0  0  0  0  0
   51.8791  157.9534   27.2304 H   0  0  0  0  0  0
   53.4597  157.1937   27.5884 H   0  0  0  0  0  0
   50.2554  155.9753   29.7799 H   0  0  0  0  0  0
   52.5912  158.8708   29.2453 H   0  0  0  0  0  0
   48.2633  159.7124   31.4896 H   0  0  0  0  0  0
   48.6028  157.6443   30.2632 H   0  0  0  0  0  0
   50.8719  161.8842   32.3077 H   0  0  0  0  0  0
  1  2  2  0  0  0
  1  4  1  0  0  0
  1 23  1  0  0  0
  2  3  1  0  0  0
  2 24  1  0  0  0
  3  6  2  0  0  0
  3 25  1  0  0  0
  4  5  2  0  0  0
  4 26  1  0  0  0
  5  6  1  0  0  0
  5 10  1  0  0  0
  6  7  1  0  0  0
  7 11  2  0  0  0
  7  8  1  0  0  0
  8 12  2  0  0  0
  8  9  1  0  0  0
  9 10  1  0  0  0
  9 27  1  0  0  0
  9 28  1  0  0  0
 12 13  1  0  0  0
 12 29  1  0  0  0
 13 14  2  0  0  0
 13 18  1  0  0  0
 14 15  1  0  0  0
 14 30  1  0  0  0
 15 16  2  0  0  0
 15 20  1  0  0  0
 16 17  1  0  0  0
 16 19  1  0  0  0
 17 18  2  0  0  0
 17 31  1  0  0  0
 18 32  1  0  0  0
 19 33  1  0  0  0
 20 21  2  0  0  0
 20 22  1  0  0  0
M  CHG  2  20   1  22  -1
M  END
> <s_m_entry_id>
10438

> <s_m_entry_name>
dock_pv.474

> <s_m_Source_Path>
/home/csk/Desktop/cluster/DUD-E-result/aofb

> <s_m_Source_File>
dock_pv.maegz

> <i_m_Source_File_Index>
474

> <chembl_id>
CHEMBL1766560

> <chembl_pref_name>
None

> <i_lp_mmshare_version>
53161

> <i_f3d_flags>
0

> <r_lp_tautomer_probability>
1

> <s_lp_Force_Field>
OPLS_2005

> <r_lp_Energy>
25.002335

> <b_lp_Chiralities_Consistent>
1

> <s_lp_Variant>
CHEMBL2039_lig527-1

> <s_i_glide_gridfile>
glide-grid_1s3b

> <i_i_glide_lignum>
629

> <i_i_glide_rotatable_bonds>
3

> <r_i_docking_score>
-6.97259000134771

> <r_i_glide_ligand_efficiency>
-0.316935909152169

> <r_i_glide_ligand_efficiency_sa>
-0.888066881826382

> <r_i_glide_ligand_efficiency_ln>
-1.70435532772923

> <r_i_glide_gscore>
-6.97259000134771

> <r_i_glide_lipo>
-3.18115356257905

> <r_i_glide_hbond>
0

> <r_i_glide_metal>
0

> <r_i_glide_rewards>
-2.26433450387846

> <r_i_glide_evdw>
-23.2984180450439

> <r_i_glide_ecoul>
-3.16891050338745

> <r_i_glide_erotb>
0.207467011551702

> <r_i_glide_esite>
-0.094311468681587

> <r_i_glide_emodel>
-31.2691127313434

> <r_i_glide_energy>
-26.4673285484314

> <r_i_glide_einternal>
4.11574029922485

> <i_i_glide_confnum>
4

> <i_i_glide_posenum>
176

> <r_i_glide_eff_state_penalty>
0

> <s_user_duplicate_titles>
CHEMBL2039_lig527

> <s_m_subgroup_title>
dock_pv

> <s_m_subgroupid>
dock_pv

> <b_m_subgroup_collapsed>
1

$$$$
CHEMBL2039_lig67
                    3D
 Schrodinger Suite 2021-1.
 35 36  0  0  1  0            999 V2000
   53.9942  154.8873   24.6078 F   0  0  0  0  0  0
   52.0560  155.6349   24.1061 F   0  0  0  0  0  0
   53.2560  156.6440   25.5615 F   0  0  0  0  0  0
   52.0189  158.8870   29.2658 O   0  0  0  0  0  0
   47.0420  160.3293   32.9044 O   0  0  0  0  0  0
   52.1863  154.5789   26.1087 C   0  0  0  0  0  0
   52.8968  155.4680   25.1024 C   0  0  0  0  0  0
   51.7333  154.9722   27.4056 C   0  0  0  0  0  0
   52.1060  153.2396   25.7098 C   0  0  0  0  0  0
   51.7545  156.3600   27.9603 C   0  0  0  0  0  0
   51.2621  153.9664   28.2535 C   0  0  0  0  0  0
   49.8470  158.8536   30.1823 C   0  0  0  0  0  0
   50.9838  158.2440   29.4059 C   0  0  0  0  0  0
   50.9114  156.8578   28.9041 C   0  0  0  0  0  0
   51.6558  152.2698   26.5796 C   0  0  0  0  0  0
   51.2560  152.6394   27.8554 C   0  0  0  0  0  0
   50.0330  160.1294   30.7343 C   0  0  0  0  0  0
   48.6649  158.1626   30.4890 C   0  0  0  0  0  0
   47.9616  159.9274   31.9641 C   0  0  0  0  0  0
   49.1102  160.6523   31.6274 C   0  0  0  0  0  0
   47.7268  158.7026   31.3557 C   0  0  0  0  0  0
   47.3861  161.4216   33.7433 C   0  0  0  0  0  0
   52.4465  152.9339   24.7299 H   0  0  0  0  0  0
   52.5305  157.0163   27.6013 H   0  0  0  0  0  0
   50.9408  154.1885   29.2605 H   0  0  0  0  0  0
   50.1328  156.2323   29.3043 H   0  0  0  0  0  0
   51.6260  151.2328   26.2772 H   0  0  0  0  0  0
   50.9036  151.8778   28.5352 H   0  0  0  0  0  0
   50.9275  160.7048   30.5369 H   0  0  0  0  0  0
   48.4613  157.1768   30.1040 H   0  0  0  0  0  0
   49.3241  161.6122   32.0715 H   0  0  0  0  0  0
   46.8454  158.1375   31.6104 H   0  0  0  0  0  0
   46.7508  161.4440   34.6242 H   0  0  0  0  0  0
   48.4096  161.3610   34.1183 H   0  0  0  0  0  0
   47.2560  162.3463   33.1870 H   0  0  0  0  0  0
  1  7  1  0  0  0
  2  7  1  0  0  0
  3  7  1  0  0  0
  4 13  2  0  0  0
  5 19  1  0  0  0
  5 22  1  0  0  0
  6  7  1  0  0  0
  6  8  1  0  0  0
  6  9  2  0  0  0
  8 10  1  0  0  0
  8 11  2  0  0  0
  9 15  1  0  0  0
  9 23  1  0  0  0
 10 14  2  0  0  0
 10 24  1  0  0  0
 11 16  1  0  0  0
 11 25  1  0  0  0
 12 13  1  0  0  0
 12 17  2  0  0  0
 12 18  1  0  0  0
 13 14  1  0  0  0
 14 26  1  0  0  0
 15 16  2  0  0  0
 15 27  1  0  0  0
 16 28  1  0  0  0
 17 20  1  0  0  0
 17 29  1  0  0  0
 18 21  2  0  0  0
 18 30  1  0  0  0
 19 20  2  0  0  0
 19 21  1  0  0  0
 20 31  1  0  0  0
 21 32  1  0  0  0
 22 33  1  0  0  0
 22 34  1  0  0  0
 22 35  1  0  0  0
M  END
> <s_m_entry_id>
10439

> <s_m_entry_name>
dock_pv.475

> <s_m_Source_Path>
/home/csk/Desktop/cluster/DUD-E-result/aofb

> <s_m_Source_File>
dock_pv.maegz

> <i_m_Source_File_Index>
475

> <chembl_id>
CHEMBL1339821

> <chembl_pref_name>
None

> <i_lp_mmshare_version>
53161

> <i_f3d_flags>
0

> <r_lp_tautomer_probability>
1

> <s_lp_Force_Field>
OPLS_2005

> <r_lp_Energy>
23.308818

> <b_lp_Chiralities_Consistent>
1

> <s_lp_Variant>
CHEMBL2039_lig67-1

> <s_i_glide_gridfile>
glide-grid_1s3b

> <i_i_glide_lignum>
90

> <i_i_glide_rotatable_bonds>
5

> <r_i_docking_score>
-6.96920612385079

> <r_i_glide_ligand_efficiency>
-0.316782096538672

> <r_i_glide_ligand_efficiency_sa>
-0.887635892834258

> <r_i_glide_ligand_efficiency_ln>
-1.70352818463905

> <r_i_glide_gscore>
-6.96920612385079

> <r_i_glide_lipo>
-4.10635689842956

> <r_i_glide_hbond>
0

> <r_i_glide_metal>
0

> <r_i_glide_rewards>
-2.68709615625339

> <r_i_glide_evdw>
-19.9566097259521

> <r_i_glide_ecoul>
1.54271149635315

> <r_i_glide_erotb>
0.590670692676796

> <r_i_glide_esite>
0

> <r_i_glide_emodel>
-15.749189457111

> <r_i_glide_energy>
-18.413898229599

> <r_i_glide_einternal>
6.32006692886353

> <i_i_glide_confnum>
13

> <i_i_glide_posenum>
168

> <r_i_glide_eff_state_penalty>
0

> <s_user_duplicate_titles>
CHEMBL2039_lig67

> <s_m_subgroup_title>
dock_pv

> <s_m_subgroupid>
dock_pv

> <b_m_subgroup_collapsed>
1

$$$$
CHEMBL2039_lig2647 
                    3D
 Schrodinger Suite 2021-1.
 33 35  0  0  1  0            999 V2000
   52.3636  156.3383   26.6486 C   0  0  0  0  0  0
   51.7842  155.6358   27.6509 C   0  0  0  0  0  0
   51.6560  154.1697   27.5284 C   0  0  0  0  0  0
   52.1412  153.6242   26.2371 C   0  0  0  0  0  0
   52.2221  152.2440   26.0348 C   0  0  0  0  0  0
   52.8560  151.7341   24.9040 C   0  0  0  0  0  0
   53.2560  152.6024   23.8946 C   0  0  0  0  0  0
   53.2343  153.9740   24.1040 C   0  0  0  0  0  0
   52.6949  154.4802   25.2772 C   0  0  0  0  0  0
   52.7964  155.8385   25.4680 O   0  0  0  0  0  0
   51.2426  156.3549   28.8098 C   0  0  0  0  0  0
   50.4560  155.7941   29.5717 O   0  0  0  0  0  0
   51.5936  157.6952   28.9040 O   0  0  0  0  0  0
   51.2560  153.4034   28.4025 O   0  0  0  0  0  0
   50.9243  158.6246   29.6964 C   0  0  0  0  0  0
   49.5832  158.5160   30.1040 C   0  0  0  0  0  0
   49.0214  159.4440   30.9706 C   0  0  0  0  0  0
   49.7967  160.4971   31.4414 C   0  0  0  0  0  0
   51.1069  160.6629   30.9895 C   0  0  0  0  0  0
   51.6560  159.7418   30.1040 C   0  0  0  0  0  0
   49.2181  161.4335   32.4779 C   0  0  0  0  0  0
   52.4877  157.4129   26.6533 H   0  0  0  0  0  0
   51.8093  151.5542   26.7579 H   0  0  0  0  0  0
   52.9228  150.6656   24.7577 H   0  0  0  0  0  0
   53.6560  152.2132   22.9715 H   0  0  0  0  0  0
   53.6691  154.6358   23.3756 H   0  0  0  0  0  0
   48.9672  157.6889   29.7974 H   0  0  0  0  0  0
   48.0030  159.3163   31.3079 H   0  0  0  0  0  0
   51.7126  161.4814   31.3518 H   0  0  0  0  0  0
   52.6851  159.8440   29.7935 H   0  0  0  0  0  0
   49.9116  162.2440   32.6800 H   0  0  0  0  0  0
   49.0249  160.8988   33.4082 H   0  0  0  0  0  0
   48.2690  161.8440   32.1341 H   0  0  0  0  0  0
  1  2  2  0  0  0
  1 10  1  0  0  0
  1 22  1  0  0  0
  2  3  1  0  0  0
  2 11  1  0  0  0
  3  4  1  0  0  0
  3 14  2  0  0  0
  4  5  1  0  0  0
  4  9  2  0  0  0
  5  6  2  0  0  0
  5 23  1  0  0  0
  6  7  1  0  0  0
  6 24  1  0  0  0
  7  8  2  0  0  0
  7 25  1  0  0  0
  8  9  1  0  0  0
  8 26  1  0  0  0
  9 10  1  0  0  0
 11 12  2  0  0  0
 11 13  1  0  0  0
 13 15  1  0  0  0
 15 16  1  0  0  0
 15 20  2  0  0  0
 16 17  2  0  0  0
 16 27  1  0  0  0
 17 18  1  0  0  0
 17 28  1  0  0  0
 18 19  2  0  0  0
 18 21  1  0  0  0
 19 20  1  0  0  0
 19 29  1  0  0  0
 20 30  1  0  0  0
 21 31  1  0  0  0
 21 32  1  0  0  0
 21 33  1  0  0  0
M  END
> <s_m_entry_id>
10440

> <s_m_entry_name>
dock_pv.476

> <s_m_Source_Path>
/home/csk/Desktop/cluster/DUD-E-result/aofb

> <s_m_Source_File>
dock_pv.maegz

> <i_m_Source_File_Index>
476

> <chembl_id>
CHEMBL4574549

> <chembl_pref_name>
None

> <i_lp_mmshare_version>
53161

> <i_f3d_flags>
0

> <r_lp_tautomer_probability>
1

> <s_lp_Force_Field>
OPLS_2005

> <r_lp_Energy>
19.054195

> <b_lp_Chiralities_Consistent>
1

> <s_lp_Variant>
CHEMBL2039_lig2647 -1

> <s_i_glide_gridfile>
glide-grid_1s3b

> <i_i_glide_lignum>
3066

> <i_i_glide_rotatable_bonds>
3

> <r_i_docking_score>
-6.96890781686554

> <r_i_glide_ligand_efficiency>
-0.331852753184073

> <r_i_glide_ligand_efficiency_sa>
-0.915556582829033

> <r_i_glide_ligand_efficiency_ln>
-1.72304837571582

> <r_i_glide_gscore>
-6.96890781686554

> <r_i_glide_lipo>
-3.71809846555193

> <r_i_glide_hbond>
0

> <r_i_glide_metal>
0

> <r_i_glide_rewards>
-2.6379930424855

> <r_i_glide_evdw>
-23.1973896026611

> <r_i_glide_ecoul>
-0.950402617454529

> <r_i_glide_erotb>
0.689613563923134

> <r_i_glide_esite>
0

> <r_i_glide_emodel>
-24.6188413240885

> <r_i_glide_energy>
-24.1477922201157

> <r_i_glide_einternal>
3.92447328567505

> <i_i_glide_confnum>
3

> <i_i_glide_posenum>
78

> <r_i_glide_eff_state_penalty>
0

> <s_user_duplicate_titles>
CHEMBL2039_lig2647 

> <s_m_subgroup_title>
dock_pv

> <s_m_subgroupid>
dock_pv

> <b_m_subgroup_collapsed>
1

$$$$
CHEMBL2039_lig1525
                    3D
 Schrodinger Suite 2021-1.
 38 40  0  0  1  0            999 V2000
   52.8575  152.8030   24.5752 C   0  0  0  0  0  0
   52.0834  152.9304   25.7658 O   0  0  0  0  0  0
   52.0482  154.1542   26.4102 C   0  0  0  0  0  0
   52.4560  155.3581   25.8193 C   0  0  0  0  0  0
   52.4560  156.5330   26.5634 C   0  0  0  0  0  0
   52.0490  156.5643   27.8963 C   0  0  0  0  0  0
   52.0693  157.9270   28.5985 C   0  0  0  0  0  0
   51.0994  158.1829   29.6649 N   0  0  2  0  0  0
   51.4445  159.4443   30.3310 C   0  0  1  0  0  0
   50.8736  160.7683   29.9194 C   0  0  0  0  0  0
   50.4228  160.1685   31.2156 C   0  0  1  0  0  0
   48.9306  159.8655   31.3436 C   0  0  0  0  0  0
   48.2317  159.1778   30.3426 C   0  0  0  0  0  0
   46.8582  159.0076   30.4309 C   0  0  0  0  0  0
   46.1746  159.5555   31.5049 C   0  0  0  0  0  0
   46.8550  160.2432   32.5031 C   0  0  0  0  0  0
   48.2358  160.3857   32.4377 C   0  0  0  0  0  0
   51.6080  155.3716   28.4804 C   0  0  0  0  0  0
   51.6252  154.1794   27.7465 C   0  0  0  0  0  0
   51.2561  153.0294   28.3500 F   0  0  0  0  0  0
   52.8559  151.7620   24.2537 H   0  0  0  0  0  0
   53.8963  153.0886   24.7462 H   0  0  0  0  0  0
   52.4584  153.4009   23.7554 H   0  0  0  0  0  0
   52.7961  155.3970   24.7962 H   0  0  0  0  0  0
   52.7951  157.4418   26.1055 H   0  0  0  0  0  0
   53.0955  158.1314   28.9035 H   0  0  0  0  0  0
   51.8072  158.6447   27.8309 H   0  0  0  0  0  0
   51.1006  157.4349   30.3429 H   0  0  0  0  0  0
   52.4555  159.4502   30.7228 H   0  0  0  0  0  0
   51.5377  161.6311   29.9109 H   0  0  0  0  0  0
   50.0582  160.8648   29.2211 H   0  0  0  0  0  0
   50.8437  160.6432   32.1039 H   0  0  0  0  0  0
   48.7321  158.8012   29.4688 H   0  0  0  0  0  0
   46.3229  158.4831   29.6541 H   0  0  0  0  0  0
   45.1043  159.4583   31.5639 H   0  0  0  0  0  0
   46.2914  160.6891   33.3035 H   0  0  0  0  0  0
   48.7544  160.9425   33.2064 H   0  0  0  0  0  0
   51.2576  155.3435   29.4979 H   0  0  0  0  0  0
  1  2  1  0  0  0
  1 21  1  0  0  0
  1 22  1  0  0  0
  1 23  1  0  0  0
  2  3  1  0  0  0
  3  4  2  0  0  0
  3 19  1  0  0  0
  4  5  1  0  0  0
  4 24  1  0  0  0
  5  6  2  0  0  0
  5 25  1  0  0  0
  6  7  1  0  0  0
  6 18  1  0  0  0
  7  8  1  0  0  0
  7 26  1  0  0  0
  7 27  1  0  0  0
  8  9  1  0  0  0
  8 28  1  0  0  0
  9 10  1  0  0  0
  9 11  1  0  0  0
  9 29  1  0  0  0
 10 11  1  0  0  0
 10 30  1  0  0  0
 10 31  1  0  0  0
 11 12  1  0  0  0
 11 32  1  0  0  0
 12 13  2  0  0  0
 12 17  1  0  0  0
 13 14  1  0  0  0
 13 33  1  0  0  0
 14 15  2  0  0  0
 14 34  1  0  0  0
 15 16  1  0  0  0
 15 35  1  0  0  0
 16 17  2  0  0  0
 16 36  1  0  0  0
 17 37  1  0  0  0
 18 19  2  0  0  0
 18 38  1  0  0  0
 19 20  1  0  0  0
M  END
> <s_m_entry_id>
10441

> <s_m_entry_name>
dock_pv.477

> <s_m_Source_Path>
/home/csk/Desktop/cluster/DUD-E-result/aofb

> <s_m_Source_File>
dock_pv.maegz

> <i_m_Source_File_Index>
477

> <chembl_id>
CHEMBL3651136

> <chembl_pref_name>
None

> <i_lp_mmshare_version>
53161

> <i_f3d_flags>
0

> <r_lp_tautomer_probability>
1

> <s_lp_Force_Field>
OPLS_2005

> <r_lp_Energy>
26.732331

> <b_lp_Chiralities_Consistent>
1

> <s_lp_Variant>
CHEMBL2039_lig1525-1

> <s_i_glide_gridfile>
glide-grid_1s3b

> <i_i_glide_lignum>
1766

> <i_i_glide_rotatable_bonds>
5

> <r_i_docking_score>
-6.9685352039115

> <r_i_glide_ligand_efficiency>
-0.348426760195575

> <r_i_glide_ligand_efficiency_sa>
-0.945775735023527

> <r_i_glide_ligand_efficiency_ln>
-1.74399452386567

> <r_i_glide_gscore>
-6.9685352039115

> <r_i_glide_lipo>
-3.98675434390885

> <r_i_glide_hbond>
0

> <r_i_glide_metal>
0

> <r_i_glide_rewards>
-2.53282783804013

> <r_i_glide_evdw>
-27.8483028411865

> <r_i_glide_ecoul>
-0.194787546992302

> <r_i_glide_erotb>
0.972680252145659

> <r_i_glide_esite>
0

> <r_i_glide_emodel>
-25.2176607247889

> <r_i_glide_energy>
-28.0430903881788

> <r_i_glide_einternal>
7.43179512023926

> <i_i_glide_confnum>
32

> <i_i_glide_posenum>
74

> <r_i_glide_eff_state_penalty>
0

> <s_user_duplicate_titles>
CHEMBL2039_lig1525

> <s_m_subgroup_title>
dock_pv

> <s_m_subgroupid>
dock_pv

> <b_m_subgroup_collapsed>
1

$$$$
CHEMBL2039_lig540
                    3D
 Schrodinger Suite 2021-1.
 30 32  0  0  1  0            999 V2000
   53.4908  153.6129   24.2076 C   0  0  0  0  0  0
   52.8473  152.6400   24.9678 C   0  0  0  0  0  0
   52.1198  153.0049   26.1043 C   0  0  0  0  0  0
   53.4098  154.9494   24.5867 C   0  0  0  0  0  0
   52.6644  155.3094   25.7040 C   0  0  0  0  0  0
   52.0534  154.3492   26.5104 C   0  0  0  0  0  0
   51.4287  154.7329   27.8113 C   0  0  0  0  0  0
   51.5198  156.1699   28.1786 C   0  0  0  0  0  0
   52.5063  157.0054   27.3655 C   0  0  0  0  0  0
   52.5873  156.6440   25.9832 O   0  0  0  0  0  0
   50.8927  153.8752   28.5040 O   0  0  0  0  0  0
   50.6766  156.6388   29.1424 C   0  0  0  0  0  0
   50.4559  158.0092   29.7040 C   0  0  0  0  0  0
   49.2153  158.2440   30.3174 C   0  0  0  0  0  0
   48.9665  159.4101   31.0245 C   0  0  0  0  0  0
   49.9659  160.3655   31.1241 C   0  0  0  0  0  0
   51.1654  160.2151   30.4302 C   0  0  0  0  0  0
   51.4017  159.0442   29.7040 C   0  0  0  0  0  0
   49.7282  161.6920   32.1919 Cl  0  0  0  0  0  0
   54.0561  153.3283   23.3335 H   0  0  0  0  0  0
   52.9118  151.6014   24.6782 H   0  0  0  0  0  0
   51.6515  152.2263   26.6917 H   0  0  0  0  0  0
   53.9522  155.7120   24.0538 H   0  0  0  0  0  0
   52.1741  158.0356   27.3628 H   0  0  0  0  0  0
   53.4980  156.9939   27.8196 H   0  0  0  0  0  0
   50.0314  155.9084   29.6161 H   0  0  0  0  0  0
   48.4506  157.4810   30.3061 H   0  0  0  0  0  0
   48.0307  159.5386   31.5486 H   0  0  0  0  0  0
   51.9386  160.9644   30.5152 H   0  0  0  0  0  0
   52.3814  158.9111   29.2735 H   0  0  0  0  0  0
  1  2  2  0  0  0
  1  4  1  0  0  0
  1 20  1  0  0  0
  2  3  1  0  0  0
  2 21  1  0  0  0
  3  6  2  0  0  0
  3 22  1  0  0  0
  4  5  2  0  0  0
  4 23  1  0  0  0
  5  6  1  0  0  0
  5 10  1  0  0  0
  6  7  1  0  0  0
  7  8  1  0  0  0
  7 11  2  0  0  0
  8  9  1  0  0  0
  8 12  2  0  0  0
  9 10  1  0  0  0
  9 24  1  0  0  0
  9 25  1  0  0  0
 12 13  1  0  0  0
 12 26  1  0  0  0
 13 14  2  0  0  0
 13 18  1  0  0  0
 14 15  1  0  0  0
 14 27  1  0  0  0
 15 16  2  0  0  0
 15 28  1  0  0  0
 16 17  1  0  0  0
 16 19  1  0  0  0
 17 18  2  0  0  0
 17 29  1  0  0  0
 18 30  1  0  0  0
M  END
> <s_m_entry_id>
10442

> <s_m_entry_name>
dock_pv.478

> <s_m_Source_Path>
/home/csk/Desktop/cluster/DUD-E-result/aofb

> <s_m_Source_File>
dock_pv.maegz

> <i_m_Source_File_Index>
478

> <chembl_id>
CHEMBL452004

> <chembl_pref_name>
None

> <i_lp_mmshare_version>
53161

> <i_f3d_flags>
0

> <r_lp_tautomer_probability>
1

> <s_lp_Force_Field>
OPLS_2005

> <r_lp_Energy>
19.242858

> <b_lp_Chiralities_Consistent>
1

> <s_lp_Variant>
CHEMBL2039_lig540-1

> <s_i_glide_gridfile>
glide-grid_1s3b

> <i_i_glide_lignum>
642

> <i_i_glide_rotatable_bonds>
1

> <r_i_docking_score>
-6.96423705239132

> <r_i_glide_ligand_efficiency>
-0.366538792231122

> <r_i_glide_ligand_efficiency_sa>
-0.978072716550118

> <r_i_glide_ligand_efficiency_ln>
-1.76558367087809

> <r_i_glide_gscore>
-6.96423705239132

> <r_i_glide_lipo>
-3.33970301556373

> <r_i_glide_hbond>
0

> <r_i_glide_metal>
0

> <r_i_glide_rewards>
-2.57986613572886

> <r_i_glide_evdw>
-22.0315570831299

> <r_i_glide_ecoul>
0.379399687051773

> <r_i_glide_erotb>
0

> <r_i_glide_esite>
0

> <r_i_glide_emodel>
-23.5791048240931

> <r_i_glide_energy>
-21.6521573960781

> <r_i_glide_einternal>
0.968060374259949

> <i_i_glide_confnum>
1

> <i_i_glide_posenum>
25

> <r_i_glide_eff_state_penalty>
0

> <s_user_duplicate_titles>
CHEMBL2039_lig540

> <s_m_subgroup_title>
dock_pv

> <s_m_subgroupid>
dock_pv

> <b_m_subgroup_collapsed>
1

$$$$
CHEMBL2039_lig1605
                    3D
 Schrodinger Suite 2021-1.
 39 41  0  0  1  0            999 V2000
   53.0716  154.8130   24.8554 C   0  0  0  0  0  0
   53.0938  153.3318   25.3039 C   0  0  0  0  0  0
   52.0233  153.0780   26.3604 C   0  0  0  0  0  0
   51.7261  154.2515   27.2331 C   0  0  0  0  0  0
   50.8759  154.1145   28.3144 C   0  0  0  0  0  0
   50.5746  155.1925   29.1354 C   0  0  0  0  0  0
   51.1456  156.4404   28.9037 C   0  0  0  0  0  0
   52.0560  156.5922   27.8477 C   0  0  0  0  0  0
   52.2726  155.5211   26.9814 C   0  0  0  0  0  0
   53.1094  155.7714   25.9172 O   0  0  0  0  0  0
   51.4658  151.9930   26.5040 O   0  0  0  0  0  0
   51.7577  155.0440   24.1116 C   0  0  0  0  0  0
   54.3879  155.0632   24.1042 C   0  0  0  0  0  0
   50.6850  157.4565   29.7041 O   0  0  0  0  0  0
   50.9548  158.8183   29.4010 C   0  0  0  0  0  0
   50.0162  159.6494   30.2654 C   0  0  0  0  0  0
   50.5198  160.5452   31.2138 C   0  0  0  0  0  0
   49.6529  161.1760   32.1051 C   0  0  0  0  0  0
   48.2778  160.9551   32.0318 C   0  0  0  0  0  0
   47.7650  160.0985   31.0595 C   0  0  0  0  0  0
   48.6319  159.4448   30.1831 C   0  0  0  0  0  0
   51.8491  160.7750   31.2991 F   0  0  0  0  0  0
   52.8654  152.6967   24.4475 H   0  0  0  0  0  0
   54.0612  153.0446   25.7055 H   0  0  0  0  0  0
   50.4561  153.1436   28.5061 H   0  0  0  0  0  0
   49.8812  155.0575   29.9518 H   0  0  0  0  0  0
   52.5208  157.5445   27.6425 H   0  0  0  0  0  0
   51.7620  154.3450   23.3028 H   0  0  0  0  0  0
   50.8682  154.8516   24.7081 H   0  0  0  0  0  0
   51.6561  156.0480   23.7052 H   0  0  0  0  0  0
   54.4370  154.4854   23.1812 H   0  0  0  0  0  0
   54.5055  156.1151   23.8439 H   0  0  0  0  0  0
   55.2502  154.7767   24.7013 H   0  0  0  0  0  0
   50.7641  159.0450   28.3539 H   0  0  0  0  0  0
   52.0036  159.0424   29.6027 H   0  0  0  0  0  0
   50.0556  161.8423   32.8530 H   0  0  0  0  0  0
   47.6117  161.4507   32.7223 H   0  0  0  0  0  0
   46.6999  159.9236   30.9980 H   0  0  0  0  0  0
   48.2243  158.7479   29.4654 H   0  0  0  0  0  0
  1  2  1  0  0  0
  1 10  1  0  0  0
  1 12  1  0  0  0
  1 13  1  0  0  0
  2  3  1  0  0  0
  2 23  1  0  0  0
  2 24  1  0  0  0
  3  4  1  0  0  0
  3 11  2  0  0  0
  4  5  1  0  0  0
  4  9  2  0  0  0
  5  6  2  0  0  0
  5 25  1  0  0  0
  6  7  1  0  0  0
  6 26  1  0  0  0
  7  8  2  0  0  0
  7 14  1  0  0  0
  8  9  1  0  0  0
  8 27  1  0  0  0
  9 10  1  0  0  0
 12 28  1  0  0  0
 12 29  1  0  0  0
 12 30  1  0  0  0
 13 31  1  0  0  0
 13 32  1  0  0  0
 13 33  1  0  0  0
 14 15  1  0  0  0
 15 16  1  0  0  0
 15 34  1  0  0  0
 15 35  1  0  0  0
 16 17  1  0  0  0
 16 21  2  0  0  0
 17 18  2  0  0  0
 17 22  1  0  0  0
 18 19  1  0  0  0
 18 36  1  0  0  0
 19 20  2  0  0  0
 19 37  1  0  0  0
 20 21  1  0  0  0
 20 38  1  0  0  0
 21 39  1  0  0  0
M  END
> <s_m_entry_id>
10443

> <s_m_entry_name>
dock_pv.479

> <s_m_Source_Path>
/home/csk/Desktop/cluster/DUD-E-result/aofb

> <s_m_Source_File>
dock_pv.maegz

> <i_m_Source_File_Index>
479

> <chembl_id>
CHEMBL3741889

> <chembl_pref_name>
None

> <i_lp_mmshare_version>
53161

> <i_f3d_flags>
0

> <r_lp_tautomer_probability>
0.99995

> <s_lp_Force_Field>
OPLS_2005

> <r_lp_Energy>
22.669731

> <b_lp_Chiralities_Consistent>
1

> <s_lp_Variant>
CHEMBL2039_lig1605-1

> <s_i_glide_gridfile>
glide-grid_1s3b

> <i_i_glide_lignum>
1866

> <i_i_glide_rotatable_bonds>
3

> <r_i_docking_score>
-6.96222042889104

> <r_i_glide_ligand_efficiency>
-0.316464564949593

> <r_i_glide_ligand_efficiency_sa>
-0.886746156833848

> <r_i_glide_ligand_efficiency_ln>
-1.70182062598148

> <r_i_glide_gscore>
-6.96222042889104

> <r_i_glide_lipo>
-4.02621974665004

> <r_i_glide_hbond>
0

> <r_i_glide_metal>
0

> <r_i_glide_rewards>
-2.77435497291305

> <r_i_glide_evdw>
-13.8969106674194

> <r_i_glide_ecoul>
-0.520956993103027

> <r_i_glide_erotb>
0.61134337300848

> <r_i_glide_esite>
0

> <r_i_glide_emodel>
-26.3761623799828

> <r_i_glide_energy>
-14.4178676605225

> <r_i_glide_einternal>
2.1605384349823

> <i_i_glide_confnum>
26

> <i_i_glide_posenum>
342

> <r_i_glide_eff_state_penalty>
0

> <s_user_duplicate_titles>
CHEMBL2039_lig1605

> <s_m_subgroup_title>
dock_pv

> <s_m_subgroupid>
dock_pv

> <b_m_subgroup_collapsed>
1

$$$$
CHEMBL2039_lig1472
                    3D
 Schrodinger Suite 2021-1.
 33 34  0  0  1  0            999 V2000
   52.0567  155.9576   27.3352 C   0  0  0  0  0  0
   52.8551  156.5126   26.3376 C   0  0  0  0  0  0
   53.1673  155.8442   25.1546 C   0  0  0  0  0  0
   52.6906  154.5581   24.9452 C   0  0  0  0  0  0
   51.9595  153.9399   25.9531 C   0  0  0  0  0  0
   51.6558  154.6209   27.1463 C   0  0  0  0  0  0
   51.5616  156.8080   28.4700 C   0  0  0  0  0  0
   51.8382  158.1166   28.6954 C   0  0  0  0  0  0
   51.1648  158.9719   29.6535 C   0  0  0  0  0  0
   49.8731  158.6463   29.8604 N   0  0  0  0  0  0
   51.7239  159.9484   30.1469 O   0  0  0  0  0  0
   48.9088  159.2473   30.6778 C   0  0  0  0  0  0
   49.2018  160.1273   31.7299 C   0  0  0  0  0  0
   48.1748  160.6154   32.5346 C   0  0  0  0  0  0
   46.8558  160.2441   32.2835 C   0  0  0  0  0  0
   46.5525  159.3989   31.2210 C   0  0  0  0  0  0
   47.5794  158.8906   30.4287 C   0  0  0  0  0  0
   50.9193  153.8726   28.2249 C   0  0  0  0  0  0
   51.2559  154.1894   29.4599 F   0  0  0  0  0  0
   49.6674  154.2465   28.0995 F   0  0  0  0  0  0
   51.0563  152.5526   28.1038 F   0  0  0  0  0  0
   48.4574  161.4421   33.5644 F   0  0  0  0  0  0
   53.3112  157.4605   26.5036 H   0  0  0  0  0  0
   53.7963  156.3203   24.4172 H   0  0  0  0  0  0
   52.9256  154.0262   24.0343 H   0  0  0  0  0  0
   51.6340  152.9211   25.8004 H   0  0  0  0  0  0
   50.8345  156.3515   29.1211 H   0  0  0  0  0  0
   52.5865  158.6287   28.1258 H   0  0  0  0  0  0
   49.5268  157.8837   29.3026 H   0  0  0  0  0  0
   50.2139  160.4193   31.9639 H   0  0  0  0  0  0
   46.0616  160.6278   32.9041 H   0  0  0  0  0  0
   45.5252  159.1286   31.0210 H   0  0  0  0  0  0
   47.3288  158.2213   29.6183 H   0  0  0  0  0  0
  1  2  2  0  0  0
  1  6  1  0  0  0
  1  7  1  0  0  0
  2  3  1  0  0  0
  2 23  1  0  0  0
  3  4  2  0  0  0
  3 24  1  0  0  0
  4  5  1  0  0  0
  4 25  1  0  0  0
  5  6  2  0  0  0
  5 26  1  0  0  0
  6 18  1  0  0  0
  7  8  2  0  0  0
  7 27  1  0  0  0
  8  9  1  0  0  0
  8 28  1  0  0  0
  9 10  1  0  0  0
  9 11  2  0  0  0
 10 12  1  0  0  0
 10 29  1  0  0  0
 12 13  2  0  0  0
 12 17  1  0  0  0
 13 14  1  0  0  0
 13 30  1  0  0  0
 14 15  2  0  0  0
 14 22  1  0  0  0
 15 16  1  0  0  0
 15 31  1  0  0  0
 16 17  2  0  0  0
 16 32  1  0  0  0
 17 33  1  0  0  0
 18 19  1  0  0  0
 18 20  1  0  0  0
 18 21  1  0  0  0
M  END
> <s_m_entry_id>
10444

> <s_m_entry_name>
dock_pv.480

> <s_m_Source_Path>
/home/csk/Desktop/cluster/DUD-E-result/aofb

> <s_m_Source_File>
dock_pv.maegz

> <i_m_Source_File_Index>
480

> <chembl_id>
CHEMBL3613269

> <chembl_pref_name>
None

> <i_lp_mmshare_version>
53161

> <i_f3d_flags>
0

> <r_lp_tautomer_probability>
1

> <s_lp_Force_Field>
OPLS_2005

> <r_lp_Energy>
21.774619

> <b_lp_Chiralities_Consistent>
1

> <s_lp_Variant>
CHEMBL2039_lig1472-1

> <s_i_glide_gridfile>
glide-grid_1s3b

> <i_i_glide_lignum>
1696

> <i_i_glide_rotatable_bonds>
5

> <r_i_docking_score>
-6.96101329318354

> <r_i_glide_ligand_efficiency>
-0.316409695144706

> <r_i_glide_ligand_efficiency_sa>
-0.88659240948265

> <r_i_glide_ligand_efficiency_ln>
-1.70152555798322

> <r_i_glide_gscore>
-6.96101329318354

> <r_i_glide_lipo>
-3.78993790039546

> <r_i_glide_hbond>
0

> <r_i_glide_metal>
0

> <r_i_glide_rewards>
-2.93449547200753

> <r_i_glide_evdw>
-17.154956817627

> <r_i_glide_ecoul>
0.269636631011963

> <r_i_glide_erotb>
0.580722425449003

> <r_i_glide_esite>
0

> <r_i_glide_emodel>
-16.976093258378

> <r_i_glide_energy>
-16.885320186615

> <r_i_glide_einternal>
3.7822699546814

> <i_i_glide_confnum>
4

> <i_i_glide_posenum>
13

> <r_i_glide_eff_state_penalty>
0

> <s_user_duplicate_titles>
CHEMBL2039_lig1472

> <s_m_subgroup_title>
dock_pv

> <s_m_subgroupid>
dock_pv

> <b_m_subgroup_collapsed>
1

$$$$
CHEMBL2039_lig1027
                    3D
 Schrodinger Suite 2021-1.
 37 39  0  0  1  0            999 V2000
   47.4306  160.1222   31.7793 C   0  0  0  0  0  0
   48.7469  160.5696   31.7848 C   0  0  0  0  0  0
   49.7206  159.8440   31.1048 C   0  0  0  0  0  0
   49.3997  158.6440   30.4447 C   0  0  0  0  0  0
   48.0677  158.2187   30.4456 C   0  0  0  0  0  0
   47.0858  158.9610   31.0974 C   0  0  0  0  0  0
   50.4560  157.8991   29.7040 C   0  0  0  0  0  0
   51.5135  158.4584   29.2768 N   0  0  0  0  0  0
   52.2127  157.5851   28.4381 N   0  0  2  0  0  0
   51.7635  156.2223   28.6178 C   0  0  1  0  0  0
   50.4461  156.3914   29.3155 C   0  0  0  0  0  0
   51.7679  155.3733   27.3600 C   0  0  0  0  0  0
   52.0578  155.9261   26.1120 C   0  0  0  0  0  0
   52.2213  155.1092   25.0097 C   0  0  0  0  0  0
   52.0560  153.7366   25.1113 C   0  0  0  0  0  0
   51.7255  153.1829   26.3454 C   0  0  0  0  0  0
   51.5768  153.9962   27.4689 C   0  0  0  0  0  0
   53.6559  157.6914   28.5040 C   0  0  0  0  0  0
   51.7010  151.6951   26.5040 C   0  0  0  0  0  0
   46.6670  160.6796   32.3000 H   0  0  0  0  0  0
   49.0146  161.4762   32.3076 H   0  0  0  0  0  0
   50.7368  160.2144   31.1128 H   0  0  0  0  0  0
   47.7775  157.3262   29.9127 H   0  0  0  0  0  0
   46.0560  158.6440   31.0727 H   0  0  0  0  0  0
   52.4370  155.7061   29.3039 H   0  0  0  0  0  0
   49.6560  156.0338   28.6826 H   0  0  0  0  0  0
   50.4231  155.6677   30.1040 H   0  0  0  0  0  0
   52.2138  156.9872   25.9887 H   0  0  0  0  0  0
   52.5213  155.5755   24.1040 H   0  0  0  0  0  0
   52.2237  153.1079   24.2486 H   0  0  0  0  0  0
   51.3845  153.5562   28.4375 H   0  0  0  0  0  0
   54.0792  157.4440   27.5360 H   0  0  0  0  0  0
   54.0091  158.6581   28.8088 H   0  0  0  0  0  0
   54.0561  157.0402   29.2610 H   0  0  0  0  0  0
   51.2560  151.1229   25.7040 H   0  0  0  0  0  0
   51.2268  151.3971   27.4376 H   0  0  0  0  0  0
   52.7553  151.4440   26.5029 H   0  0  0  0  0  0
  1  2  2  0  0  0
  1  6  1  0  0  0
  1 20  1  0  0  0
  2  3  1  0  0  0
  2 21  1  0  0  0
  3  4  2  0  0  0
  3 22  1  0  0  0
  4  5  1  0  0  0
  4  7  1  0  0  0
  5  6  2  0  0  0
  5 23  1  0  0  0
  6 24  1  0  0  0
  7  8  2  0  0  0
  7 11  1  0  0  0
  8  9  1  0  0  0
  9 10  1  0  0  0
  9 18  1  0  0  0
 10 11  1  0  0  0
 10 12  1  0  0  0
 10 25  1  0  0  0
 11 26  1  0  0  0
 11 27  1  0  0  0
 12 13  2  0  0  0
 12 17  1  0  0  0
 13 14  1  0  0  0
 13 28  1  0  0  0
 14 15  2  0  0  0
 14 29  1  0  0  0
 15 16  1  0  0  0
 15 30  1  0  0  0
 16 17  2  0  0  0
 16 19  1  0  0  0
 17 31  1  0  0  0
 18 32  1  0  0  0
 18 33  1  0  0  0
 18 34  1  0  0  0
 19 35  1  0  0  0
 19 36  1  0  0  0
 19 37  1  0  0  0
M  END
> <s_m_entry_id>
10445

> <s_m_entry_name>
dock_pv.481

> <s_m_Source_Path>
/home/csk/Desktop/cluster/DUD-E-result/aofb

> <s_m_Source_File>
dock_pv.maegz

> <i_m_Source_File_Index>
481

> <chembl_id>
CHEMBL2417761

> <chembl_pref_name>
None

> <i_lp_mmshare_version>
53161

> <i_f3d_flags>
0

> <r_lp_tautomer_probability>
1

> <s_lp_Force_Field>
OPLS_2005

> <r_lp_Energy>
23.630883

> <b_lp_Chiralities_Consistent>
1

> <s_lp_Variant>
CHEMBL2039_lig1027-2

> <s_i_glide_gridfile>
glide-grid_1s3b

> <i_i_glide_lignum>
1195

> <i_i_glide_rotatable_bonds>
2

> <r_i_docking_score>
-6.95903084280745

> <r_i_glide_ligand_efficiency>
-0.366264781200392

> <r_i_glide_ligand_efficiency_sa>
-0.977341545064668

> <r_i_glide_ligand_efficiency_ln>
-1.76426378492945

> <r_i_glide_gscore>
-6.95903084280745

> <r_i_glide_lipo>
-3.98331582299155

> <r_i_glide_hbond>
0

> <r_i_glide_metal>
0

> <r_i_glide_rewards>
-2.87500464239212

> <r_i_glide_evdw>
-16.0322971343994

> <r_i_glide_ecoul>
0.948006451129913

> <r_i_glide_erotb>
0.558703511626711

> <r_i_glide_esite>
0

> <r_i_glide_emodel>
-31.6840179233796

> <r_i_glide_energy>
-15.0842906832695

> <r_i_glide_einternal>
2.19144463539124

> <i_i_glide_confnum>
2

> <i_i_glide_posenum>
284

> <r_i_glide_eff_state_penalty>
0

> <s_user_duplicate_titles>
CHEMBL2039_lig1027

> <s_m_subgroup_title>
dock_pv

> <s_m_subgroupid>
dock_pv

> <b_m_subgroup_collapsed>
1

$$$$
CHEMBL2039_lig85
                    3D
 Schrodinger Suite 2021-1.
 29 31  0  0  1  0            999 V2000
   50.3134  161.3763   31.7040 C   0  0  0  0  0  0
   49.1244  160.6624   31.8540 C   0  0  0  0  0  0
   48.9089  159.4823   31.1523 C   0  0  0  0  0  0
   51.3258  160.9881   30.8195 C   0  0  0  0  0  0
   51.1251  159.7841   30.1474 C   0  0  0  0  0  0
   49.9456  159.0261   30.3319 C   0  0  0  0  0  0
   50.0592  157.8194   29.7219 N   0  0  0  0  0  0
   51.2556  157.7974   29.1926 C   0  0  0  0  0  0
   51.8900  159.0045   29.3049 N   0  0  0  0  0  0
   51.8025  156.7628   28.4525 N   0  0  0  0  0  0
   51.2697  155.5206   28.3429 C   0  0  0  0  0  0
   51.7527  154.7039   27.1682 C   0  0  0  0  0  0
   50.4558  155.0445   29.1358 O   0  0  0  0  0  0
   52.2749  155.3291   26.0219 C   0  0  0  0  0  0
   52.7310  154.5674   24.9522 C   0  0  0  0  0  0
   52.6336  153.1816   24.9949 C   0  0  0  0  0  0
   52.0824  152.5495   26.1048 C   0  0  0  0  0  0
   51.6549  153.3056   27.1938 C   0  0  0  0  0  0
   52.7710  161.9138   30.6266 Cl  0  0  0  0  0  0
   50.4381  162.2817   32.2752 H   0  0  0  0  0  0
   48.3699  161.0252   32.5372 H   0  0  0  0  0  0
   48.0123  158.8981   31.2979 H   0  0  0  0  0  0
   52.8286  159.1663   28.9676 H   0  0  0  0  0  0
   52.6821  156.9363   27.9935 H   0  0  0  0  0  0
   52.3511  156.4048   25.9494 H   0  0  0  0  0  0
   53.1738  155.0531   24.1023 H   0  0  0  0  0  0
   52.9864  152.5930   24.1602 H   0  0  0  0  0  0
   52.0019  151.4723   26.1260 H   0  0  0  0  0  0
   51.2445  152.7974   28.0562 H   0  0  0  0  0  0
  1  2  2  0  0  0
  1  4  1  0  0  0
  1 20  1  0  0  0
  2  3  1  0  0  0
  2 21  1  0  0  0
  3  6  2  0  0  0
  3 22  1  0  0  0
  4  5  2  0  0  0
  4 19  1  0  0  0
  5  6  1  0  0  0
  5  9  1  0  0  0
  6  7  1  0  0  0
  7  8  2  0  0  0
  8  9  1  0  0  0
  8 10  1  0  0  0
  9 23  1  0  0  0
 10 11  1  0  0  0
 10 24  1  0  0  0
 11 12  1  0  0  0
 11 13  2  0  0  0
 12 14  2  0  0  0
 12 18  1  0  0  0
 14 15  1  0  0  0
 14 25  1  0  0  0
 15 16  2  0  0  0
 15 26  1  0  0  0
 16 17  1  0  0  0
 16 27  1  0  0  0
 17 18  2  0  0  0
 17 28  1  0  0  0
 18 29  1  0  0  0
M  END
> <s_m_entry_id>
10446

> <s_m_entry_name>
dock_pv.482

> <s_m_Source_Path>
/home/csk/Desktop/cluster/DUD-E-result/aofb

> <s_m_Source_File>
dock_pv.maegz

> <i_m_Source_File_Index>
482

> <chembl_id>
CHEMBL4128848

> <chembl_pref_name>
None

> <i_lp_mmshare_version>
53161

> <i_f3d_flags>
0

> <r_lp_tautomer_probability>
1

> <s_lp_Force_Field>
OPLS_2005

> <r_lp_Energy>
15.801786

> <b_lp_Chiralities_Consistent>
1

> <s_lp_Variant>
CHEMBL2039_lig85-1

> <s_i_glide_gridfile>
glide-grid_1s3b

> <i_i_glide_lignum>
108

> <i_i_glide_rotatable_bonds>
3

> <r_i_docking_score>
-6.95770715046335

> <r_i_glide_ligand_efficiency>
-0.366195113182282

> <r_i_glide_ligand_efficiency_sa>
-0.977155642810461

> <r_i_glide_ligand_efficiency_ln>
-1.76392820048992

> <r_i_glide_gscore>
-6.95770715046335

> <r_i_glide_lipo>
-2.90364711818262

> <r_i_glide_hbond>
-0.220427614656523

> <r_i_glide_metal>
0

> <r_i_glide_rewards>
-3.06728624674642

> <r_i_glide_evdw>
-20.298038482666

> <r_i_glide_ecoul>
-3.08586120605469

> <r_i_glide_erotb>
0.727781926089826

> <r_i_glide_esite>
-0.0163469919261066

> <r_i_glide_emodel>
-30.4731524019688

> <r_i_glide_energy>
-23.3838996887207

> <r_i_glide_einternal>
1.50983870029449

> <i_i_glide_confnum>
4

> <i_i_glide_posenum>
172

> <r_i_glide_eff_state_penalty>
0

> <s_user_duplicate_titles>
CHEMBL2039_lig85

> <s_m_subgroup_title>
dock_pv

> <s_m_subgroupid>
dock_pv

> <b_m_subgroup_collapsed>
1

$$$$
CHEMBL2039_lig264
                    3D
 Schrodinger Suite 2021-1.
 35 37  0  0  1  0            999 V2000
   53.5713  153.4428   23.9227 C   0  0  0  0  0  0
   53.2104  152.2396   24.5324 C   0  0  0  0  0  0
   52.4477  152.2440   25.7039 C   0  0  0  0  0  0
   53.2193  154.6519   24.5088 C   0  0  0  0  0  0
   52.4560  154.6594   25.6735 C   0  0  0  0  0  0
   52.0560  153.4591   26.2679 C   0  0  0  0  0  0
   51.3578  153.4495   27.4677 O   0  0  0  0  0  0
   51.3326  154.5733   28.2960 C   0  0  0  0  0  0
   51.8619  155.8440   27.7473 C   0  0  0  0  0  0
   52.3085  155.8643   26.4703 C   0  0  0  0  0  0
   50.8562  154.4155   29.4149 O   0  0  0  0  0  0
   51.9268  157.0779   28.5040 C   0  0  0  0  0  0
   50.8560  157.3287   29.3040 N   0  0  0  0  0  0
   52.8684  157.8440   28.3506 O   0  0  0  0  0  0
   50.4599  158.5219   29.9272 C   0  0  0  0  0  0
   51.2898  159.6374   30.1040 C   0  0  0  0  0  0
   50.8789  160.6855   30.9178 C   0  0  0  0  0  0
   49.6270  160.6496   31.5257 C   0  0  0  0  0  0
   48.7590  159.5704   31.3045 C   0  0  0  0  0  0
   49.1876  158.5197   30.5012 C   0  0  0  0  0  0
   47.4991  159.4453   31.8445 O   0  0  0  0  0  0
   47.0466  160.4357   32.7501 C   0  0  0  0  0  0
   54.1639  153.4342   23.0201 H   0  0  0  0  0  0
   53.5065  151.3024   24.0859 H   0  0  0  0  0  0
   52.1534  151.3094   26.1564 H   0  0  0  0  0  0
   53.5977  155.5775   24.1043 H   0  0  0  0  0  0
   52.6747  156.7903   26.0445 H   0  0  0  0  0  0
   50.2088  156.5610   29.4019 H   0  0  0  0  0  0
   52.2898  159.6779   29.7040 H   0  0  0  0  0  0
   51.5451  161.5152   31.1035 H   0  0  0  0  0  0
   49.3564  161.4730   32.1674 H   0  0  0  0  0  0
   48.5320  157.6710   30.3725 H   0  0  0  0  0  0
   45.9850  160.2726   32.9040 H   0  0  0  0  0  0
   47.5572  160.3564   33.7108 H   0  0  0  0  0  0
   47.1738  161.4440   32.3591 H   0  0  0  0  0  0
  1  2  2  0  0  0
  1  4  1  0  0  0
  1 23  1  0  0  0
  2  3  1  0  0  0
  2 24  1  0  0  0
  3  6  2  0  0  0
  3 25  1  0  0  0
  4  5  2  0  0  0
  4 26  1  0  0  0
  5  6  1  0  0  0
  5 10  1  0  0  0
  6  7  1  0  0  0
  7  8  1  0  0  0
  8 11  2  0  0  0
  8  9  1  0  0  0
  9 12  1  0  0  0
  9 10  2  0  0  0
 10 27  1  0  0  0
 12 13  1  0  0  0
 12 14  2  0  0  0
 13 15  1  0  0  0
 13 28  1  0  0  0
 15 16  2  0  0  0
 15 20  1  0  0  0
 16 17  1  0  0  0
 16 29  1  0  0  0
 17 18  2  0  0  0
 17 30  1  0  0  0
 18 19  1  0  0  0
 18 31  1  0  0  0
 19 20  2  0  0  0
 19 21  1  0  0  0
 20 32  1  0  0  0
 21 22  1  0  0  0
 22 33  1  0  0  0
 22 34  1  0  0  0
 22 35  1  0  0  0
M  END
> <s_m_entry_id>
10447

> <s_m_entry_name>
dock_pv.483

> <s_m_Source_Path>
/home/csk/Desktop/cluster/DUD-E-result/aofb

> <s_m_Source_File>
dock_pv.maegz

> <i_m_Source_File_Index>
483

> <chembl_id>
CHEMBL469362

> <chembl_pref_name>
None

> <i_lp_mmshare_version>
53161

> <i_f3d_flags>
0

> <r_lp_tautomer_probability>
1

> <s_lp_Force_Field>
OPLS_2005

> <r_lp_Energy>
33.383355

> <b_lp_Chiralities_Consistent>
1

> <s_lp_Variant>
CHEMBL2039_lig264-1

> <s_i_glide_gridfile>
glide-grid_1s3b

> <i_i_glide_lignum>
313

> <i_i_glide_rotatable_bonds>
4

> <r_i_docking_score>
-6.9565215520383

> <r_i_glide_ligand_efficiency>
-0.31620552509265

> <r_i_glide_ligand_efficiency_sa>
-0.886020316967235

> <r_i_glide_ligand_efficiency_ln>
-1.70042761260708

> <r_i_glide_gscore>
-6.9565215520383

> <r_i_glide_lipo>
-4.18788526025062

> <r_i_glide_hbond>
0

> <r_i_glide_metal>
0

> <r_i_glide_rewards>
-2.40725203631551

> <r_i_glide_evdw>
-31.6595821380615

> <r_i_glide_ecoul>
3.94605684280396

> <r_i_glide_erotb>
0.629686325010318

> <r_i_glide_esite>
0

> <r_i_glide_emodel>
-26.169016563222

> <r_i_glide_energy>
-27.7135252952576

> <r_i_glide_einternal>
9.55827522277832

> <i_i_glide_confnum>
4

> <i_i_glide_posenum>
242

> <r_i_glide_eff_state_penalty>
0

> <s_user_duplicate_titles>
CHEMBL2039_lig264,521507

> <s_m_subgroup_title>
dock_pv

> <s_m_subgroupid>
dock_pv

> <b_m_subgroup_collapsed>
1

$$$$
CHEMBL2039_lig645
                    3D
 Schrodinger Suite 2021-1.
 36 38  0  0  1  0            999 V2000
   53.3511  155.5785   25.2118 C   0  0  0  0  0  0
   54.0767  155.0994   24.1325 C   0  0  0  0  0  0
   53.7881  153.8440   23.6327 C   0  0  0  0  0  0
   52.8613  153.0160   24.2461 C   0  0  0  0  0  0
   52.1971  153.4578   25.3804 C   0  0  0  0  0  0
   52.4530  154.7393   25.8793 C   0  0  0  0  0  0
   51.8539  155.1677   27.1732 C   0  0  0  0  0  0
   51.0810  154.3692   28.0186 C   0  0  0  0  0  0
   50.4559  155.3327   29.3040 S   0  0  0  0  0  0
   51.3662  156.6589   28.6922 C   0  0  0  0  0  0
   52.0566  156.3953   27.6229 N   0  0  0  0  0  0
   51.2564  157.9210   29.2340 N   0  0  0  0  0  0
   50.1779  158.3432   30.0072 N   0  0  0  0  0  0
   50.0357  159.5834   30.1751 C   0  0  0  0  0  0
   49.0381  160.0781   31.1079 C   0  0  0  0  0  0
   47.6826  159.6744   31.1396 C   0  0  0  0  0  0
   46.8555  160.1089   32.1788 C   0  0  0  0  0  0
   47.3718  160.8983   33.2020 C   0  0  0  0  0  0
   48.7024  161.2869   33.1678 C   0  0  0  0  0  0
   49.5171  160.9268   32.1041 C   0  0  0  0  0  0
   54.3969  153.4442   22.5042 F   0  0  0  0  0  0
   47.0786  158.7620   30.0838 C   0  0  0  0  0  0
   53.5692  156.5703   25.5785 H   0  0  0  0  0  0
   54.8137  155.7232   23.6468 H   0  0  0  0  0  0
   52.6796  152.0318   23.8442 H   0  0  0  0  0  0
   51.5067  152.7902   25.8724 H   0  0  0  0  0  0
   50.7976  153.3329   27.9222 H   0  0  0  0  0  0
   51.8299  158.6745   28.8757 H   0  0  0  0  0  0
   50.6613  160.3332   29.6972 H   0  0  0  0  0  0
   45.8183  159.8061   32.2150 H   0  0  0  0  0  0
   46.7535  161.2005   34.0298 H   0  0  0  0  0  0
   49.1168  161.8440   33.9848 H   0  0  0  0  0  0
   50.5538  161.2392   32.1297 H   0  0  0  0  0  0
   47.2572  159.1941   29.1057 H   0  0  0  0  0  0
   47.5474  157.7808   30.1070 H   0  0  0  0  0  0
   46.0010  158.6472   30.1962 H   0  0  0  0  0  0
  1  6  1  0  0  0
  1  2  2  0  0  0
  1 23  1  0  0  0
  2  3  1  0  0  0
  2 24  1  0  0  0
  3  4  2  0  0  0
  3 21  1  0  0  0
  4  5  1  0  0  0
  4 25  1  0  0  0
  5  6  2  0  0  0
  5 26  1  0  0  0
  6  7  1  0  0  0
  7 11  1  0  0  0
  7  8  2  0  0  0
  8  9  1  0  0  0
  8 27  1  0  0  0
  9 10  1  0  0  0
 10 12  1  0  0  0
 10 11  2  0  0  0
 12 13  1  0  0  0
 12 28  1  0  0  0
 13 14  2  0  0  0
 14 15  1  0  0  0
 14 29  1  0  0  0
 15 16  2  0  0  0
 15 20  1  0  0  0
 16 17  1  0  0  0
 16 22  1  0  0  0
 17 18  2  0  0  0
 17 30  1  0  0  0
 18 19  1  0  0  0
 18 31  1  0  0  0
 19 20  2  0  0  0
 19 32  1  0  0  0
 20 33  1  0  0  0
 22 34  1  0  0  0
 22 35  1  0  0  0
 22 36  1  0  0  0
M  END
> <s_m_entry_id>
10448

> <s_m_entry_name>
dock_pv.484

> <s_m_Source_Path>
/home/csk/Desktop/cluster/DUD-E-result/aofb

> <s_m_Source_File>
dock_pv.maegz

> <i_m_Source_File_Index>
484

> <chembl_id>
CHEMBL1934043

> <chembl_pref_name>
None

> <i_lp_mmshare_version>
53161

> <i_f3d_flags>
0

> <r_lp_tautomer_probability>
1

> <s_lp_Force_Field>
OPLS_2005

> <r_lp_Energy>
16.373551

> <b_lp_Chiralities_Consistent>
1

> <s_lp_Variant>
CHEMBL2039_lig645-1

> <s_i_glide_gridfile>
glide-grid_1s3b

> <i_i_glide_lignum>
754

> <i_i_glide_rotatable_bonds>
4

> <r_i_docking_score>
-6.95343324135071

> <r_i_glide_ligand_efficiency>
-0.316065147334123

> <r_i_glide_ligand_efficiency_sa>
-0.8856269729671

> <r_i_glide_ligand_efficiency_ln>
-1.69967271682617

> <r_i_glide_gscore>
-6.95343324135071

> <r_i_glide_lipo>
-4.28048101961712

> <r_i_glide_hbond>
0

> <r_i_glide_metal>
0

> <r_i_glide_rewards>
-2.66651680557324

> <r_i_glide_evdw>
-17.7301979064941

> <r_i_glide_ecoul>
0.766731917858124

> <r_i_glide_erotb>
0.76506469148564

> <r_i_glide_esite>
0

> <r_i_glide_emodel>
-20.7556009019237

> <r_i_glide_energy>
-16.963465988636

> <r_i_glide_einternal>
2.61754941940308

> <i_i_glide_confnum>
11

> <i_i_glide_posenum>
117

> <r_i_glide_eff_state_penalty>
0

> <s_user_duplicate_titles>
CHEMBL2039_lig645

> <s_m_subgroup_title>
dock_pv

> <s_m_subgroupid>
dock_pv

> <b_m_subgroup_collapsed>
1

$$$$
CHEMBL2039_lig1488
                    3D
 Schrodinger Suite 2021-1.
 35 36  0  0  1  0            999 V2000
   47.7310  160.9836   32.8900 C   0  0  0  0  0  0
   51.1899  156.9997   28.9040 C   0  0  0  0  0  0
   52.0571  156.4021   27.9009 C   0  0  0  0  0  0
   48.6442  160.2729   31.9242 C   0  0  0  0  0  0
   51.2483  158.3127   29.2131 C   0  0  0  0  0  0
   51.7450  155.0460   27.3867 C   0  0  0  0  0  0
   52.9479  157.0643   27.3706 O   0  0  0  0  0  0
   46.5036  160.4673   32.9039 F   0  0  0  0  0  0
   48.2444  160.9287   34.1110 F   0  0  0  0  0  0
   47.6560  162.2440   32.5041 F   0  0  0  0  0  0
   49.8622  160.8602   31.5719 C   0  0  0  0  0  0
   48.2583  159.0551   31.3732 C   0  0  0  0  0  0
   52.0560  154.7537   26.0534 C   0  0  0  0  0  0
   51.3077  154.0292   28.2380 C   0  0  0  0  0  0
   50.3135  159.0100   30.1040 C   0  0  0  0  0  0
   51.6557  152.4201   26.4752 C   0  0  0  0  0  0
   49.0983  158.4225   30.4795 C   0  0  0  0  0  0
   50.6861  160.2437   30.6411 C   0  0  0  0  0  0
   51.2562  152.7235   27.7723 C   0  0  0  0  0  0
   52.0255  153.4442   25.6007 C   0  0  0  0  0  0
   51.6560  151.0962   26.1040 O   0  0  0  0  0  0
   52.7581  150.6656   25.3041 C   0  0  0  0  0  0
   50.4584  156.3498   29.3540 H   0  0  0  0  0  0
   52.0091  158.9341   28.7597 H   0  0  0  0  0  0
   50.1685  161.7995   32.0134 H   0  0  0  0  0  0
   47.3237  158.5858   31.6438 H   0  0  0  0  0  0
   52.3994  155.5260   25.3786 H   0  0  0  0  0  0
   51.0809  154.2148   29.2785 H   0  0  0  0  0  0
   48.7886  157.4607   30.1040 H   0  0  0  0  0  0
   51.6301  160.7005   30.3807 H   0  0  0  0  0  0
   50.9536  151.9283   28.4381 H   0  0  0  0  0  0
   52.3114  153.2317   24.5828 H   0  0  0  0  0  0
   52.7982  149.5765   25.2941 H   0  0  0  0  0  0
   52.6867  151.0040   24.2711 H   0  0  0  0  0  0
   53.7056  151.0296   25.7039 H   0  0  0  0  0  0
  1  4  1  0  0  0
  1  8  1  0  0  0
  1  9  1  0  0  0
  1 10  1  0  0  0
  2  5  2  0  0  0
  2  3  1  0  0  0
  2 23  1  0  0  0
  3  6  1  0  0  0
  3  7  2  0  0  0
  4 11  2  0  0  0
  4 12  1  0  0  0
  5 15  1  0  0  0
  5 24  1  0  0  0
  6 13  2  0  0  0
  6 14  1  0  0  0
 11 18  1  0  0  0
 11 25  1  0  0  0
 12 17  2  0  0  0
 12 26  1  0  0  0
 13 20  1  0  0  0
 13 27  1  0  0  0
 14 19  2  0  0  0
 14 28  1  0  0  0
 15 17  1  0  0  0
 15 18  2  0  0  0
 16 19  1  0  0  0
 16 21  1  0  0  0
 16 20  2  0  0  0
 17 29  1  0  0  0
 18 30  1  0  0  0
 19 31  1  0  0  0
 20 32  1  0  0  0
 21 22  1  0  0  0
 22 33  1  0  0  0
 22 34  1  0  0  0
 22 35  1  0  0  0
M  END
> <s_m_entry_id>
10449

> <s_m_entry_name>
dock_pv.485

> <s_m_Source_Path>
/home/csk/Desktop/cluster/DUD-E-result/aofb

> <s_m_Source_File>
dock_pv.maegz

> <i_m_Source_File_Index>
485

> <chembl_id>
CHEMBL423911

> <chembl_pref_name>
None

> <i_lp_mmshare_version>
53161

> <i_f3d_flags>
0

> <r_lp_tautomer_probability>
1

> <s_lp_Force_Field>
OPLS_2005

> <r_lp_Energy>
19.21598

> <b_lp_Chiralities_Consistent>
1

> <s_lp_Variant>
CHEMBL2039_lig1488-1

> <s_i_glide_gridfile>
glide-grid_1s3b

> <i_i_glide_lignum>
1712

> <i_i_glide_rotatable_bonds>
5

> <r_i_docking_score>
-6.95310938063183

> <r_i_glide_ligand_efficiency>
-0.316050426392356

> <r_i_glide_ligand_efficiency_sa>
-0.885585724309326

> <r_i_glide_ligand_efficiency_ln>
-1.69959355345337

> <r_i_glide_gscore>
-6.95310938063183

> <r_i_glide_lipo>
-4.26853660264204

> <r_i_glide_hbond>
0

> <r_i_glide_metal>
0

> <r_i_glide_rewards>
-1.70084365665692

> <r_i_glide_evdw>
-30.1614570617676

> <r_i_glide_ecoul>
-0.44217973947525

> <r_i_glide_erotb>
0.590670692676796

> <r_i_glide_esite>
0

> <r_i_glide_emodel>
-34.0279690290572

> <r_i_glide_energy>
-30.6036368012428

> <r_i_glide_einternal>
6.65711450576782

> <i_i_glide_confnum>
11

> <i_i_glide_posenum>
49

> <r_i_glide_eff_state_penalty>
0

> <s_user_duplicate_titles>
CHEMBL2039_lig1488

> <s_m_subgroup_title>
dock_pv

> <s_m_subgroupid>
dock_pv

> <b_m_subgroup_collapsed>
1

$$$$
CHEMBL2039_lig2263
                    3D
 Schrodinger Suite 2021-1.
 25 27  0  0  1  0            999 V2000
   52.0560  154.3271   26.0182 C   0  0  0  0  0  0
   51.3652  153.6074   26.9928 C   0  0  0  0  0  0
   50.9660  154.2160   28.1841 C   0  0  0  0  0  0
   52.4560  155.6476   26.2482 C   0  0  0  0  0  0
   52.0661  156.2607   27.4508 C   0  0  0  0  0  0
   51.2559  155.5682   28.3541 C   0  0  0  0  0  0
   50.7447  156.4218   29.3040 O   0  0  0  0  0  0
   51.2933  157.6541   29.0544 C   0  0  0  0  0  0
   52.3004  157.4968   28.1040 C   0  0  0  0  0  0
   50.8116  158.8562   29.8366 C   0  0  0  0  0  0
   51.7715  159.8440   30.1040 C   0  0  0  0  0  0
   51.5075  160.9184   30.9474 C   0  0  0  0  0  0
   50.2515  161.0440   31.5279 C   0  0  0  0  0  0
   49.2560  160.1227   31.2275 C   0  0  0  0  0  0
   49.5226  159.0371   30.3915 C   0  0  0  0  0  0
   48.0685  157.8439   30.1040 Br  0  0  0  0  0  0
   52.3514  153.8315   25.1042 H   0  0  0  0  0  0
   51.1361  152.5658   26.8187 H   0  0  0  0  0  0
   50.4560  153.6695   28.9465 H   0  0  0  0  0  0
   53.0644  156.1747   25.5294 H   0  0  0  0  0  0
   52.9876  158.2440   27.7633 H   0  0  0  0  0  0
   52.7698  159.7428   29.7040 H   0  0  0  0  0  0
   52.2816  161.6374   31.1750 H   0  0  0  0  0  0
   50.0495  161.8636   32.2013 H   0  0  0  0  0  0
   48.2752  160.2378   31.6651 H   0  0  0  0  0  0
  1  2  2  0  0  0
  1  4  1  0  0  0
  1 17  1  0  0  0
  2  3  1  0  0  0
  2 18  1  0  0  0
  3  6  2  0  0  0
  3 19  1  0  0  0
  4  5  2  0  0  0
  4 20  1  0  0  0
  5  6  1  0  0  0
  5  9  1  0  0  0
  6  7  1  0  0  0
  7  8  1  0  0  0
  8  9  2  0  0  0
  8 10  1  0  0  0
  9 21  1  0  0  0
 10 11  2  0  0  0
 10 15  1  0  0  0
 11 12  1  0  0  0
 11 22  1  0  0  0
 12 13  2  0  0  0
 12 23  1  0  0  0
 13 14  1  0  0  0
 13 24  1  0  0  0
 14 15  2  0  0  0
 14 25  1  0  0  0
 15 16  1  0  0  0
M  END
> <s_m_entry_id>
10450

> <s_m_entry_name>
dock_pv.486

> <s_m_Source_Path>
/home/csk/Desktop/cluster/DUD-E-result/aofb

> <s_m_Source_File>
dock_pv.maegz

> <i_m_Source_File_Index>
486

> <chembl_id>
CHEMBL4282579

> <chembl_pref_name>
None

> <i_lp_mmshare_version>
53161

> <i_f3d_flags>
0

> <r_lp_tautomer_probability>
1

> <s_lp_Force_Field>
OPLS_2005

> <r_lp_Energy>
14.463701

> <b_lp_Chiralities_Consistent>
1

> <s_lp_Variant>
CHEMBL2039_lig2263-1

> <s_i_glide_gridfile>
glide-grid_1s3b

> <i_i_glide_lignum>
2623

> <i_i_glide_rotatable_bonds>
1

> <r_i_docking_score>
-6.94632117088883

> <r_i_glide_ligand_efficiency>
-0.434145073180552

> <r_i_glide_ligand_efficiency_sa>
-1.09397703180561

> <r_i_glide_ligand_efficiency_ln>
-1.84126118225917

> <r_i_glide_gscore>
-6.94632117088883

> <r_i_glide_lipo>
-3.64908496286498

> <r_i_glide_hbond>
0

> <r_i_glide_metal>
0

> <r_i_glide_rewards>
-2.44687731818182

> <r_i_glide_evdw>
-17.1135921478271

> <r_i_glide_ecoul>
-1.56725704669952

> <r_i_glide_erotb>
0.240409274554252

> <r_i_glide_esite>
0

> <r_i_glide_emodel>
-20.3220334243164

> <r_i_glide_energy>
-18.6808491945267

> <r_i_glide_einternal>
0.27297443151474

> <i_i_glide_confnum>
2

> <i_i_glide_posenum>
335

> <r_i_glide_eff_state_penalty>
0

> <s_user_duplicate_titles>
CHEMBL2039_lig2263

> <s_m_subgroup_title>
dock_pv

> <s_m_subgroupid>
dock_pv

> <b_m_subgroup_collapsed>
1

$$$$
CHEMBL2039_lig1282
                    3D
 Schrodinger Suite 2021-1.
 26 27  0  0  1  0            999 V2000
   52.8561  152.3784   25.9076 N   0  0  1  0  0  0
   51.9700  153.4907   25.5764 C   0  0  1  0  0  0
   51.7139  154.3745   26.7655 C   0  0  0  0  0  0
   52.1713  155.6747   26.5338 C   0  0  0  0  0  0
   52.4726  154.4756   24.5037 C   0  0  0  0  0  0
   52.8393  155.7852   25.1921 C   0  0  0  0  0  0
   51.1268  154.0470   27.9803 C   0  0  0  0  0  0
   52.0562  156.6372   27.5298 C   0  0  0  0  0  0
   50.9042  155.0441   28.9252 C   0  0  0  0  0  0
   51.3503  156.3418   28.6884 C   0  0  0  0  0  0
   53.2560  151.6503   24.7127 C   0  0  0  0  0  0
   53.2551  150.1916   24.8972 C   0  0  0  0  0  0
   53.2563  148.9703   24.9034 C   0  0  0  0  0  0
   53.6713  152.7882   26.3588 H   0  0  0  0  0  0
   51.0134  153.0762   25.2671 H   0  0  0  0  0  0
   53.3247  154.1210   23.9234 H   0  0  0  0  0  0
   51.6627  154.6662   23.7981 H   0  0  0  0  0  0
   53.9217  155.8556   25.3004 H   0  0  0  0  0  0
   52.4984  156.6445   24.6136 H   0  0  0  0  0  0
   50.8559  153.0231   28.1795 H   0  0  0  0  0  0
   52.4561  157.6277   27.3936 H   0  0  0  0  0  0
   50.4336  154.7989   29.8641 H   0  0  0  0  0  0
   51.1755  157.1355   29.3960 H   0  0  0  0  0  0
   54.2702  151.9650   24.5042 H   0  0  0  0  0  0
   52.6544  151.8755   23.8326 H   0  0  0  0  0  0
   53.2570  147.9026   24.9043 H   0  0  0  0  0  0
  1  2  1  0  0  0
  1 11  1  0  0  0
  1 14  1  0  0  0
  2  3  1  0  0  0
  2  5  1  0  0  0
  2 15  1  0  0  0
  3  4  1  0  0  0
  3  7  2  0  0  0
  4  6  1  0  0  0
  4  8  2  0  0  0
  5  6  1  0  0  0
  5 16  1  0  0  0
  5 17  1  0  0  0
  6 18  1  0  0  0
  6 19  1  0  0  0
  7  9  1  0  0  0
  7 20  1  0  0  0
  8 10  1  0  0  0
  8 21  1  0  0  0
  9 10  2  0  0  0
  9 22  1  0  0  0
 10 23  1  0  0  0
 11 12  1  0  0  0
 11 24  1  0  0  0
 11 25  1  0  0  0
 12 13  3  0  0  0
 13 26  1  0  0  0
M  END
> <s_m_entry_id>
10451

> <s_m_entry_name>
dock_pv.487

> <s_m_Source_Path>
/home/csk/Desktop/cluster/DUD-E-result/aofb

> <s_m_Source_File>
dock_pv.maegz

> <i_m_Source_File_Index>
487

> <chembl_id>
CHEMBL1201142

> <chembl_pref_name>
RASAGILINE MESYLATE

> <i_lp_mmshare_version>
53161

> <i_f3d_flags>
0

> <r_lp_tautomer_probability>
1

> <s_lp_Force_Field>
OPLS_2005

> <r_lp_Energy>
19.559837

> <b_lp_Chiralities_Consistent>
1

> <s_lp_Variant>
CHEMBL2039_lig1282-1

> <s_i_glide_gridfile>
glide-grid_1s3b

> <i_i_glide_lignum>
1474

> <i_i_glide_rotatable_bonds>
3

> <r_i_docking_score>
-6.94242380972331

> <r_i_glide_ligand_efficiency>
-0.534032600747947

> <r_i_glide_ligand_efficiency_sa>
-1.25568937743878

> <r_i_glide_ligand_efficiency_ln>
-1.94741162176473

> <r_i_glide_gscore>
-6.94242380972331

> <r_i_glide_lipo>
-3.36985779238241

> <r_i_glide_hbond>
-0.32

> <r_i_glide_metal>
0

> <r_i_glide_rewards>
-2.69340862186186

> <r_i_glide_evdw>
-21.2004280090332

> <r_i_glide_ecoul>
-3.69410419464111

> <r_i_glide_erotb>
1.05497963416878

> <r_i_glide_esite>
0

> <r_i_glide_emodel>
-28.8735533771867

> <r_i_glide_energy>
-24.8945322036743

> <r_i_glide_einternal>
6.51291179656982

> <i_i_glide_confnum>
2

> <i_i_glide_posenum>
282

> <r_i_glide_eff_state_penalty>
0

> <s_user_duplicate_titles>
CHEMBL2039_lig1282,CHEMBL2039_lig83,75752,75329

> <s_m_subgroup_title>
dock_pv

> <s_m_subgroupid>
dock_pv

> <b_m_subgroup_collapsed>
1

$$$$
CHEMBL2039_lig1300
                    3D
 Schrodinger Suite 2021-1.
 32 34  0  0  1  0            999 V2000
   49.2427  161.3299   32.3141 N   0  0  0  0  0  0
   48.0253  160.7754   32.4195 N   0  0  0  0  0  0
   47.8192  159.6571   31.6520 C   0  0  0  0  0  0
   49.0484  159.4440   30.9766 C   0  0  0  0  0  0
   49.5606  158.4760   30.1040 C   0  0  0  0  0  0
   50.8973  158.5523   29.6661 C   0  0  0  0  0  0
   51.6560  159.6723   30.0362 C   0  0  0  0  0  0
   51.1739  160.6518   30.9040 C   0  0  0  0  0  0
   49.8706  160.5269   31.4012 C   0  0  0  0  0  0
   51.5561  157.4008   28.9040 C   0  0  0  0  0  0
   52.6814  157.4933   28.4209 O   0  0  0  0  0  0
   50.8560  156.2440   28.9040 N   0  0  0  0  0  0
   51.2679  154.8896   28.5247 C   0  0  0  0  0  0
   51.7227  154.5328   27.1076 C   0  0  0  0  0  0
   51.8979  153.1746   26.8041 C   0  0  0  0  0  0
   52.4560  152.7761   25.5869 C   0  0  0  0  0  0
   52.7798  153.7399   24.6265 C   0  0  0  0  0  0
   52.5646  155.0879   24.9040 C   0  0  0  0  0  0
   52.0560  155.4845   26.1364 C   0  0  0  0  0  0
   53.4415  153.2949   23.0941 Cl  0  0  0  0  0  0
   52.7731  151.0978   25.3040 Cl  0  0  0  0  0  0
   47.3287  161.1685   33.0358 H   0  0  0  0  0  0
   46.8742  159.1351   31.6819 H   0  0  0  0  0  0
   48.9309  157.6384   29.8566 H   0  0  0  0  0  0
   52.6819  159.7511   29.7040 H   0  0  0  0  0  0
   51.8090  161.4672   31.2188 H   0  0  0  0  0  0
   49.9368  156.2939   29.3100 H   0  0  0  0  0  0
   52.0560  154.5849   29.2067 H   0  0  0  0  0  0
   50.4266  154.2439   28.7641 H   0  0  0  0  0  0
   51.6560  152.4233   27.5424 H   0  0  0  0  0  0
   52.8102  155.8402   24.1750 H   0  0  0  0  0  0
   51.9254  156.5390   26.3142 H   0  0  0  0  0  0
  1  2  1  0  0  0
  1  9  2  0  0  0
  2 22  1  0  0  0
  2  3  1  0  0  0
  3  4  2  0  0  0
  3 23  1  0  0  0
  4  5  1  0  0  0
  4  9  1  0  0  0
  5  6  2  0  0  0
  5 24  1  0  0  0
  6  7  1  0  0  0
  6 10  1  0  0  0
  7  8  2  0  0  0
  7 25  1  0  0  0
  8  9  1  0  0  0
  8 26  1  0  0  0
 10 11  2  0  0  0
 10 12  1  0  0  0
 12 13  1  0  0  0
 12 27  1  0  0  0
 13 14  1  0  0  0
 13 28  1  0  0  0
 13 29  1  0  0  0
 14 15  1  0  0  0
 14 19  2  0  0  0
 15 16  2  0  0  0
 15 30  1  0  0  0
 16 17  1  0  0  0
 16 21  1  0  0  0
 17 18  2  0  0  0
 17 20  1  0  0  0
 18 19  1  0  0  0
 18 31  1  0  0  0
 19 32  1  0  0  0
M  END
> <s_m_entry_id>
10452

> <s_m_entry_name>
dock_pv.488

> <s_m_Source_Path>
/home/csk/Desktop/cluster/DUD-E-result/aofb

> <s_m_Source_File>
dock_pv.maegz

> <i_m_Source_File_Index>
488

> <chembl_id>
CHEMBL3319255

> <chembl_pref_name>
None

> <i_lp_mmshare_version>
53161

> <i_f3d_flags>
0

> <r_lp_tautomer_probability>
0.0196078431372549

> <s_lp_Force_Field>
OPLS_2005

> <r_lp_Energy>
26.145005

> <b_lp_Chiralities_Consistent>
1

> <s_lp_Variant>
CHEMBL2039_lig1300-2

> <s_i_glide_gridfile>
glide-grid_1s3b

> <i_i_glide_lignum>
1503

> <i_i_glide_rotatable_bonds>
4

> <r_i_docking_score>
-6.94129711559819

> <r_i_glide_ligand_efficiency>
-0.330537957885628

> <r_i_glide_ligand_efficiency_sa>
-0.911929162296841

> <r_i_glide_ligand_efficiency_ln>
-1.71622168562014

> <r_i_glide_gscore>
-6.94129711559819

> <r_i_glide_lipo>
-3.85371924732668

> <r_i_glide_hbond>
0

> <r_i_glide_metal>
0

> <r_i_glide_rewards>
-2.27875368252009

> <r_i_glide_evdw>
-33.813793182373

> <r_i_glide_ecoul>
3.45085763931274

> <r_i_glide_erotb>
0.364236827470319

> <r_i_glide_esite>
0

> <r_i_glide_emodel>
-35.7737427707089

> <r_i_glide_energy>
-30.3629355430603

> <r_i_glide_einternal>
5.12719345092773

> <i_i_glide_confnum>
1

> <i_i_glide_posenum>
149

> <r_i_glide_eff_state_penalty>
0

> <s_user_duplicate_titles>
CHEMBL2039_lig1300

> <s_m_subgroup_title>
dock_pv

> <s_m_subgroupid>
dock_pv

> <b_m_subgroup_collapsed>
1

$$$$
CHEMBL2039_lig1264
                    3D
 Schrodinger Suite 2021-1.
 41 43  0  0  1  0            999 V2000
   46.6290  159.9859   31.8588 C   0  0  0  0  0  0
   49.1976  157.7721   30.1040 C   0  0  0  0  0  0
   51.2122  159.0146   29.7474 C   0  0  0  0  0  0
   50.4989  157.8175   29.6233 C   0  0  0  0  0  0
   49.4265  159.9018   31.1606 C   0  0  0  0  0  0
   47.1834  158.6529   31.3238 C   0  0  0  0  0  0
   50.6826  160.0434   30.5345 C   0  0  0  0  0  0
   52.5878  157.0790   27.2509 C   0  0  0  0  0  0
   47.6222  160.5849   32.8682 C   0  0  0  0  0  0
   48.9620  160.8905   32.1816 C   0  0  0  0  0  0
   52.2875  156.4696   28.6042 C   0  0  0  0  0  0
   50.9241  156.6576   28.9878 O   0  0  0  0  0  0
   48.6226  158.7958   30.8364 C   0  0  0  0  0  0
   49.6559  161.8440   32.5040 O   0  0  0  0  0  0
   51.9370  156.3924   26.0564 C   0  0  0  0  0  0
   52.4841  155.0575   25.6453 C   0  0  0  0  0  0
   51.9267  153.8677   26.1219 C   0  0  0  0  0  0
   52.4560  152.6512   25.7040 C   0  0  0  0  0  0
   53.5057  152.6440   24.7896 C   0  0  0  0  0  0
   54.0448  153.8372   24.3018 C   0  0  0  0  0  0
   53.5429  155.0440   24.7439 C   0  0  0  0  0  0
   46.4560  160.6761   31.0304 H   0  0  0  0  0  0
   45.6577  159.8264   32.3287 H   0  0  0  0  0  0
   48.6258  156.8709   29.9395 H   0  0  0  0  0  0
   52.2051  159.1178   29.3371 H   0  0  0  0  0  0
   46.5456  158.2795   30.5212 H   0  0  0  0  0  0
   47.1786  157.8946   32.1040 H   0  0  0  0  0  0
   51.2938  160.9157   30.7225 H   0  0  0  0  0  0
   53.6560  157.1459   27.0948 H   0  0  0  0  0  0
   52.2317  158.1016   27.3040 H   0  0  0  0  0  0
   47.2080  161.5121   33.2639 H   0  0  0  0  0  0
   47.7986  159.8635   33.6666 H   0  0  0  0  0  0
   52.5028  155.4009   28.5991 H   0  0  0  0  0  0
   52.9819  156.9120   29.3040 H   0  0  0  0  0  0
   52.0560  157.0440   25.1927 H   0  0  0  0  0  0
   50.8843  156.2440   26.2311 H   0  0  0  0  0  0
   51.1030  153.8856   26.8211 H   0  0  0  0  0  0
   52.0478  151.7221   26.0745 H   0  0  0  0  0  0
   53.9095  151.7002   24.4571 H   0  0  0  0  0  0
   54.8560  153.8440   23.5913 H   0  0  0  0  0  0
   53.9746  155.9655   24.3812 H   0  0  0  0  0  0
  1  6  1  0  0  0
  1  9  1  0  0  0
  1 22  1  0  0  0
  1 23  1  0  0  0
  2 13  2  0  0  0
  2  4  1  0  0  0
  2 24  1  0  0  0
  3  4  2  0  0  0
  3  7  1  0  0  0
  3 25  1  0  0  0
  4 12  1  0  0  0
  5 10  1  0  0  0
  5  7  2  0  0  0
  5 13  1  0  0  0
  6 13  1  0  0  0
  6 26  1  0  0  0
  6 27  1  0  0  0
  7 28  1  0  0  0
  8 11  1  0  0  0
  8 15  1  0  0  0
  8 29  1  0  0  0
  8 30  1  0  0  0
  9 10  1  0  0  0
  9 31  1  0  0  0
  9 32  1  0  0  0
 10 14  2  0  0  0
 11 12  1  0  0  0
 11 33  1  0  0  0
 11 34  1  0  0  0
 15 16  1  0  0  0
 15 35  1  0  0  0
 15 36  1  0  0  0
 16 17  1  0  0  0
 16 21  2  0  0  0
 17 18  2  0  0  0
 17 37  1  0  0  0
 18 19  1  0  0  0
 18 38  1  0  0  0
 19 20  2  0  0  0
 19 39  1  0  0  0
 20 21  1  0  0  0
 20 40  1  0  0  0
 21 41  1  0  0  0
M  END
> <s_m_entry_id>
10454

> <s_m_entry_name>
dock_pv.490

> <s_m_Source_Path>
/home/csk/Desktop/cluster/DUD-E-result/aofb

> <s_m_Source_File>
dock_pv.maegz

> <i_m_Source_File_Index>
490

> <chembl_id>
CHEMBL3288305

> <chembl_pref_name>
None

> <i_lp_mmshare_version>
53161

> <i_f3d_flags>
0

> <r_lp_tautomer_probability>
0.99995

> <s_lp_Force_Field>
OPLS_2005

> <r_lp_Energy>
20.640781

> <b_lp_Chiralities_Consistent>
1

> <s_lp_Variant>
CHEMBL2039_lig1264-1

> <s_i_glide_gridfile>
glide-grid_1s3b

> <i_i_glide_lignum>
1456

> <i_i_glide_rotatable_bonds>
5

> <r_i_docking_score>
-6.93925049462761

> <r_i_glide_ligand_efficiency>
-0.330440499744172

> <r_i_glide_ligand_efficiency_sa>
-0.911660282674465

> <r_i_glide_ligand_efficiency_ln>
-1.71571566272075

> <r_i_glide_gscore>
-6.93925049462761

> <r_i_glide_lipo>
-4.12905233571392

> <r_i_glide_hbond>
0

> <r_i_glide_metal>
0

> <r_i_glide_rewards>
-2.84430664700823

> <r_i_glide_evdw>
-15.8842878341675

> <r_i_glide_ecoul>
0.927181601524353

> <r_i_glide_erotb>
0.689245639574275

> <r_i_glide_esite>
0

> <r_i_glide_emodel>
-17.6567921840228

> <r_i_glide_energy>
-14.9571062326431

> <r_i_glide_einternal>
2.88258528709412

> <i_i_glide_confnum>
5

> <i_i_glide_posenum>
317

> <r_i_glide_eff_state_penalty>
0

> <s_user_duplicate_titles>
CHEMBL2039_lig1264

> <s_m_subgroup_title>
dock_pv

> <s_m_subgroupid>
dock_pv

> <b_m_subgroup_collapsed>
1

$$$$
CHEMBL2039_lig475
                    3D
 Schrodinger Suite 2021-1.
 36 38  0  0  1  0            999 V2000
   53.3672  152.6305   24.4325 C   0  0  0  0  0  0
   52.8560  151.5121   25.0654 C   0  0  0  0  0  0
   51.9481  151.6832   26.1040 C   0  0  0  0  0  0
   51.6144  152.9549   26.5476 C   0  0  0  0  0  0
   52.2199  154.0978   26.0026 C   0  0  0  0  0  0
   53.1044  153.9100   24.9040 C   0  0  0  0  0  0
   52.0569  155.3730   26.8014 C   0  0  0  0  0  0
   51.2560  155.4440   27.8618 N   0  0  0  0  0  0
   51.4261  156.5467   28.5406 C   0  0  0  0  0  0
   52.8090  157.4440   28.1040 S   0  0  0  0  0  0
   52.8560  156.5109   26.6630 C   0  0  0  0  0  0
   50.5361  157.0697   29.4566 N   0  0  0  0  0  0
   50.4163  158.4518   29.7673 N   0  0  0  0  0  0
   49.3875  158.8603   30.4071 C   0  0  0  0  0  0
   53.2575  149.9291   24.5040 Cl  0  0  0  0  0  0
   54.0550  155.1422   24.1454 Cl  0  0  0  0  0  0
   49.3729  160.2149   31.1344 C   0  0  0  0  0  0
   48.0259  160.9705   30.9918 C   0  0  0  0  0  0
   46.7830  160.1029   31.2229 C   0  0  0  0  0  0
   46.8562  158.8557   30.3536 C   0  0  0  0  0  0
   48.1102  158.0430   30.6608 C   0  0  0  0  0  0
   54.0408  152.5070   23.5992 H   0  0  0  0  0  0
   51.4842  150.8161   26.5491 H   0  0  0  0  0  0
   50.9357  153.0243   27.3852 H   0  0  0  0  0  0
   53.6159  156.7566   25.9457 H   0  0  0  0  0  0
   49.7303  156.5279   29.7272 H   0  0  0  0  0  0
   49.5578  160.0290   32.1923 H   0  0  0  0  0  0
   50.1960  160.8418   30.7872 H   0  0  0  0  0  0
   47.9999  161.7963   31.7041 H   0  0  0  0  0  0
   47.9702  161.4205   29.9991 H   0  0  0  0  0  0
   45.8740  160.6440   30.9768 H   0  0  0  0  0  0
   46.7051  159.8268   32.2760 H   0  0  0  0  0  0
   46.8560  159.1336   29.3022 H   0  0  0  0  0  0
   45.9708  158.2444   30.5040 H   0  0  0  0  0  0
   48.0862  157.1333   30.0654 H   0  0  0  0  0  0
   48.0765  157.7379   31.7040 H   0  0  0  0  0  0
  1  6  1  0  0  0
  1  2  2  0  0  0
  1 22  1  0  0  0
  2 15  1  0  0  0
  2  3  1  0  0  0
  3  4  2  0  0  0
  3 23  1  0  0  0
  4  5  1  0  0  0
  4 24  1  0  0  0
  5  7  1  0  0  0
  5  6  2  0  0  0
  6 16  1  0  0  0
  7 11  2  0  0  0
  7  8  1  0  0  0
  8  9  2  0  0  0
  9 12  1  0  0  0
  9 10  1  0  0  0
 10 11  1  0  0  0
 11 25  1  0  0  0
 12 13  1  0  0  0
 12 26  1  0  0  0
 13 14  2  0  0  0
 14 17  1  0  0  0
 14 21  1  0  0  0
 17 18  1  0  0  0
 17 27  1  0  0  0
 17 28  1  0  0  0
 18 19  1  0  0  0
 18 29  1  0  0  0
 18 30  1  0  0  0
 19 20  1  0  0  0
 19 31  1  0  0  0
 19 32  1  0  0  0
 20 21  1  0  0  0
 20 33  1  0  0  0
 20 34  1  0  0  0
 21 35  1  0  0  0
 21 36  1  0  0  0
M  END
> <s_m_entry_id>
10455

> <s_m_entry_name>
dock_pv.491

> <s_m_Source_Path>
/home/csk/Desktop/cluster/DUD-E-result/aofb

> <s_m_Source_File>
dock_pv.maegz

> <i_m_Source_File_Index>
491

> <chembl_id>
CHEMBL1254763

> <chembl_pref_name>
None

> <i_lp_mmshare_version>
53161

> <i_f3d_flags>
0

> <r_lp_tautomer_probability>
1

> <s_lp_Force_Field>
OPLS_2005

> <r_lp_Energy>
23.185688

> <b_lp_Chiralities_Consistent>
1

> <s_lp_Variant>
CHEMBL2039_lig475-1

> <s_i_glide_gridfile>
glide-grid_1s3b

> <i_i_glide_lignum>
570

> <i_i_glide_rotatable_bonds>
3

> <r_i_docking_score>
-6.93841802723957

> <r_i_glide_ligand_efficiency>
-0.330400858439979

> <r_i_glide_ligand_efficiency_sa>
-0.911550915322057

> <r_i_glide_ligand_efficiency_ln>
-1.71550983684122

> <r_i_glide_gscore>
-6.93841802723957

> <r_i_glide_lipo>
-4.30335252532391

> <r_i_glide_hbond>
0

> <r_i_glide_metal>
0

> <r_i_glide_rewards>
-2.43906068181818

> <r_i_glide_evdw>
-14.4272174835205

> <r_i_glide_ecoul>
0.231597438454628

> <r_i_glide_erotb>
0.490616438310358

> <r_i_glide_esite>
0

> <r_i_glide_emodel>
-29.2211960160304

> <r_i_glide_energy>
-14.1956200450659

> <r_i_glide_einternal>
5.21685886383057

> <i_i_glide_confnum>
1

> <i_i_glide_posenum>
134

> <r_i_glide_eff_state_penalty>
0

> <s_user_duplicate_titles>
CHEMBL2039_lig475

> <s_m_subgroup_title>
dock_pv

> <s_m_subgroupid>
dock_pv

> <b_m_subgroup_collapsed>
1

$$$$
CHEMBL2039_lig37
                    3D
 Schrodinger Suite 2021-1.
 21 22  0  0  1  0            999 V2000
   53.1548  155.5745   25.1215 C   0  0  0  0  0  0
   53.6510  156.6028   24.6591 O   0  0  0  0  0  0
   53.2925  154.2599   24.4979 C   0  0  0  0  0  0
   52.7393  153.1091   24.9467 C   0  0  0  0  0  0
   51.8470  153.0463   26.1249 C   0  0  0  0  0  0
   51.2575  152.0339   26.5059 O   0  0  0  0  0  0
   51.7608  154.3448   26.8800 C   0  0  0  0  0  0
   51.0784  154.3636   28.1048 C   0  0  0  0  0  0
   51.0567  155.5016   28.9001 C   0  0  0  0  0  0
   51.7634  156.6333   28.5028 C   0  0  0  0  0  0
   52.4379  156.6436   27.2812 C   0  0  0  0  0  0
   52.4165  155.5228   26.4343 C   0  0  0  0  0  0
   53.0295  151.7753   24.2682 C   0  0  0  0  0  0
   53.9295  154.1908   23.6276 H   0  0  0  0  0  0
   50.5711  153.4812   28.4657 H   0  0  0  0  0  0
   50.5158  155.4864   29.8339 H   0  0  0  0  0  0
   51.7845  157.5110   29.1338 H   0  0  0  0  0  0
   52.9815  157.5339   27.0022 H   0  0  0  0  0  0
   52.4561  150.9294   24.6409 H   0  0  0  0  0  0
   52.8781  151.8426   23.1897 H   0  0  0  0  0  0
   54.0571  151.5058   24.4607 H   0  0  0  0  0  0
  1  2  2  0  0  0
  1  3  1  0  0  0
  1 12  1  0  0  0
  3  4  2  0  0  0
  3 14  1  0  0  0
  4  5  1  0  0  0
  4 13  1  0  0  0
  5  6  2  0  0  0
  5  7  1  0  0  0
  7  8  2  0  0  0
  7 12  1  0  0  0
  8  9  1  0  0  0
  8 15  1  0  0  0
  9 10  2  0  0  0
  9 16  1  0  0  0
 10 11  1  0  0  0
 10 17  1  0  0  0
 11 12  2  0  0  0
 11 18  1  0  0  0
 13 19  1  0  0  0
 13 20  1  0  0  0
 13 21  1  0  0  0
M  END
> <s_m_entry_id>
10456

> <s_m_entry_name>
dock_pv.492

> <s_m_Source_Path>
/home/csk/Desktop/cluster/DUD-E-result/aofb

> <s_m_Source_File>
dock_pv.maegz

> <i_m_Source_File_Index>
492

> <chembl_id>
CHEMBL590

> <chembl_pref_name>
MENADIONE

> <i_lp_mmshare_version>
53161

> <i_f3d_flags>
0

> <r_lp_tautomer_probability>
1

> <s_lp_Force_Field>
OPLS_2005

> <r_lp_Energy>
4.702764

> <b_lp_Chiralities_Consistent>
1

> <s_lp_Variant>
CHEMBL2039_lig37-1

> <s_i_glide_gridfile>
glide-grid_1s3b

> <i_i_glide_lignum>
59

> <i_i_glide_rotatable_bonds>
0

> <r_i_docking_score>
-6.9369931599983

> <r_i_glide_ligand_efficiency>
-0.533614858461407

> <r_i_glide_ligand_efficiency_sa>
-1.25470712551076

> <r_i_glide_ligand_efficiency_ln>
-1.94588827621884

> <r_i_glide_gscore>
-6.9369931599983

> <r_i_glide_lipo>
-2.19028592525021

> <r_i_glide_hbond>
0

> <r_i_glide_metal>
0

> <r_i_glide_rewards>
-3.57152899301835

> <r_i_glide_evdw>
-20.0167102813721

> <r_i_glide_ecoul>
-1.16228485107422

> <r_i_glide_erotb>
0

> <r_i_glide_esite>
0

> <r_i_glide_emodel>
-26.6411980851423

> <r_i_glide_energy>
-21.1789951324463

> <r_i_glide_einternal>
0

> <i_i_glide_confnum>
1

> <i_i_glide_posenum>
92

> <r_i_glide_eff_state_penalty>
0

> <s_user_duplicate_titles>
CHEMBL2039_lig37

> <s_m_subgroup_title>
dock_pv

> <s_m_subgroupid>
dock_pv

> <b_m_subgroup_collapsed>
1

$$$$
CHEMBL2039_lig2086
                    3D
 Schrodinger Suite 2021-1.
 40 41  0  0  1  0            999 V2000
   50.4519  155.4456   29.2896 S   0  0  0  0  0  0
   50.8568  154.2384   28.1178 C   0  0  0  0  0  0
   51.7225  154.7523   27.1673 C   0  0  0  0  0  0
   52.0959  156.0078   27.4053 N   0  0  0  0  0  0
   51.5539  156.5120   28.4907 C   0  0  0  0  0  0
   52.2434  153.9648   26.0022 C   0  0  0  0  0  0
   52.3053  152.5605   26.0703 C   0  0  0  0  0  0
   52.8560  151.8001   25.0238 C   0  0  0  0  0  0
   53.2560  152.4651   23.8757 C   0  0  0  0  0  0
   53.2563  153.8442   23.8090 C   0  0  0  0  0  0
   52.7498  154.6024   24.8637 C   0  0  0  0  0  0
   52.8678  150.3219   25.0394 N   0  3  0  0  0  0
   52.0354  149.7365   25.7041 O   0  0  0  0  0  0
   53.6562  149.7100   24.3424 O   0  5  0  0  0  0
   51.6930  157.8249   28.9070 N   0  0  0  0  0  0
   50.7276  158.5286   29.6597 N   0  0  0  0  0  0
   50.9408  159.7073   30.1051 C   0  0  0  0  0  0
   49.7996  160.5264   30.7204 C   0  0  0  0  0  0
   48.4287  159.8135   30.7610 C   0  0  0  0  0  0
   52.3026  160.4231   30.1445 C   0  0  0  0  0  0
   52.8641  160.6535   31.5596 C   0  0  0  0  0  0
   54.3522  161.0431   31.5139 C   0  0  0  0  0  0
   50.4561  153.2417   28.1745 H   0  0  0  0  0  0
   51.9263  152.0490   26.9411 H   0  0  0  0  0  0
   53.6296  151.9076   23.0303 H   0  0  0  0  0  0
   53.6592  154.2684   22.9092 H   0  0  0  0  0  0
   52.7497  155.6804   24.7945 H   0  0  0  0  0  0
   52.4902  158.3802   28.6258 H   0  0  0  0  0  0
   50.0652  160.8270   31.7341 H   0  0  0  0  0  0
   49.6907  161.4436   30.1494 H   0  0  0  0  0  0
   47.6675  160.4561   31.2039 H   0  0  0  0  0  0
   48.0839  159.5457   29.7607 H   0  0  0  0  0  0
   48.4722  158.8986   31.3548 H   0  0  0  0  0  0
   52.2304  161.3934   29.6611 H   0  0  0  0  0  0
   53.0532  159.8438   29.6234 H   0  0  0  0  0  0
   52.7483  159.7694   32.1836 H   0  0  0  0  0  0
   52.3064  161.4441   32.0537 H   0  0  0  0  0  0
   54.7767  161.1005   32.5133 H   0  0  0  0  0  0
   54.5002  162.0104   31.0323 H   0  0  0  0  0  0
   54.9402  160.3069   30.9630 H   0  0  0  0  0  0
  1  2  1  0  0  0
  1  5  1  0  0  0
  2  3  2  0  0  0
  2 23  1  0  0  0
  3  4  1  0  0  0
  3  6  1  0  0  0
  4  5  2  0  0  0
  5 15  1  0  0  0
  6  7  2  0  0  0
  6 11  1  0  0  0
  7  8  1  0  0  0
  7 24  1  0  0  0
  8  9  2  0  0  0
  8 12  1  0  0  0
  9 10  1  0  0  0
  9 25  1  0  0  0
 10 11  2  0  0  0
 10 26  1  0  0  0
 11 27  1  0  0  0
 12 13  2  0  0  0
 12 14  1  0  0  0
 15 16  1  0  0  0
 15 28  1  0  0  0
 16 17  2  0  0  0
 17 18  1  0  0  0
 17 20  1  0  0  0
 18 19  1  0  0  0
 18 29  1  0  0  0
 18 30  1  0  0  0
 19 31  1  0  0  0
 19 32  1  0  0  0
 19 33  1  0  0  0
 20 21  1  0  0  0
 20 34  1  0  0  0
 20 35  1  0  0  0
 21 22  1  0  0  0
 21 36  1  0  0  0
 21 37  1  0  0  0
 22 38  1  0  0  0
 22 39  1  0  0  0
 22 40  1  0  0  0
M  CHG  2  12   1  14  -1
M  END
> <s_m_entry_id>
10457

> <s_m_entry_name>
dock_pv.493

> <s_m_Source_Path>
/home/csk/Desktop/cluster/DUD-E-result/aofb

> <s_m_Source_File>
dock_pv.maegz

> <i_m_Source_File_Index>
493

> <chembl_id>
CHEMBL4176538

> <chembl_pref_name>
None

> <i_lp_mmshare_version>
53161

> <i_f3d_flags>
0

> <r_lp_tautomer_probability>
1

> <s_lp_Force_Field>
OPLS_2005

> <r_lp_Energy>
18.447112

> <b_lp_Chiralities_Consistent>
1

> <s_lp_Variant>
CHEMBL2039_lig2086-1

> <s_i_glide_gridfile>
glide-grid_1s3b

> <i_i_glide_lignum>
2424

> <i_i_glide_rotatable_bonds>
7

> <r_i_docking_score>
-6.93483918597417

> <r_i_glide_ligand_efficiency>
-0.315219962998826

> <r_i_glide_ligand_efficiency_sa>
-0.883258733220383

> <r_i_glide_ligand_efficiency_ln>
-1.69512765145749

> <r_i_glide_gscore>
-6.93483918597417

> <r_i_glide_lipo>
-3.58452359532106

> <r_i_glide_hbond>
0

> <r_i_glide_metal>
0

> <r_i_glide_rewards>
-2.75268910412538

> <r_i_glide_evdw>
-24.4296321868896

> <r_i_glide_ecoul>
-1.83871173858643

> <r_i_glide_erotb>
0.919566868991845

> <r_i_glide_esite>
-0.0199049853871323

> <r_i_glide_emodel>
-30.3571767559455

> <r_i_glide_energy>
-26.2683439254761

> <r_i_glide_einternal>
6.0651068687439

> <i_i_glide_confnum>
2

> <i_i_glide_posenum>
61

> <r_i_glide_eff_state_penalty>
0

> <s_user_duplicate_titles>
CHEMBL2039_lig2086

> <s_m_subgroup_title>
dock_pv

> <s_m_subgroupid>
dock_pv

> <b_m_subgroup_collapsed>
1

$$$$
CHEMBL2039_lig663
                    3D
 Schrodinger Suite 2021-1.
 36 38  0  0  1  0            999 V2000
   50.4024  156.2227   29.5145 O   0  0  0  0  0  0
   48.6703  161.4281   32.6991 O   0  0  0  0  0  0
   51.9838  156.2717   27.9126 N   0  0  0  0  0  0
   51.4507  158.1930   29.1094 N   0  0  0  0  0  0
   51.7509  154.9810   27.4239 C   0  0  0  0  0  0
   52.1991  154.8616   26.1090 C   0  0  0  0  0  0
   51.2560  156.8634   28.9040 C   0  0  0  0  0  0
   52.7159  157.0440   26.9040 C   0  0  0  0  0  0
   52.8556  156.1333   25.6767 C   0  0  0  0  0  0
   51.3069  153.8568   28.1206 C   0  0  0  0  0  0
   50.6495  159.0528   29.8913 C   0  0  0  0  0  0
   52.1133  153.6363   25.4485 C   0  0  0  0  0  0
   51.2560  152.6340   27.4777 C   0  0  0  0  0  0
   51.6628  152.5195   26.1528 C   0  0  0  0  0  0
   51.2699  160.1647   30.4632 C   0  0  0  0  0  0
   49.2926  158.8106   30.1593 C   0  0  0  0  0  0
   49.2560  160.6496   31.7203 C   0  0  0  0  0  0
   50.5718  160.9546   31.3714 C   0  0  0  0  0  0
   48.6044  159.5931   31.0759 C   0  0  0  0  0  0
   47.5145  160.9239   33.3619 C   0  0  0  0  0  0
   52.2531  158.6158   28.6659 H   0  0  0  0  0  0
   52.0560  157.8439   26.6037 H   0  0  0  0  0  0
   53.6696  157.4062   27.2876 H   0  0  0  0  0  0
   53.9052  155.9542   25.4489 H   0  0  0  0  0  0
   52.3903  156.5829   24.7997 H   0  0  0  0  0  0
   51.0275  153.9017   29.1627 H   0  0  0  0  0  0
   52.4712  153.5202   24.4357 H   0  0  0  0  0  0
   50.9208  151.7610   28.0200 H   0  0  0  0  0  0
   51.6561  151.5401   25.7034 H   0  0  0  0  0  0
   52.3107  160.3770   30.2655 H   0  0  0  0  0  0
   48.7615  157.9904   29.7065 H   0  0  0  0  0  0
   51.0705  161.7847   31.8473 H   0  0  0  0  0  0
   47.5754  159.3500   31.2900 H   0  0  0  0  0  0
   47.2560  161.5730   34.1969 H   0  0  0  0  0  0
   46.6522  160.8834   32.6971 H   0  0  0  0  0  0
   47.6923  159.9271   33.7697 H   0  0  0  0  0  0
  1  7  2  0  0  0
  2 17  1  0  0  0
  2 20  1  0  0  0
  3  5  1  0  0  0
  3  7  1  0  0  0
  3  8  1  0  0  0
  4  7  1  0  0  0
  4 11  1  0  0  0
  4 21  1  0  0  0
  5  6  1  0  0  0
  5 10  2  0  0  0
  6  9  1  0  0  0
  6 12  2  0  0  0
  8  9  1  0  0  0
  8 22  1  0  0  0
  8 23  1  0  0  0
  9 24  1  0  0  0
  9 25  1  0  0  0
 10 13  1  0  0  0
 10 26  1  0  0  0
 11 15  2  0  0  0
 11 16  1  0  0  0
 12 14  1  0  0  0
 12 27  1  0  0  0
 13 14  2  0  0  0
 13 28  1  0  0  0
 14 29  1  0  0  0
 15 18  1  0  0  0
 15 30  1  0  0  0
 16 19  2  0  0  0
 16 31  1  0  0  0
 17 18  2  0  0  0
 17 19  1  0  0  0
 18 32  1  0  0  0
 19 33  1  0  0  0
 20 34  1  0  0  0
 20 35  1  0  0  0
 20 36  1  0  0  0
M  END
> <s_m_entry_id>
10458

> <s_m_entry_name>
dock_pv.494

> <s_m_Source_Path>
/home/csk/Desktop/cluster/DUD-E-result/aofb

> <s_m_Source_File>
dock_pv.maegz

> <i_m_Source_File_Index>
494

> <chembl_id>
CHEMBL1477100

> <chembl_pref_name>
None

> <i_lp_mmshare_version>
53161

> <i_f3d_flags>
0

> <r_lp_tautomer_probability>
1

> <s_lp_Force_Field>
OPLS_2005

> <r_lp_Energy>
50.785367

> <b_lp_Chiralities_Consistent>
1

> <s_lp_Variant>
CHEMBL2039_lig663-1

> <s_i_glide_gridfile>
glide-grid_1s3b

> <i_i_glide_lignum>
773

> <i_i_glide_rotatable_bonds>
4

> <r_i_docking_score>
-6.93438901914698

> <r_i_glide_ligand_efficiency>
-0.346719450957349

> <r_i_glide_ligand_efficiency_sa>
-0.94114138475494

> <r_i_glide_ligand_efficiency_ln>
-1.73544886003566

> <r_i_glide_gscore>
-6.93438901914698

> <r_i_glide_lipo>
-3.65050652916004

> <r_i_glide_hbond>
0

> <r_i_glide_metal>
0

> <r_i_glide_rewards>
-2.68249488660659

> <r_i_glide_evdw>
-21.8924732208252

> <r_i_glide_ecoul>
-1.67019295692444

> <r_i_glide_erotb>
0.743765001199564

> <r_i_glide_esite>
0

> <r_i_glide_emodel>
-30.0481903947282

> <r_i_glide_energy>
-23.5626661777496

> <r_i_glide_einternal>
1.98048388957977

> <i_i_glide_confnum>
4

> <i_i_glide_posenum>
196

> <r_i_glide_eff_state_penalty>
0

> <s_user_duplicate_titles>
CHEMBL2039_lig663

> <s_m_subgroup_title>
dock_pv

> <s_m_subgroupid>
dock_pv

> <b_m_subgroup_collapsed>
1

$$$$
CHEMBL2039_lig493
                    3D
 Schrodinger Suite 2021-1.
 31 33  0  0  1  0            999 V2000
   53.2560  152.5461   23.9100 C   0  0  0  0  0  0
   52.8560  151.6595   24.9040 C   0  0  0  0  0  0
   52.2158  152.1462   26.0410 C   0  0  0  0  0  0
   53.1972  153.9153   24.1276 C   0  0  0  0  0  0
   52.6377  154.3968   25.3040 C   0  0  0  0  0  0
   52.1180  153.5206   26.2647 C   0  0  0  0  0  0
   51.6247  154.0392   27.5664 C   0  0  0  0  0  0
   51.6560  155.5136   27.6892 C   0  0  0  0  0  0
   52.1775  156.2360   26.6616 C   0  0  0  0  0  0
   52.6729  155.7561   25.4980 O   0  0  0  0  0  0
   51.2560  153.2489   28.4334 O   0  0  0  0  0  0
   50.9851  156.1697   28.8049 C   0  0  0  0  0  0
   50.1310  155.5752   29.4602 O   0  0  0  0  0  0
   51.2564  157.4940   28.9652 N   0  0  0  0  0  0
   50.5284  158.4501   29.7040 C   0  0  0  0  0  0
   51.1909  159.6237   30.0847 C   0  0  0  0  0  0
   50.5796  160.5236   30.9604 C   0  0  0  0  0  0
   49.2978  160.2533   31.4403 C   0  0  0  0  0  0
   48.5969  159.1402   31.0047 C   0  0  0  0  0  0
   49.2091  158.2440   30.1446 C   0  0  0  0  0  0
   48.4112  161.4440   32.9040 I   0  0  0  0  0  0
   53.6560  152.1725   22.9813 H   0  0  0  0  0  0
   52.9339  150.5940   24.7429 H   0  0  0  0  0  0
   51.8020  151.4440   26.7505 H   0  0  0  0  0  0
   53.6194  154.5924   23.4058 H   0  0  0  0  0  0
   52.2024  157.3160   26.6234 H   0  0  0  0  0  0
   52.1225  157.8282   28.5729 H   0  0  0  0  0  0
   52.2082  159.8038   29.7685 H   0  0  0  0  0  0
   51.1176  161.3923   31.3123 H   0  0  0  0  0  0
   47.6034  158.9393   31.3781 H   0  0  0  0  0  0
   48.6460  157.3598   29.8938 H   0  0  0  0  0  0
  1  2  2  0  0  0
  1  4  1  0  0  0
  1 22  1  0  0  0
  2  3  1  0  0  0
  2 23  1  0  0  0
  3  6  2  0  0  0
  3 24  1  0  0  0
  4  5  2  0  0  0
  4 25  1  0  0  0
  5  6  1  0  0  0
  5 10  1  0  0  0
  6  7  1  0  0  0
  7 11  2  0  0  0
  7  8  1  0  0  0
  8 12  1  0  0  0
  8  9  2  0  0  0
  9 10  1  0  0  0
  9 26  1  0  0  0
 12 13  2  0  0  0
 12 14  1  0  0  0
 14 15  1  0  0  0
 14 27  1  0  0  0
 15 16  2  0  0  0
 15 20  1  0  0  0
 16 17  1  0  0  0
 16 28  1  0  0  0
 17 18  2  0  0  0
 17 29  1  0  0  0
 18 19  1  0  0  0
 18 21  1  0  0  0
 19 20  2  0  0  0
 19 30  1  0  0  0
 20 31  1  0  0  0
M  END
> <s_m_entry_id>
10459

> <s_m_entry_name>
dock_pv.495

> <s_m_Source_Path>
/home/csk/Desktop/cluster/DUD-E-result/aofb

> <s_m_Source_File>
dock_pv.maegz

> <i_m_Source_File_Index>
495

> <chembl_id>
CHEMBL1643121

> <chembl_pref_name>
None

> <i_lp_mmshare_version>
53161

> <i_f3d_flags>
0

> <r_lp_tautomer_probability>
1

> <s_lp_Force_Field>
OPLS_2005

> <r_lp_Energy>
24.257338

> <b_lp_Chiralities_Consistent>
1

> <s_lp_Variant>
CHEMBL2039_lig493-1

> <s_i_glide_gridfile>
glide-grid_1s3b

> <i_i_glide_lignum>
592

> <i_i_glide_rotatable_bonds>
3

> <r_i_docking_score>
-6.93364047159396

> <r_i_glide_ligand_efficiency>
-0.330173355790189

> <r_i_glide_ligand_efficiency_sa>
-0.910923252761995

> <r_i_glide_ligand_efficiency_ln>
-1.71432859586181

> <r_i_glide_gscore>
-6.93364047159396

> <r_i_glide_lipo>
-4.06099201988508

> <r_i_glide_hbond>
0

> <r_i_glide_metal>
0

> <r_i_glide_rewards>
-1.68692078570125

> <r_i_glide_evdw>
-24.2455272674561

> <r_i_glide_ecoul>
-2.37346982955933

> <r_i_glide_erotb>
0.382569171799071

> <r_i_glide_esite>
0

> <r_i_glide_emodel>
-29.7574425636677

> <r_i_glide_energy>
-26.6189970970154

> <r_i_glide_einternal>
5.72098445892334

> <i_i_glide_confnum>
7

> <i_i_glide_posenum>
58

> <r_i_glide_eff_state_penalty>
0

> <s_user_duplicate_titles>
CHEMBL2039_lig493

> <s_m_subgroup_title>
dock_pv

> <s_m_subgroupid>
dock_pv

> <b_m_subgroup_collapsed>
1

$$$$
CHEMBL2039_lig206
                    3D
 Schrodinger Suite 2021-1.
 30 33  0  0  1  0            999 V2000
   53.4169  156.6440   24.9040 O   0  0  0  0  0  0
   52.8560  155.8293   25.6326 C   0  0  0  0  0  0
   52.6967  154.3788   25.3883 C   0  0  0  0  0  0
   53.2566  153.5839   24.3887 C   0  0  0  0  0  0
   53.1734  152.1965   24.5040 C   0  0  0  0  0  0
   52.4560  151.6188   25.5566 C   0  0  0  0  0  0
   51.8194  152.4205   26.5040 C   0  0  0  0  0  0
   51.9905  153.7982   26.4417 C   0  0  0  0  0  0
   51.6465  154.8558   27.3865 C   0  0  0  0  0  0
   50.8804  154.7621   28.5040 N   0  0  0  0  0  0
   50.6336  155.8789   29.2138 N   0  0  0  0  0  0
   51.2560  157.0650   28.9040 C   0  0  0  0  0  0
   52.1408  157.1352   27.8144 C   0  0  0  0  0  0
   52.2389  156.0305   26.9705 C   0  0  0  0  0  0
   50.8117  158.3014   29.6439 C   0  0  0  0  0  0
   51.6511  159.4190   29.7732 C   0  0  0  0  0  0
   51.2556  160.5406   30.5006 C   0  0  0  0  0  0
   49.9849  160.5817   31.0633 C   0  0  0  0  0  0
   49.1081  159.5157   30.8983 C   0  0  0  0  0  0
   49.5210  158.3893   30.1922 C   0  0  0  0  0  0
   53.8316  154.0149   23.5820 H   0  0  0  0  0  0
   53.6515  151.5700   23.7656 H   0  0  0  0  0  0
   52.3797  150.5438   25.6290 H   0  0  0  0  0  0
   51.2705  151.9637   27.3158 H   0  0  0  0  0  0
   52.6089  158.0687   27.5506 H   0  0  0  0  0  0
   52.6469  159.3986   29.3587 H   0  0  0  0  0  0
   51.9334  161.3714   30.6319 H   0  0  0  0  0  0
   49.6780  161.4440   31.6353 H   0  0  0  0  0  0
   48.1198  159.5531   31.3322 H   0  0  0  0  0  0
   48.8306  157.5637   30.1040 H   0  0  0  0  0  0
  1  2  2  0  0  0
  2  3  1  0  0  0
  2 14  1  0  0  0
  3  4  2  0  0  0
  3  8  1  0  0  0
  4  5  1  0  0  0
  4 21  1  0  0  0
  5  6  2  0  0  0
  5 22  1  0  0  0
  6  7  1  0  0  0
  6 23  1  0  0  0
  7  8  2  0  0  0
  7 24  1  0  0  0
  8  9  1  0  0  0
  9 10  2  0  0  0
  9 14  1  0  0  0
 10 11  1  0  0  0
 11 12  2  0  0  0
 12 13  1  0  0  0
 12 15  1  0  0  0
 13 14  2  0  0  0
 13 25  1  0  0  0
 15 16  2  0  0  0
 15 20  1  0  0  0
 16 17  1  0  0  0
 16 26  1  0  0  0
 17 18  2  0  0  0
 17 27  1  0  0  0
 18 19  1  0  0  0
 18 28  1  0  0  0
 19 20  2  0  0  0
 19 29  1  0  0  0
 20 30  1  0  0  0
M  END
> <s_m_entry_id>
10460

> <s_m_entry_name>
dock_pv.496

> <s_m_Source_Path>
/home/csk/Desktop/cluster/DUD-E-result/aofb

> <s_m_Source_File>
dock_pv.maegz

> <i_m_Source_File_Index>
496

> <chembl_id>
CHEMBL421088

> <chembl_pref_name>
None

> <i_lp_mmshare_version>
53161

> <i_f3d_flags>
0

> <r_lp_tautomer_probability>
1

> <s_lp_Force_Field>
OPLS_2005

> <r_lp_Energy>
43.65914

> <b_lp_Chiralities_Consistent>
1

> <s_lp_Variant>
CHEMBL2039_lig206-1

> <s_i_glide_gridfile>
glide-grid_1s3b

> <i_i_glide_lignum>
247

> <i_i_glide_rotatable_bonds>
1

> <r_i_docking_score>
-6.9306527187304

> <r_i_glide_ligand_efficiency>
-0.34653263593652

> <r_i_glide_ligand_efficiency_sa>
-0.940634290771864

> <r_i_glide_ligand_efficiency_ln>
-1.73451378727283

> <r_i_glide_gscore>
-6.9306527187304

> <r_i_glide_lipo>
-3.58035092368476

> <r_i_glide_hbond>
0

> <r_i_glide_metal>
0

> <r_i_glide_rewards>
-2.43357921730459

> <r_i_glide_evdw>
-18.2383422851562

> <r_i_glide_ecoul>
-1.79717397689819

> <r_i_glide_erotb>
0.264770633051491

> <r_i_glide_esite>
0

> <r_i_glide_emodel>
-22.9386263628014

> <r_i_glide_energy>
-20.0355162620544

> <r_i_glide_einternal>
0.265792369842529

> <i_i_glide_confnum>
1

> <i_i_glide_posenum>
266

> <r_i_glide_eff_state_penalty>
0

> <s_user_duplicate_titles>
CHEMBL2039_lig206

> <s_m_subgroup_title>
dock_pv

> <s_m_subgroupid>
dock_pv

> <b_m_subgroup_collapsed>
1

$$$$
CHEMBL2039_lig50
                    3D
 Schrodinger Suite 2021-1.
 36 38  0  0  1  0            999 V2000
   49.4804  157.9359   30.1040 N   0  0  0  0  0  0
   50.6567  158.0038   29.5951 C   0  0  0  0  0  0
   51.6560  159.4460   29.7040 S   0  0  0  0  0  0
   50.8657  160.5358   30.9042 C   0  0  0  0  0  0
   48.9375  158.9629   30.8153 C   0  0  0  0  0  0
   49.5040  160.1634   31.2626 C   0  0  0  0  0  0
   48.6417  160.9089   32.0787 C   0  0  0  0  0  0
   47.3911  160.3205   32.1998 C   0  0  0  0  0  0
   47.2770  158.8418   31.3039 S   0  0  0  0  0  0
   51.5370  161.4690   31.3040 O   0  0  0  0  0  0
   51.2711  156.9921   28.9040 N   0  0  0  0  0  0
   50.8560  155.7267   28.6784 C   0  0  0  0  0  0
   51.8822  154.7451   28.1251 C   0  0  0  0  0  0
   49.7198  155.3279   28.9192 O   0  0  0  0  0  0
   51.4061  153.6687   27.1234 C   0  0  0  0  0  0
   51.2949  154.0158   25.6245 C   0  0  0  0  0  0
   52.5472  154.5669   24.9720 C   0  0  0  0  0  0
   52.9155  155.9036   25.1435 C   0  0  0  0  0  0
   54.0560  156.3903   24.5040 C   0  0  0  0  0  0
   54.8359  155.5484   23.7235 C   0  0  0  0  0  0
   54.4107  154.2440   23.4871 C   0  0  0  0  0  0
   53.2894  153.7414   24.1303 C   0  0  0  0  0  0
   48.9167  161.8439   32.5459 H   0  0  0  0  0  0
   46.5381  160.6791   32.7563 H   0  0  0  0  0  0
   52.2085  157.1996   28.5956 H   0  0  0  0  0  0
   52.8119  155.2341   27.8388 H   0  0  0  0  0  0
   52.0759  154.1646   29.0161 H   0  0  0  0  0  0
   52.1041  152.8332   27.2004 H   0  0  0  0  0  0
   50.4560  153.2607   27.4638 H   0  0  0  0  0  0
   51.0658  153.0746   25.1411 H   0  0  0  0  0  0
   50.4560  154.6440   25.3494 H   0  0  0  0  0  0
   52.3196  156.5627   25.7582 H   0  0  0  0  0  0
   54.3576  157.4204   24.6071 H   0  0  0  0  0  0
   55.6560  155.9846   23.2038 H   0  0  0  0  0  0
   54.8560  153.6347   22.7250 H   0  0  0  0  0  0
   52.9763  152.7267   23.9298 H   0  0  0  0  0  0
  1  5  1  0  0  0
  1  2  2  0  0  0
  2  3  1  0  0  0
  2 11  1  0  0  0
  3  4  1  0  0  0
  4  6  1  0  0  0
  4 10  2  0  0  0
  5  6  2  0  0  0
  5  9  1  0  0  0
  6  7  1  0  0  0
  7  8  2  0  0  0
  7 23  1  0  0  0
  8  9  1  0  0  0
  8 24  1  0  0  0
 11 12  1  0  0  0
 11 25  1  0  0  0
 12 13  1  0  0  0
 12 14  2  0  0  0
 13 15  1  0  0  0
 13 26  1  0  0  0
 13 27  1  0  0  0
 15 16  1  0  0  0
 15 28  1  0  0  0
 15 29  1  0  0  0
 16 17  1  0  0  0
 16 30  1  0  0  0
 16 31  1  0  0  0
 17 18  2  0  0  0
 17 22  1  0  0  0
 18 19  1  0  0  0
 18 32  1  0  0  0
 19 20  2  0  0  0
 19 33  1  0  0  0
 20 21  1  0  0  0
 20 34  1  0  0  0
 21 22  2  0  0  0
 21 35  1  0  0  0
 22 36  1  0  0  0
M  END
> <s_m_entry_id>
10461

> <s_m_entry_name>
dock_pv.497

> <s_m_Source_Path>
/home/csk/Desktop/cluster/DUD-E-result/aofb

> <s_m_Source_File>
dock_pv.maegz

> <i_m_Source_File_Index>
497

> <chembl_id>
CHEMBL2382425

> <chembl_pref_name>
None

> <i_lp_mmshare_version>
53161

> <i_f3d_flags>
0

> <r_lp_tautomer_probability>
1

> <s_lp_Force_Field>
OPLS_2005

> <r_lp_Energy>
13.975491

> <b_lp_Chiralities_Consistent>
1

> <s_lp_Variant>
CHEMBL2039_lig50-1

> <s_i_glide_gridfile>
glide-grid_1s3b

> <i_i_glide_lignum>
72

> <i_i_glide_rotatable_bonds>
6

> <r_i_docking_score>
-6.92959870796201

> <r_i_glide_ligand_efficiency>
-0.314981759452819

> <r_i_glide_ligand_efficiency_sa>
-0.882591277516456

> <r_i_glide_ligand_efficiency_ln>
-1.69384668748024

> <r_i_glide_gscore>
-6.92959870796201

> <r_i_glide_lipo>
-4.22303603139385

> <r_i_glide_hbond>
-0.0220048654916024

> <r_i_glide_metal>
0

> <r_i_glide_rewards>
-2.42769834876323

> <r_i_glide_evdw>
-14.3877439498901

> <r_i_glide_ecoul>
-1.51016247272491

> <r_i_glide_erotb>
0.689052106089917

> <r_i_glide_esite>
0

> <r_i_glide_emodel>
-23.9771230503478

> <r_i_glide_energy>
-15.8979064226151

> <r_i_glide_einternal>
2.79108285903931

> <i_i_glide_confnum>
3

> <i_i_glide_posenum>
8

> <r_i_glide_eff_state_penalty>
0

> <s_user_duplicate_titles>
CHEMBL2039_lig50

> <s_m_subgroup_title>
dock_pv

> <s_m_subgroupid>
dock_pv

> <b_m_subgroup_collapsed>
1

$$$$
CHEMBL2039_lig2028
                    3D
 Schrodinger Suite 2021-1.
 41 43  0  0  1  0            999 V2000
   50.8608  153.9113   27.8652 N   0  0  0  0  0  0
   50.8560  155.0002   28.5752 C   0  0  0  0  0  0
   51.6753  155.9679   27.9977 C   0  0  0  0  0  0
   52.0948  155.5053   26.8550 N   0  0  0  0  0  0
   51.6415  154.2441   26.8427 N   0  0  0  0  0  0
   52.0855  153.3047   25.9040 C   0  0  0  0  0  0
   52.0071  151.9288   26.1434 C   0  0  0  0  0  0
   52.6315  151.0125   25.3040 C   0  0  0  0  0  0
   53.2560  151.4699   24.1636 C   0  0  0  0  0  0
   53.2560  152.8308   23.8821 C   0  0  0  0  0  0
   52.7064  153.7519   24.7485 C   0  0  0  0  0  0
   50.1328  155.0440   29.7040 N   0  0  0  0  0  0
   52.0320  157.2807   28.5040 C   0  0  0  0  0  0
   53.0590  157.8440   28.1488 O   0  0  0  0  0  0
   51.0312  157.9321   29.4926 C   0  0  0  0  0  0
   50.8641  159.4576   29.4773 C   0  0  0  0  0  0
   49.7881  159.9223   30.4533 C   0  0  0  0  0  0
   50.1350  160.6440   31.5978 C   0  0  0  0  0  0
   49.1475  161.0440   32.4956 C   0  0  0  0  0  0
   47.8140  160.7283   32.2442 C   0  0  0  0  0  0
   47.4566  160.0247   31.0962 C   0  0  0  0  0  0
   48.4442  159.6236   30.1997 C   0  0  0  0  0  0
   53.7826  153.3362   22.6009 C   0  0  0  0  0  0
   51.4934  151.5564   27.0167 H   0  0  0  0  0  0
   52.5836  149.9549   25.5182 H   0  0  0  0  0  0
   53.6560  150.7563   23.4680 H   0  0  0  0  0  0
   52.7569  154.8044   24.5069 H   0  0  0  0  0  0
   50.1119  155.8551   30.3010 H   0  0  0  0  0  0
   49.6657  154.2057   30.0316 H   0  0  0  0  0  0
   51.2560  157.6146   30.4965 H   0  0  0  0  0  0
   50.0560  157.5106   29.3040 H   0  0  0  0  0  0
   50.5083  159.7696   28.5040 H   0  0  0  0  0  0
   51.8125  159.9636   29.6676 H   0  0  0  0  0  0
   51.1684  160.8853   31.8044 H   0  0  0  0  0  0
   49.4219  161.5901   33.3858 H   0  0  0  0  0  0
   47.0500  161.0360   32.9429 H   0  0  0  0  0  0
   46.4194  159.7901   30.9042 H   0  0  0  0  0  0
   48.1645  159.0755   29.3117 H   0  0  0  0  0  0
   54.4429  152.6440   22.1040 H   0  0  0  0  0  0
   52.8521  153.4440   22.0649 H   0  0  0  0  0  0
   54.3099  154.2817   22.7280 H   0  0  0  0  0  0
  1  2  2  0  0  0
  1  5  1  0  0  0
  2  3  1  0  0  0
  2 12  1  0  0  0
  3  4  2  0  0  0
  3 13  1  0  0  0
  4  5  1  0  0  0
  5  6  1  0  0  0
  6  7  2  0  0  0
  6 11  1  0  0  0
  7  8  1  0  0  0
  7 24  1  0  0  0
  8  9  2  0  0  0
  8 25  1  0  0  0
  9 10  1  0  0  0
  9 26  1  0  0  0
 10 11  2  0  0  0
 10 23  1  0  0  0
 11 27  1  0  0  0
 12 28  1  0  0  0
 12 29  1  0  0  0
 13 14  2  0  0  0
 13 15  1  0  0  0
 15 16  1  0  0  0
 15 30  1  0  0  0
 15 31  1  0  0  0
 16 17  1  0  0  0
 16 32  1  0  0  0
 16 33  1  0  0  0
 17 18  2  0  0  0
 17 22  1  0  0  0
 18 19  1  0  0  0
 18 34  1  0  0  0
 19 20  2  0  0  0
 19 35  1  0  0  0
 20 21  1  0  0  0
 20 36  1  0  0  0
 21 22  2  0  0  0
 21 37  1  0  0  0
 22 38  1  0  0  0
 23 39  1  0  0  0
 23 40  1  0  0  0
 23 41  1  0  0  0
M  END
> <s_m_entry_id>
10462

> <s_m_entry_name>
dock_pv.498

> <s_m_Source_Path>
/home/csk/Desktop/cluster/DUD-E-result/aofb

> <s_m_Source_File>
dock_pv.maegz

> <i_m_Source_File_Index>
498

> <chembl_id>
CHEMBL4126042

> <chembl_pref_name>
None

> <i_lp_mmshare_version>
53161

> <i_f3d_flags>
0

> <r_lp_tautomer_probability>
0.99990000499975

> <s_lp_Force_Field>
OPLS_2005

> <r_lp_Energy>
17.667223

> <b_lp_Chiralities_Consistent>
1

> <s_lp_Variant>
CHEMBL2039_lig2028-1

> <s_i_glide_gridfile>
glide-grid_1s3b

> <i_i_glide_lignum>
2363

> <i_i_glide_rotatable_bonds>
5

> <r_i_docking_score>
-6.92733505117305

> <r_i_glide_ligand_efficiency>
-0.301188480485785

> <r_i_glide_ligand_efficiency_sa>
-0.856539973469966

> <r_i_glide_ligand_efficiency_ln>
-1.67509242897506

> <r_i_glide_gscore>
-6.92733505117305

> <r_i_glide_lipo>
-4.69073651447637

> <r_i_glide_hbond>
0

> <r_i_glide_metal>
0

> <r_i_glide_rewards>
-2.53940252935245

> <r_i_glide_evdw>
-15.2135705947876

> <r_i_glide_ecoul>
1.84195959568024

> <r_i_glide_erotb>
0.787188583043115

> <r_i_glide_esite>
0

> <r_i_glide_emodel>
-26.8289173984287

> <r_i_glide_energy>
-13.3716109991074

> <r_i_glide_einternal>
5.8213357925415

> <i_i_glide_confnum>
14

> <i_i_glide_posenum>
117

> <r_i_glide_eff_state_penalty>
0

> <s_user_duplicate_titles>
CHEMBL2039_lig2028

> <s_m_subgroup_title>
dock_pv

> <s_m_subgroupid>
dock_pv

> <b_m_subgroup_collapsed>
1

$$$$
CHEMBL2039_lig1031
                    3D
 Schrodinger Suite 2021-1.
 34 36  0  0  1  0            999 V2000
   47.4801  160.1502   31.8342 C   0  0  0  0  0  0
   47.1356  158.9768   31.1707 C   0  0  0  0  0  0
   48.1134  158.2424   30.5018 C   0  0  0  0  0  0
   49.4389  158.6890   30.4719 C   0  0  0  0  0  0
   49.7604  159.8941   31.1185 C   0  0  0  0  0  0
   48.7909  160.6146   31.8112 C   0  0  0  0  0  0
   50.4822  157.9620   29.7042 C   0  0  0  0  0  0
   51.4969  158.5359   29.1988 N   0  0  0  0  0  0
   52.1984  157.6596   28.3466 N   0  0  2  0  0  0
   51.7927  156.2921   28.5956 C   0  0  1  0  0  0
   50.4789  156.4642   29.3260 C   0  0  0  0  0  0
   51.8257  155.3251   27.4093 C   0  0  0  0  0  0
   52.1563  155.7480   26.1150 C   0  0  0  0  0  0
   52.2837  154.8223   25.0832 C   0  0  0  0  0  0
   52.0539  153.4696   25.3186 C   0  0  0  0  0  0
   51.6876  153.0419   26.5927 C   0  0  0  0  0  0
   51.5839  153.9633   27.6336 C   0  0  0  0  0  0
   53.6443  157.8428   28.3860 C   0  0  0  0  0  0
   51.2560  153.5258   28.8675 F   0  0  0  0  0  0
   46.7225  160.7057   32.3657 H   0  0  0  0  0  0
   46.1087  158.6462   31.1732 H   0  0  0  0  0  0
   47.8255  157.3422   29.9818 H   0  0  0  0  0  0
   50.7728  160.2743   31.1011 H   0  0  0  0  0  0
   49.0591  161.5281   32.3212 H   0  0  0  0  0  0
   52.5090  155.8660   29.2995 H   0  0  0  0  0  0
   49.6560  156.1733   28.7246 H   0  0  0  0  0  0
   50.4547  155.7287   30.1041 H   0  0  0  0  0  0
   52.3511  156.7894   25.9061 H   0  0  0  0  0  0
   52.5750  155.1553   24.1042 H   0  0  0  0  0  0
   52.1614  152.7586   24.5126 H   0  0  0  0  0  0
   51.5003  151.9952   26.7813 H   0  0  0  0  0  0
   54.1380  157.0457   28.9082 H   0  0  0  0  0  0
   54.0505  157.8461   27.3752 H   0  0  0  0  0  0
   53.9451  158.7508   28.9040 H   0  0  0  0  0  0
  1  2  2  0  0  0
  1  6  1  0  0  0
  1 20  1  0  0  0
  2  3  1  0  0  0
  2 21  1  0  0  0
  3  4  2  0  0  0
  3 22  1  0  0  0
  4  5  1  0  0  0
  4  7  1  0  0  0
  5  6  2  0  0  0
  5 23  1  0  0  0
  6 24  1  0  0  0
  7  8  2  0  0  0
  7 11  1  0  0  0
  8  9  1  0  0  0
  9 10  1  0  0  0
  9 18  1  0  0  0
 10 11  1  0  0  0
 10 12  1  0  0  0
 10 25  1  0  0  0
 11 26  1  0  0  0
 11 27  1  0  0  0
 12 13  2  0  0  0
 12 17  1  0  0  0
 13 14  1  0  0  0
 13 28  1  0  0  0
 14 15  2  0  0  0
 14 29  1  0  0  0
 15 16  1  0  0  0
 15 30  1  0  0  0
 16 17  2  0  0  0
 16 31  1  0  0  0
 17 19  1  0  0  0
 18 32  1  0  0  0
 18 33  1  0  0  0
 18 34  1  0  0  0
M  END
> <s_m_entry_id>
10463

> <s_m_entry_name>
dock_pv.499

> <s_m_Source_Path>
/home/csk/Desktop/cluster/DUD-E-result/aofb

> <s_m_Source_File>
dock_pv.maegz

> <i_m_Source_File_Index>
499

> <chembl_id>
CHEMBL2417757

> <chembl_pref_name>
None

> <i_lp_mmshare_version>
53161

> <i_f3d_flags>
0

> <r_lp_tautomer_probability>
1

> <s_lp_Force_Field>
OPLS_2005

> <r_lp_Energy>
23.856835

> <b_lp_Chiralities_Consistent>
1

> <s_lp_Variant>
CHEMBL2039_lig1031-2

> <s_i_glide_gridfile>
glide-grid_1s3b

> <i_i_glide_lignum>
1203

> <i_i_glide_rotatable_bonds>
2

> <r_i_docking_score>
-6.92711297331195

> <r_i_glide_ligand_efficiency>
-0.364584893332208

> <r_i_glide_ligand_efficiency_sa>
-0.972858929511937

> <r_i_glide_ligand_efficiency_ln>
-1.75617191947936

> <r_i_glide_gscore>
-6.92711297331195

> <r_i_glide_lipo>
-3.82901985503746

> <r_i_glide_hbond>
0

> <r_i_glide_metal>
0

> <r_i_glide_rewards>
-2.92748483208737

> <r_i_glide_evdw>
-18.9607067108154

> <r_i_glide_ecoul>
1.55723655223846

> <r_i_glide_erotb>
0.543841566517889

> <r_i_glide_esite>
0

> <r_i_glide_emodel>
-18.3145353427529

> <r_i_glide_energy>
-17.403470158577

> <r_i_glide_einternal>
3.34412884712219

> <i_i_glide_confnum>
1

> <i_i_glide_posenum>
12

> <r_i_glide_eff_state_penalty>
0

> <s_user_duplicate_titles>
CHEMBL2039_lig1031

> <s_m_subgroup_title>
dock_pv

> <s_m_subgroupid>
dock_pv

> <b_m_subgroup_collapsed>
1

$$$$
CHEMBL2039_lig1551
                    3D
 Schrodinger Suite 2021-1.
 33 35  0  0  1  0            999 V2000
   51.2618  153.0722   28.3457 F   0  0  0  0  0  0
   51.6552  153.7469   27.2431 C   0  0  0  0  0  0
   52.0479  153.0439   26.1031 C   0  0  0  0  0  0
   52.4561  153.7484   24.9697 C   0  0  0  0  0  0
   52.4560  155.1425   25.0232 C   0  0  0  0  0  0
   52.0749  155.8444   26.1205 N   0  0  0  0  0  0
   51.6793  155.1484   27.2225 C   0  0  0  0  0  0
   51.2552  155.9366   28.4619 C   0  0  0  0  0  0
   51.7879  157.3021   28.5657 N   0  0  1  0  0  0
   51.1965  158.0211   29.6945 C   0  0  1  0  0  0
   51.6558  159.4359   29.9526 C   0  0  0  0  0  0
   50.2543  159.1880   29.4377 C   0  0  2  0  0  0
   49.0390  159.4660   30.3299 C   0  0  0  0  0  0
   47.7723  159.0877   29.8781 C   0  0  0  0  0  0
   46.6509  159.2696   30.6809 C   0  0  0  0  0  0
   46.7919  159.8444   31.9387 C   0  0  0  0  0  0
   48.0421  160.2459   32.3990 C   0  0  0  0  0  0
   49.1632  160.0580   31.5959 C   0  0  0  0  0  0
   52.0354  151.9640   26.1029 H   0  0  0  0  0  0
   52.7663  153.2270   24.0753 H   0  0  0  0  0  0
   52.7632  155.7261   24.1732 H   0  0  0  0  0  0
   50.1663  155.9298   28.5104 H   0  0  0  0  0  0
   51.6174  155.3556   29.3043 H   0  0  0  0  0  0
   52.7908  157.2679   28.7023 H   0  0  0  0  0  0
   50.8558  157.3914   30.5040 H   0  0  0  0  0  0
   51.8485  159.7431   30.9772 H   0  0  0  0  0  0
   52.4143  159.8558   29.3041 H   0  0  0  0  0  0
   50.0827  159.4442   28.3931 H   0  0  0  0  0  0
   47.6516  158.6440   28.9042 H   0  0  0  0  0  0
   45.6735  158.9722   30.3282 H   0  0  0  0  0  0
   45.9187  159.9862   32.5570 H   0  0  0  0  0  0
   48.1449  160.6973   33.3750 H   0  0  0  0  0  0
   50.1164  160.3806   31.9819 H   0  0  0  0  0  0
  1  2  1  0  0  0
  2  3  2  0  0  0
  2  7  1  0  0  0
  3  4  1  0  0  0
  3 19  1  0  0  0
  4  5  2  0  0  0
  4 20  1  0  0  0
  5  6  1  0  0  0
  5 21  1  0  0  0
  6  7  2  0  0  0
  7  8  1  0  0  0
  8  9  1  0  0  0
  8 22  1  0  0  0
  8 23  1  0  0  0
  9 10  1  0  0  0
  9 24  1  0  0  0
 10 11  1  0  0  0
 10 12  1  0  0  0
 10 25  1  0  0  0
 11 12  1  0  0  0
 11 26  1  0  0  0
 11 27  1  0  0  0
 12 13  1  0  0  0
 12 28  1  0  0  0
 13 14  2  0  0  0
 13 18  1  0  0  0
 14 15  1  0  0  0
 14 29  1  0  0  0
 15 16  2  0  0  0
 15 30  1  0  0  0
 16 17  1  0  0  0
 16 31  1  0  0  0
 17 18  2  0  0  0
 17 32  1  0  0  0
 18 33  1  0  0  0
M  END
> <s_m_entry_id>
10464

> <s_m_entry_name>
dock_pv.500

> <s_m_Source_Path>
/home/csk/Desktop/cluster/DUD-E-result/aofb

> <s_m_Source_File>
dock_pv.maegz

> <i_m_Source_File_Index>
500

> <chembl_id>
CHEMBL3651112

> <chembl_pref_name>
None

> <i_lp_mmshare_version>
53161

> <i_f3d_flags>
0

> <r_lp_tautomer_probability>
1

> <s_lp_Force_Field>
OPLS_2005

> <r_lp_Energy>
21.791093

> <b_lp_Chiralities_Consistent>
1

> <s_lp_Variant>
CHEMBL2039_lig1551-2

> <s_i_glide_gridfile>
glide-grid_1s3b

> <i_i_glide_lignum>
1807

> <i_i_glide_rotatable_bonds>
4

> <r_i_docking_score>
-6.92561460867545

> <r_i_glide_ligand_efficiency>
-0.384756367148636

> <r_i_glide_ligand_efficiency_sa>
-1.00834693710037

> <r_i_glide_ligand_efficiency_ln>
-1.78019352382423

> <r_i_glide_gscore>
-6.92561460867545

> <r_i_glide_lipo>
-3.56606201175391

> <r_i_glide_hbond>
0

> <r_i_glide_metal>
0

> <r_i_glide_rewards>
-2.95083081792543

> <r_i_glide_evdw>
-32.2916831970215

> <r_i_glide_ecoul>
0.161357462406158

> <r_i_glide_erotb>
1.18165876149404

> <r_i_glide_esite>
0

> <r_i_glide_emodel>
-41.1464371778723

> <r_i_glide_energy>
-32.1303257346153

> <r_i_glide_einternal>
7.01946067810059

> <i_i_glide_confnum>
90

> <i_i_glide_posenum>
137

> <r_i_glide_eff_state_penalty>
0

> <s_user_duplicate_titles>
CHEMBL2039_lig1551

> <s_m_subgroup_title>
dock_pv

> <s_m_subgroupid>
dock_pv

> <b_m_subgroup_collapsed>
1

$$$$
CHEMBL2039_lig608
                    3D
 Schrodinger Suite 2021-1.
 37 38  0  0  1  0            999 V2000
   52.4558  156.9460   27.8523 C   0  0  0  0  0  0
   51.6585  157.6160   28.8507 C   0  0  0  0  0  0
   50.4589  157.1846   29.3041 C   0  0  0  0  0  0
   49.5936  157.9633   30.1464 C   0  0  0  0  0  0
   49.6394  159.2992   30.2486 C   0  0  0  0  0  0
   51.8604  155.8445   27.3335 N   0  0  0  0  0  0
   48.7884  160.0001   31.1886 C   0  0  0  0  0  0
   49.4198  160.8309   32.1040 C   0  0  0  0  0  0
   48.7031  161.3068   33.1865 C   0  0  0  0  0  0
   47.3480  161.0360   33.3038 C   0  0  0  0  0  0
   46.7035  160.2438   32.3568 C   0  0  0  0  0  0
   47.4244  159.7185   31.2941 C   0  0  0  0  0  0
   52.2472  154.9968   26.3020 C   0  0  0  0  0  0
   53.1660  155.3437   25.3039 C   0  0  0  0  0  0
   53.7052  154.3403   24.4958 C   0  0  0  0  0  0
   53.2502  153.0246   24.6089 C   0  0  0  0  0  0
   52.2978  152.6974   25.5707 C   0  0  0  0  0  0
   51.7754  153.6852   26.3988 C   0  0  0  0  0  0
   54.8547  154.6576   23.5682 C   0  0  0  0  0  0
   53.5139  157.4438   27.4801 O   0  0  0  0  0  0
   52.0820  158.5508   29.1888 H   0  0  0  0  0  0
   50.0569  156.2297   28.9987 H   0  0  0  0  0  0
   48.8646  157.4436   30.7536 H   0  0  0  0  0  0
   50.3176  159.8954   29.6539 H   0  0  0  0  0  0
   51.0578  155.5161   27.8413 H   0  0  0  0  0  0
   50.4826  161.0225   32.0493 H   0  0  0  0  0  0
   49.2191  161.8441   33.9561 H   0  0  0  0  0  0
   46.8148  161.4244   34.1567 H   0  0  0  0  0  0
   45.6562  160.0083   32.4587 H   0  0  0  0  0  0
   46.9368  159.0618   30.5873 H   0  0  0  0  0  0
   53.5509  156.3498   25.2356 H   0  0  0  0  0  0
   53.6566  152.2455   23.9818 H   0  0  0  0  0  0
   51.9763  151.6730   25.6886 H   0  0  0  0  0  0
   51.0710  153.4050   27.1692 H   0  0  0  0  0  0
   54.8134  154.0493   22.6645 H   0  0  0  0  0  0
   55.7794  154.4452   24.1043 H   0  0  0  0  0  0
   54.8565  155.7041   23.2625 H   0  0  0  0  0  0
  1  2  1  0  0  0
  1  6  1  0  0  0
  1 20  2  0  0  0
  2  3  2  0  0  0
  2 21  1  0  0  0
  3  4  1  0  0  0
  3 22  1  0  0  0
  4  5  2  0  0  0
  4 23  1  0  0  0
  5  7  1  0  0  0
  5 24  1  0  0  0
  6 13  1  0  0  0
  6 25  1  0  0  0
  7  8  1  0  0  0
  7 12  2  0  0  0
  8  9  2  0  0  0
  8 26  1  0  0  0
  9 10  1  0  0  0
  9 27  1  0  0  0
 10 11  2  0  0  0
 10 28  1  0  0  0
 11 12  1  0  0  0
 11 29  1  0  0  0
 12 30  1  0  0  0
 13 14  1  0  0  0
 13 18  2  0  0  0
 14 15  2  0  0  0
 14 31  1  0  0  0
 15 16  1  0  0  0
 15 19  1  0  0  0
 16 17  2  0  0  0
 16 32  1  0  0  0
 17 18  1  0  0  0
 17 33  1  0  0  0
 18 34  1  0  0  0
 19 35  1  0  0  0
 19 36  1  0  0  0
 19 37  1  0  0  0
M  END
> <s_m_entry_id>
10465

> <s_m_entry_name>
dock_pv.501

> <s_m_Source_Path>
/home/csk/Desktop/cluster/DUD-E-result/aofb

> <s_m_Source_File>
dock_pv.maegz

> <i_m_Source_File_Index>
501

> <chembl_id>
CHEMBL1830134

> <chembl_pref_name>
None

> <i_lp_mmshare_version>
53161

> <i_f3d_flags>
0

> <r_lp_tautomer_probability>
1

> <s_lp_Force_Field>
OPLS_2005

> <r_lp_Energy>
18.284158

> <b_lp_Chiralities_Consistent>
1

> <s_lp_Variant>
CHEMBL2039_lig608-1

> <s_i_glide_gridfile>
glide-grid_1s3b

> <i_i_glide_lignum>
717

> <i_i_glide_rotatable_bonds>
5

> <r_i_docking_score>
-6.90594648119424

> <r_i_glide_ligand_efficiency>
-0.345297324059712

> <r_i_glide_ligand_efficiency_sa>
-0.937281138454814

> <r_i_glide_ligand_efficiency_ln>
-1.72833063088378

> <r_i_glide_gscore>
-6.90594648119424

> <r_i_glide_lipo>
-3.93011250564095

> <r_i_glide_hbond>
0

> <r_i_glide_metal>
0

> <r_i_glide_rewards>
-2.95144954275953

> <r_i_glide_evdw>
-28.1463947296143

> <r_i_glide_ecoul>
2.39110898971558

> <r_i_glide_erotb>
1.02426895522963

> <r_i_glide_esite>
0

> <r_i_glide_emodel>
-23.4988499179512

> <r_i_glide_energy>
-25.7552857398987

> <r_i_glide_einternal>
6.93864870071411

> <i_i_glide_confnum>
9

> <i_i_glide_posenum>
76

> <r_i_glide_eff_state_penalty>
0

> <s_user_duplicate_titles>
CHEMBL2039_lig608

> <s_m_subgroup_title>
dock_pv

> <s_m_subgroupid>
dock_pv

> <b_m_subgroup_collapsed>
1

$$$$
CHEMBL2039_lig1754
                    3D
 Schrodinger Suite 2021-1.
 32 33  0  0  1  0            999 V2000
   48.7036  160.6589   32.4040 C   0  0  0  0  0  0
   47.1912  160.5141   32.5039 C   0  0  0  0  0  0
   49.4215  159.8983   31.3413 C   0  0  0  0  0  0
   50.6986  160.2578   30.8601 C   0  0  0  0  0  0
   51.3624  159.4423   29.9438 C   0  0  0  0  0  0
   50.8560  158.1911   29.5921 C   0  0  0  0  0  0
   49.5975  157.8440   30.1040 C   0  0  0  0  0  0
   48.8610  158.6977   30.9040 C   0  0  0  0  0  0
   51.3743  161.3629   31.3040 O   0  0  0  0  0  0
   51.6465  157.3653   28.7941 O   0  0  0  0  0  0
   51.2561  155.9962   28.5303 C   0  0  0  0  0  0
   51.8022  155.4466   27.2222 C   0  0  0  0  0  0
   52.5347  156.2443   26.3425 C   0  0  0  0  0  0
   53.0540  155.7077   25.1654 C   0  0  0  0  0  0
   52.8035  154.3737   24.8379 C   0  0  0  0  0  0
   52.0561  153.5741   25.7021 C   0  0  0  0  0  0
   51.5682  154.1050   26.8954 C   0  0  0  0  0  0
   54.0561  156.6808   24.1523 Cl  0  0  0  0  0  0
   49.2560  161.4440   33.1623 O   0  0  0  0  0  0
   46.9258  159.5275   32.8798 H   0  0  0  0  0  0
   46.7348  160.6427   31.5226 H   0  0  0  0  0  0
   46.7817  161.2671   33.1763 H   0  0  0  0  0  0
   52.3473  159.7162   29.5989 H   0  0  0  0  0  0
   49.1452  156.8886   29.8976 H   0  0  0  0  0  0
   47.9014  158.3477   31.2573 H   0  0  0  0  0  0
   50.9355  161.7905   32.0495 H   0  0  0  0  0  0
   51.6509  155.3488   29.3040 H   0  0  0  0  0  0
   50.1808  155.8433   28.4949 H   0  0  0  0  0  0
   52.7406  157.2741   26.5929 H   0  0  0  0  0  0
   53.2059  153.9519   23.9281 H   0  0  0  0  0  0
   51.8798  152.5366   25.4604 H   0  0  0  0  0  0
   51.0064  153.4711   27.5668 H   0  0  0  0  0  0
  1  2  1  0  0  0
  1  3  1  0  0  0
  1 19  2  0  0  0
  2 20  1  0  0  0
  2 21  1  0  0  0
  2 22  1  0  0  0
  3  4  1  0  0  0
  3  8  2  0  0  0
  4  5  2  0  0  0
  4  9  1  0  0  0
  5  6  1  0  0  0
  5 23  1  0  0  0
  6  7  2  0  0  0
  6 10  1  0  0  0
  7  8  1  0  0  0
  7 24  1  0  0  0
  8 25  1  0  0  0
  9 26  1  0  0  0
 10 11  1  0  0  0
 11 12  1  0  0  0
 11 27  1  0  0  0
 11 28  1  0  0  0
 12 13  1  0  0  0
 12 17  2  0  0  0
 13 14  2  0  0  0
 13 29  1  0  0  0
 14 15  1  0  0  0
 14 18  1  0  0  0
 15 16  2  0  0  0
 15 30  1  0  0  0
 16 17  1  0  0  0
 16 31  1  0  0  0
 17 32  1  0  0  0
M  END
> <s_m_entry_id>
10466

> <s_m_entry_name>
dock_pv.502

> <s_m_Source_Path>
/home/csk/Desktop/cluster/DUD-E-result/aofb

> <s_m_Source_File>
dock_pv.maegz

> <i_m_Source_File_Index>
502

> <chembl_id>
CHEMBL3911291

> <chembl_pref_name>
None

> <i_lp_mmshare_version>
53161

> <i_f3d_flags>
0

> <r_lp_tautomer_probability>
0.99995

> <s_lp_Force_Field>
OPLS_2005

> <r_lp_Energy>
27.231189

> <b_lp_Chiralities_Consistent>
1

> <s_lp_Variant>
CHEMBL2039_lig1754-1

> <s_i_glide_gridfile>
glide-grid_1s3b

> <i_i_glide_lignum>
2042

> <i_i_glide_rotatable_bonds>
5

> <r_i_docking_score>
-6.905597303859

> <r_i_glide_ligand_efficiency>
-0.363452489676789

> <r_i_glide_ligand_efficiency_sa>
-0.969837221733765

> <r_i_glide_ligand_efficiency_ln>
-1.75071723515883

> <r_i_glide_gscore>
-6.905597303859

> <r_i_glide_lipo>
-3.43272900630382

> <r_i_glide_hbond>
0

> <r_i_glide_metal>
0

> <r_i_glide_rewards>
-2.69853389604177

> <r_i_glide_evdw>
-26.3911056518555

> <r_i_glide_ecoul>
-1.06577467918396

> <r_i_glide_erotb>
0.705087082956958

> <r_i_glide_esite>
0

> <r_i_glide_emodel>
-32.2468464811867

> <r_i_glide_energy>
-27.4568803310394

> <r_i_glide_einternal>
5.2048077583313

> <i_i_glide_confnum>
33

> <i_i_glide_posenum>
24

> <r_i_glide_eff_state_penalty>
0

> <s_user_duplicate_titles>
CHEMBL2039_lig1754

> <s_m_subgroup_title>
dock_pv

> <s_m_subgroupid>
dock_pv

> <b_m_subgroup_collapsed>
1

$$$$
CHEMBL2039_lig2121
                    3D
 Schrodinger Suite 2021-1.
 41 43  0  0  1  0            999 V2000
   50.4251  156.0907   29.3040 C   0  0  0  0  0  0
   51.5307  155.9613   28.4768 C   0  0  0  0  0  0
   52.4560  157.0095   28.4059 C   0  0  0  0  0  0
   52.1103  158.2441   28.9040 C   0  0  0  0  0  0
   50.8727  158.4630   29.4574 C   0  0  0  0  0  0
   50.0560  157.3652   29.7040 C   0  0  0  0  0  0
   50.5293  159.7626   29.7178 O   0  0  0  0  0  0
   49.1527  160.0910   29.6024 C   0  0  0  0  0  0
   48.5365  160.2606   30.9660 C   0  0  0  0  0  0
   49.2887  160.7955   32.0147 C   0  0  0  0  0  0
   48.6829  161.0440   33.2362 C   0  0  0  0  0  0
   47.3298  160.7823   33.3899 C   0  0  0  0  0  0
   46.5993  160.1790   32.3685 C   0  0  0  0  0  0
   47.1986  159.9249   31.1469 C   0  0  0  0  0  0
   51.6590  154.8024   27.7425 N   0  0  0  0  0  0
   51.9663  154.9184   26.5100 C   0  0  0  0  0  0
   52.2785  153.7805   25.6767 C   0  0  0  0  0  0
   52.8947  154.0293   24.4502 C   0  0  0  0  0  0
   53.3499  152.9775   23.6718 C   0  0  0  0  0  0
   53.2560  151.6706   24.1435 C   0  0  0  0  0  0
   52.5730  151.4056   25.3244 C   0  0  0  0  0  0
   52.0523  152.4559   26.0825 C   0  0  0  0  0  0
   51.2560  152.1873   27.1742 O   0  0  0  0  0  0
   52.3415  150.1116   25.7040 O   0  0  0  0  0  0
   49.7455  155.2642   29.4520 H   0  0  0  0  0  0
   53.3988  156.8959   27.8932 H   0  0  0  0  0  0
   52.8251  159.0440   28.9040 H   0  0  0  0  0  0
   49.1119  157.4941   30.2111 H   0  0  0  0  0  0
   49.0771  161.0440   29.1029 H   0  0  0  0  0  0
   48.5802  159.4073   28.9724 H   0  0  0  0  0  0
   50.3340  161.0388   31.8827 H   0  0  0  0  0  0
   49.2586  161.4444   34.0552 H   0  0  0  0  0  0
   46.8560  161.0434   34.3245 H   0  0  0  0  0  0
   45.5671  159.9052   32.5040 H   0  0  0  0  0  0
   46.6181  159.4910   30.3452 H   0  0  0  0  0  0
   52.0624  155.8875   26.0222 H   0  0  0  0  0  0
   53.0620  155.0390   24.1040 H   0  0  0  0  0  0
   53.8386  153.1700   22.7281 H   0  0  0  0  0  0
   53.6282  150.8507   23.5540 H   0  0  0  0  0  0
   51.1096  153.0072   27.6655 H   0  0  0  0  0  0
   52.2401  150.0682   26.6654 H   0  0  0  0  0  0
  1  2  2  0  0  0
  1  6  1  0  0  0
  1 25  1  0  0  0
  2  3  1  0  0  0
  2 15  1  0  0  0
  3  4  2  0  0  0
  3 26  1  0  0  0
  4  5  1  0  0  0
  4 27  1  0  0  0
  5  6  2  0  0  0
  5  7  1  0  0  0
  6 28  1  0  0  0
  7  8  1  0  0  0
  8  9  1  0  0  0
  8 29  1  0  0  0
  8 30  1  0  0  0
  9 10  2  0  0  0
  9 14  1  0  0  0
 10 11  1  0  0  0
 10 31  1  0  0  0
 11 12  2  0  0  0
 11 32  1  0  0  0
 12 13  1  0  0  0
 12 33  1  0  0  0
 13 14  2  0  0  0
 13 34  1  0  0  0
 14 35  1  0  0  0
 15 16  2  0  0  0
 16 17  1  0  0  0
 16 36  1  0  0  0
 17 18  2  0  0  0
 17 22  1  0  0  0
 18 19  1  0  0  0
 18 37  1  0  0  0
 19 20  2  0  0  0
 19 38  1  0  0  0
 20 21  1  0  0  0
 20 39  1  0  0  0
 21 22  2  0  0  0
 21 24  1  0  0  0
 22 23  1  0  0  0
 23 40  1  0  0  0
 24 41  1  0  0  0
M  END
> <s_m_entry_id>
10467

> <s_m_entry_name>
dock_pv.503

> <s_m_Source_Path>
/home/csk/Desktop/cluster/DUD-E-result/aofb

> <s_m_Source_File>
dock_pv.maegz

> <i_m_Source_File_Index>
503

> <chembl_id>
CHEMBL4214938

> <chembl_pref_name>
None

> <i_lp_mmshare_version>
53161

> <i_f3d_flags>
0

> <r_lp_tautomer_probability>
1

> <s_lp_Force_Field>
OPLS_2005

> <r_lp_Energy>
26.93832

> <b_lp_Chiralities_Consistent>
1

> <s_lp_Variant>
CHEMBL2039_lig2121-1

> <s_i_glide_gridfile>
glide-grid_1s3b

> <i_i_glide_lignum>
2480

> <i_i_glide_rotatable_bonds>
7

> <r_i_docking_score>
-6.90212009676337

> <r_i_glide_ligand_efficiency>
-0.287588337365141

> <r_i_glide_ligand_efficiency_sa>
-0.829548311101809

> <r_i_glide_ligand_efficiency_ln>
-1.65199405680912

> <r_i_glide_gscore>
-6.90212009676337

> <r_i_glide_lipo>
-4.98746084482879

> <r_i_glide_hbond>
0

> <r_i_glide_metal>
0

> <r_i_glide_rewards>
-2.1018037905723

> <r_i_glide_evdw>
-9.16028308868408

> <r_i_glide_ecoul>
-1.79700589179993

> <r_i_glide_erotb>
0.914709576841907

> <r_i_glide_esite>
0

> <r_i_glide_emodel>
-13.4056893149374

> <r_i_glide_energy>
-10.957288980484

> <r_i_glide_einternal>
11.6474800109863

> <i_i_glide_confnum>
190

> <i_i_glide_posenum>
89

> <r_i_glide_eff_state_penalty>
0

> <s_user_duplicate_titles>
CHEMBL2039_lig2121

> <s_m_subgroup_title>
dock_pv

> <s_m_subgroupid>
dock_pv

> <b_m_subgroup_collapsed>
1

$$$$
CHEMBL2039_lig1318
                    3D
 Schrodinger Suite 2021-1.
 29 31  0  0  1  0            999 V2000
   51.2702  156.1284   28.5427 C   0  0  0  0  0  0
   51.8465  155.4968   27.2912 C   0  0  0  0  0  0
   52.5765  156.2440   26.3575 C   0  0  0  0  0  0
   53.0706  155.6678   25.1873 C   0  0  0  0  0  0
   52.7974  154.3223   24.9043 C   0  0  0  0  0  0
   52.0560  153.5692   25.8158 C   0  0  0  0  0  0
   51.6014  154.1440   27.0031 C   0  0  0  0  0  0
   50.4560  155.4899   29.2147 O   0  0  0  0  0  0
   51.6560  157.4026   28.8505 N   0  0  0  0  0  0
   49.0022  161.0440   32.1040 N   0  0  0  0  0  0
   47.8023  160.4616   32.2783 N   0  0  0  0  0  0
   47.8172  159.3591   31.5759 C   0  0  0  0  0  0
   49.0682  159.1795   30.9131 C   0  0  0  0  0  0
   49.6504  158.1983   30.1040 C   0  0  0  0  0  0
   50.9694  158.3617   29.6481 C   0  0  0  0  0  0
   51.6560  159.5380   29.9687 C   0  0  0  0  0  0
   51.1129  160.5398   30.7791 C   0  0  0  0  0  0
   49.8176  160.3245   31.2554 C   0  0  0  0  0  0
   53.3857  153.5504   23.4729 Cl  0  0  0  0  0  0
   54.0564  156.6440   24.1525 Cl  0  0  0  0  0  0
   52.7941  157.2854   26.5362 H   0  0  0  0  0  0
   51.8539  152.5274   25.6181 H   0  0  0  0  0  0
   51.0368  153.5292   27.6911 H   0  0  0  0  0  0
   52.4719  157.7578   28.3770 H   0  0  0  0  0  0
   49.2213  161.9111   32.5707 H   0  0  0  0  0  0
   46.9625  158.6997   31.5632 H   0  0  0  0  0  0
   49.0818  157.3102   29.8865 H   0  0  0  0  0  0
   52.6751  159.6575   29.6343 H   0  0  0  0  0  0
   51.6850  161.4145   31.0534 H   0  0  0  0  0  0
  1  2  1  0  0  0
  1  8  2  0  0  0
  1  9  1  0  0  0
  2  3  1  0  0  0
  2  7  2  0  0  0
  3  4  2  0  0  0
  3 21  1  0  0  0
  4  5  1  0  0  0
  4 20  1  0  0  0
  5  6  2  0  0  0
  5 19  1  0  0  0
  6  7  1  0  0  0
  6 22  1  0  0  0
  7 23  1  0  0  0
  9 15  1  0  0  0
  9 24  1  0  0  0
 10 11  1  0  0  0
 10 18  1  0  0  0
 10 25  1  0  0  0
 11 12  2  0  0  0
 12 13  1  0  0  0
 12 26  1  0  0  0
 13 14  1  0  0  0
 13 18  2  0  0  0
 14 15  2  0  0  0
 14 27  1  0  0  0
 15 16  1  0  0  0
 16 17  2  0  0  0
 16 28  1  0  0  0
 17 18  1  0  0  0
 17 29  1  0  0  0
M  END
> <s_m_entry_id>
10468

> <s_m_entry_name>
dock_pv.504

> <s_m_Source_Path>
/home/csk/Desktop/cluster/DUD-E-result/aofb

> <s_m_Source_File>
dock_pv.maegz

> <i_m_Source_File_Index>
504

> <chembl_id>
CHEMBL3319242

> <chembl_pref_name>
None

> <i_lp_mmshare_version>
53161

> <i_f3d_flags>
0

> <r_lp_tautomer_probability>
0.980392156862745

> <s_lp_Force_Field>
OPLS_2005

> <r_lp_Energy>
18.827949

> <b_lp_Chiralities_Consistent>
1

> <s_lp_Variant>
CHEMBL2039_lig1318-1

> <s_i_glide_gridfile>
glide-grid_1s3b

> <i_i_glide_lignum>
1538

> <i_i_glide_rotatable_bonds>
3

> <r_i_docking_score>
-6.90172129442753

> <r_i_glide_ligand_efficiency>
-0.345086064721377

> <r_i_glide_ligand_efficiency_sa>
-0.93670769238574

> <r_i_glide_ligand_efficiency_ln>
-1.72727320599206

> <r_i_glide_gscore>
-6.90172129442753

> <r_i_glide_lipo>
-3.34758927565058

> <r_i_glide_hbond>
0

> <r_i_glide_metal>
0

> <r_i_glide_rewards>
-2.38961316430941

> <r_i_glide_evdw>
-31.2889041900635

> <r_i_glide_ecoul>
-1.27462899684906

> <r_i_glide_erotb>
0.591120704562988

> <r_i_glide_esite>
0

> <r_i_glide_emodel>
-43.2756896456315

> <r_i_glide_energy>
-32.5635331869125

> <r_i_glide_einternal>
2.70610404014587

> <i_i_glide_confnum>
9

> <i_i_glide_posenum>
181

> <r_i_glide_eff_state_penalty>
0

> <s_user_duplicate_titles>
CHEMBL2039_lig1318

> <s_m_subgroup_title>
dock_pv

> <s_m_subgroupid>
dock_pv

> <b_m_subgroup_collapsed>
1

$$$$
CHEMBL2039_lig1316
                    3D
 Schrodinger Suite 2021-1.
 29 31  0  0  1  0            999 V2000
   52.2466  156.7915   28.1040 C   0  0  0  0  0  0
   52.0560  155.4833   27.3647 C   0  0  0  0  0  0
   52.3785  155.3374   25.9936 C   0  0  0  0  0  0
   52.2750  154.0879   25.3763 C   0  0  0  0  0  0
   51.8687  152.9735   26.1040 C   0  0  0  0  0  0
   51.5053  153.1107   27.4355 C   0  0  0  0  0  0
   51.5808  154.3528   28.0547 C   0  0  0  0  0  0
   53.2702  157.4440   27.9529 O   0  0  0  0  0  0
   51.2160  157.1361   28.9040 N   0  0  0  0  0  0
   49.5930  161.3253   32.1040 N   0  0  0  0  0  0
   48.3663  160.9055   32.4643 N   0  0  0  0  0  0
   48.1385  159.8008   31.8009 C   0  0  0  0  0  0
   49.2510  159.4440   30.9797 C   0  0  0  0  0  0
   49.5982  158.3663   30.1515 C   0  0  0  0  0  0
   50.8675  158.3371   29.5628 C   0  0  0  0  0  0
   51.7154  159.4401   29.7041 C   0  0  0  0  0  0
   51.3995  160.5403   30.5042 C   0  0  0  0  0  0
   50.1719  160.4985   31.1650 C   0  0  0  0  0  0
   51.1749  154.4386   29.3375 F   0  0  0  0  0  0
   52.9217  156.6439   24.9989 Cl  0  0  0  0  0  0
   52.5396  153.9753   24.3346 H   0  0  0  0  0  0
   51.8287  152.0002   25.6414 H   0  0  0  0  0  0
   51.1660  152.2521   27.9967 H   0  0  0  0  0  0
   50.5029  156.4264   28.9629 H   0  0  0  0  0  0
   49.9994  162.1500   32.5238 H   0  0  0  0  0  0
   47.2162  159.2564   31.9373 H   0  0  0  0  0  0
   48.9255  157.5256   30.0785 H   0  0  0  0  0  0
   52.7138  159.4021   29.3040 H   0  0  0  0  0  0
   52.1072  161.3406   30.6633 H   0  0  0  0  0  0
  1  2  1  0  0  0
  1  8  2  0  0  0
  1  9  1  0  0  0
  2  3  1  0  0  0
  2  7  2  0  0  0
  3  4  2  0  0  0
  3 20  1  0  0  0
  4  5  1  0  0  0
  4 21  1  0  0  0
  5  6  2  0  0  0
  5 22  1  0  0  0
  6  7  1  0  0  0
  6 23  1  0  0  0
  7 19  1  0  0  0
  9 15  1  0  0  0
  9 24  1  0  0  0
 10 11  1  0  0  0
 10 18  1  0  0  0
 10 25  1  0  0  0
 11 12  2  0  0  0
 12 13  1  0  0  0
 12 26  1  0  0  0
 13 14  1  0  0  0
 13 18  2  0  0  0
 14 15  2  0  0  0
 14 27  1  0  0  0
 15 16  1  0  0  0
 16 17  2  0  0  0
 16 28  1  0  0  0
 17 18  1  0  0  0
 17 29  1  0  0  0
M  END
> <s_m_entry_id>
10469

> <s_m_entry_name>
dock_pv.505

> <s_m_Source_Path>
/home/csk/Desktop/cluster/DUD-E-result/aofb

> <s_m_Source_File>
dock_pv.maegz

> <i_m_Source_File_Index>
505

> <chembl_id>
CHEMBL3319240

> <chembl_pref_name>
None

> <i_lp_mmshare_version>
53161

> <i_f3d_flags>
0

> <r_lp_tautomer_probability>
0.980392156862745

> <s_lp_Force_Field>
OPLS_2005

> <r_lp_Energy>
22.735894

> <b_lp_Chiralities_Consistent>
1

> <s_lp_Variant>
CHEMBL2039_lig1316-1

> <s_i_glide_gridfile>
glide-grid_1s3b

> <i_i_glide_lignum>
1534

> <i_i_glide_rotatable_bonds>
3

> <r_i_docking_score>
-6.901174900764

> <r_i_glide_ligand_efficiency>
-0.3450587450382

> <r_i_glide_ligand_efficiency_sa>
-0.936633535356519

> <r_i_glide_ligand_efficiency_ln>
-1.72713646167934

> <r_i_glide_gscore>
-6.901174900764

> <r_i_glide_lipo>
-3.23845735673366

> <r_i_glide_hbond>
-0.0382913234927761

> <r_i_glide_metal>
0

> <r_i_glide_rewards>
-2.92156336402763

> <r_i_glide_evdw>
-29.2238025665283

> <r_i_glide_ecoul>
0.715028285980225

> <r_i_glide_erotb>
0.651073028919459

> <r_i_glide_esite>
0

> <r_i_glide_emodel>
-33.4746919930833

> <r_i_glide_energy>
-28.5087742805481

> <r_i_glide_einternal>
6.37274312973022

> <i_i_glide_confnum>
7

> <i_i_glide_posenum>
21

> <r_i_glide_eff_state_penalty>
0

> <s_user_duplicate_titles>
CHEMBL2039_lig1316

> <s_m_subgroup_title>
dock_pv

> <s_m_subgroupid>
dock_pv

> <b_m_subgroup_collapsed>
1

$$$$
CHEMBL2039_lig1777
                    3D
 Schrodinger Suite 2021-1.
 38 39  0  0  1  0            999 V2000
   51.7176  152.6440   26.4628 C   0  0  0  0  0  0
   52.0560  153.6169   25.5273 C   0  0  0  0  0  0
   52.2438  154.9373   25.9338 C   0  0  0  0  0  0
   52.0558  155.2917   27.2866 C   0  0  0  0  0  0
   51.6559  154.3060   28.1975 C   0  0  0  0  0  0
   51.4920  152.9940   27.7850 C   0  0  0  0  0  0
   52.6539  155.8465   24.9933 O   0  0  0  0  0  0
   52.3772  156.6440   27.8133 C   0  0  0  0  0  0
   53.2560  157.3295   27.3040 O   0  0  0  0  0  0
   51.4709  157.2222   28.7896 C   0  0  0  0  0  0
   51.5797  158.4942   29.2197 C   0  0  0  0  0  0
   50.5911  159.1707   30.0652 C   0  0  0  0  0  0
   49.3061  158.6479   30.2086 C   0  0  0  0  0  0
   48.3963  159.2450   31.0525 C   0  0  0  0  0  0
   48.7658  160.3608   31.8093 C   0  0  0  0  0  0
   50.0449  160.9060   31.6405 C   0  0  0  0  0  0
   50.9524  160.3205   30.7653 C   0  0  0  0  0  0
   51.6560  151.3276   26.1040 O   0  0  0  0  0  0
   47.8797  160.9245   32.7495 N   0  0  0  0  0  0
   46.4897  160.5007   32.6914 C   0  0  0  0  0  0
   48.4151  161.0106   34.1025 C   0  0  0  0  0  0
   52.2313  153.3374   24.4987 H   0  0  0  0  0  0
   51.5294  154.5221   29.2498 H   0  0  0  0  0  0
   51.2225  152.2368   28.5044 H   0  0  0  0  0  0
   52.8425  156.6952   25.4049 H   0  0  0  0  0  0
   50.6619  156.5911   29.1188 H   0  0  0  0  0  0
   52.4233  159.0885   28.9040 H   0  0  0  0  0  0
   48.9954  157.7520   29.7040 H   0  0  0  0  0  0
   47.4267  158.7815   31.1363 H   0  0  0  0  0  0
   50.3479  161.7860   32.1873 H   0  0  0  0  0  0
   51.9438  160.7397   30.6688 H   0  0  0  0  0  0
   51.6910  150.7354   26.8623 H   0  0  0  0  0  0
   46.0560  160.6440   31.7013 H   0  0  0  0  0  0
   46.3951  159.4440   32.9042 H   0  0  0  0  0  0
   45.9277  161.0440   33.4353 H   0  0  0  0  0  0
   49.4129  161.4440   34.1040 H   0  0  0  0  0  0
   47.7699  161.6125   34.7413 H   0  0  0  0  0  0
   48.4839  160.0127   34.5369 H   0  0  0  0  0  0
  1  2  2  0  0  0
  1  6  1  0  0  0
  1 18  1  0  0  0
  2  3  1  0  0  0
  2 22  1  0  0  0
  3  4  2  0  0  0
  3  7  1  0  0  0
  4  5  1  0  0  0
  4  8  1  0  0  0
  5  6  2  0  0  0
  5 23  1  0  0  0
  6 24  1  0  0  0
  7 25  1  0  0  0
  8  9  2  0  0  0
  8 10  1  0  0  0
 10 11  2  0  0  0
 10 26  1  0  0  0
 11 12  1  0  0  0
 11 27  1  0  0  0
 12 13  2  0  0  0
 12 17  1  0  0  0
 13 14  1  0  0  0
 13 28  1  0  0  0
 14 15  2  0  0  0
 14 29  1  0  0  0
 15 16  1  0  0  0
 15 19  1  0  0  0
 16 17  2  0  0  0
 16 30  1  0  0  0
 17 31  1  0  0  0
 18 32  1  0  0  0
 19 20  1  0  0  0
 19 21  1  0  0  0
 20 33  1  0  0  0
 20 34  1  0  0  0
 20 35  1  0  0  0
 21 36  1  0  0  0
 21 37  1  0  0  0
 21 38  1  0  0  0
M  END
> <s_m_entry_id>
10471

> <s_m_entry_name>
dock_pv.507

> <s_m_Source_Path>
/home/csk/Desktop/cluster/DUD-E-result/aofb

> <s_m_Source_File>
dock_pv.maegz

> <i_m_Source_File_Index>
507

> <chembl_id>
CHEMBL2263059

> <chembl_pref_name>
None

> <i_lp_mmshare_version>
53161

> <i_f3d_flags>
0

> <r_lp_tautomer_probability>
1

> <s_lp_Force_Field>
OPLS_2005

> <r_lp_Energy>
26.843997

> <b_lp_Chiralities_Consistent>
1

> <s_lp_Variant>
CHEMBL2039_lig1777-1

> <s_i_glide_gridfile>
glide-grid_1s3b

> <i_i_glide_lignum>
2065

> <i_i_glide_rotatable_bonds>
6

> <r_i_docking_score>
-6.89901128275979

> <r_i_glide_ligand_efficiency>
-0.328524346798085

> <r_i_glide_ligand_efficiency_sa>
-0.906373761991228

> <r_i_glide_ligand_efficiency_ln>
-1.70576659889742

> <r_i_glide_gscore>
-6.89901128275979

> <r_i_glide_lipo>
-3.8116308357205

> <r_i_glide_hbond>
-0.213296384581459

> <r_i_glide_metal>
0

> <r_i_glide_rewards>
-1.64490669560111

> <r_i_glide_evdw>
-29.0345058441162

> <r_i_glide_ecoul>
-3.02817606925964

> <r_i_glide_erotb>
0.676774335738039

> <r_i_glide_esite>
0

> <r_i_glide_emodel>
-36.9384656593727

> <r_i_glide_energy>
-32.0626819133759

> <r_i_glide_einternal>
6.46686363220215

> <i_i_glide_confnum>
15

> <i_i_glide_posenum>
361

> <r_i_glide_eff_state_penalty>
0

> <s_user_duplicate_titles>
CHEMBL2039_lig1777

> <s_m_subgroup_title>
dock_pv

> <s_m_subgroupid>
dock_pv

> <b_m_subgroup_collapsed>
1

$$$$
CHEMBL2039_lig281
                    3D
 Schrodinger Suite 2021-1.
 39 41  0  0  1  0            999 V2000
   53.4682  153.4440   23.9338 C   0  0  0  0  0  0
   53.0288  152.2716   24.5484 C   0  0  0  0  0  0
   52.2807  152.3317   25.7257 C   0  0  0  0  0  0
   53.2024  154.6775   24.5186 C   0  0  0  0  0  0
   52.4560  154.7394   25.6947 C   0  0  0  0  0  0
   51.9918  153.5693   26.2998 C   0  0  0  0  0  0
   51.3069  153.6057   27.5086 O   0  0  0  0  0  0
   51.3326  154.7415   28.3228 C   0  0  0  0  0  0
   51.9168  155.9765   27.7547 C   0  0  0  0  0  0
   52.3736  155.9597   26.4799 C   0  0  0  0  0  0
   50.8560  154.6248   29.4469 O   0  0  0  0  0  0
   52.0560  157.2063   28.5040 C   0  0  0  0  0  0
   50.9847  157.5823   29.2521 N   0  0  0  0  0  0
   53.0934  157.8440   28.3979 O   0  0  0  0  0  0
   50.6992  158.8180   29.8591 C   0  0  0  0  0  0
   51.6560  159.8097   30.1040 C   0  0  0  0  0  0
   51.3643  160.8961   30.9305 C   0  0  0  0  0  0
   50.0697  161.0296   31.4326 C   0  0  0  0  0  0
   49.0672  160.1105   31.1248 C   0  0  0  0  0  0
   49.3990  158.9943   30.3422 C   0  0  0  0  0  0
   47.8116  160.3586   31.6462 O   0  0  0  0  0  0
   52.2932  161.8443   31.3039 O   0  0  0  0  0  0
   46.7392  159.4757   31.3301 C   0  0  0  0  0  0
   53.6806  161.5750   31.1301 C   0  0  0  0  0  0
   54.0559  153.3887   23.0291 H   0  0  0  0  0  0
   53.2569  151.3150   24.1019 H   0  0  0  0  0  0
   51.9367  151.4215   26.1944 H   0  0  0  0  0  0
   53.6336  155.5754   24.1041 H   0  0  0  0  0  0
   52.7925  156.8602   26.0485 H   0  0  0  0  0  0
   50.2417  156.9028   29.3049 H   0  0  0  0  0  0
   52.6594  159.6979   29.7342 H   0  0  0  0  0  0
   49.8431  161.8597   32.0842 H   0  0  0  0  0  0
   48.6591  158.2358   30.1396 H   0  0  0  0  0  0
   45.8235  159.8347   31.8006 H   0  0  0  0  0  0
   46.5603  159.4306   30.2548 H   0  0  0  0  0  0
   46.9270  158.4676   31.7022 H   0  0  0  0  0  0
   54.2602  162.3335   31.6544 H   0  0  0  0  0  0
   53.9627  160.6109   31.5544 H   0  0  0  0  0  0
   53.9673  161.6039   30.0789 H   0  0  0  0  0  0
  1  2  2  0  0  0
  1  4  1  0  0  0
  1 25  1  0  0  0
  2  3  1  0  0  0
  2 26  1  0  0  0
  3  6  2  0  0  0
  3 27  1  0  0  0
  4  5  2  0  0  0
  4 28  1  0  0  0
  5 10  1  0  0  0
  5  6  1  0  0  0
  6  7  1  0  0  0
  7  8  1  0  0  0
  8  9  1  0  0  0
  8 11  2  0  0  0
  9 12  1  0  0  0
  9 10  2  0  0  0
 10 29  1  0  0  0
 12 13  1  0  0  0
 12 14  2  0  0  0
 13 15  1  0  0  0
 13 30  1  0  0  0
 15 16  2  0  0  0
 15 20  1  0  0  0
 16 17  1  0  0  0
 16 31  1  0  0  0
 17 18  2  0  0  0
 17 22  1  0  0  0
 18 19  1  0  0  0
 18 32  1  0  0  0
 19 20  2  0  0  0
 19 21  1  0  0  0
 20 33  1  0  0  0
 21 23  1  0  0  0
 22 24  1  0  0  0
 23 34  1  0  0  0
 23 35  1  0  0  0
 23 36  1  0  0  0
 24 37  1  0  0  0
 24 38  1  0  0  0
 24 39  1  0  0  0
M  END
> <s_m_entry_id>
10472

> <s_m_entry_name>
dock_pv.508

> <s_m_Source_Path>
/home/csk/Desktop/cluster/DUD-E-result/aofb

> <s_m_Source_File>
dock_pv.maegz

> <i_m_Source_File_Index>
508

> <chembl_id>
CHEMBL508793

> <chembl_pref_name>
None

> <i_lp_mmshare_version>
53161

> <i_f3d_flags>
0

> <r_lp_tautomer_probability>
1

> <s_lp_Force_Field>
OPLS_2005

> <r_lp_Energy>
37.324699

> <b_lp_Chiralities_Consistent>
1

> <s_lp_Variant>
CHEMBL2039_lig281-1

> <s_i_glide_gridfile>
glide-grid_1s3b

> <i_i_glide_lignum>
330

> <i_i_glide_rotatable_bonds>
5

> <r_i_docking_score>
-6.8967485626822

> <r_i_glide_ligand_efficiency>
-0.287364523445092

> <r_i_glide_ligand_efficiency_sa>
-0.828902720042454

> <r_i_glide_ligand_efficiency_ln>
-1.65070840221986

> <r_i_glide_gscore>
-6.8967485626822

> <r_i_glide_lipo>
-4.32397235996566

> <r_i_glide_hbond>
0

> <r_i_glide_metal>
0

> <r_i_glide_rewards>
-1.97888926903335

> <r_i_glide_evdw>
-35.8724098205566

> <r_i_glide_ecoul>
4.45677995681763

> <r_i_glide_erotb>
0.531216563821993

> <r_i_glide_esite>
0

> <r_i_glide_emodel>
-31.5341339014671

> <r_i_glide_energy>
-31.415629863739

> <r_i_glide_einternal>
7.13426160812378

> <i_i_glide_confnum>
7

> <i_i_glide_posenum>
94

> <r_i_glide_eff_state_penalty>
0

> <s_user_duplicate_titles>
CHEMBL2039_lig281

> <s_m_subgroup_title>
dock_pv

> <s_m_subgroupid>
dock_pv

> <b_m_subgroup_collapsed>
1

$$$$
CHEMBL2039_lig624
                    3D
 Schrodinger Suite 2021-1.
 38 40  0  0  1  0            999 V2000
   50.8912  154.0078   28.1039 O   0  0  0  0  0  0
   50.8560  155.0438   28.9924 C   0  0  0  0  0  0
   50.4560  154.7097   30.1038 O   0  0  0  0  0  0
   51.3016  156.3875   28.5233 C   0  0  0  0  0  0
   52.0560  156.4303   27.3801 C   0  0  0  0  0  0
   52.2125  155.2541   26.4944 C   0  0  0  0  0  0
   52.9588  155.2245   25.3041 C   0  0  0  0  0  0
   53.1982  153.9895   24.6763 C   0  0  0  0  0  0
   52.6033  152.8230   25.1547 C   0  0  0  0  0  0
   51.7963  152.8619   26.2805 C   0  0  0  0  0  0
   51.6351  154.0649   26.9526 C   0  0  0  0  0  0
   50.8802  157.6181   29.3293 C   0  0  0  0  0  0
   49.6868  157.6774   30.1039 C   0  0  0  0  0  0
   49.2569  158.8177   30.7675 C   0  0  0  0  0  0
   51.2972  159.9087   30.0898 C   0  0  0  0  0  0
   51.6519  158.7836   29.3256 C   0  0  0  0  0  0
   54.1870  153.8565   23.5476 C   0  0  0  0  0  0
   50.0938  159.9353   30.8165 C   0  0  0  0  0  0
   52.1468  160.9900   30.1040 O   0  0  0  0  0  0
   52.9523  161.1023   31.2738 C   0  0  0  0  0  0
   49.8184  161.0440   31.5930 O   0  0  0  0  0  0
   48.7355  160.9874   32.5177 C   0  0  0  0  0  0
   52.4028  157.3879   27.0202 H   0  0  0  0  0  0
   53.4471  156.1195   24.9473 H   0  0  0  0  0  0
   52.7890  151.8750   24.6706 H   0  0  0  0  0  0
   51.3431  151.9563   26.6575 H   0  0  0  0  0  0
   49.0207  156.8278   30.1040 H   0  0  0  0  0  0
   48.3147  158.7832   31.2920 H   0  0  0  0  0  0
   52.5959  158.7872   28.8090 H   0  0  0  0  0  0
   54.0543  152.9286   22.9914 H   0  0  0  0  0  0
   55.1928  153.9035   23.9628 H   0  0  0  0  0  0
   54.0971  154.6440   22.8271 H   0  0  0  0  0  0
   53.1237  162.1557   31.4949 H   0  0  0  0  0  0
   52.5111  160.6450   32.1621 H   0  0  0  0  0  0
   53.9252  160.6426   31.1031 H   0  0  0  0  0  0
   48.7786  161.8440   33.1840 H   0  0  0  0  0  0
   47.7736  161.0081   32.0032 H   0  0  0  0  0  0
   48.7852  160.1007   33.1520 H   0  0  0  0  0  0
  1 11  1  0  0  0
  1  2  1  0  0  0
  2  3  2  0  0  0
  2  4  1  0  0  0
  4  5  2  0  0  0
  4 12  1  0  0  0
  5  6  1  0  0  0
  5 23  1  0  0  0
  6  7  1  0  0  0
  6 11  2  0  0  0
  7  8  2  0  0  0
  7 24  1  0  0  0
  8  9  1  0  0  0
  8 17  1  0  0  0
  9 10  2  0  0  0
  9 25  1  0  0  0
 10 11  1  0  0  0
 10 26  1  0  0  0
 12 13  1  0  0  0
 12 16  2  0  0  0
 13 14  2  0  0  0
 13 27  1  0  0  0
 14 18  1  0  0  0
 14 28  1  0  0  0
 15 18  2  0  0  0
 15 16  1  0  0  0
 15 19  1  0  0  0
 16 29  1  0  0  0
 17 30  1  0  0  0
 17 31  1  0  0  0
 17 32  1  0  0  0
 18 21  1  0  0  0
 19 20  1  0  0  0
 20 33  1  0  0  0
 20 34  1  0  0  0
 20 35  1  0  0  0
 21 22  1  0  0  0
 22 36  1  0  0  0
 22 37  1  0  0  0
 22 38  1  0  0  0
M  END
> <s_m_entry_id>
10473

> <s_m_entry_name>
dock_pv.509

> <s_m_Source_Path>
/home/csk/Desktop/cluster/DUD-E-result/aofb

> <s_m_Source_File>
dock_pv.maegz

> <i_m_Source_File_Index>
509

> <chembl_id>
CHEMBL1835230

> <chembl_pref_name>
None

> <i_lp_mmshare_version>
53161

> <i_f3d_flags>
0

> <r_lp_tautomer_probability>
1

> <s_lp_Force_Field>
OPLS_2005

> <r_lp_Energy>
27.938147

> <b_lp_Chiralities_Consistent>
1

> <s_lp_Variant>
CHEMBL2039_lig624-1

> <s_i_glide_gridfile>
glide-grid_1s3b

> <i_i_glide_lignum>
733

> <i_i_glide_rotatable_bonds>
3

> <r_i_docking_score>
-6.89535340252848

> <r_i_glide_ligand_efficiency>
-0.313425154660386

> <r_i_glide_ligand_efficiency_sa>
-0.878229609670266

> <r_i_glide_ligand_efficiency_ln>
-1.68547588570442

> <r_i_glide_gscore>
-6.89535340252848

> <r_i_glide_lipo>
-4.27492548329452

> <r_i_glide_hbond>
-0.10467756926449

> <r_i_glide_metal>
0

> <r_i_glide_rewards>
-1.83041275757576

> <r_i_glide_evdw>
-14.121678352356

> <r_i_glide_ecoul>
-1.25252401828766

> <r_i_glide_erotb>
0.208624927967228

> <r_i_glide_esite>
0

> <r_i_glide_emodel>
-24.4295715206885

> <r_i_glide_energy>
-15.3742023706436

> <r_i_glide_einternal>
7.71883773803711

> <i_i_glide_confnum>
2

> <i_i_glide_posenum>
1

> <r_i_glide_eff_state_penalty>
0

> <s_user_duplicate_titles>
CHEMBL2039_lig624

> <s_m_subgroup_title>
dock_pv

> <s_m_subgroupid>
dock_pv

> <b_m_subgroup_collapsed>
1

$$$$
CHEMBL2039_lig2258
                    3D
 Schrodinger Suite 2021-1.
 28 30  0  0  1  0            999 V2000
   51.7299  153.0444   26.2807 C   0  0  0  0  0  0
   52.2937  154.0111   25.4480 C   0  0  0  0  0  0
   52.4561  155.3356   25.8705 C   0  0  0  0  0  0
   51.2562  153.3688   27.5523 C   0  0  0  0  0  0
   51.3389  154.6997   27.9812 C   0  0  0  0  0  0
   51.9954  155.6467   27.1641 C   0  0  0  0  0  0
   52.0560  156.8675   27.7923 O   0  0  0  0  0  0
   51.2560  156.7696   28.9039 C   0  0  0  0  0  0
   50.8559  155.4443   29.0918 C   0  0  0  0  0  0
   50.8334  158.0459   29.5874 C   0  0  0  0  0  0
   51.6561  159.1655   29.6938 C   0  0  0  0  0  0
   51.2257  160.3319   30.3287 C   0  0  0  0  0  0
   49.9307  160.4080   30.8355 C   0  0  0  0  0  0
   49.0777  159.3146   30.7127 C   0  0  0  0  0  0
   49.5347  158.1456   30.1040 C   0  0  0  0  0  0
   53.1573  156.3195   24.9646 C   0  0  0  0  0  0
   47.2978  159.4063   31.3822 Br  0  0  0  0  0  0
   51.6568  152.0237   25.9341 H   0  0  0  0  0  0
   52.6460  153.7129   24.4702 H   0  0  0  0  0  0
   50.8108  152.6133   28.1803 H   0  0  0  0  0  0
   50.2419  155.0761   29.8989 H   0  0  0  0  0  0
   52.6620  159.1091   29.3039 H   0  0  0  0  0  0
   51.8937  161.1752   30.4255 H   0  0  0  0  0  0
   49.5925  161.3102   31.3234 H   0  0  0  0  0  0
   48.8668  157.2982   30.0648 H   0  0  0  0  0  0
   53.6768  157.0437   25.5819 H   0  0  0  0  0  0
   53.9075  155.8274   24.3440 H   0  0  0  0  0  0
   52.4482  156.8466   24.3291 H   0  0  0  0  0  0
  1  2  2  0  0  0
  1  4  1  0  0  0
  1 18  1  0  0  0
  2  3  1  0  0  0
  2 19  1  0  0  0
  3  6  2  0  0  0
  3 16  1  0  0  0
  4  5  2  0  0  0
  4 20  1  0  0  0
  5  6  1  0  0  0
  5  9  1  0  0  0
  6  7  1  0  0  0
  7  8  1  0  0  0
  8  9  2  0  0  0
  8 10  1  0  0  0
  9 21  1  0  0  0
 10 11  2  0  0  0
 10 15  1  0  0  0
 11 12  1  0  0  0
 11 22  1  0  0  0
 12 13  2  0  0  0
 12 23  1  0  0  0
 13 14  1  0  0  0
 13 24  1  0  0  0
 14 15  2  0  0  0
 14 17  1  0  0  0
 15 25  1  0  0  0
 16 26  1  0  0  0
 16 27  1  0  0  0
 16 28  1  0  0  0
M  END
> <s_m_entry_id>
10474

> <s_m_entry_name>
dock_pv.510

> <s_m_Source_Path>
/home/csk/Desktop/cluster/DUD-E-result/aofb

> <s_m_Source_File>
dock_pv.maegz

> <i_m_Source_File_Index>
510

> <chembl_id>
CHEMBL4287271

> <chembl_pref_name>
None

> <i_lp_mmshare_version>
53161

> <i_f3d_flags>
0

> <r_lp_tautomer_probability>
1

> <s_lp_Force_Field>
OPLS_2005

> <r_lp_Energy>
9.424169

> <b_lp_Chiralities_Consistent>
1

> <s_lp_Variant>
CHEMBL2039_lig2258-1

> <s_i_glide_gridfile>
glide-grid_1s3b

> <i_i_glide_lignum>
2618

> <i_i_glide_rotatable_bonds>
1

> <r_i_docking_score>
-6.88484819530691

> <r_i_glide_ligand_efficiency>
-0.404991070312171

> <r_i_glide_ligand_efficiency_sa>
-1.04134608249121

> <r_i_glide_ligand_efficiency_ln>
-1.79610357612434

> <r_i_glide_gscore>
-6.88484819530691

> <r_i_glide_lipo>
-4.02711961786115

> <r_i_glide_hbond>
0

> <r_i_glide_metal>
0

> <r_i_glide_rewards>
-1.86075369208471

> <r_i_glide_evdw>
-24.6360263824463

> <r_i_glide_ecoul>
0.0963009148836136

> <r_i_glide_erotb>
0.220381296528723

> <r_i_glide_esite>
0

> <r_i_glide_emodel>
-27.1289201879332

> <r_i_glide_energy>
-24.5397254675627

> <r_i_glide_einternal>
1.68784415721893

> <i_i_glide_confnum>
2

> <i_i_glide_posenum>
208

> <r_i_glide_eff_state_penalty>
0

> <s_user_duplicate_titles>
CHEMBL2039_lig2258

> <s_m_subgroup_title>
dock_pv

> <s_m_subgroupid>
dock_pv

> <b_m_subgroup_collapsed>
1

$$$$
CHEMBL2039_lig921
                    3D
 Schrodinger Suite 2021-1.
 39 40  0  0  1  0            999 V2000
   52.8251  151.2681   25.0308 C   0  0  0  0  0  0
   52.0560  151.6792   26.1040 C   0  0  0  0  0  0
   51.9025  153.0210   26.4324 C   0  0  0  0  0  0
   52.4702  154.0295   25.6180 C   0  0  0  0  0  0
   53.2091  153.5752   24.4918 C   0  0  0  0  0  0
   53.2638  152.2313   24.1590 C   0  0  0  0  0  0
   54.0201  154.3491   23.7075 O   0  0  0  0  0  0
   52.4560  155.5071   25.9748 C   0  0  0  0  0  0
   53.0544  156.3271   25.2794 O   0  0  0  0  0  0
   51.7363  156.0151   27.1482 C   0  0  0  0  0  0
   52.0798  157.1267   27.8302 C   0  0  0  0  0  0
   51.2432  157.6304   28.9040 C   0  0  0  0  0  0
   51.3039  158.8957   29.3545 C   0  0  0  0  0  0
   50.3985  159.5406   30.3224 C   0  0  0  0  0  0
   49.0933  159.0893   30.5630 C   0  0  0  0  0  0
   48.2670  159.7361   31.5016 C   0  0  0  0  0  0
   48.7778  160.8046   32.2370 C   0  0  0  0  0  0
   50.0638  161.2602   31.9891 C   0  0  0  0  0  0
   50.8685  160.6440   31.0364 C   0  0  0  0  0  0
   46.9560  159.3849   31.7301 O   0  0  0  0  0  0
   46.2337  158.9016   30.6186 C   0  0  0  0  0  0
   51.2559  153.2423   27.6167 O   0  0  0  0  0  0
   48.0199  161.4389   33.1851 O   0  0  0  0  0  0
   52.9396  150.2184   24.8026 H   0  0  0  0  0  0
   51.5905  150.9194   26.7113 H   0  0  0  0  0  0
   53.7593  151.9098   23.2602 H   0  0  0  0  0  0
   54.5484  153.7984   23.1254 H   0  0  0  0  0  0
   50.8569  155.4866   27.4596 H   0  0  0  0  0  0
   52.9690  157.6813   27.5563 H   0  0  0  0  0  0
   50.5046  156.9649   29.3276 H   0  0  0  0  0  0
   52.0556  159.5429   28.9430 H   0  0  0  0  0  0
   48.7147  158.2425   30.0133 H   0  0  0  0  0  0
   50.4555  162.1198   32.5039 H   0  0  0  0  0  0
   51.8687  161.0201   30.8728 H   0  0  0  0  0  0
   45.1674  159.0441   30.7810 H   0  0  0  0  0  0
   46.4964  159.4267   29.7042 H   0  0  0  0  0  0
   46.4561  157.8443   30.5042 H   0  0  0  0  0  0
   51.0020  152.4315   28.0628 H   0  0  0  0  0  0
   48.5255  162.1033   33.6542 H   0  0  0  0  0  0
  1  2  2  0  0  0
  1  6  1  0  0  0
  1 24  1  0  0  0
  2  3  1  0  0  0
  2 25  1  0  0  0
  3  4  2  0  0  0
  3 22  1  0  0  0
  4  5  1  0  0  0
  4  8  1  0  0  0
  5  6  2  0  0  0
  5  7  1  0  0  0
  6 26  1  0  0  0
  7 27  1  0  0  0
  8  9  2  0  0  0
  8 10  1  0  0  0
 10 11  2  0  0  0
 10 28  1  0  0  0
 11 12  1  0  0  0
 11 29  1  0  0  0
 12 13  2  0  0  0
 12 30  1  0  0  0
 13 14  1  0  0  0
 13 31  1  0  0  0
 14 15  2  0  0  0
 14 19  1  0  0  0
 15 16  1  0  0  0
 15 32  1  0  0  0
 16 17  2  0  0  0
 16 20  1  0  0  0
 17 18  1  0  0  0
 17 23  1  0  0  0
 18 19  2  0  0  0
 18 33  1  0  0  0
 19 34  1  0  0  0
 20 21  1  0  0  0
 21 35  1  0  0  0
 21 36  1  0  0  0
 21 37  1  0  0  0
 22 38  1  0  0  0
 23 39  1  0  0  0
M  END
> <s_m_entry_id>
10475

> <s_m_entry_name>
dock_pv.511

> <s_m_Source_Path>
/home/csk/Desktop/cluster/DUD-E-result/aofb

> <s_m_Source_File>
dock_pv.maegz

> <i_m_Source_File_Index>
511

> <chembl_id>
CHEMBL2332184

> <chembl_pref_name>
None

> <i_lp_mmshare_version>
53161

> <i_f3d_flags>
0

> <r_lp_tautomer_probability>
1

> <s_lp_Force_Field>
OPLS_2005

> <r_lp_Energy>
31.600079

> <b_lp_Chiralities_Consistent>
1

> <s_lp_Variant>
CHEMBL2039_lig921-1

> <s_i_glide_gridfile>
glide-grid_1s3b

> <i_i_glide_lignum>
1068

> <i_i_glide_rotatable_bonds>
8

> <r_i_docking_score>
-6.87994476944873

> <r_i_glide_ligand_efficiency>
-0.299128033454293

> <r_i_glide_ligand_efficiency_sa>
-0.850680336199496

> <r_i_glide_ligand_efficiency_ln>
-1.6636330291428

> <r_i_glide_gscore>
-6.87994476944873

> <r_i_glide_lipo>
-4.70963839612107

> <r_i_glide_hbond>
0

> <r_i_glide_metal>
0

> <r_i_glide_rewards>
-1.129086738785

> <r_i_glide_evdw>
-28.0440521240234

> <r_i_glide_ecoul>
-2.66696047782898

> <r_i_glide_erotb>
0.761027043332858

> <r_i_glide_esite>
0

> <r_i_glide_emodel>
-23.9038047778942

> <r_i_glide_energy>
-30.7110126018524

> <r_i_glide_einternal>
17.8635520935059

> <i_i_glide_confnum>
24

> <i_i_glide_posenum>
81

> <r_i_glide_eff_state_penalty>
0

> <s_user_duplicate_titles>
CHEMBL2039_lig921

> <s_m_subgroup_title>
dock_pv

> <s_m_subgroupid>
dock_pv

> <b_m_subgroup_collapsed>
1

$$$$
CHEMBL2039_lig851
                    3D
 Schrodinger Suite 2021-1.
 28 29  0  0  1  0            999 V2000
   49.2177  160.8226   32.2362 C   0  0  0  0  0  0
   49.6387  159.9712   31.1434 C   0  0  0  0  0  0
   50.9007  159.9756   30.4944 C   0  0  0  0  0  0
   51.9065  161.0220   30.6713 C   0  0  0  0  0  0
   51.2606  158.8674   29.7040 C   0  0  0  0  0  0
   50.4306  157.7481   29.6849 C   0  0  0  0  0  0
   49.1407  157.8440   30.1935 C   0  0  0  0  0  0
   48.7337  158.9467   30.9039 C   0  0  0  0  0  0
   48.8560  161.4440   33.1323 N   0  0  0  0  0  0
   52.7100  161.8440   30.7998 N   0  0  0  0  0  0
   50.8560  156.2066   28.9040 S   0  0  0  0  0  0
   52.1215  156.4680   27.6296 C   0  0  0  0  0  0
   52.1470  155.3755   26.5594 C   0  0  0  0  0  0
   52.8646  155.6310   25.3876 C   0  0  0  0  0  0
   53.2037  154.5834   24.5365 C   0  0  0  0  0  0
   52.7718  153.2928   24.8181 C   0  0  0  0  0  0
   51.9725  153.0440   25.9293 C   0  0  0  0  0  0
   51.6560  154.0811   26.7994 C   0  0  0  0  0  0
   53.2560  151.9888   23.7993 Cl  0  0  0  0  0  0
   52.2372  158.8117   29.2415 H   0  0  0  0  0  0
   48.4606  157.0110   30.1040 H   0  0  0  0  0  0
   47.7524  158.9217   31.3620 H   0  0  0  0  0  0
   52.0560  157.4543   27.1738 H   0  0  0  0  0  0
   53.0846  156.4583   28.1403 H   0  0  0  0  0  0
   53.2661  156.6156   25.1971 H   0  0  0  0  0  0
   53.8577  154.7572   23.6999 H   0  0  0  0  0  0
   51.6402  152.0390   26.1446 H   0  0  0  0  0  0
   51.1096  153.8373   27.6977 H   0  0  0  0  0  0
  1  2  1  0  0  0
  1  9  3  0  0  0
  2  3  1  0  0  0
  2  8  2  0  0  0
  3  4  1  0  0  0
  3  5  2  0  0  0
  4 10  3  0  0  0
  5  6  1  0  0  0
  5 20  1  0  0  0
  6  7  2  0  0  0
  6 11  1  0  0  0
  7  8  1  0  0  0
  7 21  1  0  0  0
  8 22  1  0  0  0
 11 12  1  0  0  0
 12 13  1  0  0  0
 12 23  1  0  0  0
 12 24  1  0  0  0
 13 14  1  0  0  0
 13 18  2  0  0  0
 14 15  2  0  0  0
 14 25  1  0  0  0
 15 16  1  0  0  0
 15 26  1  0  0  0
 16 17  2  0  0  0
 16 19  1  0  0  0
 17 18  1  0  0  0
 17 27  1  0  0  0
 18 28  1  0  0  0
M  END
> <s_m_entry_id>
10476

> <s_m_entry_name>
dock_pv.512

> <s_m_Source_Path>
/home/csk/Desktop/cluster/DUD-E-result/aofb

> <s_m_Source_File>
dock_pv.maegz

> <i_m_Source_File_Index>
512

> <chembl_id>
CHEMBL2204756

> <chembl_pref_name>
None

> <i_lp_mmshare_version>
53161

> <i_f3d_flags>
0

> <r_lp_tautomer_probability>
1

> <s_lp_Force_Field>
OPLS_2005

> <r_lp_Energy>
10.078866

> <b_lp_Chiralities_Consistent>
1

> <s_lp_Variant>
CHEMBL2039_lig851-1

> <s_i_glide_gridfile>
glide-grid_1s3b

> <i_i_glide_lignum>
984

> <i_i_glide_rotatable_bonds>
3

> <r_i_docking_score>
-6.87457396856231

> <r_i_glide_ligand_efficiency>
-0.361819682555911

> <r_i_glide_ligand_efficiency_sa>
-0.965480236524644

> <r_i_glide_ligand_efficiency_ln>
-1.74285215334097

> <r_i_glide_gscore>
-6.87457396856231

> <r_i_glide_lipo>
-3.38431976683433

> <r_i_glide_hbond>
0

> <r_i_glide_metal>
0

> <r_i_glide_rewards>
-2.87588861227048

> <r_i_glide_evdw>
-23.3982410430908

> <r_i_glide_ecoul>
-0.768507361412048

> <r_i_glide_erotb>
0.670822566908854

> <r_i_glide_esite>
0

> <r_i_glide_emodel>
-23.2111644092749

> <r_i_glide_energy>
-24.1667484045029

> <r_i_glide_einternal>
6.50374603271484

> <i_i_glide_confnum>
3

> <i_i_glide_posenum>
291

> <r_i_glide_eff_state_penalty>
0

> <s_user_duplicate_titles>
CHEMBL2039_lig851

> <s_m_subgroup_title>
dock_pv

> <s_m_subgroupid>
dock_pv

> <b_m_subgroup_collapsed>
1

$$$$
CHEMBL2039_lig948
                    3D
 Schrodinger Suite 2021-1.
 42 44  0  0  1  0            999 V2000
   51.3442  154.5672   27.5978 N   0  0  0  0  0  0
   51.7091  155.7561   27.8376 C   0  0  0  0  0  0
   52.8485  156.6446   26.7643 S   0  0  0  0  0  0
   53.1614  155.6620   25.3148 C   0  0  0  0  0  0
   51.8535  153.9138   26.5158 C   0  0  0  0  0  0
   52.6503  154.3088   25.4268 C   0  0  0  0  0  0
   53.0990  153.2516   24.6262 C   0  0  0  0  0  0
   52.7774  152.0185   25.1868 C   0  0  0  0  0  0
   51.6560  152.2394   26.5040 S   0  0  0  0  0  0
   53.9297  156.1523   24.5039 O   0  0  0  0  0  0
   51.1430  156.3748   28.9039 N   0  0  0  0  0  0
   51.2537  157.6871   29.2262 C   0  0  0  0  0  0
   49.9957  158.3452   29.7811 C   0  0  0  0  0  0
   52.1847  158.4164   28.9049 O   0  0  0  0  0  0
   49.7049  159.6299   28.9683 C   0  0  0  0  0  0
   48.3006  160.1653   29.1917 C   0  0  0  0  0  0
   48.0439  160.4458   30.6555 C   0  0  0  0  0  0
   46.8139  160.0685   31.1658 C   0  0  0  0  0  0
   46.5930  160.1855   32.5191 C   0  0  0  0  0  0
   47.5796  160.6791   33.3697 C   0  0  0  0  0  0
   48.8085  161.0728   32.8644 C   0  0  0  0  0  0
   49.0382  160.9661   31.5013 C   0  0  0  0  0  0
   53.8539  153.4444   23.3375 C   0  0  0  0  0  0
   53.1988  150.6332   24.7458 C   0  0  0  0  0  0
   50.4199  155.8491   29.3667 H   0  0  0  0  0  0
   49.1555  157.6577   29.7052 H   0  0  0  0  0  0
   50.0560  158.5658   30.8427 H   0  0  0  0  0  0
   50.4421  160.3944   29.2128 H   0  0  0  0  0  0
   49.8295  159.4441   27.9072 H   0  0  0  0  0  0
   48.1018  161.0441   28.5894 H   0  0  0  0  0  0
   47.6017  159.4087   28.8320 H   0  0  0  0  0  0
   46.0431  159.6525   30.5320 H   0  0  0  0  0  0
   45.6558  159.8438   32.9040 H   0  0  0  0  0  0
   47.3930  160.7473   34.4308 H   0  0  0  0  0  0
   49.5813  161.4468   33.5206 H   0  0  0  0  0  0
   50.0039  161.2650   31.1240 H   0  0  0  0  0  0
   54.8559  153.8435   23.4911 H   0  0  0  0  0  0
   53.3448  154.2116   22.7816 H   0  0  0  0  0  0
   53.8718  152.5773   22.6849 H   0  0  0  0  0  0
   53.0116  150.4746   23.6843 H   0  0  0  0  0  0
   54.2639  150.4742   24.9053 H   0  0  0  0  0  0
   52.6772  149.8422   25.2858 H   0  0  0  0  0  0
  1  5  1  0  0  0
  1  2  2  0  0  0
  2  3  1  0  0  0
  2 11  1  0  0  0
  3  4  1  0  0  0
  4  6  1  0  0  0
  4 10  2  0  0  0
  5  6  2  0  0  0
  5  9  1  0  0  0
  6  7  1  0  0  0
  7  8  2  0  0  0
  7 23  1  0  0  0
  8  9  1  0  0  0
  8 24  1  0  0  0
 11 12  1  0  0  0
 11 25  1  0  0  0
 12 13  1  0  0  0
 12 14  2  0  0  0
 13 15  1  0  0  0
 13 26  1  0  0  0
 13 27  1  0  0  0
 15 16  1  0  0  0
 15 28  1  0  0  0
 15 29  1  0  0  0
 16 17  1  0  0  0
 16 30  1  0  0  0
 16 31  1  0  0  0
 17 18  2  0  0  0
 17 22  1  0  0  0
 18 19  1  0  0  0
 18 32  1  0  0  0
 19 20  2  0  0  0
 19 33  1  0  0  0
 20 21  1  0  0  0
 20 34  1  0  0  0
 21 22  2  0  0  0
 21 35  1  0  0  0
 22 36  1  0  0  0
 23 37  1  0  0  0
 23 38  1  0  0  0
 23 39  1  0  0  0
 24 40  1  0  0  0
 24 41  1  0  0  0
 24 42  1  0  0  0
M  END
> <s_m_entry_id>
10477

> <s_m_entry_name>
dock_pv.513

> <s_m_Source_Path>
/home/csk/Desktop/cluster/DUD-E-result/aofb

> <s_m_Source_File>
dock_pv.maegz

> <i_m_Source_File_Index>
513

> <chembl_id>
CHEMBL2382426

> <chembl_pref_name>
None

> <i_lp_mmshare_version>
53161

> <i_f3d_flags>
0

> <r_lp_tautomer_probability>
1

> <s_lp_Force_Field>
OPLS_2005

> <r_lp_Energy>
16.266458

> <b_lp_Chiralities_Consistent>
1

> <s_lp_Variant>
CHEMBL2039_lig948-1

> <s_i_glide_gridfile>
glide-grid_1s3b

> <i_i_glide_lignum>
1095

> <i_i_glide_rotatable_bonds>
6

> <r_i_docking_score>
-6.87239107525152

> <r_i_glide_ligand_efficiency>
-0.28634962813548

> <r_i_glide_ligand_efficiency_sa>
-0.825975255397166

> <r_i_glide_ligand_efficiency_ln>
-1.64487853778542

> <r_i_glide_gscore>
-6.87239107525152

> <r_i_glide_lipo>
-5.06730369528368

> <r_i_glide_hbond>
0

> <r_i_glide_metal>
0

> <r_i_glide_rewards>
-1.95284409966035

> <r_i_glide_evdw>
-19.7801647186279

> <r_i_glide_ecoul>
2.609534740448

> <r_i_glide_erotb>
0.745334744556713

> <r_i_glide_esite>
0

> <r_i_glide_emodel>
-15.0362572944248

> <r_i_glide_energy>
-17.1706299781799

> <r_i_glide_einternal>
20.4266929626465

> <i_i_glide_confnum>
70

> <i_i_glide_posenum>
121

> <r_i_glide_eff_state_penalty>
0

> <s_user_duplicate_titles>
CHEMBL2039_lig948

> <s_m_subgroup_title>
dock_pv

> <s_m_subgroupid>
dock_pv

> <b_m_subgroup_collapsed>
1

$$$$
CHEMBL2039_lig1477
                    3D
 Schrodinger Suite 2021-1.
 34 35  0  0  1  0            999 V2000
   53.3722  150.5937   24.5460 C   0  0  0  0  0  0
   53.2558  151.9810   24.2337 O   0  0  0  0  0  0
   52.7031  152.8267   25.1773 C   0  0  0  0  0  0
   52.0371  152.3694   26.3213 C   0  0  0  0  0  0
   51.5577  153.2552   27.2721 C   0  0  0  0  0  0
   51.7271  154.6200   27.0854 C   0  0  0  0  0  0
   51.2519  155.4458   28.1065 N   0  0  0  0  0  0
   51.7237  156.6441   28.5020 C   0  0  0  0  0  0
   52.7708  157.1533   28.1022 O   0  0  0  0  0  0
   50.7785  157.3219   29.3502 C   0  0  0  0  0  0
   50.8316  158.6406   29.6332 C   0  0  0  0  0  0
   49.8213  159.3671   30.4451 C   0  0  0  0  0  0
   48.4814  158.9452   30.4724 C   0  0  0  0  0  0
   47.5479  159.5683   31.2994 C   0  0  0  0  0  0
   47.9441  160.6148   32.1269 C   0  0  0  0  0  0
   49.2691  161.0439   32.1101 C   0  0  0  0  0  0
   50.2034  160.4382   31.2700 C   0  0  0  0  0  0
   51.8346  161.0190   31.3035 Cl  0  0  0  0  0  0
   52.3091  155.1027   25.9016 C   0  0  0  0  0  0
   52.7989  154.2009   24.9540 C   0  0  0  0  0  0
   53.6556  150.0300   23.6659 H   0  0  0  0  0  0
   54.1367  150.4435   25.3040 H   0  0  0  0  0  0
   52.4534  150.1327   24.8942 H   0  0  0  0  0  0
   51.8810  151.3207   26.5040 H   0  0  0  0  0  0
   51.0792  152.8698   28.1624 H   0  0  0  0  0  0
   50.5094  155.0498   28.6612 H   0  0  0  0  0  0
   49.9684  156.7183   29.7288 H   0  0  0  0  0  0
   51.6460  159.2335   29.2325 H   0  0  0  0  0  0
   48.1481  158.1261   29.8534 H   0  0  0  0  0  0
   46.5216  159.2284   31.3049 H   0  0  0  0  0  0
   47.2290  161.0906   32.7833 H   0  0  0  0  0  0
   49.5825  161.8440   32.7632 H   0  0  0  0  0  0
   52.4143  156.1637   25.7314 H   0  0  0  0  0  0
   53.2884  154.5661   24.0654 H   0  0  0  0  0  0
  1  2  1  0  0  0
  1 21  1  0  0  0
  1 22  1  0  0  0
  1 23  1  0  0  0
  2  3  1  0  0  0
  3  4  2  0  0  0
  3 20  1  0  0  0
  4  5  1  0  0  0
  4 24  1  0  0  0
  5  6  2  0  0  0
  5 25  1  0  0  0
  6  7  1  0  0  0
  6 19  1  0  0  0
  7  8  1  0  0  0
  7 26  1  0  0  0
  8  9  2  0  0  0
  8 10  1  0  0  0
 10 11  2  0  0  0
 10 27  1  0  0  0
 11 12  1  0  0  0
 11 28  1  0  0  0
 12 13  2  0  0  0
 12 17  1  0  0  0
 13 14  1  0  0  0
 13 29  1  0  0  0
 14 15  2  0  0  0
 14 30  1  0  0  0
 15 16  1  0  0  0
 15 31  1  0  0  0
 16 17  2  0  0  0
 16 32  1  0  0  0
 17 18  1  0  0  0
 19 20  2  0  0  0
 19 33  1  0  0  0
 20 34  1  0  0  0
M  END
> <s_m_entry_id>
10478

> <s_m_entry_name>
dock_pv.514

> <s_m_Source_Path>
/home/csk/Desktop/cluster/DUD-E-result/aofb

> <s_m_Source_File>
dock_pv.maegz

> <i_m_Source_File_Index>
514

> <chembl_id>
CHEMBL585432

> <chembl_pref_name>
None

> <i_lp_mmshare_version>
53161

> <i_f3d_flags>
0

> <r_lp_tautomer_probability>
1

> <s_lp_Force_Field>
OPLS_2005

> <r_lp_Energy>
22.645751

> <b_lp_Chiralities_Consistent>
1

> <s_lp_Variant>
CHEMBL2039_lig1477-1

> <s_i_glide_gridfile>
glide-grid_1s3b

> <i_i_glide_lignum>
1701

> <i_i_glide_rotatable_bonds>
5

> <r_i_docking_score>
-6.86701867621382

> <r_i_glide_ligand_efficiency>
-0.343350933810691

> <r_i_glide_ligand_efficiency_sa>
-0.93199782247938

> <r_i_glide_ligand_efficiency_ln>
-1.71858828522212

> <r_i_glide_gscore>
-6.86701867621382

> <r_i_glide_lipo>
-3.90938200471116

> <r_i_glide_hbond>
0

> <r_i_glide_metal>
0

> <r_i_glide_rewards>
-2.29068211947193

> <r_i_glide_evdw>
-38.5433197021484

> <r_i_glide_ecoul>
4.00949621200562

> <r_i_glide_erotb>
0.658787001275844

> <r_i_glide_esite>
0

> <r_i_glide_emodel>
-43.8906320936695

> <r_i_glide_energy>
-34.5338234901428

> <r_i_glide_einternal>
7.44854402542114

> <i_i_glide_confnum>
3

> <i_i_glide_posenum>
90

> <r_i_glide_eff_state_penalty>
0

> <s_user_duplicate_titles>
CHEMBL2039_lig1477

> <s_m_subgroup_title>
dock_pv

> <s_m_subgroupid>
dock_pv

> <b_m_subgroup_collapsed>
1

$$$$
CHEMBL2039_lig189
                    3D
 Schrodinger Suite 2021-1.
 30 33  0  0  1  0            999 V2000
   52.2253  155.9568   26.9320 C   0  0  0  0  0  0
   51.6560  154.7642   27.3241 C   0  0  0  0  0  0
   52.8560  155.8018   25.5974 C   0  0  0  0  0  0
   50.9038  154.6440   28.4526 N   0  0  0  0  0  0
   52.7280  154.3628   25.3060 C   0  0  0  0  0  0
   52.0549  153.7338   26.3554 C   0  0  0  0  0  0
   50.6489  155.7435   29.1936 N   0  0  0  0  0  0
   52.1128  157.0440   27.7928 C   0  0  0  0  0  0
   51.2560  156.9410   28.9040 C   0  0  0  0  0  0
   50.8123  158.1808   29.6226 C   0  0  0  0  0  0
   53.4112  156.6440   24.9014 O   0  0  0  0  0  0
   51.6560  159.2952   29.7043 C   0  0  0  0  0  0
   51.2721  160.4522   30.3767 C   0  0  0  0  0  0
   52.5025  161.8945   30.5233 Br  0  0  0  0  0  0
   53.2831  153.6241   24.2623 C   0  0  0  0  0  0
   51.9570  152.3468   26.3794 C   0  0  0  0  0  0
   49.5239  158.3027   30.1666 C   0  0  0  0  0  0
   49.1194  159.4686   30.8201 C   0  0  0  0  0  0
   50.0005  160.5419   30.9366 C   0  0  0  0  0  0
   52.5888  151.5973   25.3835 C   0  0  0  0  0  0
   53.2344  152.2336   24.3219 C   0  0  0  0  0  0
   52.5613  157.9846   27.5213 H   0  0  0  0  0  0
   52.6566  159.2466   29.3040 H   0  0  0  0  0  0
   53.8124  154.1018   23.4505 H   0  0  0  0  0  0
   51.4454  151.8440   27.1872 H   0  0  0  0  0  0
   48.8275  157.4794   30.1040 H   0  0  0  0  0  0
   48.1293  159.5338   31.2466 H   0  0  0  0  0  0
   49.7019  161.4385   31.4600 H   0  0  0  0  0  0
   52.5402  150.5186   25.4150 H   0  0  0  0  0  0
   53.6560  151.6451   23.5239 H   0  0  0  0  0  0
  1  2  2  0  0  0
  1  3  1  0  0  0
  1  8  1  0  0  0
  2  4  1  0  0  0
  2  6  1  0  0  0
  3  5  1  0  0  0
  3 11  2  0  0  0
  4  7  2  0  0  0
  5 15  1  0  0  0
  5  6  2  0  0  0
  6 16  1  0  0  0
  7  9  1  0  0  0
  8  9  2  0  0  0
  8 22  1  0  0  0
  9 10  1  0  0  0
 10 12  1  0  0  0
 10 17  2  0  0  0
 12 13  2  0  0  0
 12 23  1  0  0  0
 13 14  1  0  0  0
 13 19  1  0  0  0
 15 21  2  0  0  0
 15 24  1  0  0  0
 16 20  2  0  0  0
 16 25  1  0  0  0
 17 18  1  0  0  0
 17 26  1  0  0  0
 18 19  2  0  0  0
 18 27  1  0  0  0
 19 28  1  0  0  0
 20 21  1  0  0  0
 20 29  1  0  0  0
 21 30  1  0  0  0
M  END
> <s_m_entry_id>
10479

> <s_m_entry_name>
dock_pv.515

> <s_m_Source_Path>
/home/csk/Desktop/cluster/DUD-E-result/aofb

> <s_m_Source_File>
dock_pv.maegz

> <i_m_Source_File_Index>
515

> <chembl_id>
CHEMBL127622

> <chembl_pref_name>
None

> <i_lp_mmshare_version>
53161

> <i_f3d_flags>
0

> <r_lp_tautomer_probability>
1

> <s_lp_Force_Field>
OPLS_2005

> <r_lp_Energy>
42.536551

> <b_lp_Chiralities_Consistent>
1

> <s_lp_Variant>
CHEMBL2039_lig189-1

> <s_i_glide_gridfile>
glide-grid_1s3b

> <i_i_glide_lignum>
230

> <i_i_glide_rotatable_bonds>
1

> <r_i_docking_score>
-6.86674020789678

> <r_i_glide_ligand_efficiency>
-0.326987628947466

> <r_i_glide_ligand_efficiency_sa>
-0.90213407396518

> <r_i_glide_ligand_efficiency_ln>
-1.69778764084739

> <r_i_glide_gscore>
-6.86674020789678

> <r_i_glide_lipo>
-3.72405097120244

> <r_i_glide_hbond>
0

> <r_i_glide_metal>
0

> <r_i_glide_rewards>
-1.90285497195629

> <r_i_glide_evdw>
-21.6080665588379

> <r_i_glide_ecoul>
-2.17096328735352

> <r_i_glide_erotb>
0.166213556306869

> <r_i_glide_esite>
0

> <r_i_glide_emodel>
-25.1705189285357

> <r_i_glide_energy>
-23.7790298461914

> <r_i_glide_einternal>
0.177561327815056

> <i_i_glide_confnum>
1

> <i_i_glide_posenum>
196

> <r_i_glide_eff_state_penalty>
0

> <s_user_duplicate_titles>
CHEMBL2039_lig189,209831

> <s_m_subgroup_title>
dock_pv

> <s_m_subgroupid>
dock_pv

> <b_m_subgroup_collapsed>
1

$$$$
CHEMBL2039_lig1867
                    3D
 Schrodinger Suite 2021-1.
 35 37  0  0  1  0            999 V2000
   49.6560  161.5062   32.6338 C   0  0  0  0  0  0
   50.6763  161.3689   31.7040 C   0  0  0  0  0  0
   50.6114  160.3577   30.7780 C   0  0  0  0  0  0
   49.5479  159.4498   30.8346 C   0  0  0  0  0  0
   48.4653  159.6739   31.7016 C   0  0  0  0  0  0
   48.5240  160.7179   32.6064 C   0  0  0  0  0  0
   49.6294  158.1620   30.1040 C   0  0  0  0  0  0
   48.6400  157.4294   30.1040 O   0  0  0  0  0  0
   50.8560  157.8456   29.6327 N   0  0  0  0  0  0
   51.2229  156.7233   28.9040 C   0  0  0  0  0  0
   52.1821  156.9327   27.9164 C   0  0  0  0  0  0
   52.3944  155.9539   26.9574 C   0  0  0  0  0  0
   51.7421  154.7233   27.0748 C   0  0  0  0  0  0
   50.8918  154.4730   28.1508 C   0  0  0  0  0  0
   50.5969  155.4801   29.0469 C   0  0  0  0  0  0
   47.2560  161.0188   33.7273 Cl  0  0  0  0  0  0
   52.0560  153.6382   26.1640 C   0  0  0  0  0  0
   51.9393  152.4102   26.4832 N   0  0  0  0  0  0
   52.4560  151.4427   25.7040 N   0  0  0  0  0  0
   53.0785  151.5394   24.5319 C   0  0  0  0  0  0
   53.2560  153.0169   24.0999 C   0  0  0  0  0  0
   52.5952  153.9951   24.9405 O   0  0  0  0  0  0
   53.2560  150.5347   23.8596 O   0  0  0  0  0  0
   49.7465  162.2439   33.4004 H   0  0  0  0  0  0
   51.5325  162.0281   31.7040 H   0  0  0  0  0  0
   51.4444  160.2492   30.0986 H   0  0  0  0  0  0
   47.6190  159.0014   31.7392 H   0  0  0  0  0  0
   51.5665  158.5563   29.7022 H   0  0  0  0  0  0
   52.6866  157.8827   27.8171 H   0  0  0  0  0  0
   53.1007  156.1392   26.1599 H   0  0  0  0  0  0
   50.4559  153.4965   28.2892 H   0  0  0  0  0  0
   49.8825  155.2865   29.8316 H   0  0  0  0  0  0
   52.2665  150.5051   26.0291 H   0  0  0  0  0  0
   52.9454  153.1227   23.0601 H   0  0  0  0  0  0
   54.3193  153.2457   24.1404 H   0  0  0  0  0  0
  1  2  2  0  0  0
  1  6  1  0  0  0
  1 24  1  0  0  0
  2  3  1  0  0  0
  2 25  1  0  0  0
  3  4  2  0  0  0
  3 26  1  0  0  0
  4  5  1  0  0  0
  4  7  1  0  0  0
  5  6  2  0  0  0
  5 27  1  0  0  0
  6 16  1  0  0  0
  7  8  2  0  0  0
  7  9  1  0  0  0
  9 10  1  0  0  0
  9 28  1  0  0  0
 10 11  2  0  0  0
 10 15  1  0  0  0
 11 12  1  0  0  0
 11 29  1  0  0  0
 12 13  2  0  0  0
 12 30  1  0  0  0
 13 14  1  0  0  0
 13 17  1  0  0  0
 14 15  2  0  0  0
 14 31  1  0  0  0
 15 32  1  0  0  0
 17 18  2  0  0  0
 17 22  1  0  0  0
 18 19  1  0  0  0
 19 20  1  0  0  0
 19 33  1  0  0  0
 20 21  1  0  0  0
 20 23  2  0  0  0
 21 22  1  0  0  0
 21 34  1  0  0  0
 21 35  1  0  0  0
M  END
> <s_m_entry_id>
10480

> <s_m_entry_name>
dock_pv.516

> <s_m_Source_Path>
/home/csk/Desktop/cluster/DUD-E-result/aofb

> <s_m_Source_File>
dock_pv.maegz

> <i_m_Source_File_Index>
516

> <chembl_id>
CHEMBL4100056

> <chembl_pref_name>
None

> <i_lp_mmshare_version>
53161

> <i_f3d_flags>
0

> <r_lp_tautomer_probability>
1

> <s_lp_Force_Field>
OPLS_2005

> <r_lp_Energy>
34.214715

> <b_lp_Chiralities_Consistent>
1

> <s_lp_Variant>
CHEMBL2039_lig1867-1

> <s_i_glide_gridfile>
glide-grid_1s3b

> <i_i_glide_lignum>
2202

> <i_i_glide_rotatable_bonds>
4

> <r_i_docking_score>
-6.8658491930096

> <r_i_glide_ligand_efficiency>
-0.298515182304765

> <r_i_glide_ligand_efficiency_sa>
-0.848937469053613

> <r_i_glide_ligand_efficiency_ln>
-1.6602245909482

> <r_i_glide_gscore>
-6.8658491930096

> <r_i_glide_lipo>
-3.20734602751539

> <r_i_glide_hbond>
-0.0185718036974368

> <r_i_glide_metal>
0

> <r_i_glide_rewards>
-3.07479836215932

> <r_i_glide_evdw>
-5.85110759735107

> <r_i_glide_ecoul>
-6.42784595489502

> <r_i_glide_erotb>
0.691599273464345

> <r_i_glide_esite>
0

> <r_i_glide_emodel>
-19.290402652097

> <r_i_glide_energy>
-12.2789535522461

> <r_i_glide_einternal>
2.58798861503601

> <i_i_glide_confnum>
4

> <i_i_glide_posenum>
48

> <r_i_glide_eff_state_penalty>
0

> <s_user_duplicate_titles>
CHEMBL2039_lig1867

> <s_m_subgroup_title>
dock_pv

> <s_m_subgroupid>
dock_pv

> <b_m_subgroup_collapsed>
1

$$$$
CHEMBL2039_lig280
                    3D
 Schrodinger Suite 2021-1.
 37 39  0  0  1  0            999 V2000
   53.4655  153.3958   23.9853 C   0  0  0  0  0  0
   53.0169  152.2379   24.6214 C   0  0  0  0  0  0
   52.2608  152.3237   25.7915 C   0  0  0  0  0  0
   53.2070  154.6443   24.5427 C   0  0  0  0  0  0
   52.4556  154.7312   25.7124 C   0  0  0  0  0  0
   51.9771  153.5736   26.3343 C   0  0  0  0  0  0
   51.2809  153.6283   27.5340 O   0  0  0  0  0  0
   51.3218  154.7622   28.3407 C   0  0  0  0  0  0
   51.9083  155.9916   27.7592 C   0  0  0  0  0  0
   52.3695  155.9615   26.4847 C   0  0  0  0  0  0
   50.8560  154.6439   29.4693 O   0  0  0  0  0  0
   52.0561  157.2231   28.5040 C   0  0  0  0  0  0
   50.9901  157.6048   29.2626 N   0  0  0  0  0  0
   53.1031  157.8440   28.4048 O   0  0  0  0  0  0
   50.7163  158.8308   29.9009 C   0  0  0  0  0  0
   51.6629  159.8440   30.1041 C   0  0  0  0  0  0
   51.3785  160.9398   30.9127 C   0  0  0  0  0  0
   50.1184  161.0440   31.5068 C   0  0  0  0  0  0
   49.1367  160.0812   31.2605 C   0  0  0  0  0  0
   49.4404  158.9789   30.4570 C   0  0  0  0  0  0
   47.7656  160.2008   31.9009 C   0  0  0  0  0  0
   52.4561  161.9842   31.1523 C   0  0  0  0  0  0
   54.0544  153.3188   23.0832 H   0  0  0  0  0  0
   53.2439  151.2717   24.1956 H   0  0  0  0  0  0
   51.9061  151.4263   26.2765 H   0  0  0  0  0  0
   53.6410  155.5297   24.1040 H   0  0  0  0  0  0
   52.7939  156.8566   26.0475 H   0  0  0  0  0  0
   50.2414  156.9312   29.3105 H   0  0  0  0  0  0
   52.6603  159.7628   29.7043 H   0  0  0  0  0  0
   49.9029  161.8799   32.1553 H   0  0  0  0  0  0
   48.6938  158.2116   30.3108 H   0  0  0  0  0  0
   47.4370  159.2310   32.2758 H   0  0  0  0  0  0
   47.0316  160.5472   31.1724 H   0  0  0  0  0  0
   47.7756  160.8825   32.7522 H   0  0  0  0  0  0
   52.8524  162.3430   30.2021 H   0  0  0  0  0  0
   52.0851  162.8486   31.7033 H   0  0  0  0  0  0
   53.2860  161.5477   31.7093 H   0  0  0  0  0  0
  1  2  2  0  0  0
  1  4  1  0  0  0
  1 23  1  0  0  0
  2  3  1  0  0  0
  2 24  1  0  0  0
  3  6  2  0  0  0
  3 25  1  0  0  0
  4  5  2  0  0  0
  4 26  1  0  0  0
  5  6  1  0  0  0
  5 10  1  0  0  0
  6  7  1  0  0  0
  7  8  1  0  0  0
  8 11  2  0  0  0
  8  9  1  0  0  0
  9 12  1  0  0  0
  9 10  2  0  0  0
 10 27  1  0  0  0
 12 13  1  0  0  0
 12 14  2  0  0  0
 13 15  1  0  0  0
 13 28  1  0  0  0
 15 16  2  0  0  0
 15 20  1  0  0  0
 16 17  1  0  0  0
 16 29  1  0  0  0
 17 18  2  0  0  0
 17 22  1  0  0  0
 18 19  1  0  0  0
 18 30  1  0  0  0
 19 20  2  0  0  0
 19 21  1  0  0  0
 20 31  1  0  0  0
 21 32  1  0  0  0
 21 33  1  0  0  0
 21 34  1  0  0  0
 22 35  1  0  0  0
 22 36  1  0  0  0
 22 37  1  0  0  0
M  END
> <s_m_entry_id>
10481

> <s_m_entry_name>
dock_pv.517

> <s_m_Source_Path>
/home/csk/Desktop/cluster/DUD-E-result/aofb

> <s_m_Source_File>
dock_pv.maegz

> <i_m_Source_File_Index>
517

> <chembl_id>
CHEMBL471232

> <chembl_pref_name>
None

> <i_lp_mmshare_version>
53161

> <i_f3d_flags>
0

> <r_lp_tautomer_probability>
1

> <s_lp_Force_Field>
OPLS_2005

> <r_lp_Energy>
30.18763

> <b_lp_Chiralities_Consistent>
1

> <s_lp_Variant>
CHEMBL2039_lig280-1

> <s_i_glide_gridfile>
glide-grid_1s3b

> <i_i_glide_lignum>
329

> <i_i_glide_rotatable_bonds>
3

> <r_i_docking_score>
-6.86437158484618

> <r_i_glide_ligand_efficiency>
-0.312016890220281

> <r_i_glide_ligand_efficiency_sa>
-0.874283597325196

> <r_i_glide_ligand_efficiency_ln>
-1.67790279937361

> <r_i_glide_gscore>
-6.86437158484618

> <r_i_glide_lipo>
-3.95744840842626

> <r_i_glide_hbond>
0

> <r_i_glide_metal>
0

> <r_i_glide_rewards>
-2.55673914023903

> <r_i_glide_evdw>
-31.3692111968994

> <r_i_glide_ecoul>
3.87450218200684

> <r_i_glide_erotb>
0.637101196363056

> <r_i_glide_esite>
0

> <r_i_glide_emodel>
-25.8286603162437

> <r_i_glide_energy>
-27.4947090148926

> <r_i_glide_einternal>
3.73234176635742

> <i_i_glide_confnum>
2

> <i_i_glide_posenum>
39

> <r_i_glide_eff_state_penalty>
0

> <s_user_duplicate_titles>
CHEMBL2039_lig280,521818

> <s_m_subgroup_title>
dock_pv

> <s_m_subgroupid>
dock_pv

> <b_m_subgroup_collapsed>
1

$$$$
CHEMBL2039_lig559
                    3D
 Schrodinger Suite 2021-1.
 31 33  0  0  1  0            999 V2000
   52.4074  152.9375   25.3048 C   0  0  0  0  0  0
   51.6810  152.4116   26.3755 C   0  0  0  0  0  0
   51.2740  153.2312   27.4270 C   0  0  0  0  0  0
   52.7163  154.2928   25.2819 C   0  0  0  0  0  0
   52.3460  155.0934   26.3575 C   0  0  0  0  0  0
   51.6100  154.5883   27.4342 C   0  0  0  0  0  0
   51.2027  155.4986   28.5501 C   0  0  0  0  0  0
   51.7615  156.8677   28.4823 C   0  0  0  0  0  0
   52.6031  157.1290   27.4563 C   0  0  0  0  0  0
   52.8566  156.3604   26.3757 O   0  0  0  0  0  0
   50.4558  155.1087   29.4440 O   0  0  0  0  0  0
   51.3520  158.0346   29.2680 C   0  0  0  0  0  0
   52.0486  159.0444   29.3040 O   0  0  0  0  0  0
   50.1192  157.9878   29.8037 N   0  0  0  0  0  0
   49.4250  158.9619   30.5456 C   0  0  0  0  0  0
   50.0217  160.1121   31.0931 C   0  0  0  0  0  0
   49.3275  160.8783   32.0179 C   0  0  0  0  0  0
   48.0351  160.5173   32.3721 C   0  0  0  0  0  0
   47.3943  159.4444   31.7595 C   0  0  0  0  0  0
   48.0948  158.6615   30.8483 C   0  0  0  0  0  0
   47.2560  161.3745   33.6340 Cl  0  0  0  0  0  0
   52.7273  152.2958   24.4961 H   0  0  0  0  0  0
   51.4381  151.3582   26.3957 H   0  0  0  0  0  0
   50.7311  152.7931   28.2517 H   0  0  0  0  0  0
   53.3069  154.7059   24.4793 H   0  0  0  0  0  0
   53.0761  158.0873   27.3044 H   0  0  0  0  0  0
   49.6476  157.1009   29.7037 H   0  0  0  0  0  0
   51.0473  160.3847   30.9064 H   0  0  0  0  0  0
   49.8165  161.7150   32.4971 H   0  0  0  0  0  0
   46.3808  159.1875   32.0306 H   0  0  0  0  0  0
   47.6140  157.7942   30.4224 H   0  0  0  0  0  0
  1  2  2  0  0  0
  1  4  1  0  0  0
  1 22  1  0  0  0
  2  3  1  0  0  0
  2 23  1  0  0  0
  3  6  2  0  0  0
  3 24  1  0  0  0
  4  5  2  0  0  0
  4 25  1  0  0  0
  5 10  1  0  0  0
  5  6  1  0  0  0
  6  7  1  0  0  0
  7 11  2  0  0  0
  7  8  1  0  0  0
  8 12  1  0  0  0
  8  9  2  0  0  0
  9 10  1  0  0  0
  9 26  1  0  0  0
 12 13  2  0  0  0
 12 14  1  0  0  0
 14 15  1  0  0  0
 14 27  1  0  0  0
 15 16  2  0  0  0
 15 20  1  0  0  0
 16 17  1  0  0  0
 16 28  1  0  0  0
 17 18  2  0  0  0
 17 29  1  0  0  0
 18 19  1  0  0  0
 18 21  1  0  0  0
 19 20  2  0  0  0
 19 30  1  0  0  0
 20 31  1  0  0  0
M  END
> <s_m_entry_id>
10482

> <s_m_entry_name>
dock_pv.518

> <s_m_Source_Path>
/home/csk/Desktop/cluster/DUD-E-result/aofb

> <s_m_Source_File>
dock_pv.maegz

> <i_m_Source_File_Index>
518

> <chembl_id>
CHEMBL1814068

> <chembl_pref_name>
None

> <i_lp_mmshare_version>
53161

> <i_f3d_flags>
0

> <r_lp_tautomer_probability>
1

> <s_lp_Force_Field>
OPLS_2005

> <r_lp_Energy>
24.31766

> <b_lp_Chiralities_Consistent>
1

> <s_lp_Variant>
CHEMBL2039_lig559-1

> <s_i_glide_gridfile>
glide-grid_1s3b

> <i_i_glide_lignum>
662

> <i_i_glide_rotatable_bonds>
3

> <r_i_docking_score>
-6.86388690974866

> <r_i_glide_ligand_efficiency>
-0.326851757607079

> <r_i_glide_ligand_efficiency_sa>
-0.90175921523969

> <r_i_glide_ligand_efficiency_ln>
-1.6970821686459

> <r_i_glide_gscore>
-6.86388690974866

> <r_i_glide_lipo>
-4.10938325379576

> <r_i_glide_hbond>
0

> <r_i_glide_metal>
0

> <r_i_glide_rewards>
-2.15640035614755

> <r_i_glide_evdw>
-21.0417861938477

> <r_i_glide_ecoul>
-1.06371939182281

> <r_i_glide_erotb>
0.613543918660452

> <r_i_glide_esite>
0

> <r_i_glide_emodel>
-23.2288941321521

> <r_i_glide_energy>
-22.1055055856705

> <r_i_glide_einternal>
1.26760578155518

> <i_i_glide_confnum>
3

> <i_i_glide_posenum>
279

> <r_i_glide_eff_state_penalty>
0

> <s_user_duplicate_titles>
CHEMBL2039_lig559

> <s_m_subgroup_title>
dock_pv

> <s_m_subgroupid>
dock_pv

> <b_m_subgroup_collapsed>
1

$$$$
CHEMBL2039_lig1359
                    3D
 Schrodinger Suite 2021-1.
 32 34  0  0  1  0            999 V2000
   51.5852  155.7923   27.9493 C   0  0  0  0  0  0
   51.1971  154.4757   28.2154 C   0  0  0  0  0  0
   51.4237  153.4514   27.2944 C   0  0  0  0  0  0
   52.2160  156.0791   26.7286 C   0  0  0  0  0  0
   52.4560  155.0590   25.8125 C   0  0  0  0  0  0
   52.0560  153.7422   26.0892 C   0  0  0  0  0  0
   52.4538  152.6768   25.3040 O   0  0  0  0  0  0
   53.0955  153.0391   24.0728 C   0  0  0  0  0  0
   53.9932  154.2835   24.2202 C   0  0  0  0  0  0
   53.1949  155.3762   24.6925 O   0  0  0  0  0  0
   51.2560  156.7334   28.9040 O   0  0  0  0  0  0
   51.7492  158.0718   28.8086 C   0  0  0  0  0  0
   50.9911  159.0084   29.7467 C   0  0  0  0  0  0
   51.6545  160.1029   30.3127 C   0  0  0  0  0  0
   51.0034  160.9113   31.2404 C   0  0  0  0  0  0
   49.6797  160.6440   31.5836 C   0  0  0  0  0  0
   49.0006  159.5732   31.0125 C   0  0  0  0  0  0
   49.6603  158.7521   30.1040 C   0  0  0  0  0  0
   50.7210  154.2441   29.1566 H   0  0  0  0  0  0
   51.1592  152.4331   27.5377 H   0  0  0  0  0  0
   52.5574  157.0700   26.4855 H   0  0  0  0  0  0
   53.6560  152.1829   23.7030 H   0  0  0  0  0  0
   52.3449  153.2679   23.3218 H   0  0  0  0  0  0
   54.8001  154.0689   24.9214 H   0  0  0  0  0  0
   54.4550  154.5462   23.2684 H   0  0  0  0  0  0
   51.6560  158.4803   27.8084 H   0  0  0  0  0  0
   52.8192  158.0711   29.0067 H   0  0  0  0  0  0
   52.6914  160.2941   30.0793 H   0  0  0  0  0  0
   51.5259  161.7361   31.7040 H   0  0  0  0  0  0
   49.1802  161.2728   32.3059 H   0  0  0  0  0  0
   47.9777  159.3658   31.2904 H   0  0  0  0  0  0
   49.1419  157.8966   29.7041 H   0  0  0  0  0  0
  1  2  2  0  0  0
  1  4  1  0  0  0
  1 11  1  0  0  0
  2  3  1  0  0  0
  2 19  1  0  0  0
  3  6  2  0  0  0
  3 20  1  0  0  0
  4  5  2  0  0  0
  4 21  1  0  0  0
  5  6  1  0  0  0
  5 10  1  0  0  0
  6  7  1  0  0  0
  7  8  1  0  0  0
  8  9  1  0  0  0
  8 22  1  0  0  0
  8 23  1  0  0  0
  9 10  1  0  0  0
  9 24  1  0  0  0
  9 25  1  0  0  0
 11 12  1  0  0  0
 12 13  1  0  0  0
 12 26  1  0  0  0
 12 27  1  0  0  0
 13 14  2  0  0  0
 13 18  1  0  0  0
 14 15  1  0  0  0
 14 28  1  0  0  0
 15 16  2  0  0  0
 15 29  1  0  0  0
 16 17  1  0  0  0
 16 30  1  0  0  0
 17 18  2  0  0  0
 17 31  1  0  0  0
 18 32  1  0  0  0
M  END
> <s_m_entry_id>
10483

> <s_m_entry_name>
dock_pv.519

> <s_m_Source_Path>
/home/csk/Desktop/cluster/DUD-E-result/aofb

> <s_m_Source_File>
dock_pv.maegz

> <i_m_Source_File_Index>
519

> <chembl_id>
CHEMBL3402195

> <chembl_pref_name>
None

> <i_lp_mmshare_version>
53161

> <i_f3d_flags>
0

> <r_lp_tautomer_probability>
1

> <s_lp_Force_Field>
OPLS_2005

> <r_lp_Energy>
19.830774

> <b_lp_Chiralities_Consistent>
1

> <s_lp_Variant>
CHEMBL2039_lig1359-1

> <s_i_glide_gridfile>
glide-grid_1s3b

> <i_i_glide_lignum>
1580

> <i_i_glide_rotatable_bonds>
3

> <r_i_docking_score>
-6.86343219373186

> <r_i_glide_ligand_efficiency>
-0.381301788540659

> <r_i_glide_ligand_efficiency_sa>
-0.999293379951616

> <r_i_glide_ligand_efficiency_ln>
-1.76420985470126

> <r_i_glide_gscore>
-6.86343219373186

> <r_i_glide_lipo>
-3.62711978119809

> <r_i_glide_hbond>
0

> <r_i_glide_metal>
0

> <r_i_glide_rewards>
-2.33149327571987

> <r_i_glide_evdw>
-28.7880668640137

> <r_i_glide_ecoul>
-2.34529638290405

> <r_i_glide_erotb>
0.88637866382239

> <r_i_glide_esite>
0

> <r_i_glide_emodel>
-40.5305093063029

> <r_i_glide_energy>
-31.1333632469177

> <r_i_glide_einternal>
1.03267514705658

> <i_i_glide_confnum>
48

> <i_i_glide_posenum>
223

> <r_i_glide_eff_state_penalty>
0

> <s_user_duplicate_titles>
CHEMBL2039_lig1359

> <s_m_subgroup_title>
dock_pv

> <s_m_subgroupid>
dock_pv

> <b_m_subgroup_collapsed>
1

$$$$
CHEMBL2039_lig2356 
                    3D
 Schrodinger Suite 2021-1.
 40 42  0  0  1  0            999 V2000
   53.0756  154.9369   24.8563 C   0  0  0  0  0  0
   53.2560  156.2440   25.2819 C   0  0  0  0  0  0
   52.7780  156.6440   26.5293 C   0  0  0  0  0  0
   52.0560  155.7709   27.3329 C   0  0  0  0  0  0
   52.4652  154.0213   25.7040 C   0  0  0  0  0  0
   51.9260  154.4312   26.9369 C   0  0  0  0  0  0
   51.4263  153.2194   27.6865 C   0  0  0  0  0  0
   51.3789  152.1559   26.5889 C   0  0  0  0  0  0
   52.3780  152.5305   25.5142 C   0  0  2  0  0  0
   53.6408  151.8440   25.7040 N   0  0  1  0  0  0
   53.8511  150.7547   24.7497 C   0  0  0  0  0  0
   53.0483  149.5282   24.9040 C   0  0  0  0  0  0
   52.5239  148.4245   24.9334 C   0  0  0  0  0  0
   51.2560  156.3408   28.8284 S   0  0  0  0  0  0
   51.5318  158.1709   28.9389 C   0  0  0  0  0  0
   50.6488  158.9844   29.8902 C   0  0  0  0  0  0
   49.3194  158.6391   30.1514 C   0  0  0  0  0  0
   48.5482  159.4017   31.0251 C   0  0  0  0  0  0
   49.1076  160.5148   31.6447 C   0  0  0  0  0  0
   50.4274  160.8743   31.3872 C   0  0  0  0  0  0
   51.1933  160.1194   30.5039 C   0  0  0  0  0  0
   48.3653  161.2496   32.5040 F   0  0  0  0  0  0
   53.4932  154.6175   23.9131 H   0  0  0  0  0  0
   53.7994  156.9408   24.6605 H   0  0  0  0  0  0
   52.9827  157.6381   26.8904 H   0  0  0  0  0  0
   50.4560  153.3812   28.1441 H   0  0  0  0  0  0
   52.1255  152.9362   28.4739 H   0  0  0  0  0  0
   50.4560  152.3092   26.1040 H   0  0  0  0  0  0
   51.3683  151.1148   26.9040 H   0  0  0  0  0  0
   52.0560  152.3130   24.5040 H   0  0  0  0  0  0
   54.4005  152.5150   25.6692 H   0  0  0  0  0  0
   54.8572  150.3997   24.9040 H   0  0  0  0  0  0
   53.7437  151.1138   23.7250 H   0  0  0  0  0  0
   52.0759  147.4560   24.9040 H   0  0  0  0  0  0
   52.5778  158.3271   29.1869 H   0  0  0  0  0  0
   51.3977  158.6440   27.9758 H   0  0  0  0  0  0
   48.8860  157.7613   29.7044 H   0  0  0  0  0  0
   47.5253  159.1253   31.2330 H   0  0  0  0  0  0
   50.8560  161.7348   31.8797 H   0  0  0  0  0  0
   52.2206  160.4001   30.3210 H   0  0  0  0  0  0
  1  5  1  0  0  0
  1  2  2  0  0  0
  1 23  1  0  0  0
  2  3  1  0  0  0
  2 24  1  0  0  0
  3  4  2  0  0  0
  3 25  1  0  0  0
  4  6  1  0  0  0
  4 14  1  0  0  0
  5  6  2  0  0  0
  5  9  1  0  0  0
  6  7  1  0  0  0
  7  8  1  0  0  0
  7 26  1  0  0  0
  7 27  1  0  0  0
  8  9  1  0  0  0
  8 28  1  0  0  0
  8 29  1  0  0  0
  9 10  1  0  0  0
  9 30  1  0  0  0
 10 11  1  0  0  0
 10 31  1  0  0  0
 11 12  1  0  0  0
 11 32  1  0  0  0
 11 33  1  0  0  0
 12 13  3  0  0  0
 13 34  1  0  0  0
 14 15  1  0  0  0
 15 16  1  0  0  0
 15 35  1  0  0  0
 15 36  1  0  0  0
 16 17  2  0  0  0
 16 21  1  0  0  0
 17 18  1  0  0  0
 17 37  1  0  0  0
 18 19  2  0  0  0
 18 38  1  0  0  0
 19 20  1  0  0  0
 19 22  1  0  0  0
 20 21  2  0  0  0
 20 39  1  0  0  0
 21 40  1  0  0  0
M  END
> <s_m_entry_id>
10484

> <s_m_entry_name>
dock_pv.520

> <s_m_Source_Path>
/home/csk/Desktop/cluster/DUD-E-result/aofb

> <s_m_Source_File>
dock_pv.maegz

> <i_m_Source_File_Index>
520

> <chembl_id>
CHEMBL4471841

> <chembl_pref_name>
None

> <i_lp_mmshare_version>
53161

> <i_f3d_flags>
0

> <r_lp_tautomer_probability>
1

> <s_lp_Force_Field>
OPLS_2005

> <r_lp_Energy>
23.116455

> <b_lp_Chiralities_Consistent>
1

> <s_lp_Variant>
CHEMBL2039_lig2356 -2

> <s_i_glide_gridfile>
glide-grid_1s3b

> <i_i_glide_lignum>
2740

> <i_i_glide_rotatable_bonds>
6

> <r_i_docking_score>
-6.8630282151546

> <r_i_glide_ligand_efficiency>
-0.311955827961573

> <r_i_glide_ligand_efficiency_sa>
-0.874112498474852

> <r_i_glide_ligand_efficiency_ln>
-1.67757443082038

> <r_i_glide_gscore>
-6.8630282151546

> <r_i_glide_lipo>
-4.00907198871716

> <r_i_glide_hbond>
-0.0284860708648718

> <r_i_glide_metal>
0

> <r_i_glide_rewards>
-2.5307080299781

> <r_i_glide_evdw>
-18.5138702392578

> <r_i_glide_ecoul>
-3.4427216053009

> <r_i_glide_erotb>
1.14733962716356

> <r_i_glide_esite>
0

> <r_i_glide_emodel>
-20.7797144809462

> <r_i_glide_energy>
-21.9565918445587

> <r_i_glide_einternal>
9.68869781494141

> <i_i_glide_confnum>
7

> <i_i_glide_posenum>
20

> <r_i_glide_eff_state_penalty>
0

> <s_user_duplicate_titles>
CHEMBL2039_lig2356 

> <s_m_subgroup_title>
dock_pv

> <s_m_subgroupid>
dock_pv

> <b_m_subgroup_collapsed>
1

$$$$
CHEMBL2039_lig1060
                    3D
 Schrodinger Suite 2021-1.
 40 42  0  0  1  0            999 V2000
   49.1063  161.0440   31.7893 N   0  0  0  0  0  0
   47.2783  159.5908   32.5040 C   0  0  0  0  0  0
   48.0079  160.9460   32.5689 C   0  0  0  0  0  0
   47.4624  158.8649   31.1591 C   0  0  0  0  0  0
   48.9145  158.9087   30.7223 C   0  0  0  0  0  0
   49.6559  160.0647   30.9634 C   0  0  0  0  0  0
   50.9463  160.1987   30.4366 C   0  0  0  0  0  0
   51.5127  159.1445   29.7040 C   0  0  0  0  0  0
   49.5415  157.8440   30.1040 C   0  0  0  0  0  0
   50.8229  157.9314   29.5650 C   0  0  0  0  0  0
   47.6257  161.8440   33.2956 O   0  0  0  0  0  0
   51.2560  156.7906   28.9040 O   0  0  0  0  0  0
   52.6269  156.5833   28.5910 C   0  0  0  0  0  0
   52.9763  157.1509   27.2333 C   0  0  0  0  0  0
   52.3100  156.4864   26.0058 C   0  0  0  0  0  0
   52.4225  154.9801   25.8351 C   0  0  0  0  0  0
   53.2560  154.4493   24.8497 C   0  0  0  0  0  0
   53.3550  153.0701   24.6970 C   0  0  0  0  0  0
   52.6369  152.2270   25.5401 C   0  0  0  0  0  0
   51.7780  152.7473   26.5040 C   0  0  0  0  0  0
   51.6560  154.1259   26.6396 C   0  0  0  0  0  0
   49.6041  161.9133   31.9048 H   0  0  0  0  0  0
   47.6792  158.9927   33.3207 H   0  0  0  0  0  0
   46.2210  159.7707   32.7016 H   0  0  0  0  0  0
   46.8472  159.3477   30.3975 H   0  0  0  0  0  0
   47.0958  157.8440   31.2328 H   0  0  0  0  0  0
   51.5184  161.0989   30.6088 H   0  0  0  0  0  0
   52.5074  159.2556   29.3041 H   0  0  0  0  0  0
   48.9963  156.9197   29.9826 H   0  0  0  0  0  0
   52.8508  155.5187   28.6424 H   0  0  0  0  0  0
   53.2867  157.0440   29.3040 H   0  0  0  0  0  0
   54.0526  157.2359   27.1468 H   0  0  0  0  0  0
   52.6486  158.1800   27.3040 H   0  0  0  0  0  0
   52.6008  156.9944   25.0857 H   0  0  0  0  0  0
   51.2560  156.6440   26.1040 H   0  0  0  0  0  0
   53.8390  155.0984   24.2137 H   0  0  0  0  0  0
   54.0061  152.6565   23.9427 H   0  0  0  0  0  0
   52.7330  151.1563   25.4335 H   0  0  0  0  0  0
   51.2225  152.0828   27.1485 H   0  0  0  0  0  0
   50.9933  154.5273   27.3924 H   0  0  0  0  0  0
  1  3  1  0  0  0
  1  6  1  0  0  0
  1 22  1  0  0  0
  2  3  1  0  0  0
  2  4  1  0  0  0
  2 23  1  0  0  0
  2 24  1  0  0  0
  3 11  2  0  0  0
  4  5  1  0  0  0
  4 25  1  0  0  0
  4 26  1  0  0  0
  5  6  2  0  0  0
  5  9  1  0  0  0
  6  7  1  0  0  0
  7  8  2  0  0  0
  7 27  1  0  0  0
  8 10  1  0  0  0
  8 28  1  0  0  0
  9 10  2  0  0  0
  9 29  1  0  0  0
 10 12  1  0  0  0
 12 13  1  0  0  0
 13 14  1  0  0  0
 13 30  1  0  0  0
 13 31  1  0  0  0
 14 15  1  0  0  0
 14 32  1  0  0  0
 14 33  1  0  0  0
 15 16  1  0  0  0
 15 34  1  0  0  0
 15 35  1  0  0  0
 16 17  2  0  0  0
 16 21  1  0  0  0
 17 18  1  0  0  0
 17 36  1  0  0  0
 18 19  2  0  0  0
 18 37  1  0  0  0
 19 20  1  0  0  0
 19 38  1  0  0  0
 20 21  2  0  0  0
 20 39  1  0  0  0
 21 40  1  0  0  0
M  END
> <s_m_entry_id>
10485

> <s_m_entry_name>
dock_pv.521

> <s_m_Source_Path>
/home/csk/Desktop/cluster/DUD-E-result/aofb

> <s_m_Source_File>
dock_pv.maegz

> <i_m_Source_File_Index>
521

> <chembl_id>
CHEMBL2430705

> <chembl_pref_name>
None

> <i_lp_mmshare_version>
53161

> <i_f3d_flags>
0

> <r_lp_tautomer_probability>
1

> <s_lp_Force_Field>
OPLS_2005

> <r_lp_Energy>
22.241698

> <b_lp_Chiralities_Consistent>
1

> <s_lp_Variant>
CHEMBL2039_lig1060-1

> <s_i_glide_gridfile>
glide-grid_1s3b

> <i_i_glide_lignum>
1234

> <i_i_glide_rotatable_bonds>
5

> <r_i_docking_score>
-6.8611482794219

> <r_i_glide_ligand_efficiency>
-0.326721346639138

> <r_i_glide_ligand_efficiency_sa>
-0.901399421267737

> <r_i_glide_ligand_efficiency_ln>
-1.69640504783153

> <r_i_glide_gscore>
-6.8611482794219

> <r_i_glide_lipo>
-3.78656881117505

> <r_i_glide_hbond>
0

> <r_i_glide_metal>
0

> <r_i_glide_rewards>
-2.51922690573692

> <r_i_glide_evdw>
-19.8836460113525

> <r_i_glide_ecoul>
-1.64143884181976

> <r_i_glide_erotb>
0.685045564330664

> <r_i_glide_esite>
0

> <r_i_glide_emodel>
-21.6205628781687

> <r_i_glide_energy>
-21.5250848531723

> <r_i_glide_einternal>
3.71882438659668

> <i_i_glide_confnum>
16

> <i_i_glide_posenum>
144

> <r_i_glide_eff_state_penalty>
0

> <s_user_duplicate_titles>
CHEMBL2039_lig1060

> <s_m_subgroup_title>
dock_pv

> <s_m_subgroupid>
dock_pv

> <b_m_subgroup_collapsed>
1

$$$$
CHEMBL2039_lig2061
                    3D
 Schrodinger Suite 2021-1.
 26 27  0  0  1  0            999 V2000
   51.2915  156.3377   28.5731 C   0  0  0  0  0  0
   52.0691  156.6438   27.4531 C   0  0  0  0  0  0
   52.3008  155.6764   26.4771 C   0  0  0  0  0  0
   51.8439  154.3714   26.6568 C   0  0  0  0  0  0
   51.1755  154.0319   27.8298 C   0  0  0  0  0  0
   50.8806  155.0192   28.7712 C   0  0  0  0  0  0
   53.2560  156.1312   24.9040 Br  0  0  0  0  0  0
   50.8529  157.2695   29.4946 O   0  0  0  0  0  0
   51.0294  158.6768   29.3081 C   0  0  0  0  0  0
   50.0566  159.4115   30.2319 C   0  0  0  0  0  0
   48.7152  159.0161   30.3109 C   0  0  0  0  0  0
   47.8472  159.6347   31.2063 C   0  0  0  0  0  0
   48.3241  160.6441   32.0367 C   0  0  0  0  0  0
   49.6559  161.0440   31.9662 C   0  0  0  0  0  0
   50.5186  160.4433   31.0528 C   0  0  0  0  0  0
   52.4408  157.6452   27.3038 H   0  0  0  0  0  0
   52.0465  153.6183   25.9099 H   0  0  0  0  0  0
   50.8553  153.0140   27.9957 H   0  0  0  0  0  0
   50.3159  154.7634   29.6552 H   0  0  0  0  0  0
   50.8559  159.0297   28.2918 H   0  0  0  0  0  0
   52.0572  158.9342   29.5606 H   0  0  0  0  0  0
   48.3439  158.2070   29.7041 H   0  0  0  0  0  0
   46.8149  159.3218   31.2680 H   0  0  0  0  0  0
   47.6582  161.1183   32.7427 H   0  0  0  0  0  0
   50.0245  161.8257   32.6148 H   0  0  0  0  0  0
   51.5530  160.7548   31.0180 H   0  0  0  0  0  0
  1  2  1  0  0  0
  1  6  2  0  0  0
  1  8  1  0  0  0
  2  3  2  0  0  0
  2 16  1  0  0  0
  3  4  1  0  0  0
  3  7  1  0  0  0
  4  5  2  0  0  0
  4 17  1  0  0  0
  5  6  1  0  0  0
  5 18  1  0  0  0
  6 19  1  0  0  0
  8  9  1  0  0  0
  9 10  1  0  0  0
  9 20  1  0  0  0
  9 21  1  0  0  0
 10 11  1  0  0  0
 10 15  2  0  0  0
 11 12  2  0  0  0
 11 22  1  0  0  0
 12 13  1  0  0  0
 12 23  1  0  0  0
 13 14  2  0  0  0
 13 24  1  0  0  0
 14 15  1  0  0  0
 14 25  1  0  0  0
 15 26  1  0  0  0
M  END
> <s_m_entry_id>
10486

> <s_m_entry_name>
dock_pv.522

> <s_m_Source_Path>
/home/csk/Desktop/cluster/DUD-E-result/aofb

> <s_m_Source_File>
dock_pv.maegz

> <i_m_Source_File_Index>
522

> <chembl_id>
CHEMBL4176929

> <chembl_pref_name>
None

> <i_lp_mmshare_version>
53161

> <i_f3d_flags>
0

> <r_lp_tautomer_probability>
1

> <s_lp_Force_Field>
OPLS_2005

> <r_lp_Energy>
14.956243

> <b_lp_Chiralities_Consistent>
1

> <s_lp_Variant>
CHEMBL2039_lig2061-1

> <s_i_glide_gridfile>
glide-grid_1s3b

> <i_i_glide_lignum>
2399

> <i_i_glide_rotatable_bonds>
3

> <r_i_docking_score>
-6.86087966789215

> <r_i_glide_ligand_efficiency>
-0.457391977859477

> <r_i_glide_ligand_efficiency_sa>
-1.12802561748069

> <r_i_glide_ligand_efficiency_ln>
-1.85026612257104

> <r_i_glide_gscore>
-6.86087966789215

> <r_i_glide_lipo>
-3.74542235272253

> <r_i_glide_hbond>
0

> <r_i_glide_metal>
0

> <r_i_glide_rewards>
-2.5139784223368

> <r_i_glide_evdw>
-23.8243427276611

> <r_i_glide_ecoul>
-1.19660091400146

> <r_i_glide_erotb>
0.76922838065045

> <r_i_glide_esite>
0

> <r_i_glide_emodel>
-32.5182913094118

> <r_i_glide_energy>
-25.0209436416626

> <r_i_glide_einternal>
1.0709091424942

> <i_i_glide_confnum>
15

> <i_i_glide_posenum>
36

> <r_i_glide_eff_state_penalty>
0

> <s_user_duplicate_titles>
CHEMBL2039_lig2061

> <s_m_subgroup_title>
dock_pv

> <s_m_subgroupid>
dock_pv

> <b_m_subgroup_collapsed>
1

$$$$
CHEMBL2039_lig459
                    3D
 Schrodinger Suite 2021-1.
 39 41  0  0  1  0            999 V2000
   53.2559  151.8448   24.5369 C   0  0  0  0  0  0
   52.6692  150.7763   25.1919 C   0  0  0  0  0  0
   51.6561  151.0312   26.1040 C   0  0  0  0  0  0
   51.4650  152.3331   26.5572 C   0  0  0  0  0  0
   52.1379  153.4295   26.0035 C   0  0  0  0  0  0
   53.0104  153.1596   24.9207 C   0  0  0  0  0  0
   51.9837  154.7618   26.7121 C   0  0  0  0  0  0
   51.2559  154.8685   27.8290 N   0  0  0  0  0  0
   51.3398  156.0465   28.3941 C   0  0  0  0  0  0
   52.5557  157.0443   27.7040 S   0  0  0  0  0  0
   52.6108  155.9610   26.3706 C   0  0  0  0  0  0
   50.4562  156.6064   29.3040 N   0  0  0  0  0  0
   50.5621  157.9727   29.7040 N   0  0  0  0  0  0
   49.6080  158.6487   30.2144 C   0  0  0  0  0  0
   53.1162  149.1571   24.7840 Cl  0  0  0  0  0  0
   53.9265  154.3502   24.0685 Cl  0  0  0  0  0  0
   47.8514  160.8680   32.1919 C   0  0  0  0  0  0
   46.7708  159.9059   31.6981 C   0  0  0  0  0  0
   47.2948  158.5006   31.3873 C   0  0  0  0  0  0
   49.0382  161.0437   31.2313 C   0  0  0  0  0  0
   49.9792  159.8445   31.0946 C   0  0  0  0  0  0
   48.1157  158.3544   30.1041 C   0  0  0  0  0  0
   53.9587  151.6498   23.7469 H   0  0  0  0  0  0
   51.1442  150.2131   26.5889 H   0  0  0  0  0  0
   50.8560  152.4613   27.4327 H   0  0  0  0  0  0
   53.2521  156.2145   25.5466 H   0  0  0  0  0  0
   49.5828  156.1598   29.5378 H   0  0  0  0  0  0
   47.3980  161.8427   32.3708 H   0  0  0  0  0  0
   48.2154  160.5382   33.1667 H   0  0  0  0  0  0
   46.2761  160.3208   30.8188 H   0  0  0  0  0  0
   45.9952  159.8378   32.4625 H   0  0  0  0  0  0
   46.4560  157.8440   31.2612 H   0  0  0  0  0  0
   47.8287  158.1024   32.2481 H   0  0  0  0  0  0
   49.6497  161.8434   31.6504 H   0  0  0  0  0  0
   48.6981  161.3801   30.2502 H   0  0  0  0  0  0
   50.0563  159.4534   32.1041 H   0  0  0  0  0  0
   50.9766  160.2033   30.8297 H   0  0  0  0  0  0
   47.6892  159.0079   29.3417 H   0  0  0  0  0  0
   47.9616  157.3459   29.7201 H   0  0  0  0  0  0
  1  6  1  0  0  0
  1  2  2  0  0  0
  1 23  1  0  0  0
  2 15  1  0  0  0
  2  3  1  0  0  0
  3  4  2  0  0  0
  3 24  1  0  0  0
  4  5  1  0  0  0
  4 25  1  0  0  0
  5  7  1  0  0  0
  5  6  2  0  0  0
  6 16  1  0  0  0
  7 11  2  0  0  0
  7  8  1  0  0  0
  8  9  2  0  0  0
  9 12  1  0  0  0
  9 10  1  0  0  0
 10 11  1  0  0  0
 11 26  1  0  0  0
 12 13  1  0  0  0
 12 27  1  0  0  0
 13 14  2  0  0  0
 14 21  1  0  0  0
 14 22  1  0  0  0
 17 18  1  0  0  0
 17 20  1  0  0  0
 17 28  1  0  0  0
 17 29  1  0  0  0
 18 19  1  0  0  0
 18 30  1  0  0  0
 18 31  1  0  0  0
 19 22  1  0  0  0
 19 32  1  0  0  0
 19 33  1  0  0  0
 20 21  1  0  0  0
 20 34  1  0  0  0
 20 35  1  0  0  0
 21 36  1  0  0  0
 21 37  1  0  0  0
 22 38  1  0  0  0
 22 39  1  0  0  0
M  END
> <s_m_entry_id>
10487

> <s_m_entry_name>
dock_pv.523

> <s_m_Source_Path>
/home/csk/Desktop/cluster/DUD-E-result/aofb

> <s_m_Source_File>
dock_pv.maegz

> <i_m_Source_File_Index>
523

> <chembl_id>
CHEMBL1253846

> <chembl_pref_name>
None

> <i_lp_mmshare_version>
53161

> <i_f3d_flags>
0

> <r_lp_tautomer_probability>
1

> <s_lp_Force_Field>
OPLS_2005

> <r_lp_Energy>
23.799611

> <b_lp_Chiralities_Consistent>
1

> <s_lp_Variant>
CHEMBL2039_lig459-1

> <s_i_glide_gridfile>
glide-grid_1s3b

> <i_i_glide_lignum>
554

> <i_i_glide_rotatable_bonds>
3

> <r_i_docking_score>
-6.85756738687113

> <r_i_glide_ligand_efficiency>
-0.311707608494142

> <r_i_glide_ligand_efficiency_sa>
-0.873416977765195

> <r_i_glide_ligand_efficiency_ln>
-1.67623960519935

> <r_i_glide_gscore>
-6.85756738687113

> <r_i_glide_lipo>
-4.62503427445171

> <r_i_glide_hbond>
0

> <r_i_glide_metal>
0

> <r_i_glide_rewards>
-2.3398443169745

> <r_i_glide_evdw>
-10.690013885498

> <r_i_glide_ecoul>
1.23444736003876

> <r_i_glide_erotb>
0.45664479482417

> <r_i_glide_esite>
0

> <r_i_glide_emodel>
-26.5502895395178

> <r_i_glide_energy>
-9.45556652545929

> <r_i_glide_einternal>
8.24086380004883

> <i_i_glide_confnum>
3

> <i_i_glide_posenum>
215

> <r_i_glide_eff_state_penalty>
0

> <s_user_duplicate_titles>
CHEMBL2039_lig459

> <s_m_subgroup_title>
dock_pv

> <s_m_subgroupid>
dock_pv

> <b_m_subgroup_collapsed>
1

$$$$
CHEMBL2039_lig1315
                    3D
 Schrodinger Suite 2021-1.
 32 34  0  0  1  0            999 V2000
   52.0568  155.6450   26.6535 C   0  0  0  0  0  0
   51.4877  155.0816   27.7488 C   0  0  0  0  0  0
   51.3346  153.6306   27.6742 C   0  0  0  0  0  0
   51.7289  152.9594   26.5658 C   0  0  0  0  0  0
   52.4071  153.6009   25.4422 C   0  0  0  0  0  0
   52.5297  154.9727   25.5497 N   0  0  0  0  0  0
   50.8781  155.8483   28.8251 C   0  0  0  0  0  0
   50.0196  155.3532   29.5458 O   0  0  0  0  0  0
   51.2661  157.1515   28.9040 N   0  0  0  0  0  0
   52.8580  152.9176   24.5213 O   0  0  0  0  0  0
   53.2840  155.6755   24.5104 C   0  0  0  0  0  0
   49.1034  161.0941   32.1075 N   0  0  0  0  0  0
   47.8813  160.6099   32.3900 N   0  0  0  0  0  0
   47.7510  159.5100   31.6972 C   0  0  0  0  0  0
   48.9262  159.2297   30.9402 C   0  0  0  0  0  0
   49.3737  158.1836   30.1305 C   0  0  0  0  0  0
   50.6777  158.2260   29.6156 C   0  0  0  0  0  0
   51.4378  159.3893   29.7665 C   0  0  0  0  0  0
   51.0234  160.4567   30.5667 C   0  0  0  0  0  0
   49.7758  160.3271   31.1815 C   0  0  0  0  0  0
   52.1388  156.7121   26.5035 H   0  0  0  0  0  0
   50.8860  153.0895   28.4945 H   0  0  0  0  0  0
   51.5944  151.8899   26.5083 H   0  0  0  0  0  0
   52.1181  157.3848   28.4190 H   0  0  0  0  0  0
   53.6310  155.0275   23.7043 H   0  0  0  0  0  0
   54.1691  156.1437   24.9332 H   0  0  0  0  0  0
   52.6612  156.4708   24.1041 H   0  0  0  0  0  0
   49.4324  161.9405   32.5482 H   0  0  0  0  0  0
   46.8524  158.9165   31.7581 H   0  0  0  0  0  0
   48.7552  157.3025   30.1038 H   0  0  0  0  0  0
   52.4199  159.4442   29.3237 H   0  0  0  0  0  0
   51.6648  161.3077   30.7439 H   0  0  0  0  0  0
  1  2  2  0  0  0
  1  6  1  0  0  0
  1 21  1  0  0  0
  2  3  1  0  0  0
  2  7  1  0  0  0
  3  4  2  0  0  0
  3 22  1  0  0  0
  4  5  1  0  0  0
  4 23  1  0  0  0
  5  6  1  0  0  0
  5 10  2  0  0  0
  6 11  1  0  0  0
  7  8  2  0  0  0
  7  9  1  0  0  0
  9 17  1  0  0  0
  9 24  1  0  0  0
 11 25  1  0  0  0
 11 26  1  0  0  0
 11 27  1  0  0  0
 12 13  1  0  0  0
 12 20  1  0  0  0
 12 28  1  0  0  0
 13 14  2  0  0  0
 14 15  1  0  0  0
 14 29  1  0  0  0
 15 16  1  0  0  0
 15 20  2  0  0  0
 16 17  2  0  0  0
 16 30  1  0  0  0
 17 18  1  0  0  0
 18 19  2  0  0  0
 18 31  1  0  0  0
 19 20  1  0  0  0
 19 32  1  0  0  0
M  END
> <s_m_entry_id>
10488

> <s_m_entry_name>
dock_pv.524

> <s_m_Source_Path>
/home/csk/Desktop/cluster/DUD-E-result/aofb

> <s_m_Source_File>
dock_pv.maegz

> <i_m_Source_File_Index>
524

> <chembl_id>
CHEMBL3319239

> <chembl_pref_name>
None

> <i_lp_mmshare_version>
53161

> <i_f3d_flags>
0

> <r_lp_tautomer_probability>
0.980392156862745

> <s_lp_Force_Field>
OPLS_2005

> <r_lp_Energy>
28.236717

> <b_lp_Chiralities_Consistent>
1

> <s_lp_Variant>
CHEMBL2039_lig1315-1

> <s_i_glide_gridfile>
glide-grid_1s3b

> <i_i_glide_lignum>
1532

> <i_i_glide_rotatable_bonds>
3

> <r_i_docking_score>
-6.8547322735442

> <r_i_glide_ligand_efficiency>
-0.34273661367721

> <r_i_glide_ligand_efficiency_sa>
-0.930330301088494

> <r_i_glide_ligand_efficiency_ln>
-1.71551340386659

> <r_i_glide_gscore>
-6.8547322735442

> <r_i_glide_lipo>
-3.17597366637464

> <r_i_glide_hbond>
0

> <r_i_glide_metal>
0

> <r_i_glide_rewards>
-2.83187845005347

> <r_i_glide_evdw>
-29.1922855377197

> <r_i_glide_ecoul>
-0.874809503555298

> <r_i_glide_erotb>
0.743955545303197

> <r_i_glide_esite>
0

> <r_i_glide_emodel>
-36.1850588332958

> <r_i_glide_energy>
-30.067095041275

> <r_i_glide_einternal>
2.92322754859924

> <i_i_glide_confnum>
2

> <i_i_glide_posenum>
138

> <r_i_glide_eff_state_penalty>
0

> <s_user_duplicate_titles>
CHEMBL2039_lig1315

> <s_m_subgroup_title>
dock_pv

> <s_m_subgroupid>
dock_pv

> <b_m_subgroup_collapsed>
1

$$$$
CHEMBL2039_lig499
                    3D
 Schrodinger Suite 2021-1.
 32 34  0  0  1  0            999 V2000
   50.9155  155.9362   28.9038 C   0  0  0  0  0  0
   51.6562  157.0603   28.5041 C   0  0  0  0  0  0
   52.4558  156.9893   27.3470 C   0  0  0  0  0  0
   50.9758  154.7478   28.1778 C   0  0  0  0  0  0
   51.6898  154.7313   26.9857 C   0  0  0  0  0  0
   52.3888  155.8445   26.5456 C   0  0  0  0  0  0
   52.9805  155.5854   25.3101 N   0  0  0  0  0  0
   52.7944  154.3155   24.9041 C   0  0  0  0  0  0
   51.9567  153.6521   26.0495 C   0  0  0  0  0  0
   51.6564  152.4620   26.1041 O   0  0  0  0  0  0
   53.2099  153.7741   23.8810 O   0  0  0  0  0  0
   51.6624  158.3181   29.3815 C   0  0  0  0  0  0
   50.5678  159.4090   29.2504 C   0  0  0  0  0  0
   49.5709  159.5166   30.4054 C   0  0  0  0  0  0
   49.7775  160.4795   31.4017 C   0  0  0  0  0  0
   48.8514  160.6431   32.4270 C   0  0  0  0  0  0
   47.7152  159.8406   32.4579 C   0  0  0  0  0  0
   47.5062  158.8703   31.4803 C   0  0  0  0  0  0
   48.4359  158.7038   30.4579 C   0  0  0  0  0  0
   50.3214  155.9705   29.8010 H   0  0  0  0  0  0
   53.0595  157.8389   27.0686 H   0  0  0  0  0  0
   50.4565  153.8688   28.5273 H   0  0  0  0  0  0
   53.5105  156.2586   24.7797 H   0  0  0  0  0  0
   51.6561  157.9898   30.4054 H   0  0  0  0  0  0
   52.6327  158.7969   29.2505 H   0  0  0  0  0  0
   51.1063  160.3544   29.3037 H   0  0  0  0  0  0
   50.0686  159.4426   28.2825 H   0  0  0  0  0  0
   50.6551  161.1106   31.3862 H   0  0  0  0  0  0
   49.0148  161.3875   33.1924 H   0  0  0  0  0  0
   46.9930  159.9671   33.2501 H   0  0  0  0  0  0
   46.6250  158.2475   31.5124 H   0  0  0  0  0  0
   48.2572  157.9538   29.7052 H   0  0  0  0  0  0
  1  4  1  0  0  0
  1  2  2  0  0  0
  1 20  1  0  0  0
  2 12  1  0  0  0
  2  3  1  0  0  0
  3  6  2  0  0  0
  3 21  1  0  0  0
  4  5  2  0  0  0
  4 22  1  0  0  0
  5  9  1  0  0  0
  5  6  1  0  0  0
  6  7  1  0  0  0
  7  8  1  0  0  0
  7 23  1  0  0  0
  8 11  2  0  0  0
  8  9  1  0  0  0
  9 10  2  0  0  0
 12 13  1  0  0  0
 12 24  1  0  0  0
 12 25  1  0  0  0
 13 14  1  0  0  0
 13 26  1  0  0  0
 13 27  1  0  0  0
 14 15  2  0  0  0
 14 19  1  0  0  0
 15 16  1  0  0  0
 15 28  1  0  0  0
 16 17  2  0  0  0
 16 29  1  0  0  0
 17 18  1  0  0  0
 17 30  1  0  0  0
 18 19  2  0  0  0
 18 31  1  0  0  0
 19 32  1  0  0  0
M  END
> <s_m_entry_id>
10490

> <s_m_entry_name>
dock_pv.526

> <s_m_Source_Path>
/home/csk/Desktop/cluster/DUD-E-result/aofb

> <s_m_Source_File>
dock_pv.maegz

> <i_m_Source_File_Index>
526

> <chembl_id>
CHEMBL1642673

> <chembl_pref_name>
None

> <i_lp_mmshare_version>
53161

> <i_f3d_flags>
0

> <r_lp_tautomer_probability>
1

> <s_lp_Force_Field>
OPLS_2005

> <r_lp_Energy>
31.612071

> <b_lp_Chiralities_Consistent>
1

> <s_lp_Variant>
CHEMBL2039_lig499-1

> <s_i_glide_gridfile>
glide-grid_1s3b

> <i_i_glide_lignum>
598

> <i_i_glide_rotatable_bonds>
3

> <r_i_docking_score>
-6.83882043061503

> <r_i_glide_ligand_efficiency>
-0.359937917400791

> <r_i_glide_ligand_efficiency_sa>
-0.960458931287144

> <r_i_glide_ligand_efficiency_ln>
-1.73378786355576

> <r_i_glide_gscore>
-6.83882043061503

> <r_i_glide_lipo>
-3.45520860671738

> <r_i_glide_hbond>
0

> <r_i_glide_metal>
0

> <r_i_glide_rewards>
-2.83193234667561

> <r_i_glide_evdw>
-28.9101333618164

> <r_i_glide_ecoul>
0.40767228603363

> <r_i_glide_erotb>
0.832676347963735

> <r_i_glide_esite>
0

> <r_i_glide_emodel>
-30.6332906134119

> <r_i_glide_energy>
-28.5024610757828

> <r_i_glide_einternal>
4.42550373077393

> <i_i_glide_confnum>
3

> <i_i_glide_posenum>
15

> <r_i_glide_eff_state_penalty>
0

> <s_user_duplicate_titles>
CHEMBL2039_lig499

> <s_m_subgroup_title>
dock_pv

> <s_m_subgroupid>
dock_pv

> <b_m_subgroup_collapsed>
1

$$$$
CHEMBL2039_lig474
                    3D
 Schrodinger Suite 2021-1.
 36 38  0  0  1  0            999 V2000
   52.2029  151.7108   25.8050 C   0  0  0  0  0  0
   52.8840  151.8967   24.6154 C   0  0  0  0  0  0
   53.1044  153.1777   24.1318 C   0  0  0  0  0  0
   52.6666  154.2664   24.8777 C   0  0  0  0  0  0
   52.0560  154.0965   26.1322 C   0  0  0  0  0  0
   51.8054  152.7967   26.5802 C   0  0  0  0  0  0
   51.9105  155.2956   27.0138 C   0  0  0  0  0  0
   51.1458  155.3563   28.1052 N   0  0  0  0  0  0
   51.2867  156.5027   28.7329 C   0  0  0  0  0  0
   52.5971  157.4440   28.1491 S   0  0  0  0  0  0
   52.6673  156.4340   26.7865 C   0  0  0  0  0  0
   50.4560  157.0440   29.7027 N   0  0  0  0  0  0
   50.3303  158.4365   29.9430 N   0  0  0  0  0  0
   49.2906  158.8694   30.5300 C   0  0  0  0  0  0
   53.2560  150.8158   23.9018 F   0  0  0  0  0  0
   51.2560  152.5721   27.7934 F   0  0  0  0  0  0
   49.2923  160.2032   31.2788 C   0  0  0  0  0  0
   48.0180  161.0219   30.9987 C   0  0  0  0  0  0
   46.7131  160.2406   31.1245 C   0  0  0  0  0  0
   46.7842  158.9557   30.3166 C   0  0  0  0  0  0
   47.9826  158.1010   30.7138 C   0  0  0  0  0  0
   51.9835  150.6996   26.1040 H   0  0  0  0  0  0
   53.6076  153.3210   23.1874 H   0  0  0  0  0  0
   52.8772  155.2525   24.5040 H   0  0  0  0  0  0
   53.3590  156.6442   25.9914 H   0  0  0  0  0  0
   49.6622  156.5112   30.0224 H   0  0  0  0  0  0
   49.3522  159.9958   32.3478 H   0  0  0  0  0  0
   50.1808  160.7852   31.0266 H   0  0  0  0  0  0
   47.9740  161.8440   31.7054 H   0  0  0  0  0  0
   48.0780  161.4440   29.9952 H   0  0  0  0  0  0
   45.8965  160.8374   30.7376 H   0  0  0  0  0  0
   46.4930  160.0228   32.1713 H   0  0  0  0  0  0
   46.8560  159.1879   29.2566 H   0  0  0  0  0  0
   45.8584  158.4002   30.4453 H   0  0  0  0  0  0
   47.9685  157.1992   30.1040 H   0  0  0  0  0  0
   47.8873  157.8052   31.7573 H   0  0  0  0  0  0
  1  6  1  0  0  0
  1  2  2  0  0  0
  1 22  1  0  0  0
  2 15  1  0  0  0
  2  3  1  0  0  0
  3  4  2  0  0  0
  3 23  1  0  0  0
  4  5  1  0  0  0
  4 24  1  0  0  0
  5  7  1  0  0  0
  5  6  2  0  0  0
  6 16  1  0  0  0
  7 11  2  0  0  0
  7  8  1  0  0  0
  8  9  2  0  0  0
  9 12  1  0  0  0
  9 10  1  0  0  0
 10 11  1  0  0  0
 11 25  1  0  0  0
 12 13  1  0  0  0
 12 26  1  0  0  0
 13 14  2  0  0  0
 14 17  1  0  0  0
 14 21  1  0  0  0
 17 18  1  0  0  0
 17 27  1  0  0  0
 17 28  1  0  0  0
 18 19  1  0  0  0
 18 29  1  0  0  0
 18 30  1  0  0  0
 19 20  1  0  0  0
 19 31  1  0  0  0
 19 32  1  0  0  0
 20 21  1  0  0  0
 20 33  1  0  0  0
 20 34  1  0  0  0
 21 35  1  0  0  0
 21 36  1  0  0  0
M  END
> <s_m_entry_id>
10491

> <s_m_entry_name>
dock_pv.527

> <s_m_Source_Path>
/home/csk/Desktop/cluster/DUD-E-result/aofb

> <s_m_Source_File>
dock_pv.maegz

> <i_m_Source_File_Index>
527

> <chembl_id>
CHEMBL1254764

> <chembl_pref_name>
None

> <i_lp_mmshare_version>
53161

> <i_f3d_flags>
0

> <r_lp_tautomer_probability>
1

> <s_lp_Force_Field>
OPLS_2005

> <r_lp_Energy>
20.887088

> <b_lp_Chiralities_Consistent>
1

> <s_lp_Variant>
CHEMBL2039_lig474-1

> <s_i_glide_gridfile>
glide-grid_1s3b

> <i_i_glide_lignum>
569

> <i_i_glide_rotatable_bonds>
3

> <r_i_docking_score>
-6.83520645607471

> <r_i_glide_ligand_efficiency>
-0.325486021717843

> <r_i_glide_ligand_efficiency_sa>
-0.89799125348015

> <r_i_glide_ligand_efficiency_ln>
-1.68999098442933

> <r_i_glide_gscore>
-6.83520645607471

> <r_i_glide_lipo>
-3.90112071112145

> <r_i_glide_hbond>
0

> <r_i_glide_metal>
0

> <r_i_glide_rewards>
-3.12227200925787

> <r_i_glide_evdw>
-12.1045074462891

> <r_i_glide_ecoul>
1.37592172622681

> <r_i_glide_erotb>
0.587023377685041

> <r_i_glide_esite>
0

> <r_i_glide_emodel>
-26.9066972905759

> <r_i_glide_energy>
-10.7285857200623

> <r_i_glide_einternal>
2.59808254241943

> <i_i_glide_confnum>
3

> <i_i_glide_posenum>
309

> <r_i_glide_eff_state_penalty>
0

> <s_user_duplicate_titles>
CHEMBL2039_lig474

> <s_m_subgroup_title>
dock_pv

> <s_m_subgroupid>
dock_pv

> <b_m_subgroup_collapsed>
1

$$$$
CHEMBL2039_lig569
                    3D
 Schrodinger Suite 2021-1.
 26 27  0  0  1  0            999 V2000
   51.1157  154.6173   28.1040 C   0  0  0  0  0  0
   51.6560  154.4426   26.8313 C   0  0  0  0  0  0
   52.3769  155.4843   26.2326 C   0  0  0  0  0  0
   52.5967  156.6595   26.9595 C   0  0  0  0  0  0
   52.0330  156.8704   28.2268 C   0  0  0  0  0  0
   51.2560  155.8360   28.7624 C   0  0  0  0  0  0
   52.1822  158.1961   28.9040 C   0  0  0  0  0  0
   51.2973  158.9082   29.6606 C   0  0  0  0  0  0
   49.6183  158.5513   30.1040 S   0  0  0  0  0  0
   49.4930  159.9673   31.0978 C   0  0  0  0  0  0
   50.6573  160.6440   31.0205 N   0  0  0  0  0  0
   51.6560  160.1913   30.2488 C   0  0  0  0  0  0
   48.1416  160.3540   31.9761 S   0  0  0  0  0  0
   52.7076  160.8138   30.1040 O   0  0  0  0  0  0
   52.8043  155.4026   24.9263 O   0  0  0  0  0  0
   51.4296  153.2626   26.1706 O   0  0  0  0  0  0
   53.9419  154.5794   24.7007 C   0  0  0  0  0  0
   50.5327  153.8340   28.5611 H   0  0  0  0  0  0
   53.1766  157.4440   26.5040 H   0  0  0  0  0  0
   50.7555  155.9613   29.7040 H   0  0  0  0  0  0
   53.1684  158.6216   28.7783 H   0  0  0  0  0  0
   50.7835  161.5010   31.5384 H   0  0  0  0  0  0
   50.9367  152.6316   26.6980 H   0  0  0  0  0  0
   53.9690  154.2782   23.6537 H   0  0  0  0  0  0
   54.8560  155.1326   24.9040 H   0  0  0  0  0  0
   53.9442  153.6672   25.3010 H   0  0  0  0  0  0
  1  6  1  0  0  0
  1  2  2  0  0  0
  1 18  1  0  0  0
  2  3  1  0  0  0
  2 16  1  0  0  0
  3 15  1  0  0  0
  3  4  2  0  0  0
  4  5  1  0  0  0
  4 19  1  0  0  0
  5  6  2  0  0  0
  5  7  1  0  0  0
  6 20  1  0  0  0
  7  8  2  0  0  0
  7 21  1  0  0  0
  8  9  1  0  0  0
  8 12  1  0  0  0
  9 10  1  0  0  0
 10 11  1  0  0  0
 10 13  2  0  0  0
 11 12  1  0  0  0
 11 22  1  0  0  0
 12 14  2  0  0  0
 15 17  1  0  0  0
 16 23  1  0  0  0
 17 24  1  0  0  0
 17 25  1  0  0  0
 17 26  1  0  0  0
M  END
> <s_m_entry_id>
10492

> <s_m_entry_name>
dock_pv.528

> <s_m_Source_Path>
/home/csk/Desktop/cluster/DUD-E-result/aofb

> <s_m_Source_File>
dock_pv.maegz

> <i_m_Source_File_Index>
528

> <chembl_id>
CHEMBL255822

> <chembl_pref_name>
None

> <i_lp_mmshare_version>
53161

> <i_f3d_flags>
0

> <r_lp_tautomer_probability>
1

> <s_lp_Force_Field>
OPLS_2005

> <r_lp_Energy>
13.303064

> <b_lp_Chiralities_Consistent>
1

> <s_lp_Variant>
CHEMBL2039_lig569-1

> <s_i_glide_gridfile>
glide-grid_1s3b

> <i_i_glide_lignum>
673

> <i_i_glide_rotatable_bonds>
3

> <r_i_docking_score>
-6.83044467867286

> <r_i_glide_ligand_efficiency>
-0.401790863451345

> <r_i_glide_ligand_efficiency_sa>
-1.03311744951144

> <r_i_glide_ligand_efficiency_ln>
-1.78191091014127

> <r_i_glide_gscore>
-6.83044467867286

> <r_i_glide_lipo>
-1.79516378319429

> <r_i_glide_hbond>
-0.239607292449876

> <r_i_glide_metal>
0

> <r_i_glide_rewards>
-2.62336779571697

> <r_i_glide_evdw>
-32.1246948242188

> <r_i_glide_ecoul>
-5.43715000152588

> <r_i_glide_erotb>
0.249501434128099

> <r_i_glide_esite>
0

> <r_i_glide_emodel>
-48.1703081862937

> <r_i_glide_energy>
-37.5618448257446

> <r_i_glide_einternal>
3.82467412948608

> <i_i_glide_confnum>
2

> <i_i_glide_posenum>
93

> <r_i_glide_eff_state_penalty>
0

> <s_user_duplicate_titles>
CHEMBL2039_lig569

> <s_m_subgroup_title>
dock_pv

> <s_m_subgroupid>
dock_pv

> <b_m_subgroup_collapsed>
1

$$$$
CHEMBL2039_lig520
                    3D
 Schrodinger Suite 2021-1.
 32 34  0  0  1  0            999 V2000
   49.9314  157.4975   29.7175 C   0  0  0  0  0  0
   50.8716  158.4621   28.9722 C   0  0  1  0  0  0
   51.1566  159.6301   29.9720 C   0  0  0  0  0  0
   49.9984  159.9796   30.8709 C   0  0  0  0  0  0
   50.0610  161.0432   31.7801 C   0  0  0  0  0  0
   49.0034  161.2879   32.6595 C   0  0  0  0  0  0
   47.8488  160.5140   32.6257 C   0  0  0  0  0  0
   47.7641  159.4568   31.7303 C   0  0  0  0  0  0
   48.8400  159.1820   30.8911 C   0  0  0  0  0  0
   48.6889  158.0754   30.1043 O   0  0  0  0  0  0
   52.2184  160.2461   30.0643 O   0  0  0  0  0  0
   52.1432  157.6483   28.4824 C   0  0  0  0  0  0
   51.9733  156.2745   27.7866 C   0  0  0  0  0  0
   52.2280  156.1794   26.4124 C   0  0  0  0  0  0
   52.2409  154.9483   25.7676 C   0  0  0  0  0  0
   52.0130  153.7914   26.5037 C   0  0  0  0  0  0
   51.6559  153.8665   27.8502 C   0  0  0  0  0  0
   51.6575  155.1018   28.4994 C   0  0  0  0  0  0
   52.3414  152.2648   25.7737 Cl  0  0  0  0  0  0
   49.6936  156.5293   29.3029 H   0  0  0  0  0  0
   50.5412  157.1546   30.5046 H   0  0  0  0  0  0
   50.3977  159.0382   28.1677 H   0  0  0  0  0  0
   50.9450  161.6630   31.8414 H   0  0  0  0  0  0
   49.0852  162.0650   33.3930 H   0  0  0  0  0  0
   47.0340  160.7187   33.3044 H   0  0  0  0  0  0
   46.8835  158.8323   31.7060 H   0  0  0  0  0  0
   52.8139  157.4440   29.3011 H   0  0  0  0  0  0
   52.7631  158.2441   27.8251 H   0  0  0  0  0  0
   52.4781  157.0472   25.8315 H   0  0  0  0  0  0
   52.5141  154.8860   24.7245 H   0  0  0  0  0  0
   51.4764  152.9643   28.4171 H   0  0  0  0  0  0
   51.4580  155.0991   29.5581 H   0  0  0  0  0  0
  1  2  1  0  0  0
  1 10  1  0  0  0
  1 20  1  0  0  0
  1 21  1  0  0  0
  2  3  1  0  0  0
  2 12  1  0  0  0
  2 22  1  0  0  0
  3  4  1  0  0  0
  3 11  2  0  0  0
  4  5  1  0  0  0
  4  9  2  0  0  0
  5  6  2  0  0  0
  5 23  1  0  0  0
  6  7  1  0  0  0
  6 24  1  0  0  0
  7  8  2  0  0  0
  7 25  1  0  0  0
  8  9  1  0  0  0
  8 26  1  0  0  0
  9 10  1  0  0  0
 12 13  1  0  0  0
 12 27  1  0  0  0
 12 28  1  0  0  0
 13 14  1  0  0  0
 13 18  2  0  0  0
 14 15  2  0  0  0
 14 29  1  0  0  0
 15 16  1  0  0  0
 15 30  1  0  0  0
 16 17  2  0  0  0
 16 19  1  0  0  0
 17 18  1  0  0  0
 17 31  1  0  0  0
 18 32  1  0  0  0
M  END
> <s_m_entry_id>
10493

> <s_m_entry_name>
dock_pv.529

> <s_m_Source_Path>
/home/csk/Desktop/cluster/DUD-E-result/aofb

> <s_m_Source_File>
dock_pv.maegz

> <i_m_Source_File_Index>
529

> <chembl_id>
CHEMBL1766624

> <chembl_pref_name>
None

> <i_lp_mmshare_version>
53161

> <i_f3d_flags>
0

> <r_lp_tautomer_probability>
0.99995

> <s_lp_Force_Field>
OPLS_2005

> <r_lp_Energy>
18.481807

> <b_lp_Chiralities_Consistent>
1

> <s_lp_Variant>
CHEMBL2039_lig520-2

> <s_i_glide_gridfile>
glide-grid_1s3b

> <i_i_glide_lignum>
622

> <i_i_glide_rotatable_bonds>
2

> <r_i_docking_score>
-6.825870185189

> <r_i_glide_ligand_efficiency>
-0.359256325536263

> <r_i_glide_ligand_efficiency_sa>
-0.958640170433867

> <r_i_glide_ligand_efficiency_ln>
-1.73050469819449

> <r_i_glide_gscore>
-6.825870185189

> <r_i_glide_lipo>
-3.54532963956076

> <r_i_glide_hbond>
-0.0494916351107386

> <r_i_glide_metal>
0

> <r_i_glide_rewards>
-2.52649656260652

> <r_i_glide_evdw>
-20.7394466400146

> <r_i_glide_ecoul>
-0.9974445104599

> <r_i_glide_erotb>
0.482036660658731

> <r_i_glide_esite>
0

> <r_i_glide_emodel>
-22.4080956635283

> <r_i_glide_energy>
-21.7368911504745

> <r_i_glide_einternal>
2.7082679271698

> <i_i_glide_confnum>
1

> <i_i_glide_posenum>
395

> <r_i_glide_eff_state_penalty>
0

> <s_user_duplicate_titles>
CHEMBL2039_lig520

> <s_m_subgroup_title>
dock_pv

> <s_m_subgroupid>
dock_pv

> <b_m_subgroup_collapsed>
1

$$$$
CHEMBL2039_lig2784 
                    3D
 Schrodinger Suite 2021-1.
 33 35  0  0  1  0            999 V2000
   51.1657  160.3905   30.4477 C   0  0  0  0  0  0
   49.2186  158.3207   30.5040 C   0  0  0  0  0  0
   50.4144  158.1575   29.7951 C   0  0  0  0  0  0
   51.3236  159.2184   29.7041 C   0  0  0  0  0  0
   50.6362  156.8566   29.3034 N   0  0  0  0  0  0
   51.6561  156.3757   28.5578 C   0  0  0  0  0  0
   52.7310  156.9565   28.4162 O   0  0  0  0  0  0
   49.0269  159.4724   31.2759 C   0  0  0  0  0  0
   50.0350  160.4795   31.2636 C   0  0  0  0  0  0
   49.6560  161.4258   32.1906 N   0  0  0  0  0  0
   48.4339  161.0989   32.7277 C   0  0  0  0  0  0
   48.0024  159.9134   32.1752 C   0  0  0  0  0  0
   51.4252  154.9764   27.9524 C   0  0  0  0  0  0
   51.9976  154.7809   26.5454 C   0  0  0  0  0  0
   52.4562  155.8654   25.7880 C   0  0  0  0  0  0
   53.2705  155.6554   24.7029 C   0  0  0  0  0  0
   53.5284  154.3680   24.2630 C   0  0  0  0  0  0
   52.9491  153.2670   24.9047 C   0  0  0  0  0  0
   52.1646  153.4816   26.0460 C   0  0  0  0  0  0
   53.2561  151.6510   24.3791 Cl  0  0  0  0  0  0
   54.5607  154.2428   22.9043 Cl  0  0  0  0  0  0
   51.9198  161.1625   30.4355 H   0  0  0  0  0  0
   48.4900  157.5258   30.5516 H   0  0  0  0  0  0
   52.2367  159.1164   29.1400 H   0  0  0  0  0  0
   49.8689  156.2204   29.4540 H   0  0  0  0  0  0
   50.1851  162.2401   32.4776 H   0  0  0  0  0  0
   47.9813  161.7395   33.4700 H   0  0  0  0  0  0
   47.0811  159.4091   32.4242 H   0  0  0  0  0  0
   50.3741  154.6902   27.9754 H   0  0  0  0  0  0
   51.9327  154.2738   28.6152 H   0  0  0  0  0  0
   52.2878  156.8908   26.0740 H   0  0  0  0  0  0
   53.7014  156.5066   24.1941 H   0  0  0  0  0  0
   51.7819  152.6356   26.5958 H   0  0  0  0  0  0
  1  9  2  0  0  0
  1  4  1  0  0  0
  1 22  1  0  0  0
  2  8  2  0  0  0
  2  3  1  0  0  0
  2 23  1  0  0  0
  3  4  2  0  0  0
  3  5  1  0  0  0
  4 24  1  0  0  0
  5  6  1  0  0  0
  5 25  1  0  0  0
  6  7  2  0  0  0
  6 13  1  0  0  0
  8  9  1  0  0  0
  8 12  1  0  0  0
  9 10  1  0  0  0
 10 11  1  0  0  0
 10 26  1  0  0  0
 11 12  2  0  0  0
 11 27  1  0  0  0
 12 28  1  0  0  0
 13 14  1  0  0  0
 13 29  1  0  0  0
 13 30  1  0  0  0
 14 15  2  0  0  0
 14 19  1  0  0  0
 15 16  1  0  0  0
 15 31  1  0  0  0
 16 17  2  0  0  0
 16 32  1  0  0  0
 17 18  1  0  0  0
 17 21  1  0  0  0
 18 19  2  0  0  0
 18 20  1  0  0  0
 19 33  1  0  0  0
M  END
> <s_m_entry_id>
10494

> <s_m_entry_name>
dock_pv.530

> <s_m_Source_Path>
/home/csk/Desktop/cluster/DUD-E-result/aofb

> <s_m_Source_File>
dock_pv.maegz

> <i_m_Source_File_Index>
530

> <chembl_id>
CHEMBL4467709

> <chembl_pref_name>
None

> <i_lp_mmshare_version>
53161

> <i_f3d_flags>
0

> <r_lp_tautomer_probability>
1

> <s_lp_Force_Field>
OPLS_2005

> <r_lp_Energy>
17.0618

> <b_lp_Chiralities_Consistent>
1

> <s_lp_Variant>
CHEMBL2039_lig2784 -1

> <s_i_glide_gridfile>
glide-grid_1s3b

> <i_i_glide_lignum>
3251

> <i_i_glide_rotatable_bonds>
4

> <r_i_docking_score>
-6.82576986361161

> <r_i_glide_ligand_efficiency>
-0.325036660171982

> <r_i_glide_ligand_efficiency_sa>
-0.896751499048595

> <r_i_glide_ligand_efficiency_ln>
-1.68765780601126

> <r_i_glide_gscore>
-6.82576986361161

> <r_i_glide_lipo>
-3.87390163720135

> <r_i_glide_hbond>
-0.103450789878694

> <r_i_glide_metal>
0

> <r_i_glide_rewards>
-2.26842929398671

> <r_i_glide_evdw>
-24.579288482666

> <r_i_glide_ecoul>
1.88500487804413

> <r_i_glide_erotb>
0.366225549881825

> <r_i_glide_esite>
0

> <r_i_glide_emodel>
-18.6687096317769

> <r_i_glide_energy>
-22.6942836046219

> <r_i_glide_einternal>
13.1129751205444

> <i_i_glide_confnum>
1

> <i_i_glide_posenum>
38

> <r_i_glide_eff_state_penalty>
0

> <s_user_duplicate_titles>
CHEMBL2039_lig2784 

> <s_m_subgroup_title>
dock_pv

> <s_m_subgroupid>
dock_pv

> <b_m_subgroup_collapsed>
1

$$$$
CHEMBL2039_lig272
                    3D
 Schrodinger Suite 2021-1.
 31 33  0  0  1  0            999 V2000
   53.5586  153.4440   23.9218 C   0  0  0  0  0  0
   53.1956  152.2403   24.5293 C   0  0  0  0  0  0
   52.4375  152.2441   25.7040 C   0  0  0  0  0  0
   53.2128  154.6529   24.5120 C   0  0  0  0  0  0
   52.4560  154.6602   25.6805 C   0  0  0  0  0  0
   52.0560  153.4600   26.2742 C   0  0  0  0  0  0
   51.3627  153.4523   27.4771 O   0  0  0  0  0  0
   51.3339  154.5800   28.3016 C   0  0  0  0  0  0
   51.8624  155.8501   27.7499 C   0  0  0  0  0  0
   52.3108  155.8677   26.4737 C   0  0  0  0  0  0
   50.8560  154.4257   29.4204 O   0  0  0  0  0  0
   51.9268  157.0862   28.5040 C   0  0  0  0  0  0
   50.8560  157.3392   29.3040 N   0  0  0  0  0  0
   52.8755  157.8440   28.3632 O   0  0  0  0  0  0
   50.4451  158.5282   29.9325 C   0  0  0  0  0  0
   49.1684  158.4959   30.5040 C   0  0  0  0  0  0
   48.7403  159.5310   31.3265 C   0  0  0  0  0  0
   49.5918  160.5991   31.5807 C   0  0  0  0  0  0
   50.8345  160.6782   30.9538 C   0  0  0  0  0  0
   51.2560  159.6584   30.1040 C   0  0  0  0  0  0
   49.2168  161.5424   32.4724 F   0  0  0  0  0  0
   54.1473  153.4409   23.0165 H   0  0  0  0  0  0
   53.4857  151.3034   24.0784 H   0  0  0  0  0  0
   52.1412  151.3095   26.1557 H   0  0  0  0  0  0
   53.5897  155.5778   24.1040 H   0  0  0  0  0  0
   52.6772  156.7929   26.0461 H   0  0  0  0  0  0
   50.2067  156.5714   29.3878 H   0  0  0  0  0  0
   48.5248  157.6387   30.3689 H   0  0  0  0  0  0
   47.7757  159.4819   31.8093 H   0  0  0  0  0  0
   51.4893  161.5101   31.1666 H   0  0  0  0  0  0
   52.2513  159.7153   29.6931 H   0  0  0  0  0  0
  1  2  2  0  0  0
  1  4  1  0  0  0
  1 22  1  0  0  0
  2  3  1  0  0  0
  2 23  1  0  0  0
  3  6  2  0  0  0
  3 24  1  0  0  0
  4  5  2  0  0  0
  4 25  1  0  0  0
  5  6  1  0  0  0
  5 10  1  0  0  0
  6  7  1  0  0  0
  7  8  1  0  0  0
  8 11  2  0  0  0
  8  9  1  0  0  0
  9 10  2  0  0  0
  9 12  1  0  0  0
 10 26  1  0  0  0
 12 13  1  0  0  0
 12 14  2  0  0  0
 13 15  1  0  0  0
 13 27  1  0  0  0
 15 16  2  0  0  0
 15 20  1  0  0  0
 16 17  1  0  0  0
 16 28  1  0  0  0
 17 18  2  0  0  0
 17 29  1  0  0  0
 18 19  1  0  0  0
 18 21  1  0  0  0
 19 20  2  0  0  0
 19 30  1  0  0  0
 20 31  1  0  0  0
M  END
> <s_m_entry_id>
10496

> <s_m_entry_name>
dock_pv.532

> <s_m_Source_Path>
/home/csk/Desktop/cluster/DUD-E-result/aofb

> <s_m_Source_File>
dock_pv.maegz

> <i_m_Source_File_Index>
532

> <chembl_id>
CHEMBL470221

> <chembl_pref_name>
None

> <i_lp_mmshare_version>
53161

> <i_f3d_flags>
0

> <r_lp_tautomer_probability>
1

> <s_lp_Force_Field>
OPLS_2005

> <r_lp_Energy>
29.439293

> <b_lp_Chiralities_Consistent>
1

> <s_lp_Variant>
CHEMBL2039_lig272-1

> <s_i_glide_gridfile>
glide-grid_1s3b

> <i_i_glide_lignum>
321

> <i_i_glide_rotatable_bonds>
3

> <r_i_docking_score>
-6.81796616291106

> <r_i_glide_ligand_efficiency>
-0.324665055376717

> <r_i_glide_ligand_efficiency_sa>
-0.895726269595921

> <r_i_glide_ligand_efficiency_ln>
-1.68572835678191

> <r_i_glide_gscore>
-6.81796616291106

> <r_i_glide_lipo>
-3.87634983023892

> <r_i_glide_hbond>
0

> <r_i_glide_metal>
0

> <r_i_glide_rewards>
-2.74142840674892

> <r_i_glide_evdw>
-28.3938655853271

> <r_i_glide_ecoul>
3.61632633209229

> <r_i_glide_erotb>
0.677056403529292

> <r_i_glide_esite>
0

> <r_i_glide_emodel>
-26.8771322953208

> <r_i_glide_energy>
-24.7775392532349

> <r_i_glide_einternal>
5.52938365936279

> <i_i_glide_confnum>
2

> <i_i_glide_posenum>
82

> <r_i_glide_eff_state_penalty>
0

> <s_user_duplicate_titles>
CHEMBL2039_lig272,521666

> <s_m_subgroup_title>
dock_pv

> <s_m_subgroupid>
dock_pv

> <b_m_subgroup_collapsed>
1

$$$$
CHEMBL2039_lig1564
                    3D
 Schrodinger Suite 2021-1.
 29 30  0  0  1  0            999 V2000
   49.6558  159.2904   30.3752 C   0  0  0  0  0  0
   50.9313  159.0116   29.7040 C   0  0  0  0  0  0
   51.0616  157.6995   29.0638 C   0  0  0  0  0  0
   51.8394  159.8440   29.7044 O   0  0  0  0  0  0
   52.0050  157.3921   28.1437 C   0  0  0  0  0  0
   52.0560  156.1151   27.3904 C   0  0  0  0  0  0
   51.5598  154.9110   27.9078 C   0  0  0  0  0  0
   51.6700  153.7288   27.1743 C   0  0  0  0  0  0
   52.3240  153.7358   25.9321 C   0  0  0  0  0  0
   52.6902  154.9541   25.3535 C   0  0  0  0  0  0
   52.5623  156.1299   26.0869 C   0  0  0  0  0  0
   49.5281  160.4725   31.0655 N   0  0  0  0  0  0
   48.2745  160.5442   31.6200 C   0  0  0  0  0  0
   47.5908  159.3859   31.2790 C   0  0  0  0  0  0
   48.4537  158.5975   30.5069 C   0  0  0  0  0  0
   52.8197  152.4337   25.3040 C   0  0  0  0  0  0
   52.0851  151.3923   25.7011 F   0  0  0  0  0  0
   52.8560  152.5011   23.9740 F   0  0  0  0  0  0
   54.0669  152.2145   25.7025 F   0  0  0  0  0  0
   50.3180  156.9656   29.3292 H   0  0  0  0  0  0
   52.7691  158.1192   27.9014 H   0  0  0  0  0  0
   51.1368  154.8704   28.9008 H   0  0  0  0  0  0
   51.3648  152.7992   27.6332 H   0  0  0  0  0  0
   53.1829  154.9803   24.3928 H   0  0  0  0  0  0
   52.9200  157.0440   25.6471 H   0  0  0  0  0  0
   50.2559  161.1691   31.1545 H   0  0  0  0  0  0
   47.9837  161.4035   32.2067 H   0  0  0  0  0  0
   46.5791  159.1329   31.5636 H   0  0  0  0  0  0
   48.2195  157.6240   30.1036 H   0  0  0  0  0  0
  1  2  1  0  0  0
  1 12  1  0  0  0
  1 15  2  0  0  0
  2  3  1  0  0  0
  2  4  2  0  0  0
  3  5  2  0  0  0
  3 20  1  0  0  0
  5  6  1  0  0  0
  5 21  1  0  0  0
  6  7  2  0  0  0
  6 11  1  0  0  0
  7  8  1  0  0  0
  7 22  1  0  0  0
  8  9  2  0  0  0
  8 23  1  0  0  0
  9 10  1  0  0  0
  9 16  1  0  0  0
 10 11  2  0  0  0
 10 24  1  0  0  0
 11 25  1  0  0  0
 12 13  1  0  0  0
 12 26  1  0  0  0
 13 14  2  0  0  0
 13 27  1  0  0  0
 14 15  1  0  0  0
 14 28  1  0  0  0
 15 29  1  0  0  0
 16 17  1  0  0  0
 16 18  1  0  0  0
 16 19  1  0  0  0
M  END
> <s_m_entry_id>
10497

> <s_m_entry_name>
dock_pv.533

> <s_m_Source_Path>
/home/csk/Desktop/cluster/DUD-E-result/aofb

> <s_m_Source_File>
dock_pv.maegz

> <i_m_Source_File_Index>
533

> <chembl_id>
CHEMBL3735202

> <chembl_pref_name>
None

> <i_lp_mmshare_version>
53161

> <i_f3d_flags>
0

> <r_lp_tautomer_probability>
1

> <s_lp_Force_Field>
OPLS_2005

> <r_lp_Energy>
8.150212

> <b_lp_Chiralities_Consistent>
1

> <s_lp_Variant>
CHEMBL2039_lig1564-1

> <s_i_glide_gridfile>
glide-grid_1s3b

> <i_i_glide_lignum>
1825

> <i_i_glide_rotatable_bonds>
4

> <r_i_docking_score>
-6.80968045071215

> <r_i_glide_ligand_efficiency>
-0.358404234248008

> <r_i_glide_ligand_efficiency_sa>
-0.956366448637656

> <r_i_glide_ligand_efficiency_ln>
-1.72640025278099

> <r_i_glide_gscore>
-6.80968045071215

> <r_i_glide_lipo>
-3.30930334427685

> <r_i_glide_hbond>
-0.00109072752568727

> <r_i_glide_metal>
0

> <r_i_glide_rewards>
-2.72324733982324

> <r_i_glide_evdw>
-28.8166561126709

> <r_i_glide_ecoul>
1.05975091457367

> <r_i_glide_erotb>
0.505831129361119

> <r_i_glide_esite>
0

> <r_i_glide_emodel>
-35.5550645634875

> <r_i_glide_energy>
-27.7569051980972

> <r_i_glide_einternal>
3.02819418907166

> <i_i_glide_confnum>
2

> <i_i_glide_posenum>
209

> <r_i_glide_eff_state_penalty>
0

> <s_user_duplicate_titles>
CHEMBL2039_lig1564

> <s_m_subgroup_title>
dock_pv

> <s_m_subgroupid>
dock_pv

> <b_m_subgroup_collapsed>
1

$$$$
CHEMBL2039_lig1507
                    3D
 Schrodinger Suite 2021-1.
 35 37  0  0  1  0            999 V2000
   46.8560  160.2440   32.1767 N   0  0  0  0  0  0
   47.8406  160.0090   31.6195 C   0  0  0  0  0  0
   49.0798  159.7063   30.9231 C   0  0  0  0  0  0
   50.1361  160.6187   30.9278 C   0  0  0  0  0  0
   51.3356  160.2951   30.2975 C   0  0  0  0  0  0
   51.4924  159.0514   29.6859 C   0  0  0  0  0  0
   50.4560  158.1114   29.7041 C   0  0  0  0  0  0
   50.6354  156.6617   29.2483 C   0  0  0  0  0  0
   51.8203  156.3910   28.4409 N   0  0  1  0  0  0
   51.9994  154.9833   28.0919 C   0  0  1  0  0  0
   50.7831  154.1033   27.8889 C   0  0  0  0  0  0
   51.5581  154.6077   26.6882 C   0  0  2  0  0  0
   52.2125  153.5965   25.7673 C   0  0  0  0  0  0
   52.7255  154.0388   24.5476 C   0  0  0  0  0  0
   53.2560  153.1185   23.6546 C   0  0  0  0  0  0
   53.2560  151.7709   23.9978 C   0  0  0  0  0  0
   52.8560  151.3295   25.2425 C   0  0  0  0  0  0
   52.2887  152.2440   26.1053 C   0  0  0  0  0  0
   49.2390  158.4675   30.2993 C   0  0  0  0  0  0
   50.0485  161.5643   31.4422 H   0  0  0  0  0  0
   52.1596  160.9927   30.3178 H   0  0  0  0  0  0
   52.4533  158.7998   29.2600 H   0  0  0  0  0  0
   50.7842  156.0344   30.1040 H   0  0  0  0  0  0
   49.6975  156.2440   28.9040 H   0  0  0  0  0  0
   51.9290  157.0048   27.6461 H   0  0  0  0  0  0
   52.8560  154.4955   28.5479 H   0  0  0  0  0  0
   50.8720  153.0924   28.2771 H   0  0  0  0  0  0
   49.7724  154.4457   28.0855 H   0  0  0  0  0  0
   51.2560  155.4976   26.1424 H   0  0  0  0  0  0
   52.6881  155.0840   24.2820 H   0  0  0  0  0  0
   53.6281  153.4351   22.6922 H   0  0  0  0  0  0
   53.6356  151.0453   23.3040 H   0  0  0  0  0  0
   52.8972  150.2809   25.4982 H   0  0  0  0  0  0
   51.8869  151.8601   27.0232 H   0  0  0  0  0  0
   48.4382  157.7412   30.3344 H   0  0  0  0  0  0
  1  2  3  0  0  0
  2  3  1  0  0  0
  3  4  2  0  0  0
  3 19  1  0  0  0
  4  5  1  0  0  0
  4 20  1  0  0  0
  5  6  2  0  0  0
  5 21  1  0  0  0
  6  7  1  0  0  0
  6 22  1  0  0  0
  7  8  1  0  0  0
  7 19  2  0  0  0
  8  9  1  0  0  0
  8 23  1  0  0  0
  8 24  1  0  0  0
  9 10  1  0  0  0
  9 25  1  0  0  0
 10 11  1  0  0  0
 10 12  1  0  0  0
 10 26  1  0  0  0
 11 12  1  0  0  0
 11 27  1  0  0  0
 11 28  1  0  0  0
 12 13  1  0  0  0
 12 29  1  0  0  0
 13 14  2  0  0  0
 13 18  1  0  0  0
 14 15  1  0  0  0
 14 30  1  0  0  0
 15 16  2  0  0  0
 15 31  1  0  0  0
 16 17  1  0  0  0
 16 32  1  0  0  0
 17 18  2  0  0  0
 17 33  1  0  0  0
 18 34  1  0  0  0
 19 35  1  0  0  0
M  END
> <s_m_entry_id>
10498

> <s_m_entry_name>
dock_pv.534

> <s_m_Source_Path>
/home/csk/Desktop/cluster/DUD-E-result/aofb

> <s_m_Source_File>
dock_pv.maegz

> <i_m_Source_File_Index>
534

> <chembl_id>
CHEMBL3651118

> <chembl_pref_name>
None

> <i_lp_mmshare_version>
53161

> <i_f3d_flags>
0

> <r_lp_tautomer_probability>
1

> <s_lp_Force_Field>
OPLS_2005

> <r_lp_Energy>
20.993118

> <b_lp_Chiralities_Consistent>
1

> <s_lp_Variant>
CHEMBL2039_lig1507-2

> <s_i_glide_gridfile>
glide-grid_1s3b

> <i_i_glide_lignum>
1738

> <i_i_glide_rotatable_bonds>
4

> <r_i_docking_score>
-6.80862046240189

> <r_i_glide_ligand_efficiency>
-0.358348445389573

> <r_i_glide_ligand_efficiency_sa>
-0.956217581555975

> <r_i_glide_ligand_efficiency_ln>
-1.72613152297788

> <r_i_glide_gscore>
-6.80862046240189

> <r_i_glide_lipo>
-3.83173004442395

> <r_i_glide_hbond>
0

> <r_i_glide_metal>
0

> <r_i_glide_rewards>
-3.06598404545455

> <r_i_glide_evdw>
-21.9707794189453

> <r_i_glide_ecoul>
0.364233940839767

> <r_i_glide_erotb>
1.13299750729791

> <r_i_glide_esite>
0

> <r_i_glide_emodel>
-19.8287405097931

> <r_i_glide_energy>
-21.6065454781055

> <r_i_glide_einternal>
10.318717956543

> <i_i_glide_confnum>
107

> <i_i_glide_posenum>
245

> <r_i_glide_eff_state_penalty>
0

> <s_user_duplicate_titles>
CHEMBL2039_lig1507

> <s_m_subgroup_title>
dock_pv

> <s_m_subgroupid>
dock_pv

> <b_m_subgroup_collapsed>
1

$$$$
CHEMBL2039_lig925
                    3D
 Schrodinger Suite 2021-1.
 37 38  0  0  1  0            999 V2000
   46.3553  159.8086   31.6838 C   0  0  0  0  0  0
   46.8704  159.2842   30.5061 C   0  0  0  0  0  0
   48.2188  159.4540   30.2035 C   0  0  0  0  0  0
   49.0921  160.1121   31.0900 C   0  0  0  0  0  0
   48.5343  160.6888   32.2516 C   0  0  0  0  0  0
   47.1858  160.5162   32.5461 C   0  0  0  0  0  0
   49.2562  161.4440   33.1389 O   0  0  0  0  0  0
   50.5598  160.2440   30.7602 C   0  0  0  0  0  0
   51.2637  161.0932   31.3026 O   0  0  0  0  0  0
   51.2304  159.3173   29.8521 C   0  0  0  0  0  0
   50.9016  158.0208   29.7039 C   0  0  0  0  0  0
   51.5523  157.1599   28.7464 C   0  0  0  0  0  0
   51.1852  155.8788   28.5560 C   0  0  0  0  0  0
   51.6560  155.0237   27.4584 C   0  0  0  0  0  0
   52.0571  155.5968   26.2489 C   0  0  0  0  0  0
   52.4572  154.7949   25.1928 C   0  0  0  0  0  0
   52.4477  153.4007   25.3276 C   0  0  0  0  0  0
   51.9988  152.8300   26.5148 C   0  0  0  0  0  0
   51.6159  153.6339   27.5847 C   0  0  0  0  0  0
   52.8570  152.5277   24.3471 O   0  0  0  0  0  0
   53.2559  153.0615   23.0959 C   0  0  0  0  0  0
   45.3073  159.6861   31.9164 H   0  0  0  0  0  0
   46.2230  158.7553   29.8214 H   0  0  0  0  0  0
   48.5660  159.0579   29.2620 H   0  0  0  0  0  0
   46.7765  160.9516   33.4459 H   0  0  0  0  0  0
   50.1847  161.5397   32.8848 H   0  0  0  0  0  0
   52.0565  159.7356   29.3009 H   0  0  0  0  0  0
   50.1058  157.5973   30.3017 H   0  0  0  0  0  0
   52.3331  157.5861   28.1313 H   0  0  0  0  0  0
   50.4333  155.4442   29.2013 H   0  0  0  0  0  0
   52.0608  156.6683   26.1140 H   0  0  0  0  0  0
   52.7804  155.2719   24.2837 H   0  0  0  0  0  0
   51.9557  151.7557   26.5981 H   0  0  0  0  0  0
   51.2804  153.1746   28.5039 H   0  0  0  0  0  0
   53.4561  152.2440   22.4207 H   0  0  0  0  0  0
   52.4563  153.6481   22.6470 H   0  0  0  0  0  0
   54.1556  153.6731   23.1774 H   0  0  0  0  0  0
  1  2  2  0  0  0
  1  6  1  0  0  0
  1 22  1  0  0  0
  2  3  1  0  0  0
  2 23  1  0  0  0
  3  4  2  0  0  0
  3 24  1  0  0  0
  4  5  1  0  0  0
  4  8  1  0  0  0
  5  6  2  0  0  0
  5  7  1  0  0  0
  6 25  1  0  0  0
  7 26  1  0  0  0
  8  9  2  0  0  0
  8 10  1  0  0  0
 10 11  2  0  0  0
 10 27  1  0  0  0
 11 12  1  0  0  0
 11 28  1  0  0  0
 12 13  2  0  0  0
 12 29  1  0  0  0
 13 14  1  0  0  0
 13 30  1  0  0  0
 14 15  2  0  0  0
 14 19  1  0  0  0
 15 16  1  0  0  0
 15 31  1  0  0  0
 16 17  2  0  0  0
 16 32  1  0  0  0
 17 18  1  0  0  0
 17 20  1  0  0  0
 18 19  2  0  0  0
 18 33  1  0  0  0
 19 34  1  0  0  0
 20 21  1  0  0  0
 21 35  1  0  0  0
 21 36  1  0  0  0
 21 37  1  0  0  0
M  END
> <s_m_entry_id>
10499

> <s_m_entry_name>
dock_pv.535

> <s_m_Source_Path>
/home/csk/Desktop/cluster/DUD-E-result/aofb

> <s_m_Source_File>
dock_pv.maegz

> <i_m_Source_File_Index>
535

> <chembl_id>
CHEMBL2332178

> <chembl_pref_name>
None

> <i_lp_mmshare_version>
53161

> <i_f3d_flags>
0

> <r_lp_tautomer_probability>
1

> <s_lp_Force_Field>
OPLS_2005

> <r_lp_Energy>
23.19368

> <b_lp_Chiralities_Consistent>
1

> <s_lp_Variant>
CHEMBL2039_lig925-1

> <s_i_glide_gridfile>
glide-grid_1s3b

> <i_i_glide_lignum>
1072

> <i_i_glide_rotatable_bonds>
6

> <r_i_docking_score>
-6.80425503830263

> <r_i_glide_ligand_efficiency>
-0.324012144681078

> <r_i_glide_ligand_efficiency_sa>
-0.893924938494531

> <r_i_glide_ligand_efficiency_ln>
-1.68233830892841

> <r_i_glide_gscore>
-6.80425503830263

> <r_i_glide_lipo>
-4.3702404490221

> <r_i_glide_hbond>
0

> <r_i_glide_metal>
0

> <r_i_glide_rewards>
-1.08056625478183

> <r_i_glide_evdw>
-42.4963569641113

> <r_i_glide_ecoul>
-0.985799372196198

> <r_i_glide_erotb>
0.919239419536293

> <r_i_glide_esite>
0

> <r_i_glide_emodel>
-55.3881422266221

> <r_i_glide_energy>
-43.4821563363075

> <r_i_glide_einternal>
7.20860862731934

> <i_i_glide_confnum>
3

> <i_i_glide_posenum>
7

> <r_i_glide_eff_state_penalty>
0

> <s_user_duplicate_titles>
CHEMBL2039_lig925

> <s_m_subgroup_title>
dock_pv

> <s_m_subgroupid>
dock_pv

> <b_m_subgroup_collapsed>
1

$$$$
388576
                    3D
 Schrodinger Suite 2021-1.
 41 42  0  0  1  0            999 V2000
   53.3866  152.6338   23.5869 C   0  0  0  0  0  0
   53.4664  151.9232   24.9562 C   0  0  2  0  0  0
   53.0412  150.4308   24.9040 C   0  0  0  0  0  0
   53.6560  149.6167   24.2229 O   0  0  0  0  0  0
   52.0560  150.0262   25.7040 N   0  0  0  0  0  0
   52.8561  152.6440   26.1040 N   0  0  2  0  0  0
   51.7160  153.4995   25.8426 C   0  0  0  0  0  0
   51.6560  154.5299   26.9361 C   0  0  0  0  0  0
   52.2552  155.7795   26.7604 C   0  0  0  0  0  0
   52.0946  156.7561   27.7336 C   0  0  0  0  0  0
   51.2560  156.5111   28.8245 C   0  0  0  0  0  0
   50.7224  155.2419   29.0225 C   0  0  0  0  0  0
   50.9345  154.2440   28.0884 C   0  0  0  0  0  0
   50.8364  157.4747   29.7040 O   0  0  0  0  0  0
   51.0148  158.8555   29.4270 C   0  0  0  0  0  0
   50.0560  159.6169   30.3294 C   0  0  0  0  0  0
   50.5283  160.6028   31.1997 C   0  0  0  0  0  0
   49.6560  161.2057   32.1040 C   0  0  0  0  0  0
   48.3063  160.8580   32.1296 C   0  0  0  0  0  0
   47.8268  159.8930   31.2470 C   0  0  0  0  0  0
   48.6984  159.2737   30.3531 C   0  0  0  0  0  0
   46.1638  159.4440   31.2775 Cl  0  0  0  0  0  0
   54.5260  151.8289   25.1843 H   0  0  0  0  0  0
   53.6560  151.9616   22.7926 H   0  0  0  0  0  0
   52.4030  152.9827   23.3098 H   0  0  0  0  0  0
   54.0560  153.4924   23.5465 H   0  0  0  0  0  0
   51.6529  150.6828   26.3567 H   0  0  0  0  0  0
   51.8171  149.0505   25.7273 H   0  0  0  0  0  0
   53.5570  153.2274   26.5729 H   0  0  0  0  0  0
   51.7887  154.0590   24.9131 H   0  0  0  0  0  0
   50.7952  152.9203   25.8074 H   0  0  0  0  0  0
   52.8354  155.9937   25.8747 H   0  0  0  0  0  0
   52.5456  157.7257   27.5856 H   0  0  0  0  0  0
   50.0980  155.0440   29.8805 H   0  0  0  0  0  0
   50.4848  153.2720   28.2193 H   0  0  0  0  0  0
   52.0520  159.1413   29.6116 H   0  0  0  0  0  0
   50.7770  159.0898   28.3922 H   0  0  0  0  0  0
   51.5752  160.8716   31.2133 H   0  0  0  0  0  0
   50.0391  161.9406   32.7951 H   0  0  0  0  0  0
   47.6384  161.3309   32.8345 H   0  0  0  0  0  0
   48.3226  158.4983   29.7040 H   0  0  0  0  0  0
  1  2  1  0  0  0
  1 24  1  0  0  0
  1 25  1  0  0  0
  1 26  1  0  0  0
  2 23  1  0  0  0
  2  3  1  0  0  0
  2  6  1  0  0  0
  3  4  2  0  0  0
  3  5  1  0  0  0
  5 27  1  0  0  0
  5 28  1  0  0  0
  6  7  1  0  0  0
  6 29  1  0  0  0
  7  8  1  0  0  0
  7 30  1  0  0  0
  7 31  1  0  0  0
  8 13  1  0  0  0
  8  9  2  0  0  0
  9 10  1  0  0  0
  9 32  1  0  0  0
 10 11  2  0  0  0
 10 33  1  0  0  0
 11 12  1  0  0  0
 11 14  1  0  0  0
 12 13  2  0  0  0
 12 34  1  0  0  0
 13 35  1  0  0  0
 14 15  1  0  0  0
 15 16  1  0  0  0
 15 36  1  0  0  0
 15 37  1  0  0  0
 16 21  1  0  0  0
 16 17  2  0  0  0
 17 18  1  0  0  0
 17 38  1  0  0  0
 18 19  2  0  0  0
 18 39  1  0  0  0
 19 20  1  0  0  0
 19 40  1  0  0  0
 20 21  2  0  0  0
 20 22  1  0  0  0
 21 41  1  0  0  0
M  END
> <s_m_entry_id>
11591

> <s_m_entry_name>
ligand_docking-pose.1

> <s_m_Source_Path>
/home/csk/Desktop/cluster/DUD-E-result/aofb

> <s_m_Source_File>
ligand_docking-pose.sdf

> <i_m_Source_File_Index>
1

> <i_lp_mmshare_version>
53161

> <r_lp_tautomer_probability>
1

> <s_lp_Force_Field>
OPLS_2005

> <r_lp_Energy>
14.869973

> <b_lp_Chiralities_Consistent>
1

> <s_lp_Variant>
388576-1

> <s_i_glide_gridfile>
glide-grid_1s3b

> <i_i_glide_lignum>
408

> <i_i_glide_rotatable_bonds>
7

> <r_i_docking_score>
-9.22810295215437

> <r_i_glide_ligand_efficiency>
-0.419459225097926

> <r_i_glide_ligand_efficiency_sa>
-1.17534124511961

> <r_i_glide_ligand_efficiency_ln>
-2.25568496474024

> <r_i_glide_gscore>
-9.22810295215437

> <r_i_glide_lipo>
-4.68358959977238

> <r_i_glide_hbond>
-0.323733482658837

> <r_i_glide_metal>
0

> <r_i_glide_rewards>
-3.17114841407642

> <r_i_glide_evdw>
-20.5402202606201

> <r_i_glide_ecoul>
-7.36441230773926

> <r_i_glide_erotb>
1.10102698536515

> <r_i_glide_esite>
-0.0189855818200013

> <r_i_glide_emodel>
-29.0267879812028

> <r_i_glide_energy>
-27.9046325683594

> <r_i_glide_einternal>
12.5854272842407

> <i_i_glide_confnum>
92

> <i_i_glide_posenum>
193

> <r_i_glide_eff_state_penalty>
0

> <i_f3d_flags>
0

> <s_user_duplicate_titles>
388576

> <s_m_subgroup_title>
dock_pv

> <s_m_subgroupid>
dock_pv1

> <b_m_subgroup_collapsed>
0

$$$$
22018
                    3D
 Schrodinger Suite 2021-1.
 45 46  0  0  1  0            999 V2000
   53.6408  156.3495   24.5040 C   0  0  0  0  0  0
   53.2299  154.9258   24.8980 C   0  0  0  0  0  0
   53.6633  154.0199   24.1894 O   0  0  0  0  0  0
   52.3777  154.7243   26.1208 C   0  0  0  0  0  0
   51.9858  155.8436   26.8800 C   0  0  0  0  0  0
   51.3096  155.7085   28.1040 C   0  0  0  0  0  0
   50.9699  154.4380   28.5378 C   0  0  0  0  0  0
   51.3684  153.3124   27.8314 C   0  0  0  0  0  0
   52.1068  153.4372   26.6594 C   0  0  0  0  0  0
   52.8577  152.3287   26.3122 O   0  0  0  0  0  0
   52.3348  151.5175   25.3027 C   0  0  0  0  0  0
   53.3239  150.5269   24.6567 C   0  0  0  0  0  0
   53.0581  149.0366   24.9620 C   0  0  0  0  0  0
   53.2563  148.2441   23.8232 O   0  0  0  0  0  0
   50.9044  156.7537   28.9097 O   0  0  0  0  0  0
   51.6014  158.0014   28.8411 C   0  0  0  0  0  0
   50.9450  159.0448   29.7454 C   0  0  0  0  0  0
   51.7294  160.0647   30.2934 C   0  0  0  0  0  0
   51.1967  160.9539   31.2227 C   0  0  0  0  0  0
   49.8548  160.8631   31.5828 C   0  0  0  0  0  0
   49.0333  159.8862   31.0121 C   0  0  0  0  0  0
   49.5913  158.9754   30.1039 C   0  0  0  0  0  0
   47.5559  159.8117   31.3935 C   0  0  0  0  0  0
   47.0672  158.5825   31.2315 F   0  0  0  0  0  0
   47.3650  160.1707   32.6643 F   0  0  0  0  0  0
   46.8679  160.6425   30.6124 F   0  0  0  0  0  0
   54.0549  156.8897   25.3498 H   0  0  0  0  0  0
   54.4162  156.3282   23.7361 H   0  0  0  0  0  0
   52.7801  156.9085   24.1380 H   0  0  0  0  0  0
   52.2100  156.8375   26.5320 H   0  0  0  0  0  0
   50.4561  154.3200   29.4794 H   0  0  0  0  0  0
   51.2027  152.3349   28.2603 H   0  0  0  0  0  0
   52.0560  152.2032   24.5053 H   0  0  0  0  0  0
   51.4546  151.0105   25.7040 H   0  0  0  0  0  0
   54.3494  150.7947   24.9061 H   0  0  0  0  0  0
   53.2559  150.6790   23.5775 H   0  0  0  0  0  0
   52.0478  148.8482   25.3069 H   0  0  0  0  0  0
   53.7355  148.6439   25.7038 H   0  0  0  0  0  0
   53.2559  147.3065   24.0743 H   0  0  0  0  0  0
   52.6288  157.8246   29.1482 H   0  0  0  0  0  0
   51.6561  158.4119   27.8376 H   0  0  0  0  0  0
   52.7813  160.1264   30.0553 H   0  0  0  0  0  0
   51.8246  161.7066   31.6789 H   0  0  0  0  0  0
   49.4580  161.5632   32.3039 H   0  0  0  0  0  0
   48.9718  158.1895   29.7042 H   0  0  0  0  0  0
  1  2  1  0  0  0
  1 27  1  0  0  0
  1 28  1  0  0  0
  1 29  1  0  0  0
  2  3  2  0  0  0
  2  4  1  0  0  0
  4  9  1  0  0  0
  4  5  2  0  0  0
  5  6  1  0  0  0
  5 30  1  0  0  0
  6  7  2  0  0  0
  6 15  1  0  0  0
  7  8  1  0  0  0
  7 31  1  0  0  0
  8  9  2  0  0  0
  8 32  1  0  0  0
  9 10  1  0  0  0
 10 11  1  0  0  0
 11 12  1  0  0  0
 11 33  1  0  0  0
 11 34  1  0  0  0
 12 13  1  0  0  0
 12 35  1  0  0  0
 12 36  1  0  0  0
 13 14  1  0  0  0
 13 37  1  0  0  0
 13 38  1  0  0  0
 14 39  1  0  0  0
 15 16  1  0  0  0
 16 17  1  0  0  0
 16 40  1  0  0  0
 16 41  1  0  0  0
 17 22  1  0  0  0
 17 18  2  0  0  0
 18 19  1  0  0  0
 18 42  1  0  0  0
 19 20  2  0  0  0
 19 43  1  0  0  0
 20 21  1  0  0  0
 20 44  1  0  0  0
 21 22  2  0  0  0
 21 23  1  0  0  0
 22 45  1  0  0  0
 23 24  1  0  0  0
 23 25  1  0  0  0
 23 26  1  0  0  0
M  END
> <s_m_entry_id>
11592

> <s_m_entry_name>
ligand_docking-pose.2

> <s_m_Source_Path>
/home/csk/Desktop/cluster/DUD-E-result/aofb

> <s_m_Source_File>
ligand_docking-pose.sdf

> <i_m_Source_File_Index>
2

> <i_lp_mmshare_version>
53161

> <r_lp_tautomer_probability>
0.99995

> <s_lp_Force_Field>
OPLS_2005

> <r_lp_Energy>
28.696751

> <b_lp_Chiralities_Consistent>
1

> <s_lp_Variant>
22018-1

> <s_i_glide_gridfile>
glide-grid_1s3b

> <i_i_glide_lignum>
445

> <i_i_glide_rotatable_bonds>
10

> <r_i_docking_score>
-9.09595141077449

> <r_i_glide_ligand_efficiency>
-0.349844285029788

> <r_i_glide_ligand_efficiency_sa>
-1.03641231782996

> <r_i_glide_ligand_efficiency_ln>
-2.13615434256944

> <r_i_glide_gscore>
-9.09595141077449

> <r_i_glide_lipo>
-4.06637924682427

> <r_i_glide_hbond>
-0.424109560778819

> <r_i_glide_metal>
0

> <r_i_glide_rewards>
-3.25535006501604

> <r_i_glide_evdw>
-27.1000804901123

> <r_i_glide_ecoul>
-6.59486436843872

> <r_i_glide_erotb>
0.994121141616056

> <r_i_glide_esite>
0

> <r_i_glide_emodel>
-28.6754474747305

> <r_i_glide_energy>
-33.694944858551

> <r_i_glide_einternal>
13.2161626815796

> <i_i_glide_confnum>
2

> <i_i_glide_posenum>
160

> <r_i_glide_eff_state_penalty>
0

> <i_f3d_flags>
0

> <s_user_duplicate_titles>
22018

> <s_m_subgroup_title>
dock_pv

> <s_m_subgroupid>
dock_pv1

> <b_m_subgroup_collapsed>
0

$$$$
135095
                    3D
 Schrodinger Suite 2021-1.
 41 42  0  0  1  0            999 V2000
   53.4089  152.3896   23.6651 C   0  0  0  0  0  0
   53.5646  151.5417   24.9495 C   0  0  2  0  0  0
   53.0586  150.0703   24.9040 C   0  0  0  0  0  0
   53.6151  149.2578   24.1710 O   0  0  0  0  0  0
   52.0560  149.6836   25.7040 N   0  0  0  0  0  0
   53.0672  152.2549   26.1270 N   0  0  2  0  0  0
   51.7090  152.7693   26.0700 C   0  0  0  0  0  0
   51.6557  153.9909   26.9259 C   0  0  0  0  0  0
   52.1019  155.2246   26.4444 C   0  0  0  0  0  0
   52.0561  156.3394   27.2743 C   0  0  0  0  0  0
   51.3955  156.2295   28.5040 C   0  0  0  0  0  0
   50.9637  154.9957   28.9668 C   0  0  0  0  0  0
   51.1523  153.8626   28.2047 C   0  0  0  0  0  0
   51.0221  157.2674   29.3074 O   0  0  0  0  0  0
   51.4057  158.6058   29.0872 C   0  0  0  0  0  0
   50.5609  159.4435   30.0301 C   0  0  0  0  0  0
   51.1454  160.4975   30.7242 C   0  0  0  0  0  0
   50.4000  161.1964   31.6639 C   0  0  0  0  0  0
   49.0705  160.8638   31.9234 C   0  0  0  0  0  0
   48.4733  159.8260   31.2129 C   0  0  0  0  0  0
   49.2132  159.1255   30.2619 C   0  0  0  0  0  0
   47.1806  159.5016   31.4418 F   0  0  0  0  0  0
   54.6340  151.4162   25.0960 H   0  0  0  0  0  0
   53.6560  151.8440   22.7836 H   0  0  0  0  0  0
   52.4219  152.7623   23.4557 H   0  0  0  0  0  0
   54.0560  153.2660   23.6988 H   0  0  0  0  0  0
   51.7153  150.3169   26.4122 H   0  0  0  0  0  0
   51.7801  148.7182   25.6824 H   0  0  0  0  0  0
   53.6879  153.0219   26.3933 H   0  0  0  0  0  0
   51.3676  153.0837   25.0905 H   0  0  0  0  0  0
   51.0009  152.0181   26.4200 H   0  0  0  0  0  0
   52.5238  155.3063   25.4533 H   0  0  0  0  0  0
   52.4104  157.2922   26.9123 H   0  0  0  0  0  0
   50.4848  154.9145   29.9314 H   0  0  0  0  0  0
   50.8559  152.8971   28.5855 H   0  0  0  0  0  0
   52.4655  158.7196   29.3038 H   0  0  0  0  0  0
   51.2441  158.9454   28.0766 H   0  0  0  0  0  0
   52.1764  160.7706   30.5496 H   0  0  0  0  0  0
   50.8559  162.0621   32.1041 H   0  0  0  0  0  0
   48.4976  161.4277   32.6441 H   0  0  0  0  0  0
   48.7433  158.3138   29.7276 H   0  0  0  0  0  0
  1  2  1  0  0  0
  1 24  1  0  0  0
  1 25  1  0  0  0
  1 26  1  0  0  0
  2 23  1  0  0  0
  2  3  1  0  0  0
  2  6  1  0  0  0
  3  4  2  0  0  0
  3  5  1  0  0  0
  5 27  1  0  0  0
  5 28  1  0  0  0
  6  7  1  0  0  0
  6 29  1  0  0  0
  7  8  1  0  0  0
  7 30  1  0  0  0
  7 31  1  0  0  0
  8 13  1  0  0  0
  8  9  2  0  0  0
  9 10  1  0  0  0
  9 32  1  0  0  0
 10 11  2  0  0  0
 10 33  1  0  0  0
 11 12  1  0  0  0
 11 14  1  0  0  0
 12 13  2  0  0  0
 12 34  1  0  0  0
 13 35  1  0  0  0
 14 15  1  0  0  0
 15 16  1  0  0  0
 15 36  1  0  0  0
 15 37  1  0  0  0
 16 21  1  0  0  0
 16 17  2  0  0  0
 17 18  1  0  0  0
 17 38  1  0  0  0
 18 19  2  0  0  0
 18 39  1  0  0  0
 19 20  1  0  0  0
 19 40  1  0  0  0
 20 21  2  0  0  0
 20 22  1  0  0  0
 21 41  1  0  0  0
M  END
> <s_m_entry_id>
11593

> <s_m_entry_name>
ligand_docking-pose.3

> <s_m_Source_Path>
/home/csk/Desktop/cluster/DUD-E-result/aofb

> <s_m_Source_File>
ligand_docking-pose.sdf

> <i_m_Source_File_Index>
3

> <i_lp_mmshare_version>
53161

> <r_lp_tautomer_probability>
1

> <s_lp_Force_Field>
OPLS_2005

> <r_lp_Energy>
15.011854

> <b_lp_Chiralities_Consistent>
1

> <s_lp_Variant>
135095-1

> <s_i_glide_gridfile>
glide-grid_1s3b

> <i_i_glide_lignum>
410

> <i_i_glide_rotatable_bonds>
7

> <r_i_docking_score>
-9.06305354652488

> <r_i_glide_ligand_efficiency>
-0.411956979387495

> <r_i_glide_ligand_efficiency_sa>
-1.1543196575924

> <r_i_glide_ligand_efficiency_ln>
-2.21534086968104

> <r_i_glide_gscore>
-9.06305354652488

> <r_i_glide_lipo>
-4.18285286606798

> <r_i_glide_hbond>
-0.446381773705848

> <r_i_glide_metal>
0

> <r_i_glide_rewards>
-3.89714138184002

> <r_i_glide_evdw>
-14.358736038208

> <r_i_glide_ecoul>
-6.71726655960083

> <r_i_glide_erotb>
1.20842597999157

> <r_i_glide_esite>
-0.0195767190520709

> <r_i_glide_emodel>
-23.7568844956536

> <r_i_glide_energy>
-21.0760025978088

> <r_i_glide_einternal>
7.24905443191528

> <i_i_glide_confnum>
164

> <i_i_glide_posenum>
216

> <r_i_glide_eff_state_penalty>
0

> <i_f3d_flags>
0

> <s_user_duplicate_titles>
135095

> <s_m_subgroup_title>
dock_pv

> <s_m_subgroupid>
dock_pv1

> <b_m_subgroup_collapsed>
0

$$$$
573369
                    3D
 Schrodinger Suite 2021-1.
 39 41  0  0  1  0            999 V2000
   53.2798  150.0845   24.9040 C   0  0  0  0  0  0
   53.6206  151.4439   25.3040 N   0  0  2  0  0  0
   52.4361  152.2833   25.2084 C   0  0  0  0  0  0
   52.6851  153.7638   25.3039 C   0  0  0  0  0  0
   53.5999  154.2961   24.4630 C   0  0  0  0  0  0
   53.9798  155.6925   24.5041 C   0  0  0  0  0  0
   54.8559  156.2436   23.8401 O   0  0  0  0  0  0
   53.2558  156.4771   25.3880 O   0  0  0  0  0  0
   52.4609  155.9253   26.3910 C   0  0  0  0  0  0
   52.0560  154.5846   26.3784 C   0  0  0  0  0  0
   51.2973  154.1048   27.4606 C   0  0  0  0  0  0
   50.9328  154.9698   28.5040 C   0  0  0  0  0  0
   51.3316  156.3086   28.5040 C   0  0  0  0  0  0
   52.1585  156.7515   27.4657 C   0  0  0  0  0  0
   50.8098  157.1594   29.4636 O   0  0  0  0  0  0
   51.0265  158.5779   29.3776 C   0  0  0  0  0  0
   50.0550  159.3278   30.2841 C   0  0  0  0  0  0
   50.5101  160.3930   31.0689 C   0  0  0  0  0  0
   49.6430  161.0440   31.9473 C   0  0  0  0  0  0
   48.3065  160.6515   32.0295 C   0  0  0  0  0  0
   47.8380  159.6091   31.2319 C   0  0  0  0  0  0
   48.7084  158.9506   30.3641 C   0  0  0  0  0  0
   46.5420  159.2313   31.3041 F   0  0  0  0  0  0
   54.1699  149.4553   24.9042 H   0  0  0  0  0  0
   52.8701  150.0579   23.8933 H   0  0  0  0  0  0
   52.5525  149.6422   25.5870 H   0  0  0  0  0  0
   54.3377  151.8064   24.6847 H   0  0  0  0  0  0
   52.0560  152.2161   24.1971 H   0  0  0  0  0  0
   51.6560  151.9341   25.8820 H   0  0  0  0  0  0
   54.0742  153.6650   23.7266 H   0  0  0  0  0  0
   50.9999  153.0698   27.5257 H   0  0  0  0  0  0
   50.3212  154.6094   29.3160 H   0  0  0  0  0  0
   52.5198  157.7678   27.4414 H   0  0  0  0  0  0
   52.0560  158.7968   29.6626 H   0  0  0  0  0  0
   50.8734  158.9793   28.3773 H   0  0  0  0  0  0
   51.5459  160.6998   31.0284 H   0  0  0  0  0  0
   50.0147  161.8469   32.5667 H   0  0  0  0  0  0
   47.6327  161.1537   32.7073 H   0  0  0  0  0  0
   48.3306  158.1368   29.7655 H   0  0  0  0  0  0
  1  2  1  0  0  0
  1 24  1  0  0  0
  1 25  1  0  0  0
  1 26  1  0  0  0
  2  3  1  0  0  0
  2 27  1  0  0  0
  3  4  1  0  0  0
  3 28  1  0  0  0
  3 29  1  0  0  0
  4 10  1  0  0  0
  4  5  2  0  0  0
  5  6  1  0  0  0
  5 30  1  0  0  0
  6  7  2  0  0  0
  6  8  1  0  0  0
  8  9  1  0  0  0
  9 14  1  0  0  0
  9 10  2  0  0  0
 10 11  1  0  0  0
 11 12  2  0  0  0
 11 31  1  0  0  0
 12 13  1  0  0  0
 12 32  1  0  0  0
 13 14  2  0  0  0
 13 15  1  0  0  0
 14 33  1  0  0  0
 15 16  1  0  0  0
 16 17  1  0  0  0
 16 34  1  0  0  0
 16 35  1  0  0  0
 17 22  1  0  0  0
 17 18  2  0  0  0
 18 19  1  0  0  0
 18 36  1  0  0  0
 19 20  2  0  0  0
 19 37  1  0  0  0
 20 21  1  0  0  0
 20 38  1  0  0  0
 21 22  2  0  0  0
 21 23  1  0  0  0
 22 39  1  0  0  0
M  END
> <s_m_entry_id>
11598

> <s_m_entry_name>
ligand_docking-pose.8

> <s_m_Source_Path>
/home/csk/Desktop/cluster/DUD-E-result/aofb

> <s_m_Source_File>
ligand_docking-pose.sdf

> <i_m_Source_File_Index>
8

> <i_lp_mmshare_version>
53161

> <r_lp_tautomer_probability>
1

> <s_lp_Force_Field>
OPLS_2005

> <r_lp_Energy>
21.589026

> <b_lp_Chiralities_Consistent>
1

> <s_lp_Variant>
573369-1

> <s_i_glide_gridfile>
glide-grid_1s3b

> <i_i_glide_lignum>
502

> <i_i_glide_rotatable_bonds>
5

> <r_i_docking_score>
-8.54963540384092

> <r_i_glide_ligand_efficiency>
-0.371723278427866

> <r_i_glide_ligand_efficiency_sa>
-1.0571315560583

> <r_i_glide_ligand_efficiency_ln>
-2.06737936445645

> <r_i_glide_gscore>
-8.54963540384092

> <r_i_glide_lipo>
-4.41150384664142

> <r_i_glide_hbond>
-0.273096157047825

> <r_i_glide_metal>
0

> <r_i_glide_rewards>
-2.62191717737949

> <r_i_glide_evdw>
-29.9584255218506

> <r_i_glide_ecoul>
-3.34621930122375

> <r_i_glide_erotb>
0.75673594850391

> <r_i_glide_esite>
0

> <r_i_glide_emodel>
-37.3557837601376

> <r_i_glide_energy>
-33.3046448230743

> <r_i_glide_einternal>
8.08283424377441

> <i_i_glide_confnum>
24

> <i_i_glide_posenum>
350

> <r_i_glide_eff_state_penalty>
0

> <i_f3d_flags>
0

> <s_user_duplicate_titles>
573369

> <s_m_subgroup_title>
dock_pv

> <s_m_subgroupid>
dock_pv1

> <b_m_subgroup_collapsed>
0

$$$$
239660
                    3D
 Schrodinger Suite 2021-1.
 38 40  0  0  1  0            999 V2000
   49.9219  160.5736   31.5804 C   0  0  0  0  0  0
   49.0135  161.0738   32.5041 C   0  0  0  0  0  0
   47.7200  160.5675   32.5450 C   0  0  0  0  0  0
   47.3136  159.5716   31.6613 C   0  0  0  0  0  0
   48.2254  159.0561   30.7448 C   0  0  0  0  0  0
   49.5353  159.5461   30.7170 C   0  0  0  0  0  0
   50.5567  158.9421   29.7712 C   0  0  0  0  0  0
   50.4560  157.5172   29.8091 O   0  0  0  0  0  0
   51.1815  156.7759   28.9040 C   0  0  0  0  0  0
   52.1757  157.3295   28.1051 C   0  0  0  0  0  0
   52.5867  156.6441   26.9872 C   0  0  0  0  0  0
   52.0755  155.3816   26.6996 C   0  0  0  0  0  0
   51.2561  154.7345   27.6323 C   0  0  0  0  0  0
   50.8023  155.4440   28.7371 C   0  0  0  0  0  0
   52.5602  154.7393   25.4511 C   0  0  0  0  0  0
   53.5766  155.2284   24.7521 N   0  0  0  0  0  0
   53.9525  154.2306   23.8960 N   0  0  0  0  0  0
   53.0315  153.2921   24.1040 N   0  0  2  0  0  0
   52.1387  153.5670   25.0550 N   0  0  0  0  0  0
   53.2560  151.9375   23.6800 C   0  0  0  0  0  0
   53.5076  151.0241   24.8956 C   0  0  0  0  0  0
   53.3705  149.6007   24.5840 C   0  0  0  0  0  0
   53.2560  148.4803   24.3407 N   0  0  0  0  0  0
   46.8559  161.0446   33.4611 F   0  0  0  0  0  0
   50.9317  160.9598   31.5692 H   0  0  0  0  0  0
   49.3191  161.8440   33.1962 H   0  0  0  0  0  0
   46.3031  159.1926   31.7008 H   0  0  0  0  0  0
   47.9229  158.2645   30.0746 H   0  0  0  0  0  0
   51.5634  159.2441   30.0683 H   0  0  0  0  0  0
   50.3669  159.3292   28.7684 H   0  0  0  0  0  0
   52.5563  158.3221   28.2712 H   0  0  0  0  0  0
   53.3042  157.1179   26.3391 H   0  0  0  0  0  0
   50.9150  153.7233   27.4656 H   0  0  0  0  0  0
   50.0771  155.0011   29.4028 H   0  0  0  0  0  0
   54.0560  151.9539   22.9658 H   0  0  0  0  0  0
   52.4560  151.6026   23.0544 H   0  0  0  0  0  0
   52.7944  151.2093   25.6995 H   0  0  0  0  0  0
   54.5021  151.1983   25.3040 H   0  0  0  0  0  0
  1  6  1  0  0  0
  1  2  2  0  0  0
  1 25  1  0  0  0
  2  3  1  0  0  0
  2 26  1  0  0  0
  3  4  2  0  0  0
  3 24  1  0  0  0
  4  5  1  0  0  0
  4 27  1  0  0  0
  5  6  2  0  0  0
  5 28  1  0  0  0
  6  7  1  0  0  0
  7  8  1  0  0  0
  7 29  1  0  0  0
  7 30  1  0  0  0
  8  9  1  0  0  0
  9 14  1  0  0  0
  9 10  2  0  0  0
 10 11  1  0  0  0
 10 31  1  0  0  0
 11 12  2  0  0  0
 11 32  1  0  0  0
 12 13  1  0  0  0
 12 15  1  0  0  0
 13 14  2  0  0  0
 13 33  1  0  0  0
 14 34  1  0  0  0
 15 19  2  0  0  0
 15 16  1  0  0  0
 16 17  2  0  0  0
 17 18  1  0  0  0
 18 19  1  0  0  0
 18 20  1  0  0  0
 20 21  1  0  0  0
 20 35  1  0  0  0
 20 36  1  0  0  0
 21 22  1  0  0  0
 21 37  1  0  0  0
 21 38  1  0  0  0
 22 23  3  0  0  0
M  END
> <s_m_entry_id>
11601

> <s_m_entry_name>
ligand_docking-pose.11

> <s_m_Source_Path>
/home/csk/Desktop/cluster/DUD-E-result/aofb

> <s_m_Source_File>
ligand_docking-pose.sdf

> <i_m_Source_File_Index>
11

> <i_lp_mmshare_version>
53161

> <r_lp_tautomer_probability>
1

> <s_lp_Force_Field>
OPLS_2005

> <r_lp_Energy>
18.949193

> <b_lp_Chiralities_Consistent>
1

> <s_lp_Variant>
239660-1

> <s_i_glide_gridfile>
glide-grid_1s3b

> <i_i_glide_lignum>
152

> <i_i_glide_rotatable_bonds>
6

> <r_i_docking_score>
-8.42634163408386

> <r_i_glide_ligand_efficiency>
-0.351097568086828

> <r_i_glide_ligand_efficiency_sa>
-1.01274063234556

> <r_i_glide_ligand_efficiency_ln>
-2.01681021265878

> <r_i_glide_gscore>
-8.42634163408386

> <r_i_glide_lipo>
-3.99709146452027

> <r_i_glide_hbond>
0

> <r_i_glide_metal>
0

> <r_i_glide_rewards>
-3.43118459747524

> <r_i_glide_evdw>
-32.600284576416

> <r_i_glide_ecoul>
-1.75369429588318

> <r_i_glide_erotb>
0.895002801114935

> <r_i_glide_esite>
0

> <r_i_glide_emodel>
-40.5987975603659

> <r_i_glide_energy>
-34.3539788722992

> <r_i_glide_einternal>
8.29547023773193

> <i_i_glide_confnum>
17

> <i_i_glide_posenum>
145

> <r_i_glide_eff_state_penalty>
0

> <i_f3d_flags>
0

> <s_user_duplicate_titles>
239660

> <s_m_subgroup_title>
dock_pv

> <s_m_subgroupid>
dock_pv1

> <b_m_subgroup_collapsed>
0

$$$$
20399
                    3D
 Schrodinger Suite 2021-1.
 40 42  0  0  1  0            999 V2000
   52.0560  151.8183   25.7373 C   0  0  0  0  0  0
   52.4577  153.2657   25.5032 C   0  0  0  0  0  0
   53.2313  153.6785   24.4643 C   0  0  0  0  0  0
   53.8547  155.0238   24.5040 C   0  0  0  0  0  0
   54.8398  155.4303   23.8823 O   0  0  0  0  0  0
   53.2179  155.9576   25.2613 O   0  0  0  0  0  0
   52.4561  155.5658   26.3400 C   0  0  0  0  0  0
   52.0441  154.2392   26.5354 C   0  0  0  0  0  0
   51.3445  153.9191   27.7058 C   0  0  0  0  0  0
   51.0500  154.9179   28.6294 C   0  0  0  0  0  0
   51.4631  156.2313   28.4121 C   0  0  0  0  0  0
   52.2104  156.5448   27.2823 C   0  0  0  0  0  0
   51.0365  157.1677   29.3041 O   0  0  0  0  0  0
   51.2662  158.5596   29.1106 C   0  0  0  0  0  0
   50.3089  159.2650   30.0419 C   0  0  0  0  0  0
   50.7224  160.3840   30.7591 C   0  0  0  0  0  0
   49.8672  160.9287   31.7056 C   0  0  0  0  0  0
   48.6065  160.3607   31.9210 C   0  0  0  0  0  0
   48.1799  159.2706   31.1717 C   0  0  0  0  0  0
   49.0320  158.7288   30.2338 C   0  0  0  0  0  0
   47.6949  160.9436   32.9682 C   0  0  0  0  0  0
   48.1909  160.7072   34.1756 F   0  0  0  0  0  0
   46.4562  160.4563   32.9041 F   0  0  0  0  0  0
   47.6561  162.2435   32.7550 F   0  0  0  0  0  0
   53.5584  152.8721   23.2124 C   0  0  0  0  0  0
   52.2161  151.1524   24.8995 H   0  0  0  0  0  0
   52.7162  151.4487   26.5040 H   0  0  0  0  0  0
   51.0334  151.7046   26.1040 H   0  0  0  0  0  0
   51.0228  152.9123   27.9254 H   0  0  0  0  0  0
   50.4820  154.6732   29.5145 H   0  0  0  0  0  0
   52.5714  157.5446   27.1086 H   0  0  0  0  0  0
   51.0676  158.9214   28.1048 H   0  0  0  0  0  0
   52.3058  158.7967   29.3399 H   0  0  0  0  0  0
   51.7110  160.7983   30.6245 H   0  0  0  0  0  0
   50.1949  161.7771   32.2918 H   0  0  0  0  0  0
   47.2084  158.8227   31.3257 H   0  0  0  0  0  0
   48.7049  157.8506   29.7041 H   0  0  0  0  0  0
   53.6558  151.8092   23.4176 H   0  0  0  0  0  0
   52.7501  152.9920   22.4923 H   0  0  0  0  0  0
   54.4554  153.2137   22.6929 H   0  0  0  0  0  0
  1  2  1  0  0  0
  1 26  1  0  0  0
  1 27  1  0  0  0
  1 28  1  0  0  0
  2  8  1  0  0  0
  2  3  2  0  0  0
  3  4  1  0  0  0
  3 25  1  0  0  0
  4  5  2  0  0  0
  4  6  1  0  0  0
  6  7  1  0  0  0
  7 12  1  0  0  0
  7  8  2  0  0  0
  8  9  1  0  0  0
  9 10  2  0  0  0
  9 29  1  0  0  0
 10 11  1  0  0  0
 10 30  1  0  0  0
 11 12  2  0  0  0
 11 13  1  0  0  0
 12 31  1  0  0  0
 13 14  1  0  0  0
 14 15  1  0  0  0
 14 32  1  0  0  0
 14 33  1  0  0  0
 15 20  1  0  0  0
 15 16  2  0  0  0
 16 17  1  0  0  0
 16 34  1  0  0  0
 17 18  2  0  0  0
 17 35  1  0  0  0
 18 19  1  0  0  0
 18 21  1  0  0  0
 19 20  2  0  0  0
 19 36  1  0  0  0
 20 37  1  0  0  0
 21 22  1  0  0  0
 21 23  1  0  0  0
 21 24  1  0  0  0
 25 38  1  0  0  0
 25 39  1  0  0  0
 25 40  1  0  0  0
M  END
> <s_m_entry_id>
11602

> <s_m_entry_name>
ligand_docking-pose.12

> <s_m_Source_Path>
/home/csk/Desktop/cluster/DUD-E-result/aofb

> <s_m_Source_File>
ligand_docking-pose.sdf

> <i_m_Source_File_Index>
12

> <i_lp_mmshare_version>
53161

> <r_lp_tautomer_probability>
1

> <s_lp_Force_Field>
OPLS_2005

> <r_lp_Energy>
25.184758

> <b_lp_Chiralities_Consistent>
1

> <s_lp_Variant>
20399-1

> <s_i_glide_gridfile>
glide-grid_1s3b

> <i_i_glide_lignum>
285

> <i_i_glide_rotatable_bonds>
4

> <r_i_docking_score>
-8.37570281243415

> <r_i_glide_ligand_efficiency>
-0.335028112497366

> <r_i_glide_ligand_efficiency_sa>
-0.979628142691173

> <r_i_glide_ligand_efficiency_ln>
-1.98529256610576

> <r_i_glide_gscore>
-8.37570281243415

> <r_i_glide_lipo>
-4.8455675815763

> <r_i_glide_hbond>
0

> <r_i_glide_metal>
0

> <r_i_glide_rewards>
-2.26036898372171

> <r_i_glide_evdw>
-28.2367839813232

> <r_i_glide_ecoul>
-2.19074511528015

> <r_i_glide_erotb>
0.47068471922205

> <r_i_glide_esite>
0

> <r_i_glide_emodel>
-46.8931746327287

> <r_i_glide_energy>
-30.4275290966034

> <r_i_glide_einternal>
4.01723003387451

> <i_i_glide_confnum>
3

> <i_i_glide_posenum>
306

> <r_i_glide_eff_state_penalty>
0

> <i_f3d_flags>
0

> <s_user_duplicate_titles>
20399

> <s_m_subgroup_title>
dock_pv

> <s_m_subgroupid>
dock_pv1

> <b_m_subgroup_collapsed>
0

$$$$
239257
                    3D
 Schrodinger Suite 2021-1.
 41 43  0  0  1  0            999 V2000
   47.0022  161.3995   33.4202 C   0  0  0  0  0  0
   47.9470  160.8829   32.3738 C   0  0  0  0  0  0
   47.4677  160.1176   31.3096 C   0  0  0  0  0  0
   48.3642  159.5961   30.3863 C   0  0  0  0  0  0
   49.7297  159.8440   30.5359 C   0  0  0  0  0  0
   50.1985  160.6440   31.5777 C   0  0  0  0  0  0
   49.3014  161.1570   32.5040 C   0  0  0  0  0  0
   50.7098  159.1786   29.6016 C   0  0  0  0  0  0
   50.5995  157.7713   29.7819 O   0  0  0  0  0  0
   51.2560  156.9470   28.9040 C   0  0  0  0  0  0
   52.2698  157.4002   28.0682 C   0  0  0  0  0  0
   52.6118  156.6437   26.9683 C   0  0  0  0  0  0
   52.0561  155.3756   26.7886 C   0  0  0  0  0  0
   51.2560  154.8212   27.7910 C   0  0  0  0  0  0
   50.8364  155.6204   28.8451 C   0  0  0  0  0  0
   52.4560  154.5968   25.5884 C   0  0  0  0  0  0
   53.3371  155.0423   24.7037 N   0  0  0  0  0  0
   53.6560  153.9620   23.9204 N   0  0  0  0  0  0
   52.8710  153.0030   24.3941 N   0  0  3  0  0  0
   52.0782  153.3567   25.4042 N   0  0  0  0  0  0
   53.0526  151.6282   24.0025 C   0  0  0  0  0  0
   52.8558  150.6655   25.1774 C   0  0  0  0  0  0
   53.2560  149.3078   24.8075 C   0  0  0  0  0  0
   53.5751  148.2440   24.5040 N   0  0  0  0  0  0
   47.3777  161.2011   34.4248 H   0  0  0  0  0  0
   46.8560  162.4714   33.3040 H   0  0  0  0  0  0
   46.0560  160.8896   33.3040 H   0  0  0  0  0  0
   46.4123  159.9075   31.2083 H   0  0  0  0  0  0
   48.0042  158.9755   29.5786 H   0  0  0  0  0  0
   51.2552  160.8364   31.7016 H   0  0  0  0  0  0
   49.6632  161.7534   33.3278 H   0  0  0  0  0  0
   51.7264  159.5185   29.8092 H   0  0  0  0  0  0
   50.4583  159.4516   28.5753 H   0  0  0  0  0  0
   52.7005  158.3775   28.1768 H   0  0  0  0  0  0
   53.3190  157.0440   26.2601 H   0  0  0  0  0  0
   50.8845  153.8098   27.7138 H   0  0  0  0  0  0
   50.1153  155.2436   29.5550 H   0  0  0  0  0  0
   54.0560  151.5211   23.6509 H   0  0  0  0  0  0
   52.4562  151.4102   23.1226 H   0  0  0  0  0  0
   51.8193  150.6358   25.5128 H   0  0  0  0  0  0
   53.4621  150.9938   26.0206 H   0  0  0  0  0  0
  1  2  1  0  0  0
  1 25  1  0  0  0
  1 26  1  0  0  0
  1 27  1  0  0  0
  2  7  1  0  0  0
  2  3  2  0  0  0
  3  4  1  0  0  0
  3 28  1  0  0  0
  4  5  2  0  0  0
  4 29  1  0  0  0
  5  6  1  0  0  0
  5  8  1  0  0  0
  6  7  2  0  0  0
  6 30  1  0  0  0
  7 31  1  0  0  0
  8  9  1  0  0  0
  8 32  1  0  0  0
  8 33  1  0  0  0
  9 10  1  0  0  0
 10 15  1  0  0  0
 10 11  2  0  0  0
 11 12  1  0  0  0
 11 34  1  0  0  0
 12 13  2  0  0  0
 12 35  1  0  0  0
 13 14  1  0  0  0
 13 16  1  0  0  0
 14 15  2  0  0  0
 14 36  1  0  0  0
 15 37  1  0  0  0
 16 20  2  0  0  0
 16 17  1  0  0  0
 17 18  2  0  0  0
 18 19  1  0  0  0
 19 20  1  0  0  0
 19 21  1  0  0  0
 21 22  1  0  0  0
 21 38  1  0  0  0
 21 39  1  0  0  0
 22 23  1  0  0  0
 22 40  1  0  0  0
 22 41  1  0  0  0
 23 24  3  0  0  0
M  END
> <s_m_entry_id>
11604

> <s_m_entry_name>
ligand_docking-pose.14

> <s_m_Source_Path>
/home/csk/Desktop/cluster/DUD-E-result/aofb

> <s_m_Source_File>
ligand_docking-pose.sdf

> <i_m_Source_File_Index>
14

> <i_lp_mmshare_version>
53161

> <r_lp_tautomer_probability>
1

> <s_lp_Force_Field>
OPLS_2005

> <r_lp_Energy>
19.590708

> <b_lp_Chiralities_Consistent>
1

> <s_lp_Variant>
239257-1

> <s_i_glide_gridfile>
glide-grid_1s3b

> <i_i_glide_lignum>
254

> <i_i_glide_rotatable_bonds>
6

> <r_i_docking_score>
-8.22671092515967

> <r_i_glide_ligand_efficiency>
-0.342779621881653

> <r_i_glide_ligand_efficiency_sa>
-0.988747523690469

> <r_i_glide_ligand_efficiency_ln>
-1.96902942355689

> <r_i_glide_gscore>
-8.22671092515967

> <r_i_glide_lipo>
-4.16633602559452

> <r_i_glide_hbond>
0

> <r_i_glide_metal>
0

> <r_i_glide_rewards>
-3.30880795773713

> <r_i_glide_evdw>
-31.8135890960693

> <r_i_glide_ecoul>
-0.503758430480957

> <r_i_glide_erotb>
0.914676277547588

> <r_i_glide_esite>
0

> <r_i_glide_emodel>
-28.5761922408661

> <r_i_glide_energy>
-32.3173475265503

> <r_i_glide_einternal>
8.7170877456665

> <i_i_glide_confnum>
87

> <i_i_glide_posenum>
53

> <r_i_glide_eff_state_penalty>
0

> <i_f3d_flags>
0

> <s_user_duplicate_titles>
239257

> <s_m_subgroup_title>
dock_pv

> <s_m_subgroupid>
dock_pv1

> <b_m_subgroup_collapsed>
0

$$$$
17902
                    3D
 Schrodinger Suite 2021-1.
 42 44  0  0  1  0            999 V2000
   45.8993  159.4785   31.0464 C   0  0  0  0  0  0
   47.3580  159.8594   31.2045 C   0  0  0  0  0  0
   47.7552  160.7064   32.2413 C   0  0  0  0  0  0
   49.1000  161.0440   32.3905 C   0  0  0  0  0  0
   50.0547  160.5348   31.5103 C   0  0  0  0  0  0
   49.6719  159.6551   30.4936 C   0  0  0  0  0  0
   48.3191  159.3324   30.3382 C   0  0  0  0  0  0
   50.7140  158.9976   29.6005 C   0  0  0  0  0  0
   50.5860  157.5877   29.7583 O   0  0  0  0  0  0
   51.2209  156.7187   28.9040 C   0  0  0  0  0  0
   52.1510  157.1104   27.9439 C   0  0  0  0  0  0
   52.4560  156.2440   26.9043 C   0  0  0  0  0  0
   51.9524  154.9389   26.9088 C   0  0  0  0  0  0
   51.1807  154.4896   27.9796 C   0  0  0  0  0  0
   50.7832  155.3971   28.9479 C   0  0  0  0  0  0
   52.2827  154.0388   25.8123 C   0  0  0  0  0  0
   52.5546  154.3453   24.6238 N   0  0  0  0  0  0
   52.8872  153.1821   24.1018 N   0  0  0  0  0  0
   52.9044  152.1501   25.0209 C   0  0  0  0  0  0
   53.2560  150.9737   24.9290 O   0  0  0  0  0  0
   52.4057  152.7112   26.1040 O   0  0  0  0  0  0
   53.3524  153.0656   22.7367 C   0  0  0  0  0  0
   54.6726  153.8440   22.5040 C   0  0  0  0  0  0
   55.4562  153.3828   21.3040 C   0  0  0  0  0  0
   56.0560  153.0440   20.3649 N   0  0  0  0  0  0
   45.4250  159.3481   32.0197 H   0  0  0  0  0  0
   45.3509  160.2439   30.5041 H   0  0  0  0  0  0
   45.7955  158.5430   30.5016 H   0  0  0  0  0  0
   47.0246  161.1032   32.9310 H   0  0  0  0  0  0
   49.4104  161.6987   33.1917 H   0  0  0  0  0  0
   51.0948  160.7930   31.6529 H   0  0  0  0  0  0
   48.0189  158.6495   29.5569 H   0  0  0  0  0  0
   51.7224  159.3160   29.8712 H   0  0  0  0  0  0
   50.5277  159.3033   28.5697 H   0  0  0  0  0  0
   52.5366  158.1178   27.9180 H   0  0  0  0  0  0
   53.1015  156.5889   26.1086 H   0  0  0  0  0  0
   50.8122  153.4740   28.0251 H   0  0  0  0  0  0
   50.0897  155.0849   29.7139 H   0  0  0  0  0  0
   52.5531  153.4440   22.1042 H   0  0  0  0  0  0
   53.4263  152.0123   22.5040 H   0  0  0  0  0  0
   55.2560  153.8440   23.4166 H   0  0  0  0  0  0
   54.4792  154.9126   22.4516 H   0  0  0  0  0  0
  1  2  1  0  0  0
  1 26  1  0  0  0
  1 27  1  0  0  0
  1 28  1  0  0  0
  2  7  1  0  0  0
  2  3  2  0  0  0
  3  4  1  0  0  0
  3 29  1  0  0  0
  4  5  2  0  0  0
  4 30  1  0  0  0
  5  6  1  0  0  0
  5 31  1  0  0  0
  6  7  2  0  0  0
  6  8  1  0  0  0
  7 32  1  0  0  0
  8  9  1  0  0  0
  8 33  1  0  0  0
  8 34  1  0  0  0
  9 10  1  0  0  0
 10 15  1  0  0  0
 10 11  2  0  0  0
 11 12  1  0  0  0
 11 35  1  0  0  0
 12 13  2  0  0  0
 12 36  1  0  0  0
 13 14  1  0  0  0
 13 16  1  0  0  0
 14 15  2  0  0  0
 14 37  1  0  0  0
 15 38  1  0  0  0
 16 21  1  0  0  0
 16 17  2  0  0  0
 17 18  1  0  0  0
 18 19  1  0  0  0
 18 22  1  0  0  0
 19 20  2  0  0  0
 19 21  1  0  0  0
 22 23  1  0  0  0
 22 39  1  0  0  0
 22 40  1  0  0  0
 23 24  1  0  0  0
 23 41  1  0  0  0
 23 42  1  0  0  0
 24 25  3  0  0  0
M  END
> <s_m_entry_id>
11608

> <s_m_entry_name>
ligand_docking-pose.18

> <s_m_Source_Path>
/home/csk/Desktop/cluster/DUD-E-result/aofb

> <s_m_Source_File>
ligand_docking-pose.sdf

> <i_m_Source_File_Index>
18

> <i_lp_mmshare_version>
53161

> <r_lp_tautomer_probability>
1

> <s_lp_Force_Field>
OPLS_2005

> <r_lp_Energy>
24.128909

> <b_lp_Chiralities_Consistent>
1

> <s_lp_Variant>
17902-1

> <s_i_glide_gridfile>
glide-grid_1s3b

> <i_i_glide_lignum>
251

> <i_i_glide_rotatable_bonds>
6

> <r_i_docking_score>
-7.97841772742305

> <r_i_glide_ligand_efficiency>
-0.319136709096922

> <r_i_glide_ligand_efficiency_sa>
-0.933161397313036

> <r_i_glide_ligand_efficiency_ln>
-1.89112409528486

> <r_i_glide_gscore>
-7.97841772742305

> <r_i_glide_lipo>
-4.50456194593738

> <r_i_glide_hbond>
0

> <r_i_glide_metal>
0

> <r_i_glide_rewards>
-2.46785795046233

> <r_i_glide_evdw>
-18.0532684326172

> <r_i_glide_ecoul>
-6.2203631401062

> <r_i_glide_erotb>
0.839042855873047

> <r_i_glide_esite>
-0.00932279424960353

> <r_i_glide_emodel>
-18.7763369398295

> <r_i_glide_energy>
-24.2736315727234

> <r_i_glide_einternal>
11.3672752380371

> <i_i_glide_confnum>
29

> <i_i_glide_posenum>
153

> <r_i_glide_eff_state_penalty>
0

> <i_f3d_flags>
0

> <s_user_duplicate_titles>
17902

> <s_m_subgroup_title>
dock_pv

> <s_m_subgroupid>
dock_pv1

> <b_m_subgroup_collapsed>
0

$$$$
573395
                    3D
 Schrodinger Suite 2021-1.
 42 44  0  0  1  0            999 V2000
   53.4161  149.2705   24.6891 C   0  0  0  0  0  0
   53.6560  150.7898   24.6712 C   0  0  0  0  0  0
   52.8953  151.4758   25.7040 N   0  0  1  0  0  0
   52.0560  152.5814   25.2783 C   0  0  0  0  0  0
   52.4861  153.9955   25.5540 C   0  0  0  0  0  0
   53.2275  154.6352   24.6295 C   0  0  0  0  0  0
   53.6560  156.0078   24.8136 C   0  0  0  0  0  0
   54.4357  156.6397   24.1040 O   0  0  0  0  0  0
   53.2439  156.6440   25.9320 O   0  0  0  0  0  0
   52.4560  156.0453   26.8813 C   0  0  0  0  0  0
   52.0410  154.7143   26.7772 C   0  0  0  0  0  0
   51.2560  154.1905   27.8111 C   0  0  0  0  0  0
   50.8049  155.0337   28.8368 C   0  0  0  0  0  0
   51.1475  156.3877   28.8606 C   0  0  0  0  0  0
   52.0732  156.8573   27.9337 C   0  0  0  0  0  0
   50.4560  157.2283   29.7040 O   0  0  0  0  0  0
   50.6532  158.6461   29.6287 C   0  0  0  0  0  0
   49.6399  159.3716   30.5040 C   0  0  0  0  0  0
   50.0611  160.4007   31.3517 C   0  0  0  0  0  0
   49.1495  161.0440   32.1880 C   0  0  0  0  0  0
   47.8025  160.6850   32.1592 C   0  0  0  0  0  0
   47.3668  159.6864   31.2897 C   0  0  0  0  0  0
   48.2833  159.0255   30.4705 C   0  0  0  0  0  0
   46.0561  159.3623   31.2412 F   0  0  0  0  0  0
   54.1712  148.7494   24.1033 H   0  0  0  0  0  0
   52.4560  149.0004   24.2671 H   0  0  0  0  0  0
   53.4411  148.8456   25.6887 H   0  0  0  0  0  0
   54.6977  150.9919   24.9040 H   0  0  0  0  0  0
   53.4758  151.1825   23.6698 H   0  0  0  0  0  0
   52.4173  150.8300   26.3229 H   0  0  0  0  0  0
   52.0506  152.5464   24.1904 H   0  0  0  0  0  0
   51.0600  152.4736   25.7040 H   0  0  0  0  0  0
   53.5353  154.1133   23.7362 H   0  0  0  0  0  0
   50.9396  153.1585   27.8037 H   0  0  0  0  0  0
   50.1235  154.6485   29.5798 H   0  0  0  0  0  0
   52.4068  157.8833   27.9362 H   0  0  0  0  0  0
   51.6672  158.8849   29.9528 H   0  0  0  0  0  0
   50.5334  159.0264   28.6122 H   0  0  0  0  0  0
   51.1027  160.6882   31.3922 H   0  0  0  0  0  0
   49.4933  161.8201   32.8569 H   0  0  0  0  0  0
   47.0948  161.1823   32.8048 H   0  0  0  0  0  0
   47.9354  158.2440   29.8117 H   0  0  0  0  0  0
  1  2  1  0  0  0
  1 25  1  0  0  0
  1 26  1  0  0  0
  1 27  1  0  0  0
  2  3  1  0  0  0
  2 28  1  0  0  0
  2 29  1  0  0  0
  3  4  1  0  0  0
  3 30  1  0  0  0
  4  5  1  0  0  0
  4 31  1  0  0  0
  4 32  1  0  0  0
  5 11  1  0  0  0
  5  6  2  0  0  0
  6  7  1  0  0  0
  6 33  1  0  0  0
  7  8  2  0  0  0
  7  9  1  0  0  0
  9 10  1  0  0  0
 10 15  1  0  0  0
 10 11  2  0  0  0
 11 12  1  0  0  0
 12 13  2  0  0  0
 12 34  1  0  0  0
 13 14  1  0  0  0
 13 35  1  0  0  0
 14 15  2  0  0  0
 14 16  1  0  0  0
 15 36  1  0  0  0
 16 17  1  0  0  0
 17 18  1  0  0  0
 17 37  1  0  0  0
 17 38  1  0  0  0
 18 23  1  0  0  0
 18 19  2  0  0  0
 19 20  1  0  0  0
 19 39  1  0  0  0
 20 21  2  0  0  0
 20 40  1  0  0  0
 21 22  1  0  0  0
 21 41  1  0  0  0
 22 23  2  0  0  0
 22 24  1  0  0  0
 23 42  1  0  0  0
M  END
> <s_m_entry_id>
11611

> <s_m_entry_name>
ligand_docking-pose.21

> <s_m_Source_Path>
/home/csk/Desktop/cluster/DUD-E-result/aofb

> <s_m_Source_File>
ligand_docking-pose.sdf

> <i_m_Source_File_Index>
21

> <i_lp_mmshare_version>
53161

> <r_lp_tautomer_probability>
1

> <s_lp_Force_Field>
OPLS_2005

> <r_lp_Energy>
20.731201

> <b_lp_Chiralities_Consistent>
1

> <s_lp_Variant>
573395-1

> <s_i_glide_gridfile>
glide-grid_1s3b

> <i_i_glide_lignum>
414

> <i_i_glide_rotatable_bonds>
6

> <r_i_docking_score>
-7.89207093916274

> <r_i_glide_ligand_efficiency>
-0.328836289131781

> <r_i_glide_ligand_efficiency_sa>
-0.948527992398763

> <r_i_glide_ligand_efficiency_ln>
-1.88893471927945

> <r_i_glide_gscore>
-7.89207093916274

> <r_i_glide_lipo>
-4.45365943912697

> <r_i_glide_hbond>
-0.152901157793229

> <r_i_glide_metal>
0

> <r_i_glide_rewards>
-2.52669507680589

> <r_i_glide_evdw>
-26.7417125701904

> <r_i_glide_ecoul>
-1.98267340660095

> <r_i_glide_erotb>
0.875671374063009

> <r_i_glide_esite>
0

> <r_i_glide_emodel>
-25.3528421962146

> <r_i_glide_energy>
-28.7243859767914

> <r_i_glide_einternal>
12.0137329101562

> <i_i_glide_confnum>
201

> <i_i_glide_posenum>
371

> <r_i_glide_eff_state_penalty>
0

> <i_f3d_flags>
0

> <s_user_duplicate_titles>
573395

> <s_m_subgroup_title>
dock_pv

> <s_m_subgroupid>
dock_pv1

> <b_m_subgroup_collapsed>
0

$$$$
573397
                    3D
 Schrodinger Suite 2021-1.
 35 37  0  0  1  0            999 V2000
   47.9005  160.8384   32.1249 C   0  0  0  0  0  0
   49.2560  161.0440   32.3694 C   0  0  0  0  0  0
   50.2054  160.5228   31.4966 C   0  0  0  0  0  0
   49.7981  159.7529   30.4059 C   0  0  0  0  0  0
   48.4349  159.5668   30.1525 C   0  0  0  0  0  0
   47.4840  160.1133   31.0110 C   0  0  0  0  0  0
   50.8310  159.0486   29.5393 C   0  0  0  0  0  0
   50.6732  157.6515   29.7479 O   0  0  0  0  0  0
   51.2413  156.7302   28.9039 C   0  0  0  0  0  0
   50.7704  155.4221   29.0279 C   0  0  0  0  0  0
   51.1087  154.4429   28.1039 C   0  0  0  0  0  0
   51.8750  154.7805   26.9860 C   0  0  0  0  0  0
   52.2541  153.8159   25.9270 C   0  0  0  0  0  0
   53.0476  154.2186   24.9040 C   0  0  0  0  0  0
   53.6026  155.5795   24.8713 C   0  0  0  0  0  0
   54.4563  156.0109   24.1040 O   0  0  0  0  0  0
   53.1383  156.4810   25.7991 O   0  0  0  0  0  0
   52.3825  156.0845   26.8839 C   0  0  0  0  0  0
   52.1227  157.0434   27.8646 C   0  0  0  0  0  0
   51.8644  152.3651   26.1788 C   0  0  0  0  0  0
   52.6388  151.3795   25.4036 C   0  0  0  0  0  0
   53.2560  150.6081   24.8017 N   0  0  0  0  0  0
   47.1681  161.2452   32.8059 H   0  0  0  0  0  0
   49.5757  161.6082   33.2331 H   0  0  0  0  0  0
   51.2557  160.6718   31.7051 H   0  0  0  0  0  0
   48.1119  158.9772   29.3082 H   0  0  0  0  0  0
   46.4304  159.9588   30.8260 H   0  0  0  0  0  0
   51.8467  159.3594   29.7915 H   0  0  0  0  0  0
   50.6440  159.3222   28.5034 H   0  0  0  0  0  0
   50.1004  155.1680   29.8352 H   0  0  0  0  0  0
   50.7121  153.4489   28.2407 H   0  0  0  0  0  0
   53.3778  153.5067   24.1623 H   0  0  0  0  0  0
   52.5161  158.0413   27.7485 H   0  0  0  0  0  0
   50.7949  152.2060   26.1040 H   0  0  0  0  0  0
   52.1022  152.1535   27.2161 H   0  0  0  0  0  0
  1  6  1  0  0  0
  1  2  2  0  0  0
  1 23  1  0  0  0
  2  3  1  0  0  0
  2 24  1  0  0  0
  3  4  2  0  0  0
  3 25  1  0  0  0
  4  5  1  0  0  0
  4  7  1  0  0  0
  5  6  2  0  0  0
  5 26  1  0  0  0
  6 27  1  0  0  0
  7  8  1  0  0  0
  7 28  1  0  0  0
  7 29  1  0  0  0
  8  9  1  0  0  0
  9 19  1  0  0  0
  9 10  2  0  0  0
 10 11  1  0  0  0
 10 30  1  0  0  0
 11 12  2  0  0  0
 11 31  1  0  0  0
 12 18  1  0  0  0
 12 13  1  0  0  0
 13 14  2  0  0  0
 13 20  1  0  0  0
 14 15  1  0  0  0
 14 32  1  0  0  0
 15 16  2  0  0  0
 15 17  1  0  0  0
 17 18  1  0  0  0
 18 19  2  0  0  0
 19 33  1  0  0  0
 20 21  1  0  0  0
 20 34  1  0  0  0
 20 35  1  0  0  0
 21 22  3  0  0  0
M  END
> <s_m_entry_id>
11616

> <s_m_entry_name>
ligand_docking-pose.26

> <s_m_Source_Path>
/home/csk/Desktop/cluster/DUD-E-result/aofb

> <s_m_Source_File>
ligand_docking-pose.sdf

> <i_m_Source_File_Index>
26

> <i_lp_mmshare_version>
53161

> <r_lp_tautomer_probability>
1

> <s_lp_Force_Field>
OPLS_2005

> <r_lp_Energy>
20.267116

> <b_lp_Chiralities_Consistent>
1

> <s_lp_Variant>
573397-1

> <s_i_glide_gridfile>
glide-grid_1s3b

> <i_i_glide_lignum>
125

> <i_i_glide_rotatable_bonds>
4

> <r_i_docking_score>
-7.80529256111938

> <r_i_glide_ligand_efficiency>
-0.354786025505426

> <r_i_glide_ligand_efficiency_sa>
-0.994124396408816

> <r_i_glide_ligand_efficiency_ln>
-1.90789820690129

> <r_i_glide_gscore>
-7.80529256111938

> <r_i_glide_lipo>
-4.23715388156068

> <r_i_glide_hbond>
0

> <r_i_glide_metal>
0

> <r_i_glide_rewards>
-2.65040895952264

> <r_i_glide_evdw>
-28.6109867095947

> <r_i_glide_ecoul>
-2.31289148330688

> <r_i_glide_erotb>
0.859753337939716

> <r_i_glide_esite>
0

> <r_i_glide_emodel>
-33.5735911615259

> <r_i_glide_energy>
-30.9238781929016

> <r_i_glide_einternal>
6.56418704986572

> <i_i_glide_confnum>
23

> <i_i_glide_posenum>
65

> <r_i_glide_eff_state_penalty>
0

> <i_f3d_flags>
0

> <s_user_duplicate_titles>
573397

> <s_m_subgroup_title>
dock_pv

> <s_m_subgroupid>
dock_pv1

> <b_m_subgroup_collapsed>
0

$$$$
18187
                    3D
 Schrodinger Suite 2021-1.
 42 44  0  0  1  0            999 V2000
   48.4568  161.0310   33.7955 C   0  0  0  0  0  0
   48.2443  160.3725   32.4484 C   0  0  0  0  0  0
   46.9536  160.0593   32.0184 C   0  0  0  0  0  0
   46.7591  159.4431   30.7862 C   0  0  0  0  0  0
   47.8542  159.1285   29.9829 C   0  0  0  0  0  0
   49.1584  159.4162   30.4105 C   0  0  0  0  0  0
   49.3410  160.0613   31.6388 C   0  0  0  0  0  0
   50.3620  158.9462   29.5963 C   0  0  0  0  0  0
   50.4565  157.5372   29.7828 O   0  0  0  0  0  0
   51.1514  156.7372   28.9040 C   0  0  0  0  0  0
   52.1052  157.1866   27.9909 C   0  0  0  0  0  0
   52.4565  156.3569   26.9298 C   0  0  0  0  0  0
   51.9827  155.0419   26.8844 C   0  0  0  0  0  0
   51.2094  154.5401   27.9315 C   0  0  0  0  0  0
   50.7638  155.4030   28.9132 C   0  0  0  0  0  0
   52.3277  154.1489   25.7886 C   0  0  0  0  0  0
   52.6606  154.4049   24.6024 N   0  0  0  0  0  0
   53.0115  153.2177   24.0994 N   0  0  0  0  0  0
   52.9080  152.2114   25.0003 C   0  0  0  0  0  0
   53.2560  150.5979   24.9040 S   0  0  0  0  0  0
   52.3694  152.8334   26.1054 O   0  0  0  0  0  0
   53.4724  153.1218   22.7336 C   0  0  0  0  0  0
   54.7906  153.8783   22.5041 C   0  0  0  0  0  0
   55.5401  153.3989   21.3040 C   0  0  0  0  0  0
   56.1025  153.0440   20.3507 N   0  0  0  0  0  0
   49.1772  161.8442   33.7033 H   0  0  0  0  0  0
   47.5322  161.4446   34.1958 H   0  0  0  0  0  0
   48.8557  160.3064   34.5043 H   0  0  0  0  0  0
   46.0974  160.2842   32.6372 H   0  0  0  0  0  0
   45.7578  159.2038   30.4587 H   0  0  0  0  0  0
   47.6694  158.6436   29.0359 H   0  0  0  0  0  0
   50.3402  160.2831   31.9857 H   0  0  0  0  0  0
   51.2800  159.4305   29.9348 H   0  0  0  0  0  0
   50.2153  159.2154   28.5482 H   0  0  0  0  0  0
   52.4577  158.2064   28.0138 H   0  0  0  0  0  0
   53.1083  156.7355   26.1548 H   0  0  0  0  0  0
   50.8653  153.5140   27.9505 H   0  0  0  0  0  0
   50.0648  155.0486   29.6567 H   0  0  0  0  0  0
   52.6520  153.4440   22.1040 H   0  0  0  0  0  0
   53.6010  152.0768   22.5042 H   0  0  0  0  0  0
   55.3574  153.8440   23.4293 H   0  0  0  0  0  0
   54.6251  154.9502   22.4204 H   0  0  0  0  0  0
  1  2  1  0  0  0
  1 26  1  0  0  0
  1 27  1  0  0  0
  1 28  1  0  0  0
  2  7  1  0  0  0
  2  3  2  0  0  0
  3  4  1  0  0  0
  3 29  1  0  0  0
  4  5  2  0  0  0
  4 30  1  0  0  0
  5  6  1  0  0  0
  5 31  1  0  0  0
  6  7  2  0  0  0
  6  8  1  0  0  0
  7 32  1  0  0  0
  8  9  1  0  0  0
  8 33  1  0  0  0
  8 34  1  0  0  0
  9 10  1  0  0  0
 10 15  1  0  0  0
 10 11  2  0  0  0
 11 12  1  0  0  0
 11 35  1  0  0  0
 12 13  2  0  0  0
 12 36  1  0  0  0
 13 14  1  0  0  0
 13 16  1  0  0  0
 14 15  2  0  0  0
 14 37  1  0  0  0
 15 38  1  0  0  0
 16 21  1  0  0  0
 16 17  2  0  0  0
 17 18  1  0  0  0
 18 19  1  0  0  0
 18 22  1  0  0  0
 19 20  2  0  0  0
 19 21  1  0  0  0
 22 23  1  0  0  0
 22 39  1  0  0  0
 22 40  1  0  0  0
 23 24  1  0  0  0
 23 41  1  0  0  0
 23 42  1  0  0  0
 24 25  3  0  0  0
M  END
> <s_m_entry_id>
11617

> <s_m_entry_name>
ligand_docking-pose.27

> <s_m_Source_Path>
/home/csk/Desktop/cluster/DUD-E-result/aofb

> <s_m_Source_File>
ligand_docking-pose.sdf

> <i_m_Source_File_Index>
27

> <i_lp_mmshare_version>
53161

> <r_lp_tautomer_probability>
1

> <s_lp_Force_Field>
OPLS_2005

> <r_lp_Energy>
26.074627

> <b_lp_Chiralities_Consistent>
1

> <s_lp_Variant>
18187-1

> <s_i_glide_gridfile>
glide-grid_1s3b

> <i_i_glide_lignum>
253

> <i_i_glide_rotatable_bonds>
6

> <r_i_docking_score>
-7.77324325770717

> <r_i_glide_ligand_efficiency>
-0.310929730308287

> <r_i_glide_ligand_efficiency_sa>
-0.909164045783677

> <r_i_glide_ligand_efficiency_ln>
-1.8424915973795

> <r_i_glide_gscore>
-7.77324325770717

> <r_i_glide_lipo>
-4.57531232278562

> <r_i_glide_hbond>
0

> <r_i_glide_metal>
0

> <r_i_glide_rewards>
-2.78002252926573

> <r_i_glide_evdw>
-5.47998189926147

> <r_i_glide_ecoul>
-6.03473329544067

> <r_i_glide_erotb>
0.772185831350774

> <r_i_glide_esite>
-0.0108851477274241

> <r_i_glide_emodel>
-12.4074952607402

> <r_i_glide_energy>
-11.5147151947021

> <r_i_glide_einternal>
12.4427871704102

> <i_i_glide_confnum>
53

> <i_i_glide_posenum>
166

> <r_i_glide_eff_state_penalty>
0

> <i_f3d_flags>
0

> <s_user_duplicate_titles>
18187

> <s_m_subgroup_title>
dock_pv

> <s_m_subgroupid>
dock_pv1

> <b_m_subgroup_collapsed>
0

$$$$
21805
                    3D
 Schrodinger Suite 2021-1.
 39 40  0  0  1  0            999 V2000
   49.5259  161.0441   32.1174 C   0  0  0  0  0  0
   50.4393  160.4661   31.2387 C   0  0  0  0  0  0
   49.9950  159.5795   30.2548 C   0  0  0  0  0  0
   48.6233  159.3210   30.1336 C   0  0  0  0  0  0
   47.7124  159.8982   31.0185 C   0  0  0  0  0  0
   48.1651  160.7595   32.0155 C   0  0  0  0  0  0
   46.0334  159.5190   30.9040 Cl  0  0  0  0  0  0
   50.9935  158.8257   29.3907 C   0  0  0  0  0  0
   50.8560  157.4440   29.7040 O   0  0  0  0  0  0
   51.2560  156.4691   28.8168 C   0  0  0  0  0  0
   50.7248  155.1972   29.0120 C   0  0  0  0  0  0
   50.9047  154.2010   28.0609 C   0  0  0  0  0  0
   51.5995  154.4645   26.8821 C   0  0  0  0  0  0
   52.1749  155.7287   26.6968 C   0  0  0  0  0  0
   52.0560  156.7011   27.6956 C   0  0  0  0  0  0
   52.9145  156.0713   25.4684 C   0  0  0  0  0  0
   53.0639  155.3362   24.5040 O   0  0  0  0  0  0
   51.6560  153.4934   25.9102 O   0  0  0  0  0  0
   52.4560  152.3777   26.2563 C   0  0  0  0  0  0
   53.6451  152.2440   25.3040 C   0  0  0  0  0  0
   53.3187  151.4522   24.0539 C   0  0  0  0  0  0
   53.2709  150.0008   24.3016 C   0  0  0  0  0  0
   53.2560  148.8614   24.5040 N   0  0  0  0  0  0
   49.8813  161.7086   32.8919 H   0  0  0  0  0  0
   51.4932  160.6744   31.3593 H   0  0  0  0  0  0
   48.2605  158.6440   29.3773 H   0  0  0  0  0  0
   47.4660  161.2030   32.7092 H   0  0  0  0  0  0
   52.0170  159.1478   29.5913 H   0  0  0  0  0  0
   50.7793  159.0440   28.3466 H   0  0  0  0  0  0
   50.1210  154.9979   29.8844 H   0  0  0  0  0  0
   50.4561  153.2307   28.2008 H   0  0  0  0  0  0
   52.4975  157.6782   27.5579 H   0  0  0  0  0  0
   53.3862  157.0440   25.4765 H   0  0  0  0  0  0
   51.8373  151.4793   26.2437 H   0  0  0  0  0  0
   52.8509  152.4614   27.2707 H   0  0  0  0  0  0
   54.4696  151.7624   25.8139 H   0  0  0  0  0  0
   54.0405  153.2200   25.0409 H   0  0  0  0  0  0
   54.0560  151.6399   23.3040 H   0  0  0  0  0  0
   52.4560  151.8415   23.5610 H   0  0  0  0  0  0
  1  6  1  0  0  0
  1  2  2  0  0  0
  1 24  1  0  0  0
  2  3  1  0  0  0
  2 25  1  0  0  0
  3  4  2  0  0  0
  3  8  1  0  0  0
  4  5  1  0  0  0
  4 26  1  0  0  0
  5  6  2  0  0  0
  5  7  1  0  0  0
  6 27  1  0  0  0
  8  9  1  0  0  0
  8 28  1  0  0  0
  8 29  1  0  0  0
  9 10  1  0  0  0
 10 15  1  0  0  0
 10 11  2  0  0  0
 11 12  1  0  0  0
 11 30  1  0  0  0
 12 13  2  0  0  0
 12 31  1  0  0  0
 13 14  1  0  0  0
 13 18  1  0  0  0
 14 15  2  0  0  0
 14 16  1  0  0  0
 15 32  1  0  0  0
 16 17  2  0  0  0
 16 33  1  0  0  0
 18 19  1  0  0  0
 19 20  1  0  0  0
 19 34  1  0  0  0
 19 35  1  0  0  0
 20 21  1  0  0  0
 20 36  1  0  0  0
 20 37  1  0  0  0
 21 22  1  0  0  0
 21 38  1  0  0  0
 21 39  1  0  0  0
 22 23  3  0  0  0
M  END
> <s_m_entry_id>
11619

> <s_m_entry_name>
ligand_docking-pose.29

> <s_m_Source_Path>
/home/csk/Desktop/cluster/DUD-E-result/aofb

> <s_m_Source_File>
ligand_docking-pose.sdf

> <i_m_Source_File_Index>
29

> <i_lp_mmshare_version>
53161

> <r_lp_tautomer_probability>
1

> <s_lp_Force_Field>
OPLS_2005

> <r_lp_Energy>
19.754525

> <b_lp_Chiralities_Consistent>
1

> <s_lp_Variant>
21805-1

> <s_i_glide_gridfile>
glide-grid_1s3b

> <i_i_glide_lignum>
120

> <i_i_glide_rotatable_bonds>
8

> <r_i_docking_score>
-7.74060012301335

> <r_i_glide_ligand_efficiency>
-0.336547831435363

> <r_i_glide_ligand_efficiency_sa>
-0.957097263959356

> <r_i_glide_ligand_efficiency_ln>
-1.871747297626

> <r_i_glide_gscore>
-7.74060012301335

> <r_i_glide_lipo>
-4.49172250082784

> <r_i_glide_hbond>
0

> <r_i_glide_metal>
0

> <r_i_glide_rewards>
-2.46035257816787

> <r_i_glide_evdw>
-31.8159217834473

> <r_i_glide_ecoul>
-1.56604552268982

> <r_i_glide_erotb>
1.03717787355819

> <r_i_glide_esite>
0

> <r_i_glide_emodel>
-35.2218766341345

> <r_i_glide_energy>
-33.3819673061371

> <r_i_glide_einternal>
15.9982652664185

> <i_i_glide_confnum>
54

> <i_i_glide_posenum>
292

> <r_i_glide_eff_state_penalty>
0

> <i_f3d_flags>
0

> <s_user_duplicate_titles>
21805

> <s_m_subgroup_title>
dock_pv

> <s_m_subgroupid>
dock_pv1

> <b_m_subgroup_collapsed>
0

$$$$
239227
                    3D
 Schrodinger Suite 2021-1.
 38 40  0  0  1  0            999 V2000
   49.0249  161.2660   32.7422 C   0  0  0  0  0  0
   47.6560  161.0202   32.7071 C   0  0  0  0  0  0
   47.1201  160.2327   31.6897 C   0  0  0  0  0  0
   47.9556  159.6722   30.7225 C   0  0  0  0  0  0
   49.3384  159.9182   30.7611 C   0  0  0  0  0  0
   49.8599  160.7377   31.7611 C   0  0  0  0  0  0
   50.2948  159.2262   29.8083 C   0  0  0  0  0  0
   50.2063  157.8417   30.1040 O   0  0  0  0  0  0
   50.8560  156.9331   29.3040 C   0  0  0  0  0  0
   50.3514  155.6320   29.3040 C   0  0  0  0  0  0
   50.8517  154.6745   28.4397 C   0  0  0  0  0  0
   51.7626  155.0488   27.4677 C   0  0  0  0  0  0
   52.3651  156.3138   27.5334 C   0  0  0  0  0  0
   51.9566  157.2386   28.4945 C   0  0  0  0  0  0
   52.0560  154.0912   26.3667 C   0  0  0  0  0  0
   52.0682  152.7725   26.5046 N   0  0  0  0  0  0
   52.6378  152.2905   25.3438 N   0  0  0  0  0  0
   52.7783  153.3827   24.5946 N   0  0  3  0  0  0
   52.3874  154.5145   25.1744 N   0  0  0  0  0  0
   53.4449  153.3837   23.3076 C   0  0  0  0  0  0
   54.7387  154.2306   23.3573 C   0  0  0  0  0  0
   54.5854  155.6182   23.7688 C   0  0  0  0  0  0
   54.4560  156.7068   24.1040 N   0  0  0  0  0  0
   47.2550  158.6440   29.5246 Cl  0  0  0  0  0  0
   49.4544  161.8440   33.5442 H   0  0  0  0  0  0
   47.0114  161.4314   33.4701 H   0  0  0  0  0  0
   46.0577  160.0366   31.6657 H   0  0  0  0  0  0
   50.9232  160.9236   31.8253 H   0  0  0  0  0  0
   51.3158  159.5847   29.9534 H   0  0  0  0  0  0
   50.0086  159.4418   28.7770 H   0  0  0  0  0  0
   49.5393  155.3688   29.9644 H   0  0  0  0  0  0
   50.4560  153.6727   28.4455 H   0  0  0  0  0  0
   53.1289  156.5912   26.8211 H   0  0  0  0  0  0
   52.4142  158.2164   28.5079 H   0  0  0  0  0  0
   52.7304  153.7756   22.5871 H   0  0  0  0  0  0
   53.6560  152.3547   23.0141 H   0  0  0  0  0  0
   55.2242  154.2161   22.3839 H   0  0  0  0  0  0
   55.4292  153.8440   24.1040 H   0  0  0  0  0  0
  1  6  1  0  0  0
  1  2  2  0  0  0
  1 25  1  0  0  0
  2  3  1  0  0  0
  2 26  1  0  0  0
  3  4  2  0  0  0
  3 27  1  0  0  0
  4  5  1  0  0  0
  4 24  1  0  0  0
  5  6  2  0  0  0
  5  7  1  0  0  0
  6 28  1  0  0  0
  7  8  1  0  0  0
  7 29  1  0  0  0
  7 30  1  0  0  0
  8  9  1  0  0  0
  9 14  1  0  0  0
  9 10  2  0  0  0
 10 11  1  0  0  0
 10 31  1  0  0  0
 11 12  2  0  0  0
 11 32  1  0  0  0
 12 13  1  0  0  0
 12 15  1  0  0  0
 13 14  2  0  0  0
 13 33  1  0  0  0
 14 34  1  0  0  0
 15 19  2  0  0  0
 15 16  1  0  0  0
 16 17  2  0  0  0
 17 18  1  0  0  0
 18 19  1  0  0  0
 18 20  1  0  0  0
 20 21  1  0  0  0
 20 35  1  0  0  0
 20 36  1  0  0  0
 21 22  1  0  0  0
 21 37  1  0  0  0
 21 38  1  0  0  0
 22 23  3  0  0  0
M  END
> <s_m_entry_id>
11620

> <s_m_entry_name>
ligand_docking-pose.30

> <s_m_Source_Path>
/home/csk/Desktop/cluster/DUD-E-result/aofb

> <s_m_Source_File>
ligand_docking-pose.sdf

> <i_m_Source_File_Index>
30

> <i_lp_mmshare_version>
53161

> <r_lp_tautomer_probability>
1

> <s_lp_Force_Field>
OPLS_2005

> <r_lp_Energy>
21.713307

> <b_lp_Chiralities_Consistent>
1

> <s_lp_Variant>
239227-1

> <s_i_glide_gridfile>
glide-grid_1s3b

> <i_i_glide_lignum>
151

> <i_i_glide_rotatable_bonds>
6

> <r_i_docking_score>
-7.73000225757503

> <r_i_glide_ligand_efficiency>
-0.32208342739896

> <r_i_glide_ligand_efficiency_sa>
-0.929049368554384

> <r_i_glide_ligand_efficiency_ln>
-1.85014424692831

> <r_i_glide_gscore>
-7.73000225757503

> <r_i_glide_lipo>
-3.80160261958036

> <r_i_glide_hbond>
0

> <r_i_glide_metal>
0

> <r_i_glide_rewards>
-2.77967538746341

> <r_i_glide_evdw>
-31.1672687530518

> <r_i_glide_ecoul>
-2.73437929153442

> <r_i_glide_erotb>
0.819796080851495

> <r_i_glide_esite>
0

> <r_i_glide_emodel>
-34.2853789936827

> <r_i_glide_energy>
-33.9016480445862

> <r_i_glide_einternal>
5.39013910293579

> <i_i_glide_confnum>
14

> <i_i_glide_posenum>
185

> <r_i_glide_eff_state_penalty>
0

> <i_f3d_flags>
0

> <s_user_duplicate_titles>
239227

> <s_m_subgroup_title>
dock_pv

> <s_m_subgroupid>
dock_pv1

> <b_m_subgroup_collapsed>
0

$$$$
240030
                    3D
 Schrodinger Suite 2021-1.
 38 40  0  0  1  0            999 V2000
   48.5127  159.1012   30.5894 C   0  0  0  0  0  0
   47.6912  159.6374   31.5711 C   0  0  0  0  0  0
   48.2083  160.6075   32.4213 C   0  0  0  0  0  0
   49.5000  161.0908   32.2747 C   0  0  0  0  0  0
   50.3203  160.5648   31.2910 C   0  0  0  0  0  0
   49.8334  159.5452   30.4757 C   0  0  0  0  0  0
   50.7703  158.8560   29.5176 C   0  0  0  0  0  0
   50.6348  157.4491   29.7041 O   0  0  0  0  0  0
   51.2561  156.6016   28.8282 C   0  0  0  0  0  0
   52.1890  157.0466   27.8920 C   0  0  0  0  0  0
   52.5220  156.2410   26.8239 C   0  0  0  0  0  0
   52.0558  154.9261   26.7689 C   0  0  0  0  0  0
   51.2562  154.4235   27.8024 C   0  0  0  0  0  0
   50.8521  155.2687   28.8278 C   0  0  0  0  0  0
   52.4475  154.0781   25.6135 C   0  0  0  0  0  0
   52.9528  154.5929   24.5064 N   0  0  0  0  0  0
   53.2456  153.5214   23.7044 N   0  0  0  0  0  0
   52.8567  152.4773   24.4275 N   0  0  3  0  0  0
   52.3635  152.7647   25.6314 N   0  0  0  0  0  0
   53.0433  151.1395   23.9005 C   0  0  0  0  0  0
   52.8663  150.0050   24.9112 C   0  0  0  0  0  0
   53.2560  148.7670   24.3405 O   0  0  0  0  0  0
   47.2588  161.1965   33.7093 Cl  0  0  0  0  0  0
   48.1410  158.3095   29.9532 H   0  0  0  0  0  0
   46.6807  159.2780   31.6946 H   0  0  0  0  0  0
   49.8844  161.8429   32.9449 H   0  0  0  0  0  0
   51.3411  160.9122   31.2066 H   0  0  0  0  0  0
   51.8028  159.1595   29.7046 H   0  0  0  0  0  0
   50.5004  159.1571   28.5072 H   0  0  0  0  0  0
   52.5712  158.0546   27.8996 H   0  0  0  0  0  0
   53.1798  156.6323   26.0605 H   0  0  0  0  0  0
   50.9080  153.4007   27.7888 H   0  0  0  0  0  0
   50.1639  154.9128   29.5799 H   0  0  0  0  0  0
   54.0559  151.1456   23.6265 H   0  0  0  0  0  0
   52.4562  151.0479   22.9917 H   0  0  0  0  0  0
   51.8965  149.9903   25.4032 H   0  0  0  0  0  0
   53.5619  150.2346   25.7042 H   0  0  0  0  0  0
   53.2551  148.0876   25.0220 H   0  0  0  0  0  0
  1  6  1  0  0  0
  1  2  2  0  0  0
  1 24  1  0  0  0
  2  3  1  0  0  0
  2 25  1  0  0  0
  3  4  2  0  0  0
  3 23  1  0  0  0
  4  5  1  0  0  0
  4 26  1  0  0  0
  5  6  2  0  0  0
  5 27  1  0  0  0
  6  7  1  0  0  0
  7  8  1  0  0  0
  7 28  1  0  0  0
  7 29  1  0  0  0
  8  9  1  0  0  0
  9 14  1  0  0  0
  9 10  2  0  0  0
 10 11  1  0  0  0
 10 30  1  0  0  0
 11 12  2  0  0  0
 11 31  1  0  0  0
 12 13  1  0  0  0
 12 15  1  0  0  0
 13 14  2  0  0  0
 13 32  1  0  0  0
 14 33  1  0  0  0
 15 19  2  0  0  0
 15 16  1  0  0  0
 16 17  2  0  0  0
 17 18  1  0  0  0
 18 19  1  0  0  0
 18 20  1  0  0  0
 20 21  1  0  0  0
 20 34  1  0  0  0
 20 35  1  0  0  0
 21 22  1  0  0  0
 21 36  1  0  0  0
 21 37  1  0  0  0
 22 38  1  0  0  0
M  END
> <s_m_entry_id>
11623

> <s_m_entry_name>
ligand_docking-pose.33

> <s_m_Source_Path>
/home/csk/Desktop/cluster/DUD-E-result/aofb

> <s_m_Source_File>
ligand_docking-pose.sdf

> <i_m_Source_File_Index>
33

> <i_lp_mmshare_version>
53161

> <r_lp_tautomer_probability>
1

> <s_lp_Force_Field>
OPLS_2005

> <r_lp_Energy>
22.518947

> <b_lp_Chiralities_Consistent>
1

> <s_lp_Variant>
240030-1

> <s_i_glide_gridfile>
glide-grid_1s3b

> <i_i_glide_lignum>
154

> <i_i_glide_rotatable_bonds>
7

> <r_i_docking_score>
-7.71725552513581

> <r_i_glide_ligand_efficiency>
-0.335532848918948

> <r_i_glide_ligand_efficiency_sa>
-0.954210788698813

> <r_i_glide_ligand_efficiency_ln>
-1.8661023621821

> <r_i_glide_gscore>
-7.71725552513581

> <r_i_glide_lipo>
-4.02495806538382

> <r_i_glide_hbond>
0

> <r_i_glide_metal>
0

> <r_i_glide_rewards>
-2.73452119933034

> <r_i_glide_evdw>
-29.033842086792

> <r_i_glide_ecoul>
-3.58515787124634

> <r_i_glide_erotb>
1.03168952460491

> <r_i_glide_esite>
0

> <r_i_glide_emodel>
-31.2574527781272

> <r_i_glide_energy>
-32.6189999580383

> <r_i_glide_einternal>
11.428430557251

> <i_i_glide_confnum>
23

> <i_i_glide_posenum>
252

> <r_i_glide_eff_state_penalty>
0

> <i_f3d_flags>
0

> <s_user_duplicate_titles>
240030

> <s_m_subgroup_title>
dock_pv

> <s_m_subgroupid>
dock_pv1

> <b_m_subgroup_collapsed>
0

$$$$
18037
                    3D
 Schrodinger Suite 2021-1.
 39 41  0  0  1  0            999 V2000
   50.3772  160.6440   31.3873 C   0  0  0  0  0  0
   49.5586  161.1790   32.3716 C   0  0  0  0  0  0
   48.2192  160.8170   32.4386 C   0  0  0  0  0  0
   47.6704  159.9414   31.5048 C   0  0  0  0  0  0
   48.4906  159.3909   30.5237 C   0  0  0  0  0  0
   49.8494  159.7231   30.4850 C   0  0  0  0  0  0
   50.7722  159.0163   29.5154 C   0  0  0  0  0  0
   50.6403  157.6177   29.7413 O   0  0  0  0  0  0
   51.2560  156.7242   28.9040 C   0  0  0  0  0  0
   50.8048  155.4068   28.9581 C   0  0  0  0  0  0
   51.1836  154.4918   27.9876 C   0  0  0  0  0  0
   51.9456  154.9306   26.9046 C   0  0  0  0  0  0
   52.4560  156.2322   26.8854 C   0  0  0  0  0  0
   52.1775  157.1001   27.9271 C   0  0  0  0  0  0
   52.2703  154.0264   25.8107 C   0  0  0  0  0  0
   52.5374  154.3333   24.6213 N   0  0  0  0  0  0
   52.8832  153.1745   24.1009 N   0  0  0  0  0  0
   52.9019  152.1411   25.0187 C   0  0  0  0  0  0
   53.2560  150.9657   24.9236 O   0  0  0  0  0  0
   52.4015  152.7000   26.1041 O   0  0  0  0  0  0
   53.3510  153.0636   22.7363 C   0  0  0  0  0  0
   54.6709  153.8440   22.5040 C   0  0  0  0  0  0
   55.4553  153.3830   21.3040 C   0  0  0  0  0  0
   56.0560  153.0440   20.3654 N   0  0  0  0  0  0
   47.2543  161.4440   33.7143 Cl  0  0  0  0  0  0
   51.4270  160.9017   31.3742 H   0  0  0  0  0  0
   49.9795  161.8441   33.1073 H   0  0  0  0  0  0
   46.6267  159.6676   31.5594 H   0  0  0  0  0  0
   48.0832  158.6773   29.8219 H   0  0  0  0  0  0
   51.8079  159.3289   29.6641 H   0  0  0  0  0  0
   50.4755  159.2880   28.5040 H   0  0  0  0  0  0
   50.1162  155.1039   29.7321 H   0  0  0  0  0  0
   50.8098  153.4785   28.0416 H   0  0  0  0  0  0
   53.0941  156.5702   26.0807 H   0  0  0  0  0  0
   52.5757  158.1017   27.8845 H   0  0  0  0  0  0
   52.5521  153.4440   22.1040 H   0  0  0  0  0  0
   53.4260  152.0104   22.5040 H   0  0  0  0  0  0
   55.2560  153.8440   23.4157 H   0  0  0  0  0  0
   54.4755  154.9123   22.4518 H   0  0  0  0  0  0
  1  6  1  0  0  0
  1  2  2  0  0  0
  1 26  1  0  0  0
  2  3  1  0  0  0
  2 27  1  0  0  0
  3  4  2  0  0  0
  3 25  1  0  0  0
  4  5  1  0  0  0
  4 28  1  0  0  0
  5  6  2  0  0  0
  5 29  1  0  0  0
  6  7  1  0  0  0
  7  8  1  0  0  0
  7 30  1  0  0  0
  7 31  1  0  0  0
  8  9  1  0  0  0
  9 14  1  0  0  0
  9 10  2  0  0  0
 10 11  1  0  0  0
 10 32  1  0  0  0
 11 12  2  0  0  0
 11 33  1  0  0  0
 12 13  1  0  0  0
 12 15  1  0  0  0
 13 14  2  0  0  0
 13 34  1  0  0  0
 14 35  1  0  0  0
 15 20  1  0  0  0
 15 16  2  0  0  0
 16 17  1  0  0  0
 17 18  1  0  0  0
 17 21  1  0  0  0
 18 19  2  0  0  0
 18 20  1  0  0  0
 21 22  1  0  0  0
 21 36  1  0  0  0
 21 37  1  0  0  0
 22 23  1  0  0  0
 22 38  1  0  0  0
 22 39  1  0  0  0
 23 24  3  0  0  0
M  END
> <s_m_entry_id>
11627

> <s_m_entry_name>
ligand_docking-pose.37

> <s_m_Source_Path>
/home/csk/Desktop/cluster/DUD-E-result/aofb

> <s_m_Source_File>
ligand_docking-pose.sdf

> <i_m_Source_File_Index>
37

> <i_lp_mmshare_version>
53161

> <r_lp_tautomer_probability>
1

> <s_lp_Force_Field>
OPLS_2005

> <r_lp_Energy>
23.452043

> <b_lp_Chiralities_Consistent>
1

> <s_lp_Variant>
18037-1

> <s_i_glide_gridfile>
glide-grid_1s3b

> <i_i_glide_lignum>
141

> <i_i_glide_rotatable_bonds>
6

> <r_i_docking_score>
-7.67863889279264

> <r_i_glide_ligand_efficiency>
-0.307145555711706

> <r_i_glide_ligand_efficiency_sa>
-0.898099052150652

> <r_i_glide_ligand_efficiency_ln>
-1.82006752783072

> <r_i_glide_gscore>
-7.67863889279264

> <r_i_glide_lipo>
-4.16426659273046

> <r_i_glide_hbond>
0

> <r_i_glide_metal>
0

> <r_i_glide_rewards>
-2.3254529733165

> <r_i_glide_evdw>
-16.7227516174316

> <r_i_glide_ecoul>
-7.32627248764038

> <r_i_glide_erotb>
0.755458624012281

> <r_i_glide_esite>
-0.00929949674032572

> <r_i_glide_emodel>
-21.2159884210893

> <r_i_glide_energy>
-24.049024105072

> <r_i_glide_einternal>
9.0991792678833

> <i_i_glide_confnum>
12

> <i_i_glide_posenum>
207

> <r_i_glide_eff_state_penalty>
0

> <i_f3d_flags>
0

> <s_user_duplicate_titles>
18037

> <s_m_subgroup_title>
dock_pv

> <s_m_subgroupid>
dock_pv1

> <b_m_subgroup_collapsed>
0

$$$$
18157
                    3D
 Schrodinger Suite 2021-1.
 39 41  0  0  1  0            999 V2000
   49.0453  161.0440   32.3690 C   0  0  0  0  0  0
   50.0184  160.5500   31.4990 C   0  0  0  0  0  0
   49.6585  159.6852   30.4603 C   0  0  0  0  0  0
   48.3097  159.3593   30.2751 C   0  0  0  0  0  0
   47.3358  159.8649   31.1363 C   0  0  0  0  0  0
   47.7053  160.6989   32.1913 C   0  0  0  0  0  0
   45.6790  159.4440   30.9044 Cl  0  0  0  0  0  0
   50.7200  159.0443   29.5769 C   0  0  0  0  0  0
   50.6331  157.6358   29.7645 O   0  0  0  0  0  0
   51.2560  156.7649   28.9040 C   0  0  0  0  0  0
   50.8125  155.4440   28.9534 C   0  0  0  0  0  0
   51.1881  154.5402   27.9761 C   0  0  0  0  0  0
   51.9406  154.9911   26.8930 C   0  0  0  0  0  0
   52.4560  156.2885   26.8828 C   0  0  0  0  0  0
   52.1756  157.1535   27.9318 C   0  0  0  0  0  0
   52.2430  154.0810   25.8049 C   0  0  0  0  0  0
   52.5360  154.3385   24.6081 N   0  0  0  0  0  0
   52.9123  153.1642   24.1032 N   0  0  0  0  0  0
   52.8560  152.1593   25.0117 C   0  0  0  0  0  0
   53.2560  150.5583   24.9040 S   0  0  0  0  0  0
   52.3163  152.7686   26.1268 O   0  0  0  0  0  0
   53.3672  153.0836   22.7321 C   0  0  0  0  0  0
   54.6883  153.8440   22.5040 C   0  0  0  0  0  0
   55.4647  153.3820   21.3040 C   0  0  0  0  0  0
   56.0560  153.0440   20.3601 N   0  0  0  0  0  0
   49.3382  161.6881   33.1854 H   0  0  0  0  0  0
   51.0548  160.8099   31.6646 H   0  0  0  0  0  0
   48.0177  158.6913   29.4783 H   0  0  0  0  0  0
   46.9553  161.0764   32.8707 H   0  0  0  0  0  0
   51.7191  159.3979   29.8386 H   0  0  0  0  0  0
   50.5227  159.3245   28.5408 H   0  0  0  0  0  0
   50.1288  155.1326   29.7283 H   0  0  0  0  0  0
   50.8148  153.5263   28.0260 H   0  0  0  0  0  0
   53.0907  156.6281   26.0763 H   0  0  0  0  0  0
   52.5666  158.1589   27.9051 H   0  0  0  0  0  0
   52.5580  153.4440   22.1040 H   0  0  0  0  0  0
   53.4723  152.0339   22.5040 H   0  0  0  0  0  0
   55.2606  153.8440   23.4229 H   0  0  0  0  0  0
   54.5037  154.9140   22.4435 H   0  0  0  0  0  0
  1  6  1  0  0  0
  1  2  2  0  0  0
  1 26  1  0  0  0
  2  3  1  0  0  0
  2 27  1  0  0  0
  3  4  2  0  0  0
  3  8  1  0  0  0
  4  5  1  0  0  0
  4 28  1  0  0  0
  5  6  2  0  0  0
  5  7  1  0  0  0
  6 29  1  0  0  0
  8  9  1  0  0  0
  8 30  1  0  0  0
  8 31  1  0  0  0
  9 10  1  0  0  0
 10 15  1  0  0  0
 10 11  2  0  0  0
 11 12  1  0  0  0
 11 32  1  0  0  0
 12 13  2  0  0  0
 12 33  1  0  0  0
 13 14  1  0  0  0
 13 16  1  0  0  0
 14 15  2  0  0  0
 14 34  1  0  0  0
 15 35  1  0  0  0
 16 21  1  0  0  0
 16 17  2  0  0  0
 17 18  1  0  0  0
 18 19  1  0  0  0
 18 22  1  0  0  0
 19 20  2  0  0  0
 19 21  1  0  0  0
 22 23  1  0  0  0
 22 36  1  0  0  0
 22 37  1  0  0  0
 23 24  1  0  0  0
 23 38  1  0  0  0
 23 39  1  0  0  0
 24 25  3  0  0  0
M  END
> <s_m_entry_id>
11628

> <s_m_entry_name>
ligand_docking-pose.38

> <s_m_Source_Path>
/home/csk/Desktop/cluster/DUD-E-result/aofb

> <s_m_Source_File>
ligand_docking-pose.sdf

> <i_m_Source_File_Index>
38

> <i_lp_mmshare_version>
53161

> <r_lp_tautomer_probability>
1

> <s_lp_Force_Field>
OPLS_2005

> <r_lp_Energy>
25.503977

> <b_lp_Chiralities_Consistent>
1

> <s_lp_Variant>
18157-1

> <s_i_glide_gridfile>
glide-grid_1s3b

> <i_i_glide_lignum>
114

> <i_i_glide_rotatable_bonds>
6

> <r_i_docking_score>
-7.67400925106673

> <r_i_glide_ligand_efficiency>
-0.306960370042669

> <r_i_glide_ligand_efficiency_sa>
-0.897557565970108

> <r_i_glide_ligand_efficiency_ln>
-1.81897016400251

> <r_i_glide_gscore>
-7.67400925106673

> <r_i_glide_lipo>
-4.38871047381723

> <r_i_glide_hbond>
0

> <r_i_glide_metal>
0

> <r_i_glide_rewards>
-2.66475014982601

> <r_i_glide_evdw>
-7.5910792350769

> <r_i_glide_ecoul>
-6.19773387908936

> <r_i_glide_erotb>
0.698204087399336

> <r_i_glide_esite>
-0.0095386712055841

> <r_i_glide_emodel>
-12.6848659708639

> <r_i_glide_energy>
-13.7888131141663

> <r_i_glide_einternal>
8.6144847869873

> <i_i_glide_confnum>
105

> <i_i_glide_posenum>
243

> <r_i_glide_eff_state_penalty>
0

> <i_f3d_flags>
0

> <s_user_duplicate_titles>
18157

> <s_m_subgroup_title>
dock_pv

> <s_m_subgroupid>
dock_pv1

> <b_m_subgroup_collapsed>
0

$$$$
240128
                    3D
 Schrodinger Suite 2021-1.
 34 36  0  0  1  0            999 V2000
   53.2106  151.9041   24.5325 C   0  0  0  0  0  0
   52.5345  151.5726   25.6981 C   0  0  0  0  0  0
   51.9682  152.5745   26.4838 C   0  0  0  0  0  0
   52.0754  153.9123   26.1051 C   0  0  0  0  0  0
   52.6709  154.2145   24.8701 C   0  0  0  0  0  0
   53.2559  153.2206   24.0938 C   0  0  0  0  0  0
   51.7576  154.9971   27.0797 C   0  0  0  0  0  0
   52.4576  156.2034   27.0195 C   0  0  0  0  0  0
   52.2866  157.1842   27.9760 C   0  0  0  0  0  0
   51.2556  157.0700   28.9042 C   0  0  0  0  0  0
   50.5675  155.8503   29.0135 C   0  0  0  0  0  0
   50.8556  154.8079   28.1313 C   0  0  0  0  0  0
   50.8545  158.3232   29.6366 C   0  0  0  0  0  0
   49.6677  158.5541   30.1847 N   0  0  0  0  0  0
   49.7563  159.8098   30.7663 N   0  0  0  0  0  0
   50.9979  160.1972   30.4726 N   0  0  3  0  0  0
   51.6570  159.3502   29.7053 N   0  0  0  0  0  0
   51.6106  161.4406   30.9237 C   0  0  0  0  0  0
   53.0312  161.2625   31.5012 C   0  0  0  0  0  0
   53.9736  161.0432   30.4702 O   0  0  0  0  0  0
   53.6555  151.1288   23.9296 H   0  0  0  0  0  0
   52.4567  150.5392   26.0054 H   0  0  0  0  0  0
   51.5250  152.2863   27.4231 H   0  0  0  0  0  0
   52.7435  155.2357   24.5269 H   0  0  0  0  0  0
   53.7574  153.4667   23.1651 H   0  0  0  0  0  0
   53.2039  156.3898   26.2618 H   0  0  0  0  0  0
   52.8680  158.0894   27.8763 H   0  0  0  0  0  0
   49.7775  155.7317   29.7378 H   0  0  0  0  0  0
   50.3075  153.8849   28.2152 H   0  0  0  0  0  0
   50.9630  161.8429   31.7038 H   0  0  0  0  0  0
   51.6563  162.1309   30.0839 H   0  0  0  0  0  0
   53.0654  160.4084   32.1747 H   0  0  0  0  0  0
   53.3232  162.1254   32.0991 H   0  0  0  0  0  0
   54.3738  160.1634   30.6132 H   0  0  0  0  0  0
  1  6  1  0  0  0
  1  2  2  0  0  0
  1 21  1  0  0  0
  2  3  1  0  0  0
  2 22  1  0  0  0
  3  4  2  0  0  0
  3 23  1  0  0  0
  4  5  1  0  0  0
  4  7  1  0  0  0
  5  6  2  0  0  0
  5 24  1  0  0  0
  6 25  1  0  0  0
  7 12  1  0  0  0
  7  8  2  0  0  0
  8  9  1  0  0  0
  8 26  1  0  0  0
  9 10  2  0  0  0
  9 27  1  0  0  0
 10 11  1  0  0  0
 10 13  1  0  0  0
 11 12  2  0  0  0
 11 28  1  0  0  0
 12 29  1  0  0  0
 13 17  2  0  0  0
 13 14  1  0  0  0
 14 15  2  0  0  0
 15 16  1  0  0  0
 16 17  1  0  0  0
 16 18  1  0  0  0
 18 19  1  0  0  0
 18 30  1  0  0  0
 18 31  1  0  0  0
 19 20  1  0  0  0
 19 32  1  0  0  0
 19 33  1  0  0  0
 20 34  1  0  0  0
M  END
> <s_m_entry_id>
11629

> <s_m_entry_name>
ligand_docking-pose.39

> <s_m_Source_Path>
/home/csk/Desktop/cluster/DUD-E-result/aofb

> <s_m_Source_File>
ligand_docking-pose.sdf

> <i_m_Source_File_Index>
39

> <i_lp_mmshare_version>
53161

> <r_lp_tautomer_probability>
1

> <s_lp_Force_Field>
OPLS_2005

> <r_lp_Energy>
20.056227

> <b_lp_Chiralities_Consistent>
1

> <s_lp_Variant>
240128-1

> <s_i_glide_gridfile>
glide-grid_1s3b

> <i_i_glide_lignum>
65

> <i_i_glide_rotatable_bonds>
5

> <r_i_docking_score>
-7.59700719514165

> <r_i_glide_ligand_efficiency>
-0.379850359757082

> <r_i_glide_ligand_efficiency_sa>
-1.03107250716493

> <r_i_glide_ligand_efficiency_ln>
-1.90128033487702

> <r_i_glide_gscore>
-7.59700719514165

> <r_i_glide_lipo>
-3.29065885259981

> <r_i_glide_hbond>
-0.38434109527791

> <r_i_glide_metal>
0

> <r_i_glide_rewards>
-3.06875528055772

> <r_i_glide_evdw>
-24.0467300415039

> <r_i_glide_ecoul>
-4.37057876586914

> <r_i_glide_erotb>
1.00467135024935

> <r_i_glide_esite>
0

> <r_i_glide_emodel>
-28.6927699725192

> <r_i_glide_energy>
-28.417308807373

> <r_i_glide_einternal>
2.21703147888184

> <i_i_glide_confnum>
67

> <i_i_glide_posenum>
293

> <r_i_glide_eff_state_penalty>
0

> <i_f3d_flags>
0

> <s_user_duplicate_titles>
240128

> <s_m_subgroup_title>
dock_pv

> <s_m_subgroupid>
dock_pv1

> <b_m_subgroup_collapsed>
0

$$$$
20398
                    3D
 Schrodinger Suite 2021-1.
 36 38  0  0  1  0            999 V2000
   51.7623  152.4554   26.0050 C   0  0  0  0  0  0
   52.2757  153.8801   25.8698 C   0  0  0  0  0  0
   53.0578  154.3083   24.8473 C   0  0  0  0  0  0
   53.6298  155.6808   24.8705 C   0  0  0  0  0  0
   54.4560  156.1720   24.1040 O   0  0  0  0  0  0
   53.1925  156.5387   25.8410 O   0  0  0  0  0  0
   52.4397  156.1057   26.9078 C   0  0  0  0  0  0
   51.9339  154.8008   26.9763 C   0  0  0  0  0  0
   51.1675  154.4352   28.0857 C   0  0  0  0  0  0
   50.8035  155.3993   29.0146 C   0  0  0  0  0  0
   51.2559  156.7140   28.9040 C   0  0  0  0  0  0
   52.1603  157.0440   27.8956 C   0  0  0  0  0  0
   50.6596  157.6209   29.7437 O   0  0  0  0  0  0
   50.7864  159.0236   29.5436 C   0  0  0  0  0  0
   49.7183  159.7046   30.3887 C   0  0  0  0  0  0
   50.0561  160.5603   31.4420 C   0  0  0  0  0  0
   49.0338  161.0440   32.2613 C   0  0  0  0  0  0
   47.7096  160.6873   31.9974 C   0  0  0  0  0  0
   47.4488  159.8601   30.9040 C   0  0  0  0  0  0
   48.4293  159.3682   30.1043 N   0  0  0  0  0  0
   53.5114  153.4503   23.6636 C   0  0  0  0  0  0
   52.0560  151.7998   25.1902 H   0  0  0  0  0  0
   52.1681  152.0097   26.9040 H   0  0  0  0  0  0
   50.6795  152.4544   26.1040 H   0  0  0  0  0  0
   50.7838  153.4342   28.2073 H   0  0  0  0  0  0
   50.1253  155.1304   29.8102 H   0  0  0  0  0  0
   52.5450  158.0471   27.8000 H   0  0  0  0  0  0
   50.6276  159.3029   28.5040 H   0  0  0  0  0  0
   51.7863  159.3536   29.8310 H   0  0  0  0  0  0
   51.0862  160.8084   31.6562 H   0  0  0  0  0  0
   49.2736  161.6822   33.0992 H   0  0  0  0  0  0
   46.9058  161.0440   32.6242 H   0  0  0  0  0  0
   46.4374  159.5672   30.6611 H   0  0  0  0  0  0
   53.6563  152.4084   23.9410 H   0  0  0  0  0  0
   52.7597  153.4784   22.8756 H   0  0  0  0  0  0
   54.4559  153.7860   23.2314 H   0  0  0  0  0  0
  1  2  1  0  0  0
  1 22  1  0  0  0
  1 23  1  0  0  0
  1 24  1  0  0  0
  2  8  1  0  0  0
  2  3  2  0  0  0
  3  4  1  0  0  0
  3 21  1  0  0  0
  4  5  2  0  0  0
  4  6  1  0  0  0
  6  7  1  0  0  0
  7 12  1  0  0  0
  7  8  2  0  0  0
  8  9  1  0  0  0
  9 10  2  0  0  0
  9 25  1  0  0  0
 10 11  1  0  0  0
 10 26  1  0  0  0
 11 12  2  0  0  0
 11 13  1  0  0  0
 12 27  1  0  0  0
 13 14  1  0  0  0
 14 15  1  0  0  0
 14 28  1  0  0  0
 14 29  1  0  0  0
 15 20  1  0  0  0
 15 16  2  0  0  0
 16 17  1  0  0  0
 16 30  1  0  0  0
 17 18  2  0  0  0
 17 31  1  0  0  0
 18 19  1  0  0  0
 18 32  1  0  0  0
 19 20  2  0  0  0
 19 33  1  0  0  0
 21 34  1  0  0  0
 21 35  1  0  0  0
 21 36  1  0  0  0
M  END
> <s_m_entry_id>
11630

> <s_m_entry_name>
ligand_docking-pose.40

> <s_m_Source_Path>
/home/csk/Desktop/cluster/DUD-E-result/aofb

> <s_m_Source_File>
ligand_docking-pose.sdf

> <i_m_Source_File_Index>
40

> <i_lp_mmshare_version>
53161

> <r_lp_tautomer_probability>
1

> <s_lp_Force_Field>
OPLS_2005

> <r_lp_Energy>
21.756753

> <b_lp_Chiralities_Consistent>
1

> <s_lp_Variant>
20398-1

> <s_i_glide_gridfile>
glide-grid_1s3b

> <i_i_glide_lignum>
289

> <i_i_glide_rotatable_bonds>
3

> <r_i_docking_score>
-7.57737105655966

> <r_i_glide_ligand_efficiency>
-0.360827193169508

> <r_i_glide_ligand_efficiency_sa>
-0.995494865720827

> <r_i_glide_ligand_efficiency_ln>
-1.87348968221445

> <r_i_glide_gscore>
-7.57737105655966

> <r_i_glide_lipo>
-4.2156096538253

> <r_i_glide_hbond>
0

> <r_i_glide_metal>
0

> <r_i_glide_rewards>
-2.35999693689235

> <r_i_glide_evdw>
-28.7350063323975

> <r_i_glide_ecoul>
-1.66827964782715

> <r_i_glide_erotb>
0.685227797951938

> <r_i_glide_esite>
0

> <r_i_glide_emodel>
-34.9482578882131

> <r_i_glide_energy>
-30.4032859802246

> <r_i_glide_einternal>
6.49289608001709

> <i_i_glide_confnum>
14

> <i_i_glide_posenum>
99

> <r_i_glide_eff_state_penalty>
0

> <i_f3d_flags>
0

> <s_user_duplicate_titles>
20398

> <s_m_subgroup_title>
dock_pv

> <s_m_subgroupid>
dock_pv1

> <b_m_subgroup_collapsed>
0

$$$$
545097
                    3D
 Schrodinger Suite 2021-1.
 24 24  0  0  1  0            999 V2000
   51.1576  160.5625   30.6582 C   0  0  0  0  0  0
   51.5133  159.4440   29.9104 C   0  0  0  0  0  0
   50.6245  158.3738   29.7040 C   0  0  0  0  0  0
   49.3284  158.5155   30.2379 C   0  0  0  0  0  0
   48.9488  159.6406   30.9798 C   0  0  0  0  0  0
   49.8845  160.6477   31.2056 C   0  0  0  0  0  0
   47.5424  159.7808   31.5540 C   0  0  0  0  0  0
   47.5927  160.1480   32.8357 F   0  0  0  0  0  0
   46.8832  160.7103   30.8662 F   0  0  0  0  0  0
   46.8560  158.6440   31.4702 F   0  0  0  0  0  0
   51.0907  157.1219   28.9937 C   0  0  0  0  0  0
   50.4560  155.9237   29.0394 C   0  0  0  0  0  0
   49.3134  155.6573   29.7040 F   0  0  0  0  0  0
   52.3443  157.2505   28.1203 C   0  0  0  0  0  0
   52.4560  156.3224   27.0009 N   0  0  0  0  0  0
   51.8754  161.3507   30.8334 H   0  0  0  0  0  0
   52.5250  159.4062   29.5401 H   0  0  0  0  0  0
   48.5925  157.7417   30.1040 H   0  0  0  0  0  0
   49.6230  161.5115   31.7989 H   0  0  0  0  0  0
   50.8189  155.0513   28.5165 H   0  0  0  0  0  0
   53.2357  157.1989   28.7477 H   0  0  0  0  0  0
   52.3179  158.2440   27.6794 H   0  0  0  0  0  0
   53.1464  156.6664   26.3492 H   0  0  0  0  0  0
   52.8100  155.4287   27.3234 H   0  0  0  0  0  0
  1  6  1  0  0  0
  1  2  2  0  0  0
  1 16  1  0  0  0
  2  3  1  0  0  0
  2 17  1  0  0  0
  3  4  2  0  0  0
  3 11  1  0  0  0
  4  5  1  0  0  0
  4 18  1  0  0  0
  5  6  2  0  0  0
  5  7  1  0  0  0
  6 19  1  0  0  0
  7  8  1  0  0  0
  7  9  1  0  0  0
  7 10  1  0  0  0
 11 12  2  0  0  0
 11 14  1  0  0  0
 12 13  1  0  0  0
 12 20  1  0  0  0
 14 15  1  0  0  0
 14 21  1  0  0  0
 14 22  1  0  0  0
 15 23  1  0  0  0
 15 24  1  0  0  0
M  END
> <s_m_entry_id>
11631

> <s_m_entry_name>
ligand_docking-pose.41

> <s_m_Source_Path>
/home/csk/Desktop/cluster/DUD-E-result/aofb

> <s_m_Source_File>
ligand_docking-pose.sdf

> <i_m_Source_File_Index>
41

> <i_lp_mmshare_version>
53161

> <r_lp_tautomer_probability>
1

> <s_lp_Force_Field>
OPLS_2005

> <r_lp_Energy>
13.607055

> <b_lp_Chiralities_Consistent>
1

> <s_lp_Variant>
545097-1

> <s_i_glide_gridfile>
glide-grid_1s3b

> <i_i_glide_lignum>
101

> <i_i_glide_rotatable_bonds>
3

> <r_i_docking_score>
-7.56581338616189

> <r_i_glide_ligand_efficiency>
-0.504387559077459

> <r_i_glide_ligand_efficiency_sa>
-1.24392668721603

> <r_i_glide_ligand_efficiency_ln>
-2.04037512326909

> <r_i_glide_gscore>
-7.56581338616189

> <r_i_glide_lipo>
-2.56152182110392

> <r_i_glide_hbond>
-0.153700412163781

> <r_i_glide_metal>
0

> <r_i_glide_rewards>
-4.08653443121939

> <r_i_glide_evdw>
-18.3198165893555

> <r_i_glide_ecoul>
-3.65662693977356

> <r_i_glide_erotb>
0.700428148759017

> <r_i_glide_esite>
0

> <r_i_glide_emodel>
-28.0807502724726

> <r_i_glide_energy>
-21.976443529129

> <r_i_glide_einternal>
5.47189617156982

> <i_i_glide_confnum>
3

> <i_i_glide_posenum>
360

> <r_i_glide_eff_state_penalty>
0

> <i_f3d_flags>
0

> <s_user_duplicate_titles>
545097

> <s_m_subgroup_title>
dock_pv

> <s_m_subgroupid>
dock_pv1

> <b_m_subgroup_collapsed>
0

$$$$
573345
                    3D
 Schrodinger Suite 2021-1.
 41 43  0  0  1  0            999 V2000
   52.8609  152.3684   22.7159 C   0  0  0  0  0  0
   52.6856  152.6249   24.2197 C   0  0  2  0  0  0
   53.1404  154.0070   24.6264 C   0  0  0  0  0  0
   54.2246  154.5536   24.0375 C   0  0  0  0  0  0
   54.4535  155.9631   24.1040 C   0  0  0  0  0  0
   54.8560  156.6440   23.1921 O   0  0  0  0  0  0
   53.6560  156.6440   24.9875 O   0  0  0  0  0  0
   52.8560  156.0256   25.9239 C   0  0  0  0  0  0
   52.4560  154.7084   25.7494 C   0  0  0  0  0  0
   51.6538  154.1245   26.7454 C   0  0  0  0  0  0
   51.2629  154.8703   27.8702 C   0  0  0  0  0  0
   51.6560  156.2078   28.0206 C   0  0  0  0  0  0
   52.4828  156.7601   27.0405 C   0  0  0  0  0  0
   51.1304  156.9543   29.0657 O   0  0  0  0  0  0
   51.3583  158.3760   29.0975 C   0  0  0  0  0  0
   50.4560  159.0953   30.1040 C   0  0  0  0  0  0
   50.9010  160.2818   30.6989 C   0  0  0  0  0  0
   50.1046  160.9488   31.6324 C   0  0  0  0  0  0
   48.8444  160.4513   31.9604 C   0  0  0  0  0  0
   48.3877  159.2771   31.3666 C   0  0  0  0  0  0
   49.1916  158.6010   30.4504 C   0  0  0  0  0  0
   47.1712  158.7848   31.6882 F   0  0  0  0  0  0
   53.2982  151.4941   25.0199 C   0  0  0  0  0  0
   53.2560  150.3201   24.6608 O   0  0  0  0  0  0
   53.9434  151.8440   26.1040 N   0  0  0  0  0  0
   53.9182  152.3330   22.5040 H   0  0  0  0  0  0
   52.4560  151.4109   22.3920 H   0  0  0  0  0  0
   52.4560  153.1683   22.1040 H   0  0  0  0  0  0
   51.6560  152.6440   24.5028 H   0  0  0  0  0  0
   54.7973  154.0148   23.3031 H   0  0  0  0  0  0
   51.3556  153.0886   26.6863 H   0  0  0  0  0  0
   50.6321  154.4152   28.6193 H   0  0  0  0  0  0
   52.8433  157.7713   27.1307 H   0  0  0  0  0  0
   52.4114  158.5671   29.3041 H   0  0  0  0  0  0
   51.1669  158.8411   28.1327 H   0  0  0  0  0  0
   51.8767  160.6791   30.4583 H   0  0  0  0  0  0
   50.4649  161.8512   32.1037 H   0  0  0  0  0  0
   48.2261  160.9671   32.6797 H   0  0  0  0  0  0
   48.8287  157.6756   30.0329 H   0  0  0  0  0  0
   54.4509  151.1169   26.5763 H   0  0  0  0  0  0
   54.0560  152.8170   26.3849 H   0  0  0  0  0  0
  1  2  1  0  0  0
  1 26  1  0  0  0
  1 27  1  0  0  0
  1 28  1  0  0  0
  2  3  1  0  0  0
  2 23  1  0  0  0
  2 29  1  0  0  0
  3  9  1  0  0  0
  3  4  2  0  0  0
  4  5  1  0  0  0
  4 30  1  0  0  0
  5  6  2  0  0  0
  5  7  1  0  0  0
  7  8  1  0  0  0
  8 13  1  0  0  0
  8  9  2  0  0  0
  9 10  1  0  0  0
 10 11  2  0  0  0
 10 31  1  0  0  0
 11 12  1  0  0  0
 11 32  1  0  0  0
 12 13  2  0  0  0
 12 14  1  0  0  0
 13 33  1  0  0  0
 14 15  1  0  0  0
 15 16  1  0  0  0
 15 34  1  0  0  0
 15 35  1  0  0  0
 16 21  1  0  0  0
 16 17  2  0  0  0
 17 18  1  0  0  0
 17 36  1  0  0  0
 18 19  2  0  0  0
 18 37  1  0  0  0
 19 20  1  0  0  0
 19 38  1  0  0  0
 20 21  2  0  0  0
 20 22  1  0  0  0
 21 39  1  0  0  0
 23 24  2  0  0  0
 23 25  1  0  0  0
 25 40  1  0  0  0
 25 41  1  0  0  0
M  END
> <s_m_entry_id>
11634

> <s_m_entry_name>
ligand_docking-pose.44

> <s_m_Source_Path>
/home/csk/Desktop/cluster/DUD-E-result/aofb

> <s_m_Source_File>
ligand_docking-pose.sdf

> <i_m_Source_File_Index>
44

> <i_lp_mmshare_version>
53161

> <r_lp_tautomer_probability>
1

> <s_lp_Force_Field>
OPLS_2005

> <r_lp_Energy>
17.731004

> <b_lp_Chiralities_Consistent>
1

> <s_lp_Variant>
573345-1

> <s_i_glide_gridfile>
glide-grid_1s3b

> <i_i_glide_lignum>
303

> <i_i_glide_rotatable_bonds>
5

> <r_i_docking_score>
-7.53093400931434

> <r_i_glide_ligand_efficiency>
-0.301237360372573

> <r_i_glide_ligand_efficiency_sa>
-0.880823384196739

> <r_i_glide_ligand_efficiency_ln>
-1.78505704408819

> <r_i_glide_gscore>
-7.53093400931434

> <r_i_glide_lipo>
-4.25758336817987

> <r_i_glide_hbond>
-0.337762701970179

> <r_i_glide_metal>
0

> <r_i_glide_rewards>
-2.6417981160318

> <r_i_glide_evdw>
-0.525143325328827

> <r_i_glide_ecoul>
-5.8252534866333

> <r_i_glide_erotb>
0.650550924670747

> <r_i_glide_esite>
-0.0442955585417949

> <r_i_glide_emodel>
-28.8705405133241

> <r_i_glide_energy>
-6.35039681196213

> <r_i_glide_einternal>
6.85784959793091

> <i_i_glide_confnum>
25

> <i_i_glide_posenum>
46

> <r_i_glide_eff_state_penalty>
0

> <i_f3d_flags>
0

> <s_user_duplicate_titles>
573345

> <s_m_subgroup_title>
dock_pv

> <s_m_subgroupid>
dock_pv1

> <b_m_subgroup_collapsed>
0

$$$$
17929
                    3D
 Schrodinger Suite 2021-1.
 39 41  0  0  1  0            999 V2000
   46.8880  159.6263   30.8230 C   0  0  0  0  0  0
   47.9548  159.2565   30.0032 C   0  0  0  0  0  0
   49.2781  159.4489   30.4234 C   0  0  0  0  0  0
   49.5118  160.0607   31.6607 C   0  0  0  0  0  0
   48.4439  160.4070   32.4916 C   0  0  0  0  0  0
   47.1339  160.1933   32.0703 C   0  0  0  0  0  0
   48.7342  161.0426   34.0631 Cl  0  0  0  0  0  0
   50.4406  158.9102   29.5895 C   0  0  0  0  0  0
   50.4670  157.4955   29.7671 O   0  0  0  0  0  0
   51.1499  156.6658   28.9060 C   0  0  0  0  0  0
   50.7897  155.3231   28.9579 C   0  0  0  0  0  0
   51.2395  154.4369   27.9946 C   0  0  0  0  0  0
   51.9974  154.9204   26.9288 C   0  0  0  0  0  0
   52.4547  156.2434   26.9342 C   0  0  0  0  0  0
   52.0744  157.1022   27.9607 C   0  0  0  0  0  0
   52.3333  154.0316   25.8228 C   0  0  0  0  0  0
   52.5939  154.3446   24.6346 N   0  0  0  0  0  0
   52.9051  153.1794   24.1025 N   0  0  0  0  0  0
   52.9231  152.1404   25.0129 C   0  0  0  0  0  0
   53.2566  150.9597   24.9083 O   0  0  0  0  0  0
   52.4515  152.7005   26.1036 O   0  0  0  0  0  0
   53.3594  153.0662   22.7350 C   0  0  0  0  0  0
   54.6800  153.8446   22.5058 C   0  0  0  0  0  0
   55.4646  153.3978   21.3041 C   0  0  0  0  0  0
   56.0680  153.0683   20.3610 N   0  0  0  0  0  0
   45.8704  159.4563   30.5022 H   0  0  0  0  0  0
   47.7385  158.7940   29.0522 H   0  0  0  0  0  0
   50.5227  160.2219   32.0059 H   0  0  0  0  0  0
   46.3072  160.4548   32.7137 H   0  0  0  0  0  0
   51.3893  159.3399   29.9125 H   0  0  0  0  0  0
   50.2934  159.1930   28.5465 H   0  0  0  0  0  0
   50.1151  154.9789   29.7263 H   0  0  0  0  0  0
   50.9233  153.4040   28.0454 H   0  0  0  0  0  0
   53.0938  156.6156   26.1445 H   0  0  0  0  0  0
   52.4053  158.1302   27.9409 H   0  0  0  0  0  0
   52.5586  153.4451   22.1043 H   0  0  0  0  0  0
   53.4358  152.0120   22.5073 H   0  0  0  0  0  0
   55.2567  153.8440   23.4257 H   0  0  0  0  0  0
   54.4843  154.9118   22.4504 H   0  0  0  0  0  0
  1  6  1  0  0  0
  1  2  2  0  0  0
  1 26  1  0  0  0
  2  3  1  0  0  0
  2 27  1  0  0  0
  3  4  2  0  0  0
  3  8  1  0  0  0
  4  5  1  0  0  0
  4 28  1  0  0  0
  5  6  2  0  0  0
  5  7  1  0  0  0
  6 29  1  0  0  0
  8  9  1  0  0  0
  8 30  1  0  0  0
  8 31  1  0  0  0
  9 10  1  0  0  0
 10 15  1  0  0  0
 10 11  2  0  0  0
 11 12  1  0  0  0
 11 32  1  0  0  0
 12 13  2  0  0  0
 12 33  1  0  0  0
 13 14  1  0  0  0
 13 16  1  0  0  0
 14 15  2  0  0  0
 14 34  1  0  0  0
 15 35  1  0  0  0
 16 21  1  0  0  0
 16 17  2  0  0  0
 17 18  1  0  0  0
 18 19  1  0  0  0
 18 22  1  0  0  0
 19 20  2  0  0  0
 19 21  1  0  0  0
 22 23  1  0  0  0
 22 36  1  0  0  0
 22 37  1  0  0  0
 23 24  1  0  0  0
 23 38  1  0  0  0
 23 39  1  0  0  0
 24 25  3  0  0  0
M  END
> <s_m_entry_id>
11635

> <s_m_entry_name>
ligand_docking-pose.45

> <s_m_Source_Path>
/home/csk/Desktop/cluster/DUD-E-result/aofb

> <s_m_Source_File>
ligand_docking-pose.sdf

> <i_m_Source_File_Index>
45

> <i_lp_mmshare_version>
53161

> <r_lp_tautomer_probability>
1

> <s_lp_Force_Field>
OPLS_2005

> <r_lp_Energy>
23.371389

> <b_lp_Chiralities_Consistent>
1

> <s_lp_Variant>
17929-1

> <s_i_glide_gridfile>
glide-grid_1s3b

> <i_i_glide_lignum>
113

> <i_i_glide_rotatable_bonds>
6

> <r_i_docking_score>
-7.52462857433245

> <r_i_glide_ligand_efficiency>
-0.300985142973298

> <r_i_glide_ligand_efficiency_sa>
-0.880085896048163

> <r_i_glide_ligand_efficiency_ln>
-1.78356246703884

> <r_i_glide_gscore>
-7.52462857433245

> <r_i_glide_lipo>
-4.44742247316111

> <r_i_glide_hbond>
0

> <r_i_glide_metal>
0

> <r_i_glide_rewards>
-2.05434643847391

> <r_i_glide_evdw>
-16.4357318878174

> <r_i_glide_ecoul>
-6.31548547744751

> <r_i_glide_erotb>
0.755458624012281

> <r_i_glide_esite>
-0.00920887070170299

> <r_i_glide_emodel>
-19.6313419939139

> <r_i_glide_energy>
-22.7512173652649

> <r_i_glide_einternal>
9.69706726074219

> <i_i_glide_confnum>
17

> <i_i_glide_posenum>
217

> <r_i_glide_eff_state_penalty>
0

> <i_f3d_flags>
0

> <s_user_duplicate_titles>
17929

> <s_m_subgroup_title>
dock_pv

> <s_m_subgroupid>
dock_pv1

> <b_m_subgroup_collapsed>
0

$$$$
210020
                    3D
 Schrodinger Suite 2021-1.
 30 33  0  0  1  0            999 V2000
   52.5842  151.5948   25.3931 C   0  0  0  0  0  0
   53.2330  152.2283   24.3316 C   0  0  0  0  0  0
   53.2821  153.6188   24.2680 C   0  0  0  0  0  0
   52.7263  154.3607   25.3091 C   0  0  0  0  0  0
   52.0516  153.7334   26.3593 C   0  0  0  0  0  0
   51.9511  152.3467   26.3861 C   0  0  0  0  0  0
   51.6560  154.7639   27.3282 C   0  0  0  0  0  0
   52.2254  155.9559   26.9341 C   0  0  0  0  0  0
   52.1136  157.0440   27.7935 C   0  0  0  0  0  0
   51.2560  156.9441   28.9040 C   0  0  0  0  0  0
   50.6492  155.7462   29.1956 N   0  0  0  0  0  0
   50.9047  154.6440   28.4574 N   0  0  0  0  0  0
   50.8125  158.1863   29.6220 C   0  0  0  0  0  0
   49.5254  158.3101   30.1676 C   0  0  0  0  0  0
   49.1244  159.4746   30.8264 C   0  0  0  0  0  0
   50.0079  160.5470   30.9443 C   0  0  0  0  0  0
   51.2793  160.4583   30.3820 C   0  0  0  0  0  0
   51.6560  159.3008   29.7045 C   0  0  0  0  0  0
   52.4014  161.7650   30.5187 Cl  0  0  0  0  0  0
   47.5420  159.5775   31.5092 Cl  0  0  0  0  0  0
   52.8560  155.8006   25.5994 C   0  0  0  0  0  0
   53.4108  156.6440   24.9040 O   0  0  0  0  0  0
   52.5348  150.5163   25.4270 H   0  0  0  0  0  0
   53.6561  151.6374   23.5362 H   0  0  0  0  0  0
   53.8135  154.0939   23.4561 H   0  0  0  0  0  0
   51.4385  151.8452   27.1942 H   0  0  0  0  0  0
   52.5629  157.9838   27.5204 H   0  0  0  0  0  0
   48.8292  157.4868   30.1040 H   0  0  0  0  0  0
   49.7115  161.4418   31.4719 H   0  0  0  0  0  0
   52.6566  159.2478   29.3040 H   0  0  0  0  0  0
  1  6  1  0  0  0
  1  2  2  0  0  0
  1 23  1  0  0  0
  2  3  1  0  0  0
  2 24  1  0  0  0
  3  4  2  0  0  0
  3 25  1  0  0  0
  4 21  1  0  0  0
  4  5  1  0  0  0
  5  6  2  0  0  0
  5  7  1  0  0  0
  6 26  1  0  0  0
  7 12  2  0  0  0
  7  8  1  0  0  0
  8  9  2  0  0  0
  8 21  1  0  0  0
  9 10  1  0  0  0
  9 27  1  0  0  0
 10 11  2  0  0  0
 10 13  1  0  0  0
 11 12  1  0  0  0
 13 18  1  0  0  0
 13 14  2  0  0  0
 14 15  1  0  0  0
 14 28  1  0  0  0
 15 16  2  0  0  0
 15 20  1  0  0  0
 16 17  1  0  0  0
 16 29  1  0  0  0
 17 18  2  0  0  0
 17 19  1  0  0  0
 18 30  1  0  0  0
 21 22  2  0  0  0
M  END
> <s_m_entry_id>
11636

> <s_m_entry_name>
ligand_docking-pose.46

> <s_m_Source_Path>
/home/csk/Desktop/cluster/DUD-E-result/aofb

> <s_m_Source_File>
ligand_docking-pose.sdf

> <i_m_Source_File_Index>
46

> <i_lp_mmshare_version>
53161

> <r_lp_tautomer_probability>
1

> <s_lp_Force_Field>
OPLS_2005

> <r_lp_Energy>
41.186835

> <b_lp_Chiralities_Consistent>
1

> <s_lp_Variant>
210020-1

> <s_i_glide_gridfile>
glide-grid_1s3b

> <i_i_glide_lignum>
15

> <i_i_glide_rotatable_bonds>
1

> <r_i_docking_score>
-7.5154644381473

> <r_i_glide_ligand_efficiency>
-0.341612019915786

> <r_i_glide_ligand_efficiency_sa>
-0.957210314642405

> <r_i_glide_ligand_efficiency_ln>
-1.83705364190926

> <r_i_glide_gscore>
-7.5154644381473

> <r_i_glide_lipo>
-4.04807829176016

> <r_i_glide_hbond>
0

> <r_i_glide_metal>
0

> <r_i_glide_rewards>
-2.09322743178904

> <r_i_glide_evdw>
-22.8182945251465

> <r_i_glide_ecoul>
-2.72369360923767

> <r_i_glide_erotb>
0.175310053044877

> <r_i_glide_esite>
0

> <r_i_glide_emodel>
-25.992541323105

> <r_i_glide_energy>
-25.5419881343842

> <r_i_glide_einternal>
0.157499507069588

> <i_i_glide_confnum>
2

> <i_i_glide_posenum>
70

> <r_i_glide_eff_state_penalty>
0

> <i_f3d_flags>
0

> <s_user_duplicate_titles>
210020

> <s_m_subgroup_title>
dock_pv

> <s_m_subgroupid>
dock_pv1

> <b_m_subgroup_collapsed>
0

$$$$
573348
                    3D
 Schrodinger Suite 2021-1.
 39 41  0  0  1  0            999 V2000
   49.6536  161.0441   32.0166 C   0  0  0  0  0  0
   50.5235  160.3984   31.1378 C   0  0  0  0  0  0
   50.0568  159.3802   30.2988 C   0  0  0  0  0  0
   48.6970  159.0429   30.3318 C   0  0  0  0  0  0
   47.8186  159.7203   31.1808 C   0  0  0  0  0  0
   48.3005  160.7104   32.0352 C   0  0  0  0  0  0
   46.1341  159.3473   31.1683 Cl  0  0  0  0  0  0
   51.0299  158.6496   29.3727 C   0  0  0  0  0  0
   50.8550  157.2275   29.4689 O   0  0  0  0  0  0
   51.3748  156.3799   28.5039 C   0  0  0  0  0  0
   50.9580  155.0446   28.5059 C   0  0  0  0  0  0
   51.3039  154.1771   27.4648 C   0  0  0  0  0  0
   52.0562  154.6501   26.3787 C   0  0  0  0  0  0
   52.6506  153.8176   25.2969 C   0  0  0  0  0  0
   53.5761  154.3298   24.4602 C   0  0  0  0  0  0
   53.9788  155.7173   24.5040 C   0  0  0  0  0  0
   54.8559  156.2440   23.8264 O   0  0  0  0  0  0
   53.2562  156.5232   25.3691 O   0  0  0  0  0  0
   52.4815  155.9856   26.3901 C   0  0  0  0  0  0
   52.2033  156.8197   27.4667 C   0  0  0  0  0  0
   52.3618  152.3456   25.1946 C   0  0  0  0  0  0
   53.5675  151.4394   25.4079 C   0  0  0  0  0  0
   53.2559  150.1119   24.9040 N   0  0  0  0  0  0
   50.0336  161.8145   32.6727 H   0  0  0  0  0  0
   51.5685  160.6745   31.1370 H   0  0  0  0  0  0
   48.3149  158.2538   29.7041 H   0  0  0  0  0  0
   47.6259  161.2274   32.7015 H   0  0  0  0  0  0
   52.0568  158.8967   29.6379 H   0  0  0  0  0  0
   50.8541  159.0413   28.3708 H   0  0  0  0  0  0
   50.3455  154.6830   29.3179 H   0  0  0  0  0  0
   50.9898  153.1479   27.5357 H   0  0  0  0  0  0
   54.0357  153.6913   23.7200 H   0  0  0  0  0  0
   52.5670  157.8369   27.4428 H   0  0  0  0  0  0
   52.0567  152.2489   24.1621 H   0  0  0  0  0  0
   51.5320  152.0314   25.8213 H   0  0  0  0  0  0
   53.7922  151.4443   26.4692 H   0  0  0  0  0  0
   54.4564  151.8120   24.9044 H   0  0  0  0  0  0
   53.1410  150.1244   23.9002 H   0  0  0  0  0  0
   53.9938  149.4574   25.1250 H   0  0  0  0  0  0
  1  6  1  0  0  0
  1  2  2  0  0  0
  1 24  1  0  0  0
  2  3  1  0  0  0
  2 25  1  0  0  0
  3  4  2  0  0  0
  3  8  1  0  0  0
  4  5  1  0  0  0
  4 26  1  0  0  0
  5  6  2  0  0  0
  5  7  1  0  0  0
  6 27  1  0  0  0
  8  9  1  0  0  0
  8 28  1  0  0  0
  8 29  1  0  0  0
  9 10  1  0  0  0
 10 20  1  0  0  0
 10 11  2  0  0  0
 11 12  1  0  0  0
 11 30  1  0  0  0
 12 13  2  0  0  0
 12 31  1  0  0  0
 13 19  1  0  0  0
 13 14  1  0  0  0
 14 15  2  0  0  0
 14 21  1  0  0  0
 15 16  1  0  0  0
 15 32  1  0  0  0
 16 17  2  0  0  0
 16 18  1  0  0  0
 18 19  1  0  0  0
 19 20  2  0  0  0
 20 33  1  0  0  0
 21 22  1  0  0  0
 21 34  1  0  0  0
 21 35  1  0  0  0
 22 23  1  0  0  0
 22 36  1  0  0  0
 22 37  1  0  0  0
 23 38  1  0  0  0
 23 39  1  0  0  0
M  END
> <s_m_entry_id>
11641

> <s_m_entry_name>
ligand_docking-pose.51

> <s_m_Source_Path>
/home/csk/Desktop/cluster/DUD-E-result/aofb

> <s_m_Source_File>
ligand_docking-pose.sdf

> <i_m_Source_File_Index>
51

> <i_lp_mmshare_version>
53161

> <r_lp_tautomer_probability>
1

> <s_lp_Force_Field>
OPLS_2005

> <r_lp_Energy>
20.536661

> <b_lp_Chiralities_Consistent>
1

> <s_lp_Variant>
573348-1

> <s_i_glide_gridfile>
glide-grid_1s3b

> <i_i_glide_lignum>
106

> <i_i_glide_rotatable_bonds>
5

> <r_i_docking_score>
-7.48107848154379

> <r_i_glide_ligand_efficiency>
-0.325264281806252

> <r_i_glide_ligand_efficiency_sa>
-0.925008349787147

> <r_i_glide_ligand_efficiency_ln>
-1.80899261150652

> <r_i_glide_gscore>
-7.48107848154379

> <r_i_glide_lipo>
-4.5621360856422

> <r_i_glide_hbond>
0

> <r_i_glide_metal>
0

> <r_i_glide_rewards>
-2.05831895536201

> <r_i_glide_evdw>
-27.4980697631836

> <r_i_glide_ecoul>
-1.18114578723907

> <r_i_glide_erotb>
0.691451915705462

> <r_i_glide_esite>
0

> <r_i_glide_emodel>
-30.9215656082206

> <r_i_glide_energy>
-28.6792155504227

> <r_i_glide_einternal>
6.53323411941528

> <i_i_glide_confnum>
4

> <i_i_glide_posenum>
125

> <r_i_glide_eff_state_penalty>
0

> <i_f3d_flags>
0

> <s_user_duplicate_titles>
573348

> <s_m_subgroup_title>
dock_pv

> <s_m_subgroupid>
dock_pv1

> <b_m_subgroup_collapsed>
0

$$$$
18073
                    3D
 Schrodinger Suite 2021-1.
 39 41  0  0  1  0            999 V2000
   47.6804  160.6511   32.3444 C   0  0  0  0  0  0
   47.3163  159.7657   31.3331 C   0  0  0  0  0  0
   48.2888  159.2760   30.4654 C   0  0  0  0  0  0
   49.6223  159.6782   30.6003 C   0  0  0  0  0  0
   49.9735  160.5931   31.5978 C   0  0  0  0  0  0
   49.0043  161.0615   32.4819 C   0  0  0  0  0  0
   50.6893  159.0734   29.6937 C   0  0  0  0  0  0
   50.5872  157.6552   29.7830 O   0  0  0  0  0  0
   51.2559  156.8352   28.9040 C   0  0  0  0  0  0
   52.2231  157.2706   28.0056 C   0  0  0  0  0  0
   52.5641  156.4615   26.9321 C   0  0  0  0  0  0
   52.0559  155.1620   26.8471 C   0  0  0  0  0  0
   51.2562  154.6610   27.8814 C   0  0  0  0  0  0
   50.8430  155.5059   28.8994 C   0  0  0  0  0  0
   52.4317  154.2812   25.7410 C   0  0  0  0  0  0
   52.2310  153.0411   25.6732 N   0  0  0  0  0  0
   52.9056  152.6883   24.5952 N   0  0  0  0  0  0
   53.4711  153.7624   23.9464 C   0  0  0  0  0  0
   54.1048  153.8440   22.9040 O   0  0  0  0  0  0
   53.1645  154.7911   24.7159 O   0  0  0  0  0  0
   52.9539  151.3080   24.1366 C   0  0  0  0  0  0
   53.8465  150.3929   24.9049 C   0  0  0  0  0  0
   53.6585  149.0437   24.5039 O   0  0  0  0  0  0
   46.9313  161.0230   33.0285 H   0  0  0  0  0  0
   46.2890  159.4454   31.2344 H   0  0  0  0  0  0
   48.0082  158.5642   29.7039 H   0  0  0  0  0  0
   50.9990  160.9124   31.7204 H   0  0  0  0  0  0
   49.2871  161.7391   33.2733 H   0  0  0  0  0  0
   51.6882  159.3943   29.9952 H   0  0  0  0  0  0
   50.5143  159.4236   28.6755 H   0  0  0  0  0  0
   52.6263  158.2626   28.0630 H   0  0  0  0  0  0
   53.2473  156.8465   26.1887 H   0  0  0  0  0  0
   50.8936  153.6420   27.8732 H   0  0  0  0  0  0
   50.1411  155.1520   29.6401 H   0  0  0  0  0  0
   53.0509  151.2196   23.0536 H   0  0  0  0  0  0
   52.0560  150.8685   24.5042 H   0  0  0  0  0  0
   53.5501  150.5557   25.9334 H   0  0  0  0  0  0
   54.8608  150.7216   24.9040 H   0  0  0  0  0  0
   53.9764  148.4618   25.2025 H   0  0  0  0  0  0
  1  6  1  0  0  0
  1  2  2  0  0  0
  1 24  1  0  0  0
  2  3  1  0  0  0
  2 25  1  0  0  0
  3  4  2  0  0  0
  3 26  1  0  0  0
  4  5  1  0  0  0
  4  7  1  0  0  0
  5  6  2  0  0  0
  5 27  1  0  0  0
  6 28  1  0  0  0
  7  8  1  0  0  0
  7 29  1  0  0  0
  7 30  1  0  0  0
  8  9  1  0  0  0
  9 14  1  0  0  0
  9 10  2  0  0  0
 10 11  1  0  0  0
 10 31  1  0  0  0
 11 12  2  0  0  0
 11 32  1  0  0  0
 12 13  1  0  0  0
 12 15  1  0  0  0
 13 14  2  0  0  0
 13 33  1  0  0  0
 14 34  1  0  0  0
 15 20  1  0  0  0
 15 16  2  0  0  0
 16 17  1  0  0  0
 17 18  1  0  0  0
 17 21  1  0  0  0
 18 19  2  0  0  0
 18 20  1  0  0  0
 21 22  1  0  0  0
 21 35  1  0  0  0
 21 36  1  0  0  0
 22 23  1  0  0  0
 22 37  1  0  0  0
 22 38  1  0  0  0
 23 39  1  0  0  0
M  END
> <s_m_entry_id>
11642

> <s_m_entry_name>
ligand_docking-pose.52

> <s_m_Source_Path>
/home/csk/Desktop/cluster/DUD-E-result/aofb

> <s_m_Source_File>
ligand_docking-pose.sdf

> <i_m_Source_File_Index>
52

> <i_lp_mmshare_version>
53161

> <r_lp_tautomer_probability>
1

> <s_lp_Force_Field>
OPLS_2005

> <r_lp_Energy>
28.431819

> <b_lp_Chiralities_Consistent>
1

> <s_lp_Variant>
18073-1

> <s_i_glide_gridfile>
glide-grid_1s3b

> <i_i_glide_lignum>
143

> <i_i_glide_rotatable_bonds>
7

> <r_i_docking_score>
-7.46356301666511

> <r_i_glide_ligand_efficiency>
-0.324502739855005

> <r_i_glide_ligand_efficiency_sa>
-0.922842625780488

> <r_i_glide_ligand_efficiency_ln>
-1.8047572132774

> <r_i_glide_gscore>
-7.46356301666511

> <r_i_glide_lipo>
-4.30649128088305

> <r_i_glide_hbond>
0

> <r_i_glide_metal>
0

> <r_i_glide_rewards>
-2.54593970953357

> <r_i_glide_evdw>
-24.414098739624

> <r_i_glide_ecoul>
-3.54630970954895

> <r_i_glide_erotb>
1.14151936716504

> <r_i_glide_esite>
0

> <r_i_glide_emodel>
-30.4741782311334

> <r_i_glide_energy>
-27.960408449173

> <r_i_glide_einternal>
9.2846851348877

> <i_i_glide_confnum>
99

> <i_i_glide_posenum>
179

> <r_i_glide_eff_state_penalty>
0

> <i_f3d_flags>
0

> <s_user_duplicate_titles>
18073

> <s_m_subgroup_title>
dock_pv

> <s_m_subgroupid>
dock_pv1

> <b_m_subgroup_collapsed>
0

$$$$
13152
                    3D
 Schrodinger Suite 2021-1.
 25 26  0  0  1  0            999 V2000
   51.6554  153.3731   26.5063 C   0  0  0  0  0  0
   51.2576  153.4428   27.8390 C   0  0  0  0  0  0
   51.2647  154.6672   28.5032 C   0  0  0  0  0  0
   51.6904  155.8230   27.8374 C   0  0  0  0  0  0
   52.0731  155.7423   26.4946 C   0  0  0  0  0  0
   52.0560  154.5204   25.8272 C   0  0  0  0  0  0
   51.6562  157.1546   28.4658 C   0  0  0  0  0  0
   50.7035  157.5575   29.3280 C   0  0  0  0  0  0
   50.5336  158.8676   29.8656 C   0  0  0  0  0  0
   49.4816  159.3943   30.3429 N   0  0  0  0  0  0
   49.8652  160.6542   30.9104 C   0  0  0  0  0  0
   51.3801  160.6441   31.0066 C   0  0  0  0  0  0
   51.6557  159.6594   29.9975 N   0  0  0  0  0  0
   51.6554  152.4206   25.9986 H   0  0  0  0  0  0
   50.9490  152.5481   28.3610 H   0  0  0  0  0  0
   50.9533  154.7039   29.5363 H   0  0  0  0  0  0
   52.3765  156.6301   25.9605 H   0  0  0  0  0  0
   52.3593  154.4594   24.7922 H   0  0  0  0  0  0
   52.4399  157.8403   28.1671 H   0  0  0  0  0  0
   49.9360  156.8732   29.6567 H   0  0  0  0  0  0
   49.4019  160.8047   31.8875 H   0  0  0  0  0  0
   49.5048  161.4395   30.2448 H   0  0  0  0  0  0
   51.8444  161.6069   30.7884 H   0  0  0  0  0  0
   51.6998  160.3141   31.9971 H   0  0  0  0  0  0
   52.6089  159.3261   30.1029 H   0  0  0  0  0  0
  1  6  1  0  0  0
  1  2  2  0  0  0
  1 14  1  0  0  0
  2  3  1  0  0  0
  2 15  1  0  0  0
  3  4  2  0  0  0
  3 16  1  0  0  0
  4  5  1  0  0  0
  4  7  1  0  0  0
  5  6  2  0  0  0
  5 17  1  0  0  0
  6 18  1  0  0  0
  7  8  2  0  0  0
  7 19  1  0  0  0
  8  9  1  0  0  0
  8 20  1  0  0  0
  9 13  1  0  0  0
  9 10  2  0  0  0
 10 11  1  0  0  0
 11 12  1  0  0  0
 11 21  1  0  0  0
 11 22  1  0  0  0
 12 13  1  0  0  0
 12 23  1  0  0  0
 12 24  1  0  0  0
 13 25  1  0  0  0
M  END
> <s_m_entry_id>
11643

> <s_m_entry_name>
ligand_docking-pose.53

> <s_m_Source_Path>
/home/csk/Desktop/cluster/DUD-E-result/aofb

> <s_m_Source_File>
ligand_docking-pose.sdf

> <i_m_Source_File_Index>
53

> <i_lp_mmshare_version>
53161

> <r_lp_tautomer_probability>
1

> <s_lp_Force_Field>
OPLS_2005

> <r_lp_Energy>
23.824461

> <b_lp_Chiralities_Consistent>
1

> <s_lp_Variant>
13152-1

> <s_i_glide_gridfile>
glide-grid_1s3b

> <i_i_glide_lignum>
82

> <i_i_glide_rotatable_bonds>
2

> <r_i_docking_score>
-7.42218353071601

> <r_i_glide_ligand_efficiency>
-0.570937194670462

> <r_i_glide_ligand_efficiency_sa>
-1.34246442919085

> <r_i_glide_ligand_efficiency_ln>
-2.08198849029403

> <r_i_glide_gscore>
-7.42218353071601

> <r_i_glide_lipo>
-2.82159512887433

> <r_i_glide_hbond>
-0.312886436821249

> <r_i_glide_metal>
0

> <r_i_glide_rewards>
-3.67638795445242

> <r_i_glide_evdw>
-24.0720310211182

> <r_i_glide_ecoul>
-3.01757001876831

> <r_i_glide_erotb>
1.04512009610549

> <r_i_glide_esite>
-0.000197052802345088

> <r_i_glide_emodel>
-35.8012329345046

> <r_i_glide_energy>
-27.0896010398865

> <r_i_glide_einternal>
1.93631720542908

> <i_i_glide_confnum>
4

> <i_i_glide_posenum>
249

> <r_i_glide_eff_state_penalty>
0

> <i_f3d_flags>
0

> <s_user_duplicate_titles>
13152

> <s_m_subgroup_title>
dock_pv

> <s_m_subgroupid>
dock_pv1

> <b_m_subgroup_collapsed>
0

$$$$
18131
                    3D
 Schrodinger Suite 2021-1.
 39 41  0  0  1  0            999 V2000
   50.3059  160.6440   31.4248 C   0  0  0  0  0  0
   49.4727  161.1742   32.4009 C   0  0  0  0  0  0
   48.1328  160.8118   32.4451 C   0  0  0  0  0  0
   47.6006  159.9371   31.4999 C   0  0  0  0  0  0
   48.4353  159.3939   30.5258 C   0  0  0  0  0  0
   49.7933  159.7316   30.5040 C   0  0  0  0  0  0
   50.7311  159.0441   29.5310 C   0  0  0  0  0  0
   50.6306  157.6422   29.7546 O   0  0  0  0  0  0
   51.2560  156.7670   28.9040 C   0  0  0  0  0  0
   52.1774  157.1662   27.9348 C   0  0  0  0  0  0
   52.4598  156.3203   26.8726 C   0  0  0  0  0  0
   51.9639  155.0181   26.8671 C   0  0  0  0  0  0
   51.2101  154.5531   27.9459 C   0  0  0  0  0  0
   50.8212  155.4440   28.9343 C   0  0  0  0  0  0
   52.3031  154.1194   25.7758 C   0  0  0  0  0  0
   52.6655  154.3817   24.5979 N   0  0  0  0  0  0
   53.0433  153.2032   24.0987 N   0  0  0  0  0  0
   52.9090  152.1914   24.9931 C   0  0  0  0  0  0
   53.2560  150.5785   24.9040 S   0  0  0  0  0  0
   52.3319  152.8042   26.0866 O   0  0  0  0  0  0
   53.5314  153.1213   22.7368 C   0  0  0  0  0  0
   54.8559  153.8808   22.5040 C   0  0  0  0  0  0
   55.6260  153.4026   21.3040 C   0  0  0  0  0  0
   56.2110  153.0440   20.3642 N   0  0  0  0  0  0
   47.1476  161.4440   33.7040 Cl  0  0  0  0  0  0
   51.3546  160.9064   31.4262 H   0  0  0  0  0  0
   49.8787  161.8440   33.1419 H   0  0  0  0  0  0
   46.5565  159.6620   31.5375 H   0  0  0  0  0  0
   48.0380  158.6851   29.8135 H   0  0  0  0  0  0
   51.7598  159.3759   29.6866 H   0  0  0  0  0  0
   50.4417  159.3110   28.5132 H   0  0  0  0  0  0
   52.5689  158.1710   27.9128 H   0  0  0  0  0  0
   53.0964  156.6743   26.0739 H   0  0  0  0  0  0
   50.8484  153.5347   27.9867 H   0  0  0  0  0  0
   50.1375  155.1192   29.7040 H   0  0  0  0  0  0
   52.7145  153.4440   22.1040 H   0  0  0  0  0  0
   53.6560  152.0782   22.5040 H   0  0  0  0  0  0
   55.4136  153.8440   23.4369 H   0  0  0  0  0  0
   54.6941  154.9529   22.4065 H   0  0  0  0  0  0
  1  6  1  0  0  0
  1  2  2  0  0  0
  1 26  1  0  0  0
  2  3  1  0  0  0
  2 27  1  0  0  0
  3  4  2  0  0  0
  3 25  1  0  0  0
  4  5  1  0  0  0
  4 28  1  0  0  0
  5  6  2  0  0  0
  5 29  1  0  0  0
  6  7  1  0  0  0
  7  8  1  0  0  0
  7 30  1  0  0  0
  7 31  1  0  0  0
  8  9  1  0  0  0
  9 14  1  0  0  0
  9 10  2  0  0  0
 10 11  1  0  0  0
 10 32  1  0  0  0
 11 12  2  0  0  0
 11 33  1  0  0  0
 12 13  1  0  0  0
 12 15  1  0  0  0
 13 14  2  0  0  0
 13 34  1  0  0  0
 14 35  1  0  0  0
 15 20  1  0  0  0
 15 16  2  0  0  0
 16 17  1  0  0  0
 17 18  1  0  0  0
 17 21  1  0  0  0
 18 19  2  0  0  0
 18 20  1  0  0  0
 21 22  1  0  0  0
 21 36  1  0  0  0
 21 37  1  0  0  0
 22 23  1  0  0  0
 22 38  1  0  0  0
 22 39  1  0  0  0
 23 24  3  0  0  0
M  END
> <s_m_entry_id>
11644

> <s_m_entry_name>
ligand_docking-pose.54

> <s_m_Source_Path>
/home/csk/Desktop/cluster/DUD-E-result/aofb

> <s_m_Source_File>
ligand_docking-pose.sdf

> <i_m_Source_File_Index>
54

> <i_lp_mmshare_version>
53161

> <r_lp_tautomer_probability>
1

> <s_lp_Force_Field>
OPLS_2005

> <r_lp_Energy>
26.667665

> <b_lp_Chiralities_Consistent>
1

> <s_lp_Variant>
18131-1

> <s_i_glide_gridfile>
glide-grid_1s3b

> <i_i_glide_lignum>
147

> <i_i_glide_rotatable_bonds>
6

> <r_i_docking_score>
-7.39821423032089

> <r_i_glide_ligand_efficiency>
-0.295928569212836

> <r_i_glide_ligand_efficiency_sa>
-0.865300384693853

> <r_i_glide_ligand_efficiency_ln>
-1.75359847917591

> <r_i_glide_gscore>
-7.39821423032089

> <r_i_glide_lipo>
-4.07911966385919

> <r_i_glide_hbond>
0

> <r_i_glide_metal>
0

> <r_i_glide_rewards>
-2.66322034022226

> <r_i_glide_evdw>
-4.20435428619385

> <r_i_glide_ecoul>
-7.54100465774536

> <r_i_glide_erotb>
0.698204087399336

> <r_i_glide_esite>
-0.0127099006672823

> <r_i_glide_emodel>
-11.836142413998

> <r_i_glide_energy>
-11.7453589439392

> <r_i_glide_einternal>
12.3001852035522

> <i_i_glide_confnum>
49

> <i_i_glide_posenum>
134

> <r_i_glide_eff_state_penalty>
0

> <i_f3d_flags>
0

> <s_user_duplicate_titles>
18131

> <s_m_subgroup_title>
dock_pv

> <s_m_subgroupid>
dock_pv1

> <b_m_subgroup_collapsed>
0

$$$$
685564
                    3D
 Schrodinger Suite 2021-1.
 40 42  0  0  1  0            999 V2000
   52.7056  151.0388   25.3040 C   0  0  0  0  0  0
   52.9545  152.5483   25.4441 C   0  0  1  0  0  0
   53.0409  153.2564   24.0793 C   0  0  0  0  0  0
   52.2721  154.5489   24.2207 C   0  0  0  0  0  0
   51.2566  154.2547   25.2926 C   0  0  0  0  0  0
   51.9380  153.3474   26.2898 C   0  0  0  0  0  0
   51.6953  153.2332   27.5440 N   0  0  0  0  0  0
   50.9044  154.1920   28.2671 N   0  0  0  0  0  0
   51.1723  155.5398   28.4892 C   0  0  0  0  0  0
   50.4860  156.3262   29.3040 N   0  0  0  0  0  0
   50.9551  157.5833   29.3040 C   0  0  0  0  0  0
   52.0753  157.7642   28.5041 C   0  0  0  0  0  0
   52.4560  156.3419   27.6457 S   0  0  0  0  0  0
   50.3404  158.7159   30.0680 C   0  0  0  0  0  0
   51.1119  159.8440   30.4071 C   0  0  0  0  0  0
   50.6043  160.8179   31.2537 C   0  0  0  0  0  0
   49.3008  160.7106   31.7187 C   0  0  0  0  0  0
   48.4888  159.6326   31.3293 C   0  0  0  0  0  0
   49.0172  158.6461   30.5040 C   0  0  0  0  0  0
   47.1848  159.4585   31.7222 O   0  0  0  0  0  0
   46.7174  160.2440   32.7986 C   0  0  0  0  0  0
   53.2020  150.5219   26.1040 H   0  0  0  0  0  0
   51.6560  150.7614   25.3639 H   0  0  0  0  0  0
   53.1166  150.6347   24.3780 H   0  0  0  0  0  0
   53.9244  152.6440   25.9310 H   0  0  0  0  0  0
   52.5875  152.6533   23.2927 H   0  0  0  0  0  0
   54.0691  153.4405   23.7722 H   0  0  0  0  0  0
   52.9230  155.3792   24.5040 H   0  0  0  0  0  0
   51.7329  154.8031   23.3098 H   0  0  0  0  0  0
   50.8560  155.1665   25.7041 H   0  0  0  0  0  0
   50.4560  153.6908   24.8577 H   0  0  0  0  0  0
   50.5244  153.7465   29.0917 H   0  0  0  0  0  0
   52.6741  158.6440   28.3695 H   0  0  0  0  0  0
   52.1429  159.9229   30.0972 H   0  0  0  0  0  0
   51.2265  161.6449   31.5655 H   0  0  0  0  0  0
   48.9496  161.4860   32.3794 H   0  0  0  0  0  0
   48.4009  157.8003   30.2377 H   0  0  0  0  0  0
   45.6561  160.0356   32.9040 H   0  0  0  0  0  0
   47.2440  159.9697   33.7133 H   0  0  0  0  0  0
   46.8560  161.3114   32.6353 H   0  0  0  0  0  0
  1  2  1  0  0  0
  1 22  1  0  0  0
  1 23  1  0  0  0
  1 24  1  0  0  0
  2  6  1  0  0  0
  2  3  1  0  0  0
  2 25  1  0  0  0
  3  4  1  0  0  0
  3 26  1  0  0  0
  3 27  1  0  0  0
  4  5  1  0  0  0
  4 28  1  0  0  0
  4 29  1  0  0  0
  5  6  1  0  0  0
  5 30  1  0  0  0
  5 31  1  0  0  0
  6  7  2  0  0  0
  7  8  1  0  0  0
  8  9  1  0  0  0
  8 32  1  0  0  0
  9 13  1  0  0  0
  9 10  2  0  0  0
 10 11  1  0  0  0
 11 12  2  0  0  0
 11 14  1  0  0  0
 12 13  1  0  0  0
 12 33  1  0  0  0
 14 19  1  0  0  0
 14 15  2  0  0  0
 15 16  1  0  0  0
 15 34  1  0  0  0
 16 17  2  0  0  0
 16 35  1  0  0  0
 17 18  1  0  0  0
 17 36  1  0  0  0
 18 19  2  0  0  0
 18 20  1  0  0  0
 19 37  1  0  0  0
 20 21  1  0  0  0
 21 38  1  0  0  0
 21 39  1  0  0  0
 21 40  1  0  0  0
M  END
> <s_m_entry_id>
11646

> <s_m_entry_name>
ligand_docking-pose.56

> <s_m_Source_Path>
/home/csk/Desktop/cluster/DUD-E-result/aofb

> <s_m_Source_File>
ligand_docking-pose.sdf

> <i_m_Source_File_Index>
56

> <i_lp_mmshare_version>
53161

> <r_lp_tautomer_probability>
1

> <s_lp_Force_Field>
OPLS_2005

> <r_lp_Energy>
29.358031

> <b_lp_Chiralities_Consistent>
1

> <s_lp_Variant>
685564-2

> <s_i_glide_gridfile>
glide-grid_1s3b

> <i_i_glide_lignum>
195

> <i_i_glide_rotatable_bonds>
4

> <r_i_docking_score>
-7.35183824252351

> <r_i_glide_ligand_efficiency>
-0.350087535358262

> <r_i_glide_ligand_efficiency_sa>
-0.965864964169392

> <r_i_glide_ligand_efficiency_ln>
-1.81772714967597

> <r_i_glide_gscore>
-7.35183824252351

> <r_i_glide_lipo>
-4.09220678625583

> <r_i_glide_hbond>
0

> <r_i_glide_metal>
0

> <r_i_glide_rewards>
-2.60979467310378

> <r_i_glide_evdw>
-20.2505226135254

> <r_i_glide_ecoul>
-1.63208377361298

> <r_i_glide_erotb>
0.607501913554318

> <r_i_glide_esite>
0

> <r_i_glide_emodel>
-19.33273102272

> <r_i_glide_energy>
-21.8826063871384

> <r_i_glide_einternal>
11.4076766967773

> <i_i_glide_confnum>
2

> <i_i_glide_posenum>
400

> <r_i_glide_eff_state_penalty>
0

> <i_f3d_flags>
0

> <s_user_duplicate_titles>
685564

> <s_m_subgroup_title>
dock_pv

> <s_m_subgroupid>
dock_pv1

> <b_m_subgroup_collapsed>
0

$$$$
573313
                    3D
 Schrodinger Suite 2021-1.
 44 46  0  0  1  0            999 V2000
   51.2868  149.6934   26.1040 C   0  0  0  0  0  0
   52.4560  150.1168   25.3082 N   0  0  0  0  0  0
   53.2173  149.0219   24.6933 C   0  0  0  0  0  0
   52.8882  151.3985   25.3189 C   0  0  0  0  0  0
   53.9965  151.6898   24.9040 O   0  0  0  0  0  0
   52.0530  152.4693   26.0609 C   0  0  0  0  0  0
   52.4215  153.9476   25.8792 C   0  0  0  0  0  0
   53.1545  154.4620   24.8650 C   0  0  0  0  0  0
   53.6560  155.8366   24.8897 C   0  0  0  0  0  0
   54.4560  156.3404   24.1040 O   0  0  0  0  0  0
   53.2366  156.6440   25.9097 O   0  0  0  0  0  0
   52.4560  156.1696   26.9410 C   0  0  0  0  0  0
   51.9909  154.8478   26.9747 C   0  0  0  0  0  0
   51.1774  154.4492   28.0408 C   0  0  0  0  0  0
   50.7552  155.3859   28.9722 C   0  0  0  0  0  0
   51.1868  156.7081   28.9040 C   0  0  0  0  0  0
   52.1212  157.0758   27.9386 C   0  0  0  0  0  0
   50.5507  157.5895   29.7436 O   0  0  0  0  0  0
   50.6976  158.9963   29.5843 C   0  0  0  0  0  0
   49.6435  159.6589   30.4591 C   0  0  0  0  0  0
   50.0090  160.5340   31.4870 C   0  0  0  0  0  0
   49.0387  161.0440   32.3511 C   0  0  0  0  0  0
   47.6964  160.7043   32.1781 C   0  0  0  0  0  0
   47.3216  159.8609   31.1324 C   0  0  0  0  0  0
   48.2923  159.3406   30.2772 C   0  0  0  0  0  0
   45.6630  159.4440   30.9040 Cl  0  0  0  0  0  0
   51.2560  149.8967   27.1737 H   0  0  0  0  0  0
   51.0787  148.6440   25.9303 H   0  0  0  0  0  0
   50.4560  150.2440   25.7040 H   0  0  0  0  0  0
   54.0591  149.3786   24.1040 H   0  0  0  0  0  0
   53.6087  148.3458   25.4517 H   0  0  0  0  0  0
   52.5789  148.4351   24.0332 H   0  0  0  0  0  0
   50.9770  152.3596   25.9880 H   0  0  0  0  0  0
   52.2886  152.2440   27.0973 H   0  0  0  0  0  0
   53.4751  153.8359   24.0483 H   0  0  0  0  0  0
   50.7952  153.4442   28.1296 H   0  0  0  0  0  0
   50.0510  155.0910   29.7350 H   0  0  0  0  0  0
   52.4882  158.0885   27.8773 H   0  0  0  0  0  0
   51.7039  159.3051   29.8735 H   0  0  0  0  0  0
   50.5322  159.3027   28.5504 H   0  0  0  0  0  0
   51.0471  160.7891   31.6495 H   0  0  0  0  0  0
   49.3356  161.6959   33.1598 H   0  0  0  0  0  0
   46.9491  161.0932   32.8539 H   0  0  0  0  0  0
   47.9960  158.6652   29.4883 H   0  0  0  0  0  0
  1  2  1  0  0  0
  1 27  1  0  0  0
  1 28  1  0  0  0
  1 29  1  0  0  0
  2  3  1  0  0  0
  2  4  1  0  0  0
  3 30  1  0  0  0
  3 31  1  0  0  0
  3 32  1  0  0  0
  4  5  2  0  0  0
  4  6  1  0  0  0
  6  7  1  0  0  0
  6 33  1  0  0  0
  6 34  1  0  0  0
  7 13  1  0  0  0
  7  8  2  0  0  0
  8  9  1  0  0  0
  8 35  1  0  0  0
  9 10  2  0  0  0
  9 11  1  0  0  0
 11 12  1  0  0  0
 12 17  1  0  0  0
 12 13  2  0  0  0
 13 14  1  0  0  0
 14 15  2  0  0  0
 14 36  1  0  0  0
 15 16  1  0  0  0
 15 37  1  0  0  0
 16 17  2  0  0  0
 16 18  1  0  0  0
 17 38  1  0  0  0
 18 19  1  0  0  0
 19 20  1  0  0  0
 19 39  1  0  0  0
 19 40  1  0  0  0
 20 25  1  0  0  0
 20 21  2  0  0  0
 21 22  1  0  0  0
 21 41  1  0  0  0
 22 23  2  0  0  0
 22 42  1  0  0  0
 23 24  1  0  0  0
 23 43  1  0  0  0
 24 25  2  0  0  0
 24 26  1  0  0  0
 25 44  1  0  0  0
M  END
> <s_m_entry_id>
11647

> <s_m_entry_name>
ligand_docking-pose.57

> <s_m_Source_Path>
/home/csk/Desktop/cluster/DUD-E-result/aofb

> <s_m_Source_File>
ligand_docking-pose.sdf

> <i_m_Source_File_Index>
57

> <i_lp_mmshare_version>
53161

> <r_lp_tautomer_probability>
1

> <s_lp_Force_Field>
OPLS_2005

> <r_lp_Energy>
25.452526

> <b_lp_Chiralities_Consistent>
1

> <s_lp_Variant>
573313-1

> <s_i_glide_gridfile>
glide-grid_1s3b

> <i_i_glide_lignum>
528

> <i_i_glide_rotatable_bonds>
6

> <r_i_docking_score>
-7.33413695722855

> <r_i_glide_ligand_efficiency>
-0.282082190662636

> <r_i_glide_ligand_efficiency_sa>
-0.835667379898237

> <r_i_glide_ligand_efficiency_ln>
-1.72239799913892

> <r_i_glide_gscore>
-7.33413695722855

> <r_i_glide_lipo>
-4.70291130467176

> <r_i_glide_hbond>
0

> <r_i_glide_metal>
0

> <r_i_glide_rewards>
-2.20330925346575

> <r_i_glide_evdw>
-25.4104347229004

> <r_i_glide_ecoul>
0.962060749530792

> <r_i_glide_erotb>
0.69829622462437

> <r_i_glide_esite>
0

> <r_i_glide_emodel>
-18.389129050136

> <r_i_glide_energy>
-24.4483739733696

> <r_i_glide_einternal>
13.0319890975952

> <i_i_glide_confnum>
134

> <i_i_glide_posenum>
346

> <r_i_glide_eff_state_penalty>
0

> <i_f3d_flags>
0

> <s_user_duplicate_titles>
573313

> <s_m_subgroup_title>
dock_pv

> <s_m_subgroupid>
dock_pv1

> <b_m_subgroup_collapsed>
0

$$$$
573354
                    3D
 Schrodinger Suite 2021-1.
 43 45  0  0  1  0            999 V2000
   51.2555  150.6512   26.4988 C   0  0  0  0  0  0
   52.0824  151.9301   26.2409 C   0  0  1  0  0  0
   53.3029  151.6985   25.3040 C   0  0  0  0  0  0
   53.2554  151.0175   24.2868 O   0  0  0  0  0  0
   54.4422  152.2440   25.7040 N   0  0  0  0  0  0
   51.3062  153.0875   25.8797 N   0  0  0  0  0  0
   51.8575  154.3328   25.9903 C   0  0  0  0  0  0
   52.5544  154.8876   24.9902 C   0  0  0  0  0  0
   53.2560  156.1393   25.1943 C   0  0  0  0  0  0
   54.0560  156.6441   24.4178 O   0  0  0  0  0  0
   53.1039  156.7597   26.4296 O   0  0  0  0  0  0
   52.2356  156.2892   27.3959 C   0  0  0  0  0  0
   51.6560  155.0247   27.2800 C   0  0  0  0  0  0
   50.8560  154.5598   28.3195 C   0  0  0  0  0  0
   50.4277  155.4440   29.3039 C   0  0  0  0  0  0
   50.8560  156.7739   29.3035 C   0  0  0  0  0  0
   51.9014  157.1463   28.4490 C   0  0  0  0  0  0
   50.1640  157.6412   30.1040 O   0  0  0  0  0  0
   50.2202  159.0436   29.8976 C   0  0  0  0  0  0
   49.0424  159.5979   30.6772 C   0  0  0  0  0  0
   47.7486  159.1967   30.3272 C   0  0  0  0  0  0
   46.6700  159.5498   31.1298 C   0  0  0  0  0  0
   46.8924  160.3066   32.2754 C   0  0  0  0  0  0
   48.1711  160.7509   32.6064 C   0  0  0  0  0  0
   49.2512  160.3984   31.8021 C   0  0  0  0  0  0
   52.4569  152.2439   27.2219 H   0  0  0  0  0  0
   51.8449  149.7361   26.4595 H   0  0  0  0  0  0
   50.7850  150.6811   27.4816 H   0  0  0  0  0  0
   50.4584  150.5119   25.7749 H   0  0  0  0  0  0
   54.4594  152.9175   26.4715 H   0  0  0  0  0  0
   55.2458  152.1647   25.0931 H   0  0  0  0  0  0
   50.4113  153.0235   26.3423 H   0  0  0  0  0  0
   52.6730  154.3517   24.0597 H   0  0  0  0  0  0
   50.4560  153.5593   28.2984 H   0  0  0  0  0  0
   49.6848  155.1141   30.0146 H   0  0  0  0  0  0
   52.3159  158.1434   28.4730 H   0  0  0  0  0  0
   51.1686  159.4449   30.2591 H   0  0  0  0  0  0
   50.1170  159.3124   28.8451 H   0  0  0  0  0  0
   47.5848  158.5753   29.4588 H   0  0  0  0  0  0
   45.6703  159.2266   30.8766 H   0  0  0  0  0  0
   46.0565  160.5725   32.9039 H   0  0  0  0  0  0
   48.3283  161.3481   33.4923 H   0  0  0  0  0  0
   50.2484  160.7084   32.0825 H   0  0  0  0  0  0
  1  2  1  0  0  0
  1 27  1  0  0  0
  1 28  1  0  0  0
  1 29  1  0  0  0
  2 26  1  0  0  0
  2  3  1  0  0  0
  2  6  1  0  0  0
  3  4  2  0  0  0
  3  5  1  0  0  0
  5 30  1  0  0  0
  5 31  1  0  0  0
  6  7  1  0  0  0
  6 32  1  0  0  0
  7 13  1  0  0  0
  7  8  2  0  0  0
  8  9  1  0  0  0
  8 33  1  0  0  0
  9 10  2  0  0  0
  9 11  1  0  0  0
 11 12  1  0  0  0
 12 17  1  0  0  0
 12 13  2  0  0  0
 13 14  1  0  0  0
 14 15  2  0  0  0
 14 34  1  0  0  0
 15 16  1  0  0  0
 15 35  1  0  0  0
 16 17  2  0  0  0
 16 18  1  0  0  0
 17 36  1  0  0  0
 18 19  1  0  0  0
 19 20  1  0  0  0
 19 37  1  0  0  0
 19 38  1  0  0  0
 20 25  1  0  0  0
 20 21  2  0  0  0
 21 22  1  0  0  0
 21 39  1  0  0  0
 22 23  2  0  0  0
 22 40  1  0  0  0
 23 24  1  0  0  0
 23 41  1  0  0  0
 24 25  2  0  0  0
 24 42  1  0  0  0
 25 43  1  0  0  0
M  END
> <s_m_entry_id>
11648

> <s_m_entry_name>
ligand_docking-pose.58

> <s_m_Source_Path>
/home/csk/Desktop/cluster/DUD-E-result/aofb

> <s_m_Source_File>
ligand_docking-pose.sdf

> <i_m_Source_File_Index>
58

> <i_lp_mmshare_version>
53161

> <r_lp_tautomer_probability>
1

> <s_lp_Force_Field>
OPLS_2005

> <r_lp_Energy>
18.834403

> <b_lp_Chiralities_Consistent>
1

> <s_lp_Variant>
573354-1

> <s_i_glide_gridfile>
glide-grid_1s3b

> <i_i_glide_lignum>
404

> <i_i_glide_rotatable_bonds>
6

> <r_i_docking_score>
-7.29956249325341

> <r_i_glide_ligand_efficiency>
-0.291982499730137

> <r_i_glide_ligand_efficiency_sa>
-0.853762007542601

> <r_i_glide_ligand_efficiency_ln>
-1.73021506113692

> <r_i_glide_gscore>
-7.29956249325341

> <r_i_glide_lipo>
-4.58376038064518

> <r_i_glide_hbond>
-0.596162356969719

> <r_i_glide_metal>
0

> <r_i_glide_rewards>
-0.733311449234083

> <r_i_glide_evdw>
-20.3305015563965

> <r_i_glide_ecoul>
-7.9714183807373

> <r_i_glide_erotb>
0.825909528525987

> <r_i_glide_esite>
0

> <r_i_glide_emodel>
-19.3150810558962

> <r_i_glide_energy>
-28.3019199371338

> <r_i_glide_einternal>
22.322546005249

> <i_i_glide_confnum>
99

> <i_i_glide_posenum>
268

> <r_i_glide_eff_state_penalty>
0

> <i_f3d_flags>
0

> <s_user_duplicate_titles>
573354

> <s_m_subgroup_title>
dock_pv

> <s_m_subgroupid>
dock_pv1

> <b_m_subgroup_collapsed>
0

$$$$
239456
                    3D
 Schrodinger Suite 2021-1.
 38 40  0  0  1  0            999 V2000
   47.4176  159.7633   31.6630 C   0  0  0  0  0  0
   47.9298  160.7029   32.5557 C   0  0  0  0  0  0
   49.2560  161.1181   32.4419 C   0  0  0  0  0  0
   50.0789  160.6064   31.4361 C   0  0  0  0  0  0
   49.5755  159.6325   30.5593 C   0  0  0  0  0  0
   48.2398  159.2263   30.6728 C   0  0  0  0  0  0
   50.4560  158.9741   29.5104 C   0  0  0  0  0  0
   50.5150  157.5718   29.7695 O   0  0  0  0  0  0
   51.2275  156.7750   28.9040 C   0  0  0  0  0  0
   50.8268  155.4440   28.8040 C   0  0  0  0  0  0
   51.2560  154.6751   27.7280 C   0  0  0  0  0  0
   52.0560  155.2638   26.7449 C   0  0  0  0  0  0
   52.5731  156.5458   26.9526 C   0  0  0  0  0  0
   52.2218  157.2705   28.0702 C   0  0  0  0  0  0
   52.4691  154.5305   25.5185 C   0  0  0  0  0  0
   53.2926  155.0713   24.6344 N   0  0  0  0  0  0
   53.6710  154.0561   23.8018 N   0  0  0  0  0  0
   52.9751  153.0163   24.2445 N   0  0  3  0  0  0
   52.1968  153.2636   25.3040 N   0  0  0  0  0  0
   53.2560  151.6830   23.7487 C   0  0  0  0  0  0
   53.6559  150.7281   24.8909 C   0  0  0  0  0  0
   53.6559  149.3692   24.5040 O   0  0  0  0  0  0
   52.0557  161.3110   31.3040 I   0  0  0  0  0  0
   46.3889  159.4430   31.7458 H   0  0  0  0  0  0
   47.2998  161.1105   33.3327 H   0  0  0  0  0  0
   49.6556  161.8439   33.1342 H   0  0  0  0  0  0
   47.8428  158.4791   30.0006 H   0  0  0  0  0  0
   51.4560  159.3941   29.5097 H   0  0  0  0  0  0
   50.0380  159.1748   28.5236 H   0  0  0  0  0  0
   50.1041  155.0438   29.4990 H   0  0  0  0  0  0
   50.8980  153.6616   27.6199 H   0  0  0  0  0  0
   53.2582  156.9975   26.2524 H   0  0  0  0  0  0
   52.6316  158.2570   28.1800 H   0  0  0  0  0  0
   54.0560  151.8440   23.0477 H   0  0  0  0  0  0
   52.4560  151.3186   23.1317 H   0  0  0  0  0  0
   52.9413  150.8115   25.7078 H   0  0  0  0  0  0
   54.6116  151.0440   25.3040 H   0  0  0  0  0  0
   53.7819  148.8224   25.2865 H   0  0  0  0  0  0
  1  6  1  0  0  0
  1  2  2  0  0  0
  1 24  1  0  0  0
  2  3  1  0  0  0
  2 25  1  0  0  0
  3  4  2  0  0  0
  3 26  1  0  0  0
  4  5  1  0  0  0
  4 23  1  0  0  0
  5  6  2  0  0  0
  5  7  1  0  0  0
  6 27  1  0  0  0
  7  8  1  0  0  0
  7 28  1  0  0  0
  7 29  1  0  0  0
  8  9  1  0  0  0
  9 14  1  0  0  0
  9 10  2  0  0  0
 10 11  1  0  0  0
 10 30  1  0  0  0
 11 12  2  0  0  0
 11 31  1  0  0  0
 12 13  1  0  0  0
 12 15  1  0  0  0
 13 14  2  0  0  0
 13 32  1  0  0  0
 14 33  1  0  0  0
 15 19  2  0  0  0
 15 16  1  0  0  0
 16 17  2  0  0  0
 17 18  1  0  0  0
 18 19  1  0  0  0
 18 20  1  0  0  0
 20 21  1  0  0  0
 20 34  1  0  0  0
 20 35  1  0  0  0
 21 22  1  0  0  0
 21 36  1  0  0  0
 21 37  1  0  0  0
 22 38  1  0  0  0
M  END
> <s_m_entry_id>
11649

> <s_m_entry_name>
ligand_docking-pose.59

> <s_m_Source_Path>
/home/csk/Desktop/cluster/DUD-E-result/aofb

> <s_m_Source_File>
ligand_docking-pose.sdf

> <i_m_Source_File_Index>
59

> <i_lp_mmshare_version>
53161

> <r_lp_tautomer_probability>
1

> <s_lp_Force_Field>
OPLS_2005

> <r_lp_Energy>
22.557784

> <b_lp_Chiralities_Consistent>
1

> <s_lp_Variant>
239456-1

> <s_i_glide_gridfile>
glide-grid_1s3b

> <i_i_glide_lignum>
156

> <i_i_glide_rotatable_bonds>
7

> <r_i_docking_score>
-7.28758518855482

> <r_i_glide_ligand_efficiency>
-0.316851529937166

> <r_i_glide_ligand_efficiency_sa>
-0.901083602561976

> <r_i_glide_ligand_efficiency_ln>
-1.76220417876161

> <r_i_glide_gscore>
-7.28758518855482

> <r_i_glide_lipo>
-3.87375116099724

> <r_i_glide_hbond>
0

> <r_i_glide_metal>
0

> <r_i_glide_rewards>
-1.90120590920109

> <r_i_glide_evdw>
-33.8190155029297

> <r_i_glide_ecoul>
-3.25578641891479

> <r_i_glide_erotb>
0.666690619627216

> <r_i_glide_esite>
0

> <r_i_glide_emodel>
-41.8485786341897

> <r_i_glide_energy>
-37.0748019218445

> <r_i_glide_einternal>
8.09644031524658

> <i_i_glide_confnum>
14

> <i_i_glide_posenum>
112

> <r_i_glide_eff_state_penalty>
0

> <i_f3d_flags>
0

> <s_user_duplicate_titles>
239456

> <s_m_subgroup_title>
dock_pv

> <s_m_subgroupid>
dock_pv1

> <b_m_subgroup_collapsed>
0

$$$$
239695
                    3D
 Schrodinger Suite 2021-1.
 38 40  0  0  1  0            999 V2000
   48.5481  159.3162   30.4160 C   0  0  0  0  0  0
   47.7107  159.7850   31.4183 C   0  0  0  0  0  0
   48.2263  160.6512   32.3754 C   0  0  0  0  0  0
   49.5352  161.1119   32.3021 C   0  0  0  0  0  0
   50.3766  160.6440   31.3040 C   0  0  0  0  0  0
   49.8898  159.7106   30.3910 C   0  0  0  0  0  0
   50.8403  159.0153   29.4480 C   0  0  0  0  0  0
   50.6971  157.6247   29.7040 O   0  0  0  0  0  0
   51.2560  156.7048   28.8650 C   0  0  0  0  0  0
   52.1824  157.0440   27.8785 C   0  0  0  0  0  0
   52.4560  156.1382   26.8705 C   0  0  0  0  0  0
   51.9251  154.8469   26.9272 C   0  0  0  0  0  0
   51.1390  154.4568   28.0101 C   0  0  0  0  0  0
   50.7739  155.4021   28.9539 C   0  0  0  0  0  0
   52.2519  153.8832   25.8539 C   0  0  0  0  0  0
   52.3879  152.5865   26.0798 N   0  0  0  0  0  0
   52.8774  152.0672   24.9057 N   0  0  0  0  0  0
   52.9225  153.1264   24.0975 N   0  0  3  0  0  0
   52.5390  154.2753   24.6354 N   0  0  0  0  0  0
   53.3497  153.0461   22.7249 C   0  0  0  0  0  0
   54.6656  153.8440   22.5040 C   0  0  0  0  0  0
   55.4532  153.3849   21.3040 C   0  0  0  0  0  0
   56.0560  153.0440   20.3672 N   0  0  0  0  0  0
   47.2560  161.1154   33.7040 Cl  0  0  0  0  0  0
   48.1752  158.5945   29.7040 H   0  0  0  0  0  0
   46.6877  159.4431   31.4802 H   0  0  0  0  0  0
   49.9179  161.7921   33.0478 H   0  0  0  0  0  0
   51.4127  160.9517   31.2926 H   0  0  0  0  0  0
   51.8720  159.3318   29.6147 H   0  0  0  0  0  0
   50.5571  159.2729   28.4301 H   0  0  0  0  0  0
   52.6038  158.0346   27.8149 H   0  0  0  0  0  0
   53.1106  156.4321   26.0633 H   0  0  0  0  0  0
   50.7503  153.4511   28.0813 H   0  0  0  0  0  0
   50.0812  155.1329   29.7363 H   0  0  0  0  0  0
   52.5353  153.4142   22.1040 H   0  0  0  0  0  0
   53.4328  151.9918   22.5040 H   0  0  0  0  0  0
   55.2560  153.8440   23.4136 H   0  0  0  0  0  0
   54.4612  154.9108   22.4605 H   0  0  0  0  0  0
  1  6  1  0  0  0
  1  2  2  0  0  0
  1 25  1  0  0  0
  2  3  1  0  0  0
  2 26  1  0  0  0
  3  4  2  0  0  0
  3 24  1  0  0  0
  4  5  1  0  0  0
  4 27  1  0  0  0
  5  6  2  0  0  0
  5 28  1  0  0  0
  6  7  1  0  0  0
  7  8  1  0  0  0
  7 29  1  0  0  0
  7 30  1  0  0  0
  8  9  1  0  0  0
  9 14  1  0  0  0
  9 10  2  0  0  0
 10 11  1  0  0  0
 10 31  1  0  0  0
 11 12  2  0  0  0
 11 32  1  0  0  0
 12 13  1  0  0  0
 12 15  1  0  0  0
 13 14  2  0  0  0
 13 33  1  0  0  0
 14 34  1  0  0  0
 15 19  2  0  0  0
 15 16  1  0  0  0
 16 17  2  0  0  0
 17 18  1  0  0  0
 18 19  1  0  0  0
 18 20  1  0  0  0
 20 21  1  0  0  0
 20 35  1  0  0  0
 20 36  1  0  0  0
 21 22  1  0  0  0
 21 37  1  0  0  0
 21 38  1  0  0  0
 22 23  3  0  0  0
M  END
> <s_m_entry_id>
11652

> <s_m_entry_name>
ligand_docking-pose.62

> <s_m_Source_Path>
/home/csk/Desktop/cluster/DUD-E-result/aofb

> <s_m_Source_File>
ligand_docking-pose.sdf

> <i_m_Source_File_Index>
62

> <i_lp_mmshare_version>
53161

> <r_lp_tautomer_probability>
1

> <s_lp_Force_Field>
OPLS_2005

> <r_lp_Energy>
18.870888

> <b_lp_Chiralities_Consistent>
1

> <s_lp_Variant>
239695-1

> <s_i_glide_gridfile>
glide-grid_1s3b

> <i_i_glide_lignum>
150

> <i_i_glide_rotatable_bonds>
6

> <r_i_docking_score>
-7.21888128029661

> <r_i_glide_ligand_efficiency>
-0.300786720012359

> <r_i_glide_ligand_efficiency_sa>
-0.867619034464885

> <r_i_glide_ligand_efficiency_ln>
-1.72780954325221

> <r_i_glide_gscore>
-7.21888128029661

> <r_i_glide_lipo>
-3.76678921080867

> <r_i_glide_hbond>
0

> <r_i_glide_metal>
0

> <r_i_glide_rewards>
-2.7075701712339

> <r_i_glide_evdw>
-13.8018131256104

> <r_i_glide_ecoul>
-5.7667670249939

> <r_i_glide_erotb>
0.819796080851495

> <r_i_glide_esite>
-0.00921226907592911

> <r_i_glide_emodel>
-20.7364028191308

> <r_i_glide_energy>
-19.5685801506042

> <r_i_glide_einternal>
8.72973346710205

> <i_i_glide_confnum>
55

> <i_i_glide_posenum>
181

> <r_i_glide_eff_state_penalty>
0

> <i_f3d_flags>
0

> <s_user_duplicate_titles>
239695

> <s_m_subgroup_title>
dock_pv

> <s_m_subgroupid>
dock_pv1

> <b_m_subgroup_collapsed>
0

$$$$
573346
                    3D
 Schrodinger Suite 2021-1.
 36 38  0  0  1  0            999 V2000
   47.4268  160.2477   32.1138 C   0  0  0  0  0  0
   48.6906  160.8329   32.1462 C   0  0  0  0  0  0
   49.7096  160.3211   31.3464 C   0  0  0  0  0  0
   49.4700  159.2121   30.5302 C   0  0  0  0  0  0
   48.1961  158.6344   30.5028 C   0  0  0  0  0  0
   47.1731  159.1556   31.2888 C   0  0  0  0  0  0
   50.6018  158.6393   29.6842 C   0  0  0  0  0  0
   50.5607  157.2083   29.7040 O   0  0  0  0  0  0
   51.2560  156.4920   28.7433 C   0  0  0  0  0  0
   52.1304  157.0717   27.8153 C   0  0  0  0  0  0
   52.5249  156.3764   26.6731 C   0  0  0  0  0  0
   52.1698  155.0377   26.5060 C   0  0  0  0  0  0
   52.6154  154.1831   25.3718 C   0  0  0  0  0  0
   52.4025  152.8607   25.4197 C   0  0  0  0  0  0
   51.6560  152.2440   26.5038 C   0  0  0  0  0  0
   51.2560  151.0840   26.5040 O   0  0  0  0  0  0
   51.2560  153.0406   27.5533 O   0  0  0  0  0  0
   51.4789  154.4036   27.5507 C   0  0  0  0  0  0
   50.9928  155.1277   28.6388 C   0  0  0  0  0  0
   53.3492  154.7728   24.1875 C   0  0  0  0  0  0
   54.7950  154.6440   24.1884 N   0  0  0  0  0  0
   46.6346  160.6440   32.7318 H   0  0  0  0  0  0
   48.8833  161.6801   32.7881 H   0  0  0  0  0  0
   50.6887  160.7780   31.3814 H   0  0  0  0  0  0
   47.9968  157.7784   29.8758 H   0  0  0  0  0  0
   46.1887  158.7132   31.2617 H   0  0  0  0  0  0
   51.5707  158.9714   30.0626 H   0  0  0  0  0  0
   50.4823  159.0440   28.6774 H   0  0  0  0  0  0
   52.4217  158.1067   27.9038 H   0  0  0  0  0  0
   53.1465  156.8819   25.9513 H   0  0  0  0  0  0
   52.7510  152.2404   24.6074 H   0  0  0  0  0  0
   50.3884  154.6439   29.3902 H   0  0  0  0  0  0
   53.0660  155.8188   24.1040 H   0  0  0  0  0  0
   52.9847  154.2440   23.3040 H   0  0  0  0  0  0
   55.0691  153.6698   24.1039 H   0  0  0  0  0  0
   55.2000  155.1242   23.3982 H   0  0  0  0  0  0
  1  6  1  0  0  0
  1  2  2  0  0  0
  1 22  1  0  0  0
  2  3  1  0  0  0
  2 23  1  0  0  0
  3  4  2  0  0  0
  3 24  1  0  0  0
  4  5  1  0  0  0
  4  7  1  0  0  0
  5  6  2  0  0  0
  5 25  1  0  0  0
  6 26  1  0  0  0
  7  8  1  0  0  0
  7 27  1  0  0  0
  7 28  1  0  0  0
  8  9  1  0  0  0
  9 19  1  0  0  0
  9 10  2  0  0  0
 10 11  1  0  0  0
 10 29  1  0  0  0
 11 12  2  0  0  0
 11 30  1  0  0  0
 12 18  1  0  0  0
 12 13  1  0  0  0
 13 14  2  0  0  0
 13 20  1  0  0  0
 14 15  1  0  0  0
 14 31  1  0  0  0
 15 16  2  0  0  0
 15 17  1  0  0  0
 17 18  1  0  0  0
 18 19  2  0  0  0
 19 32  1  0  0  0
 20 21  1  0  0  0
 20 33  1  0  0  0
 20 34  1  0  0  0
 21 35  1  0  0  0
 21 36  1  0  0  0
M  END
> <s_m_entry_id>
11653

> <s_m_entry_name>
ligand_docking-pose.63

> <s_m_Source_Path>
/home/csk/Desktop/cluster/DUD-E-result/aofb

> <s_m_Source_File>
ligand_docking-pose.sdf

> <i_m_Source_File_Index>
63

> <i_lp_mmshare_version>
53161

> <r_lp_tautomer_probability>
1

> <s_lp_Force_Field>
OPLS_2005

> <r_lp_Energy>
21.678064

> <b_lp_Chiralities_Consistent>
1

> <s_lp_Variant>
573346-1

> <s_i_glide_gridfile>
glide-grid_1s3b

> <i_i_glide_lignum>
128

> <i_i_glide_rotatable_bonds>
4

> <r_i_docking_score>
-7.17627767415423

> <r_i_glide_ligand_efficiency>
-0.341727508293058

> <r_i_glide_ligand_efficiency_sa>
-0.942800283407407

> <r_i_glide_ligand_efficiency_ln>
-1.7743201539002

> <r_i_glide_gscore>
-7.17627767415423

> <r_i_glide_lipo>
-4.17835629241211

> <r_i_glide_hbond>
-0.32

> <r_i_glide_metal>
0

> <r_i_glide_rewards>
-2.13064679148495

> <r_i_glide_evdw>
-24.9316387176514

> <r_i_glide_ecoul>
0.0938636511564255

> <r_i_glide_erotb>
0.685227797951938

> <r_i_glide_esite>
0

> <r_i_glide_emodel>
-27.6348428017201

> <r_i_glide_energy>
-24.8377750664949

> <r_i_glide_einternal>
3.66034388542175

> <i_i_glide_confnum>
1

> <i_i_glide_posenum>
133

> <r_i_glide_eff_state_penalty>
0

> <i_f3d_flags>
0

> <s_user_duplicate_titles>
573346

> <s_m_subgroup_title>
dock_pv

> <s_m_subgroupid>
dock_pv1

> <b_m_subgroup_collapsed>
0

$$$$
512689
                    3D
 Schrodinger Suite 2021-1.
 33 35  0  0  1  0            999 V2000
   52.5979  157.8385   28.5040 C   0  0  0  0  0  0
   51.2560  157.4520   28.9995 N   0  0  0  0  0  0
   50.4890  158.4499   29.7216 C   0  0  0  0  0  0
   51.0632  159.6844   30.1040 C   0  0  0  0  0  0
   50.3712  160.6073   30.8823 C   0  0  0  0  0  0
   49.0601  160.3544   31.2599 C   0  0  0  0  0  0
   48.4405  159.1776   30.8665 C   0  0  0  0  0  0
   49.1481  158.2440   30.1157 C   0  0  0  0  0  0
   50.9056  156.1115   28.9031 C   0  0  0  0  0  0
   50.0839  155.5391   29.6216 O   0  0  0  0  0  0
   51.4531  155.3297   27.7841 C   0  0  0  0  0  0
   52.0560  155.7245   26.5820 C   0  0  0  0  0  0
   52.3928  154.5672   25.8310 C   0  0  0  0  0  0
   53.0830  154.3592   24.6348 C   0  0  0  0  0  0
   53.3058  153.0545   24.2093 C   0  0  0  0  0  0
   52.8560  151.9710   24.9556 C   0  0  0  0  0  0
   52.0747  152.1450   26.1040 C   0  0  0  0  0  0
   51.8966  153.4532   26.5573 C   0  0  0  0  0  0
   51.3014  153.9592   27.6968 N   0  0  0  0  0  0
   50.8486  153.4374   28.4344 H   0  0  0  0  0  0
   52.5108  158.2440   27.5050 H   0  0  0  0  0  0
   53.1161  158.5922   29.0778 H   0  0  0  0  0  0
   53.2929  156.9979   28.4779 H   0  0  0  0  0  0
   52.0722  159.9677   29.8672 H   0  0  0  0  0  0
   50.8649  161.5085   31.2091 H   0  0  0  0  0  0
   48.5245  161.0713   31.8646 H   0  0  0  0  0  0
   47.4202  158.9771   31.1591 H   0  0  0  0  0  0
   48.6113  157.3409   29.8771 H   0  0  0  0  0  0
   52.2521  156.7283   26.2501 H   0  0  0  0  0  0
   53.4937  155.1994   24.1040 H   0  0  0  0  0  0
   53.8625  152.8801   23.2997 H   0  0  0  0  0  0
   53.0498  150.9709   24.5953 H   0  0  0  0  0  0
   51.6560  151.2997   26.6311 H   0  0  0  0  0  0
  1  2  1  0  0  0
  1 21  1  0  0  0
  1 22  1  0  0  0
  1 23  1  0  0  0
  2  3  1  0  0  0
  2  9  1  0  0  0
  3  8  1  0  0  0
  3  4  2  0  0  0
  4  5  1  0  0  0
  4 24  1  0  0  0
  5  6  2  0  0  0
  5 25  1  0  0  0
  6  7  1  0  0  0
  6 26  1  0  0  0
  7  8  2  0  0  0
  7 27  1  0  0  0
  8 28  1  0  0  0
  9 10  2  0  0  0
  9 11  1  0  0  0
 11 19  1  0  0  0
 11 12  2  0  0  0
 12 13  1  0  0  0
 12 29  1  0  0  0
 13 18  2  0  0  0
 13 14  1  0  0  0
 14 15  2  0  0  0
 14 30  1  0  0  0
 15 16  1  0  0  0
 15 31  1  0  0  0
 16 17  2  0  0  0
 16 32  1  0  0  0
 17 18  1  0  0  0
 17 33  1  0  0  0
 18 19  1  0  0  0
 19 20  1  0  0  0
M  END
> <s_m_entry_id>
11654

> <s_m_entry_name>
ligand_docking-pose.64

> <s_m_Source_Path>
/home/csk/Desktop/cluster/DUD-E-result/aofb

> <s_m_Source_File>
ligand_docking-pose.sdf

> <i_m_Source_File_Index>
64

> <i_lp_mmshare_version>
53161

> <r_lp_tautomer_probability>
1

> <s_lp_Force_Field>
OPLS_2005

> <r_lp_Energy>
30.633072

> <b_lp_Chiralities_Consistent>
1

> <s_lp_Variant>
512689-1

> <s_i_glide_gridfile>
glide-grid_1s3b

> <i_i_glide_lignum>
494

> <i_i_glide_rotatable_bonds>
3

> <r_i_docking_score>
-7.16976138522495

> <r_i_glide_ligand_efficiency>
-0.377355862380261

> <r_i_glide_ligand_efficiency_sa>
-1.00693700434209

> <r_i_glide_ligand_efficiency_ln>
-1.81768850350934

> <r_i_glide_gscore>
-7.16976138522495

> <r_i_glide_lipo>
-3.81515382102615

> <r_i_glide_hbond>
0

> <r_i_glide_metal>
0

> <r_i_glide_rewards>
-2.86542370741522

> <r_i_glide_evdw>
-19.996488571167

> <r_i_glide_ecoul>
-2.18441271781921

> <r_i_glide_erotb>
0.838302479447648

> <r_i_glide_esite>
0

> <r_i_glide_emodel>
-18.1273081956567

> <r_i_glide_energy>
-22.1809012889862

> <r_i_glide_einternal>
13.6267738342285

> <i_i_glide_confnum>
3

> <i_i_glide_posenum>
309

> <r_i_glide_eff_state_penalty>
0

> <i_f3d_flags>
0

> <s_user_duplicate_titles>
512689

> <s_m_subgroup_title>
dock_pv

> <s_m_subgroupid>
dock_pv1

> <b_m_subgroup_collapsed>
0

$$$$
590834
                    3D
 Schrodinger Suite 2021-1.
 33 35  0  0  1  0            999 V2000
   52.0629  154.8222   24.7761 C   0  0  0  0  0  0
   52.0560  153.4440   24.9040 C   0  0  0  0  0  0
   51.8910  152.8579   26.1547 C   0  0  0  0  0  0
   51.8180  153.6582   27.2912 C   0  0  0  0  0  0
   51.9663  155.0511   27.1857 C   0  0  0  0  0  0
   52.0560  155.6234   25.9086 C   0  0  0  0  0  0
   52.0560  155.9200   28.4427 C   0  0  2  0  0  0
   50.7386  156.2242   29.1308 C   0  0  0  0  0  0
   50.8560  157.7483   29.3647 C   0  0  0  0  0  0
   51.9449  158.2007   28.9040 N   0  0  0  0  0  0
   52.6306  157.2221   28.1969 N   0  0  1  0  0  0
   49.8547  158.5781   30.1040 C   0  0  0  0  0  0
   48.5976  158.0399   30.4269 C   0  0  0  0  0  0
   47.6544  158.7635   31.1537 C   0  0  0  0  0  0
   47.9576  160.0426   31.6055 C   0  0  0  0  0  0
   49.2031  160.5939   31.3218 C   0  0  0  0  0  0
   50.1423  159.8841   30.5726 C   0  0  0  0  0  0
   51.3556  160.4921   30.3693 O   0  0  0  0  0  0
   51.6725  153.0465   28.5040 O   0  0  0  0  0  0
   52.0560  155.2608   23.7947 H   0  0  0  0  0  0
   52.1142  152.8269   24.0222 H   0  0  0  0  0  0
   51.8261  151.7831   26.2433 H   0  0  0  0  0  0
   52.1047  156.6944   25.7791 H   0  0  0  0  0  0
   52.7431  155.4440   29.1413 H   0  0  0  0  0  0
   50.6284  155.6430   30.0447 H   0  0  0  0  0  0
   49.9105  155.9114   28.5040 H   0  0  0  0  0  0
   53.6210  157.3371   28.3681 H   0  0  0  0  0  0
   48.3363  157.0440   30.1040 H   0  0  0  0  0  0
   46.6926  158.3272   31.3763 H   0  0  0  0  0  0
   47.2355  160.6002   32.1839 H   0  0  0  0  0  0
   49.4538  161.5716   31.7040 H   0  0  0  0  0  0
   51.9644  159.8761   29.9452 H   0  0  0  0  0  0
   51.9825  153.5916   29.2334 H   0  0  0  0  0  0
  1  6  1  0  0  0
  1  2  2  0  0  0
  1 20  1  0  0  0
  2  3  1  0  0  0
  2 21  1  0  0  0
  3  4  2  0  0  0
  3 22  1  0  0  0
  4  5  1  0  0  0
  4 19  1  0  0  0
  5  6  2  0  0  0
  5  7  1  0  0  0
  6 23  1  0  0  0
  7 11  1  0  0  0
  7  8  1  0  0  0
  7 24  1  0  0  0
  8  9  1  0  0  0
  8 25  1  0  0  0
  8 26  1  0  0  0
  9 10  2  0  0  0
  9 12  1  0  0  0
 10 11  1  0  0  0
 11 27  1  0  0  0
 12 17  1  0  0  0
 12 13  2  0  0  0
 13 14  1  0  0  0
 13 28  1  0  0  0
 14 15  2  0  0  0
 14 29  1  0  0  0
 15 16  1  0  0  0
 15 30  1  0  0  0
 16 17  2  0  0  0
 16 31  1  0  0  0
 17 18  1  0  0  0
 18 32  1  0  0  0
 19 33  1  0  0  0
M  END
> <s_m_entry_id>
11658

> <s_m_entry_name>
ligand_docking-pose.68

> <s_m_Source_Path>
/home/csk/Desktop/cluster/DUD-E-result/aofb

> <s_m_Source_File>
ligand_docking-pose.sdf

> <i_m_Source_File_Index>
68

> <i_lp_mmshare_version>
53161

> <r_lp_tautomer_probability>
0.999999999997365

> <s_lp_Force_Field>
OPLS_2005

> <r_lp_Energy>
27.942045

> <b_lp_Chiralities_Consistent>
1

> <s_lp_Variant>
590834-1

> <s_i_glide_gridfile>
glide-grid_1s3b

> <i_i_glide_lignum>
66

> <i_i_glide_rotatable_bonds>
4

> <r_i_docking_score>
-7.08086865069855

> <r_i_glide_ligand_efficiency>
-0.372677297405187

> <r_i_glide_ligand_efficiency_sa>
-0.994452713861203

> <r_i_glide_ligand_efficiency_ln>
-1.79515228606602

> <r_i_glide_gscore>
-7.08086865069855

> <r_i_glide_lipo>
-3.66109622532329

> <r_i_glide_hbond>
-0.307839456166578

> <r_i_glide_metal>
0

> <r_i_glide_rewards>
-2.50591596267393

> <r_i_glide_evdw>
-17.2806720733643

> <r_i_glide_ecoul>
-1.90594661235809

> <r_i_glide_erotb>
0.54390858898718

> <r_i_glide_esite>
0

> <r_i_glide_emodel>
-20.1150086278954

> <r_i_glide_energy>
-19.1866186857224

> <r_i_glide_einternal>
1.43637669086456

> <i_i_glide_confnum>
4

> <i_i_glide_posenum>
347

> <r_i_glide_eff_state_penalty>
0

> <i_f3d_flags>
0

> <s_user_duplicate_titles>
590834

> <s_m_subgroup_title>
dock_pv

> <s_m_subgroupid>
dock_pv1

> <b_m_subgroup_collapsed>
0

$$$$
550899
                    3D
 Schrodinger Suite 2021-1.
 22 22  0  0  1  0            999 V2000
   47.3358  159.4803   30.4968 C   0  0  0  0  0  0
   48.6624  159.5087   30.0694 C   0  0  0  0  0  0
   49.6852  160.0464   30.8706 C   0  0  0  0  0  0
   49.3101  160.6050   32.1038 C   0  0  0  0  0  0
   47.9861  160.5622   32.5438 C   0  0  0  0  0  0
   46.9983  160.0016   31.7408 C   0  0  0  0  0  0
   47.6576  161.0438   33.7797 O   0  0  0  0  0  0
   51.1260  159.9534   30.4601 C   0  0  0  0  0  0
   51.5876  158.9480   29.6791 C   0  0  0  0  0  0
   50.8571  157.8774   29.3040 F   0  0  0  0  0  0
   52.0722  161.0575   30.9539 C   0  0  0  0  0  0
   53.4393  161.0440   30.4542 N   0  0  0  0  0  0
   46.5736  159.0438   29.8672 H   0  0  0  0  0  0
   48.8864  159.1001   29.0978 H   0  0  0  0  0  0
   50.0542  161.0443   32.7502 H   0  0  0  0  0  0
   45.9735  159.9665   32.0821 H   0  0  0  0  0  0
   48.4314  161.3076   34.2802 H   0  0  0  0  0  0
   52.5993  158.8914   29.3040 H   0  0  0  0  0  0
   52.1153  161.0383   32.0426 H   0  0  0  0  0  0
   51.6561  162.0142   30.6640 H   0  0  0  0  0  0
   53.9804  161.7627   30.9173 H   0  0  0  0  0  0
   53.8680  160.1603   30.7202 H   0  0  0  0  0  0
  1  6  1  0  0  0
  1  2  2  0  0  0
  1 13  1  0  0  0
  2  3  1  0  0  0
  2 14  1  0  0  0
  3  4  2  0  0  0
  3  8  1  0  0  0
  4  5  1  0  0  0
  4 15  1  0  0  0
  5  6  2  0  0  0
  5  7  1  0  0  0
  6 16  1  0  0  0
  7 17  1  0  0  0
  8  9  2  0  0  0
  8 11  1  0  0  0
  9 10  1  0  0  0
  9 18  1  0  0  0
 11 12  1  0  0  0
 11 19  1  0  0  0
 11 20  1  0  0  0
 12 21  1  0  0  0
 12 22  1  0  0  0
M  END
> <s_m_entry_id>
11659

> <s_m_entry_name>
ligand_docking-pose.69

> <s_m_Source_Path>
/home/csk/Desktop/cluster/DUD-E-result/aofb

> <s_m_Source_File>
ligand_docking-pose.sdf

> <i_m_Source_File_Index>
69

> <i_lp_mmshare_version>
53161

> <r_lp_tautomer_probability>
1

> <s_lp_Force_Field>
OPLS_2005

> <r_lp_Energy>
12.209091

> <b_lp_Chiralities_Consistent>
1

> <s_lp_Variant>
550899-1

> <s_i_glide_gridfile>
glide-grid_1s3b

> <i_i_glide_lignum>
168

> <i_i_glide_rotatable_bonds>
3

> <r_i_docking_score>
-7.03606935028422

> <r_i_glide_ligand_efficiency>
-0.586339112523685

> <r_i_glide_ligand_efficiency_sa>
-1.34238146503199

> <r_i_glide_ligand_efficiency_ln>
-2.01901228852493

> <r_i_glide_gscore>
-7.03606935028422

> <r_i_glide_lipo>
-2.428893854873

> <r_i_glide_hbond>
-0.511921245773992

> <r_i_glide_metal>
0

> <r_i_glide_rewards>
-2.95561307691998

> <r_i_glide_evdw>
-23.4325313568115

> <r_i_glide_ecoul>
-7.10010290145874

> <r_i_glide_erotb>
1.09700083034214

> <r_i_glide_esite>
0

> <r_i_glide_emodel>
-41.5596228921298

> <r_i_glide_energy>
-30.5326342582703

> <r_i_glide_einternal>
2.22460079193115

> <i_i_glide_confnum>
2

> <i_i_glide_posenum>
13

> <r_i_glide_eff_state_penalty>
0

> <i_f3d_flags>
0

> <s_user_duplicate_titles>
550899

> <s_m_subgroup_title>
dock_pv

> <s_m_subgroupid>
dock_pv1

> <b_m_subgroup_collapsed>
0

$$$$
21784
                    3D
 Schrodinger Suite 2021-1.
 35 37  0  0  1  0            999 V2000
   51.5366  152.1594   26.1807 C   0  0  0  0  0  0
   52.0737  153.5594   25.9375 C   0  0  0  0  0  0
   52.9075  153.8702   24.9110 C   0  0  0  0  0  0
   53.5380  155.2150   24.8384 C   0  0  0  0  0  0
   54.4560  155.5863   24.1040 O   0  0  0  0  0  0
   53.0507  156.1809   25.6908 O   0  0  0  0  0  0
   52.2990  155.8440   26.8003 C   0  0  0  0  0  0
   51.7410  154.5701   26.9621 C   0  0  0  0  0  0
   50.9800  154.3082   28.1040 C   0  0  0  0  0  0
   50.7253  155.3228   29.0182 C   0  0  0  0  0  0
   51.2560  156.5991   28.8400 C   0  0  0  0  0  0
   52.1081  156.8354   27.7567 C   0  0  0  0  0  0
   50.8137  157.5733   29.7040 O   0  0  0  0  0  0
   50.8940  158.9488   29.3491 C   0  0  0  0  0  0
   49.7423  159.6773   30.0097 C   0  0  0  0  0  0
   48.6450  160.1360   29.4570 N   0  0  0  0  0  0
   47.8727  160.6440   30.4994 N   0  0  0  0  0  0
   48.5715  160.4515   31.5905 C   0  0  0  0  0  0
   49.7590  159.8440   31.3551 O   0  0  0  0  0  0
   48.2148  160.8094   33.0119 C   0  0  0  0  0  0
   53.3156  152.9010   23.8049 C   0  0  0  0  0  0
   51.9565  151.4014   25.5207 H   0  0  0  0  0  0
   51.7564  151.8440   27.1948 H   0  0  0  0  0  0
   50.4560  152.1712   26.1040 H   0  0  0  0  0  0
   50.5440  153.3390   28.2812 H   0  0  0  0  0  0
   50.0813  155.1205   29.8604 H   0  0  0  0  0  0
   52.5591  157.8046   27.6066 H   0  0  0  0  0  0
   50.8560  159.0825   28.2707 H   0  0  0  0  0  0
   51.8514  159.3491   29.6848 H   0  0  0  0  0  0
   47.2667  161.3436   33.0757 H   0  0  0  0  0  0
   48.9781  161.4440   33.4622 H   0  0  0  0  0  0
   48.1288  159.9189   33.6347 H   0  0  0  0  0  0
   52.4560  152.6440   23.1977 H   0  0  0  0  0  0
   54.0560  153.3014   23.1141 H   0  0  0  0  0  0
   53.7166  151.9803   24.2263 H   0  0  0  0  0  0
  1  2  1  0  0  0
  1 22  1  0  0  0
  1 23  1  0  0  0
  1 24  1  0  0  0
  2  8  1  0  0  0
  2  3  2  0  0  0
  3  4  1  0  0  0
  3 21  1  0  0  0
  4  5  2  0  0  0
  4  6  1  0  0  0
  6  7  1  0  0  0
  7 12  1  0  0  0
  7  8  2  0  0  0
  8  9  1  0  0  0
  9 10  2  0  0  0
  9 25  1  0  0  0
 10 11  1  0  0  0
 10 26  1  0  0  0
 11 12  2  0  0  0
 11 13  1  0  0  0
 12 27  1  0  0  0
 13 14  1  0  0  0
 14 15  1  0  0  0
 14 28  1  0  0  0
 14 29  1  0  0  0
 15 19  1  0  0  0
 15 16  2  0  0  0
 16 17  1  0  0  0
 17 18  2  0  0  0
 18 19  1  0  0  0
 18 20  1  0  0  0
 20 30  1  0  0  0
 20 31  1  0  0  0
 20 32  1  0  0  0
 21 33  1  0  0  0
 21 34  1  0  0  0
 21 35  1  0  0  0
M  END
> <s_m_entry_id>
11660

> <s_m_entry_name>
ligand_docking-pose.70

> <s_m_Source_Path>
/home/csk/Desktop/cluster/DUD-E-result/aofb

> <s_m_Source_File>
ligand_docking-pose.sdf

> <i_m_Source_File_Index>
70

> <i_lp_mmshare_version>
53161

> <r_lp_tautomer_probability>
1

> <s_lp_Force_Field>
OPLS_2005

> <r_lp_Energy>
16.835605

> <b_lp_Chiralities_Consistent>
1

> <s_lp_Variant>
21784-1

> <s_i_glide_gridfile>
glide-grid_1s3b

> <i_i_glide_lignum>
293

> <i_i_glide_rotatable_bonds>
3

> <r_i_docking_score>
-7.02947113843061

> <r_i_glide_ligand_efficiency>
-0.334736720877648

> <r_i_glide_ligand_efficiency_sa>
-0.923513231014664

> <r_i_glide_ligand_efficiency_ln>
-1.73802253459307

> <r_i_glide_gscore>
-7.02947113843061

> <r_i_glide_lipo>
-3.84236924952174

> <r_i_glide_hbond>
0

> <r_i_glide_metal>
0

> <r_i_glide_rewards>
-2.10825839239453

> <r_i_glide_evdw>
-29.7374610900879

> <r_i_glide_ecoul>
-1.71074247360229

> <r_i_glide_erotb>
0.664640929030395

> <r_i_glide_esite>
0

> <r_i_glide_emodel>
-37.4852098355827

> <r_i_glide_energy>
-31.4482035636902

> <r_i_glide_einternal>
5.11516952514648

> <i_i_glide_confnum>
17

> <i_i_glide_posenum>
133

> <r_i_glide_eff_state_penalty>
0

> <i_f3d_flags>
0

> <s_user_duplicate_titles>
21784

> <s_m_subgroup_title>
dock_pv

> <s_m_subgroupid>
dock_pv1

> <b_m_subgroup_collapsed>
0

$$$$
43817
                    3D
 Schrodinger Suite 2021-1.
 32 33  0  0  1  0            999 V2000
   53.6184  149.5489   24.3921 C   0  0  0  0  0  0
   53.3157  151.0066   23.9871 C   0  0  0  0  0  0
   53.1516  151.9531   25.1622 C   0  0  2  0  0  0
   52.5132  153.2877   24.7537 C   0  0  0  0  0  0
   52.0560  154.1004   25.9587 C   0  0  0  0  0  0
   51.3053  153.4538   26.9460 C   0  0  0  0  0  0
   50.9503  154.1218   28.1040 C   0  0  0  0  0  0
   51.2626  155.4553   28.2591 C   0  0  0  0  0  0
   52.0560  156.1000   27.3248 C   0  0  0  0  0  0
   52.4309  155.4415   26.1403 C   0  0  0  0  0  0
   53.3270  156.2464   24.9041 Cl  0  0  0  0  0  0
   52.3628  157.4552   27.8873 C   0  0  0  0  0  0
   51.4698  157.5980   29.1174 C   0  0  0  0  0  0
   50.8560  156.2932   29.2948 N   0  0  0  0  0  0
   54.4560  152.2440   25.7040 N   0  0  0  0  0  0
   53.6440  148.8893   23.5257 H   0  0  0  0  0  0
   52.8544  149.1612   25.0664 H   0  0  0  0  0  0
   54.5753  149.4660   24.9040 H   0  0  0  0  0  0
   54.0560  151.4440   23.3333 H   0  0  0  0  0  0
   52.4561  151.0359   23.3484 H   0  0  0  0  0  0
   52.5608  151.4387   25.9173 H   0  0  0  0  0  0
   53.1992  153.8276   24.1022 H   0  0  0  0  0  0
   51.6560  153.1134   24.1258 H   0  0  0  0  0  0
   51.0141  152.4205   26.8453 H   0  0  0  0  0  0
   50.4560  153.5945   28.8916 H   0  0  0  0  0  0
   53.4165  157.6035   28.1282 H   0  0  0  0  0  0
   52.0560  158.2440   27.2359 H   0  0  0  0  0  0
   50.6935  158.3482   28.9590 H   0  0  0  0  0  0
   52.0424  157.9008   29.9894 H   0  0  0  0  0  0
   49.9390  156.3720   29.7084 H   0  0  0  0  0  0
   55.0834  152.5022   24.9505 H   0  0  0  0  0  0
   54.4322  153.0533   26.3376 H   0  0  0  0  0  0
  1  2  1  0  0  0
  1 16  1  0  0  0
  1 17  1  0  0  0
  1 18  1  0  0  0
  2  3  1  0  0  0
  2 19  1  0  0  0
  2 20  1  0  0  0
  3  4  1  0  0  0
  3 15  1  0  0  0
  3 21  1  0  0  0
  4  5  1  0  0  0
  4 22  1  0  0  0
  4 23  1  0  0  0
  5 10  1  0  0  0
  5  6  2  0  0  0
  6  7  1  0  0  0
  6 24  1  0  0  0
  7  8  2  0  0  0
  7 25  1  0  0  0
  8 14  1  0  0  0
  8  9  1  0  0  0
  9 10  2  0  0  0
  9 12  1  0  0  0
 10 11  1  0  0  0
 12 13  1  0  0  0
 12 26  1  0  0  0
 12 27  1  0  0  0
 13 14  1  0  0  0
 13 28  1  0  0  0
 13 29  1  0  0  0
 14 30  1  0  0  0
 15 31  1  0  0  0
 15 32  1  0  0  0
M  END
> <s_m_entry_id>
11661

> <s_m_entry_name>
ligand_docking-pose.71

> <s_m_Source_Path>
/home/csk/Desktop/cluster/DUD-E-result/aofb

> <s_m_Source_File>
ligand_docking-pose.sdf

> <i_m_Source_File_Index>
71

> <i_lp_mmshare_version>
53161

> <r_lp_tautomer_probability>
1

> <s_lp_Force_Field>
OPLS_2005

> <r_lp_Energy>
23.283273

> <b_lp_Chiralities_Consistent>
1

> <s_lp_Variant>
43817-1

> <s_i_glide_gridfile>
glide-grid_1s3b

> <i_i_glide_lignum>
320

> <i_i_glide_rotatable_bonds>
3

> <r_i_docking_score>
-7.01443388599171

> <r_i_glide_ligand_efficiency>
-0.46762892573278

> <r_i_glide_ligand_efficiency_sa>
-1.15327210190733

> <r_i_glide_ligand_efficiency_ln>
-1.89167716335304

> <r_i_glide_gscore>
-7.01443388599171

> <r_i_glide_lipo>
-3.01924410238015

> <r_i_glide_hbond>
-0.586770609794147

> <r_i_glide_metal>
0

> <r_i_glide_rewards>
-2.2912872381492

> <r_i_glide_evdw>
-1.39700472354889

> <r_i_glide_ecoul>
-9.22004795074463

> <r_i_glide_erotb>
0.335725493120937

> <r_i_glide_esite>
0

> <r_i_glide_emodel>
-16.8529934084066

> <r_i_glide_energy>
-10.6170526742935

> <r_i_glide_einternal>
2.14440393447876

> <i_i_glide_confnum>
1

> <i_i_glide_posenum>
11

> <r_i_glide_eff_state_penalty>
0

> <i_f3d_flags>
0

> <s_user_duplicate_titles>
43817

> <s_m_subgroup_title>
dock_pv

> <s_m_subgroupid>
dock_pv1

> <b_m_subgroup_collapsed>
0

$$$$
59113
                    3D
 Schrodinger Suite 2021-1.
 24 25  0  0  1  0            999 V2000
   51.2775  160.2299   30.1415 C   0  0  0  0  0  0
   51.2404  160.9836   31.3039 C   0  0  0  0  0  0
   50.0636  161.0442   32.0488 C   0  0  0  0  0  0
   48.9057  160.3716   31.6518 C   0  0  0  0  0  0
   48.9285  159.6791   30.4216 C   0  0  0  0  0  0
   50.1240  159.5924   29.7028 C   0  0  0  0  0  0
   47.6557  159.0827   29.8425 C   0  0  0  0  0  0
   46.6027  158.7587   30.8915 C   0  0  0  0  0  0
   46.4038  159.9458   31.8080 C   0  0  0  0  0  0
   47.6817  160.2876   32.5750 C   0  0  2  0  0  0
   47.5021  161.4386   33.4340 N   0  0  0  0  0  0
   47.8866  159.4455   33.2387 H   0  0  0  0  0  0
   52.1935  160.1421   29.5783 H   0  0  0  0  0  0
   52.1279  161.4911   31.6537 H   0  0  0  0  0  0
   50.0563  161.5948   32.9760 H   0  0  0  0  0  0
   50.1570  159.0443   28.7732 H   0  0  0  0  0  0
   47.2570  159.7928   29.1197 H   0  0  0  0  0  0
   47.8510  158.1713   29.3089 H   0  0  0  0  0  0
   45.6587  158.5462   30.3907 H   0  0  0  0  0  0
   46.8796  157.8682   31.4600 H   0  0  0  0  0  0
   46.1027  160.7831   31.1816 H   0  0  0  0  0  0
   45.5870  159.7537   32.5008 H   0  0  0  0  0  0
   48.2581  161.4739   34.1010 H   0  0  0  0  0  0
   47.5371  162.2807   32.8794 H   0  0  0  0  0  0
  1  6  1  0  0  0
  1  2  2  0  0  0
  1 13  1  0  0  0
  2  3  1  0  0  0
  2 14  1  0  0  0
  3  4  2  0  0  0
  3 15  1  0  0  0
  4 10  1  0  0  0
  4  5  1  0  0  0
  5  6  2  0  0  0
  5  7  1  0  0  0
  6 16  1  0  0  0
  7  8  1  0  0  0
  7 17  1  0  0  0
  7 18  1  0  0  0
  8  9  1  0  0  0
  8 19  1  0  0  0
  8 20  1  0  0  0
  9 10  1  0  0  0
  9 21  1  0  0  0
  9 22  1  0  0  0
 10 12  1  0  0  0
 10 11  1  0  0  0
 11 23  1  0  0  0
 11 24  1  0  0  0
M  END
> <s_m_entry_id>
11664

> <s_m_entry_name>
ligand_docking-pose.74

> <s_m_Source_Path>
/home/csk/Desktop/cluster/DUD-E-result/aofb

> <s_m_Source_File>
ligand_docking-pose.sdf

> <i_m_Source_File_Index>
74

> <i_lp_mmshare_version>
53161

> <r_lp_tautomer_probability>
1

> <s_lp_Force_Field>
OPLS_2005

> <r_lp_Energy>
9.40584

> <b_lp_Chiralities_Consistent>
1

> <s_lp_Variant>
59113-1

> <s_i_glide_gridfile>
glide-grid_1s3b

> <i_i_glide_lignum>
26

> <i_i_glide_rotatable_bonds>
0

> <r_i_docking_score>
-6.99037231636899

> <r_i_glide_ligand_efficiency>
-0.635488392397181

> <r_i_glide_ligand_efficiency_sa>
-1.41331353134957

> <r_i_glide_ligand_efficiency_ln>
-2.05726538199395

> <r_i_glide_gscore>
-6.99037231636899

> <r_i_glide_lipo>
-2.90653722269195

> <r_i_glide_hbond>
0

> <r_i_glide_metal>
0

> <r_i_glide_rewards>
-3.15

> <r_i_glide_evdw>
-17.9910640716553

> <r_i_glide_ecoul>
-0.228545933961868

> <r_i_glide_erotb>
0

> <r_i_glide_esite>
0

> <r_i_glide_emodel>
-22.7177459544417

> <r_i_glide_energy>
-18.2196100056171

> <r_i_glide_einternal>
0

> <i_i_glide_confnum>
1

> <i_i_glide_posenum>
146

> <r_i_glide_eff_state_penalty>
0

> <i_f3d_flags>
0

> <s_user_duplicate_titles>
59113

> <s_m_subgroup_title>
dock_pv

> <s_m_subgroupid>
dock_pv1

> <b_m_subgroup_collapsed>
0

$$$$
512692
                    3D
 Schrodinger Suite 2021-1.
 33 35  0  0  1  0            999 V2000
   52.8552  153.9006   24.5040 C   0  0  0  0  0  0
   52.6492  155.2177   24.9040 C   0  0  0  0  0  0
   52.0560  155.4879   26.1286 C   0  0  0  0  0  0
   51.7037  154.4422   26.9882 C   0  0  0  0  0  0
   51.8719  153.1197   26.5568 C   0  0  0  0  0  0
   52.4560  152.8490   25.3221 C   0  0  0  0  0  0
   51.2403  154.6584   28.4299 C   0  0  0  0  0  0
   50.7021  155.9381   28.9040 N   0  0  0  0  0  0
   51.2630  157.1703   28.9385 C   0  0  0  0  0  0
   52.3803  157.4381   28.5040 O   0  0  0  0  0  0
   50.4839  158.1655   29.6839 C   0  0  0  0  0  0
   50.8508  159.4413   30.1040 C   0  0  0  0  0  0
   49.8058  159.9372   30.9603 C   0  0  0  0  0  0
   49.6560  161.0440   31.8052 C   0  0  0  0  0  0
   48.4583  161.2084   32.5040 C   0  0  0  0  0  0
   47.4064  160.3098   32.3607 C   0  0  0  0  0  0
   47.5152  159.1874   31.5446 C   0  0  0  0  0  0
   48.7326  159.0102   30.8819 C   0  0  0  0  0  0
   49.1822  157.9786   30.1040 N   0  0  0  0  0  0
   48.6582  157.1499   29.8743 H   0  0  0  0  0  0
   53.3220  153.6922   23.5522 H   0  0  0  0  0  0
   52.9609  156.0399   24.2803 H   0  0  0  0  0  0
   51.9182  156.5206   26.3923 H   0  0  0  0  0  0
   51.6006  152.2958   27.2011 H   0  0  0  0  0  0
   52.6130  151.8278   25.0072 H   0  0  0  0  0  0
   52.0560  154.3653   29.0801 H   0  0  0  0  0  0
   50.4560  153.9262   28.6167 H   0  0  0  0  0  0
   49.7911  155.8544   29.3194 H   0  0  0  0  0  0
   51.8173  159.8871   29.9179 H   0  0  0  0  0  0
   50.4596  161.7556   31.9293 H   0  0  0  0  0  0
   48.3353  162.0541   33.1592 H   0  0  0  0  0  0
   46.4883  160.4807   32.9040 H   0  0  0  0  0  0
   46.7060  158.4783   31.4598 H   0  0  0  0  0  0
  1  6  1  0  0  0
  1  2  2  0  0  0
  1 21  1  0  0  0
  2  3  1  0  0  0
  2 22  1  0  0  0
  3  4  2  0  0  0
  3 23  1  0  0  0
  4  5  1  0  0  0
  4  7  1  0  0  0
  5  6  2  0  0  0
  5 24  1  0  0  0
  6 25  1  0  0  0
  7  8  1  0  0  0
  7 26  1  0  0  0
  7 27  1  0  0  0
  8  9  1  0  0  0
  8 28  1  0  0  0
  9 10  2  0  0  0
  9 11  1  0  0  0
 11 19  1  0  0  0
 11 12  2  0  0  0
 12 13  1  0  0  0
 12 29  1  0  0  0
 13 18  2  0  0  0
 13 14  1  0  0  0
 14 15  2  0  0  0
 14 30  1  0  0  0
 15 16  1  0  0  0
 15 31  1  0  0  0
 16 17  2  0  0  0
 16 32  1  0  0  0
 17 18  1  0  0  0
 17 33  1  0  0  0
 18 19  1  0  0  0
 19 20  1  0  0  0
M  END
> <s_m_entry_id>
11665

> <s_m_entry_name>
ligand_docking-pose.75

> <s_m_Source_Path>
/home/csk/Desktop/cluster/DUD-E-result/aofb

> <s_m_Source_File>
ligand_docking-pose.sdf

> <i_m_Source_File_Index>
75

> <i_lp_mmshare_version>
53161

> <r_lp_tautomer_probability>
1

> <s_lp_Force_Field>
OPLS_2005

> <r_lp_Energy>
8.344716

> <b_lp_Chiralities_Consistent>
1

> <s_lp_Variant>
512692-1

> <s_i_glide_gridfile>
glide-grid_1s3b

> <i_i_glide_lignum>
123

> <i_i_glide_rotatable_bonds>
4

> <r_i_docking_score>
-6.98838879436307

> <r_i_glide_ligand_efficiency>
-0.367809936545425

> <r_i_glide_ligand_efficiency_sa>
-0.981464640130837

> <r_i_glide_ligand_efficiency_ln>
-1.77170665619978

> <r_i_glide_gscore>
-6.98838879436307

> <r_i_glide_lipo>
-3.91951442637566

> <r_i_glide_hbond>
0

> <r_i_glide_metal>
0

> <r_i_glide_rewards>
-2.87827055827423

> <r_i_glide_evdw>
-25.0940341949463

> <r_i_glide_ecoul>
3.3681972026825

> <r_i_glide_erotb>
0.558868319631766

> <r_i_glide_esite>
0

> <r_i_glide_emodel>
-26.1574374016086

> <r_i_glide_energy>
-21.7258369922638

> <r_i_glide_einternal>
3.38588833808899

> <i_i_glide_confnum>
4

> <i_i_glide_posenum>
311

> <r_i_glide_eff_state_penalty>
0

> <i_f3d_flags>
0

> <s_user_duplicate_titles>
512692

> <s_m_subgroup_title>
dock_pv

> <s_m_subgroupid>
dock_pv1

> <b_m_subgroup_collapsed>
0

$$$$
573378
                    3D
 Schrodinger Suite 2021-1.
 42 44  0  0  1  0            999 V2000
   54.8777  161.5362   31.6884 C   0  0  0  0  0  0
   53.9198  161.0441   30.7106 N   0  0  2  0  0  0
   52.5649  161.0708   31.2515 C   0  0  0  0  0  0
   51.5682  160.8603   30.1039 C   0  0  0  0  0  0
   50.4524  159.8552   30.3231 C   0  0  0  0  0  0
   49.3346  160.2240   30.9814 C   0  0  0  0  0  0
   48.2284  159.2980   31.2233 C   0  0  0  0  0  0
   47.1655  159.5464   31.7867 O   0  0  0  0  0  0
   48.3951  158.0067   30.7687 O   0  0  0  0  0  0
   49.5414  157.5954   30.1040 C   0  0  0  0  0  0
   50.5763  158.4785   29.7617 C   0  0  0  0  0  0
   51.6568  157.9811   29.0069 C   0  0  0  0  0  0
   51.6848  156.6490   28.5818 C   0  0  0  0  0  0
   50.6325  155.7804   28.9038 C   0  0  0  0  0  0
   49.5924  156.2444   29.7040 C   0  0  0  0  0  0
   50.4560  154.5209   28.3764 O   0  0  0  0  0  0
   51.5677  153.6862   28.0920 C   0  0  0  0  0  0
   51.9039  153.6062   26.6083 C   0  0  0  0  0  0
   52.0561  154.7647   25.8445 C   0  0  0  0  0  0
   52.6899  154.7104   24.6101 C   0  0  0  0  0  0
   53.1115  153.4919   24.0802 C   0  0  0  0  0  0
   52.8560  152.3201   24.7864 C   0  0  0  0  0  0
   52.2435  152.3771   26.0333 C   0  0  0  0  0  0
   53.2560  150.7838   24.1135 Cl  0  0  0  0  0  0
   55.8898  161.4487   31.2915 H   0  0  0  0  0  0
   54.8303  160.9647   32.6121 H   0  0  0  0  0  0
   54.6964  162.5851   31.9240 H   0  0  0  0  0  0
   54.1431  160.0724   30.5107 H   0  0  0  0  0  0
   52.4579  160.3037   32.0208 H   0  0  0  0  0  0
   52.3583  162.0419   31.7040 H   0  0  0  0  0  0
   51.1473  161.8198   29.8132 H   0  0  0  0  0  0
   52.0797  160.5487   29.2216 H   0  0  0  0  0  0
   49.2641  161.2283   31.3673 H   0  0  0  0  0  0
   52.5082  158.5921   28.7556 H   0  0  0  0  0  0
   52.5407  156.3110   28.0195 H   0  0  0  0  0  0
   48.7842  155.5710   29.9278 H   0  0  0  0  0  0
   52.4565  153.9918   28.6366 H   0  0  0  0  0  0
   51.3174  152.6920   28.4638 H   0  0  0  0  0  0
   51.7494  155.7291   26.2057 H   0  0  0  0  0  0
   52.8787  155.6391   24.1040 H   0  0  0  0  0  0
   53.6005  153.4507   23.1184 H   0  0  0  0  0  0
   52.0567  151.4413   26.5220 H   0  0  0  0  0  0
  1  2  1  0  0  0
  1 25  1  0  0  0
  1 26  1  0  0  0
  1 27  1  0  0  0
  2  3  1  0  0  0
  2 28  1  0  0  0
  3  4  1  0  0  0
  3 29  1  0  0  0
  3 30  1  0  0  0
  4  5  1  0  0  0
  4 31  1  0  0  0
  4 32  1  0  0  0
  5 11  1  0  0  0
  5  6  2  0  0  0
  6  7  1  0  0  0
  6 33  1  0  0  0
  7  8  2  0  0  0
  7  9  1  0  0  0
  9 10  1  0  0  0
 10 15  1  0  0  0
 10 11  2  0  0  0
 11 12  1  0  0  0
 12 13  2  0  0  0
 12 34  1  0  0  0
 13 14  1  0  0  0
 13 35  1  0  0  0
 14 15  2  0  0  0
 14 16  1  0  0  0
 15 36  1  0  0  0
 16 17  1  0  0  0
 17 18  1  0  0  0
 17 37  1  0  0  0
 17 38  1  0  0  0
 18 23  1  0  0  0
 18 19  2  0  0  0
 19 20  1  0  0  0
 19 39  1  0  0  0
 20 21  2  0  0  0
 20 40  1  0  0  0
 21 22  1  0  0  0
 21 41  1  0  0  0
 22 23  2  0  0  0
 22 24  1  0  0  0
 23 42  1  0  0  0
M  END
> <s_m_entry_id>
11667

> <s_m_entry_name>
ligand_docking-pose.77

> <s_m_Source_Path>
/home/csk/Desktop/cluster/DUD-E-result/aofb

> <s_m_Source_File>
ligand_docking-pose.sdf

> <i_m_Source_File_Index>
77

> <i_lp_mmshare_version>
53161

> <r_lp_tautomer_probability>
1

> <s_lp_Force_Field>
OPLS_2005

> <r_lp_Energy>
21.976505

> <b_lp_Chiralities_Consistent>
1

> <s_lp_Variant>
573378-1

> <s_i_glide_gridfile>
glide-grid_1s3b

> <i_i_glide_lignum>
506

> <i_i_glide_rotatable_bonds>
6

> <r_i_docking_score>
-6.95656104802844

> <r_i_glide_ligand_efficiency>
-0.289856710334518

> <r_i_glide_ligand_efficiency_sa>
-0.836091430975642

> <r_i_glide_ligand_efficiency_ln>
-1.66502427457932

> <r_i_glide_gscore>
-6.95656104802844

> <r_i_glide_lipo>
-4.22514406499446

> <r_i_glide_hbond>
-0.311211538040507

> <r_i_glide_metal>
0

> <r_i_glide_rewards>
-1.67708013154804

> <r_i_glide_evdw>
-13.5332136154175

> <r_i_glide_ecoul>
-5.79543018341064

> <r_i_glide_erotb>
0.80284989483704

> <r_i_glide_esite>
0

> <r_i_glide_emodel>
-18.0497708699298

> <r_i_glide_energy>
-19.3286437988281

> <r_i_glide_einternal>
5.84621095657349

> <i_i_glide_confnum>
83

> <i_i_glide_posenum>
29

> <r_i_glide_eff_state_penalty>
0

> <i_f3d_flags>
0

> <s_user_duplicate_titles>
573378

> <s_m_subgroup_title>
dock_pv

> <s_m_subgroupid>
dock_pv1

> <b_m_subgroup_collapsed>
0

$$$$
573398
                    3D
 Schrodinger Suite 2021-1.
 35 37  0  0  1  0            999 V2000
   48.9531  161.0476   32.5045 C   0  0  0  0  0  0
   49.9534  160.5912   31.6471 C   0  0  0  0  0  0
   49.6268  159.7504   30.5794 C   0  0  0  0  0  0
   48.2900  159.4129   30.3508 C   0  0  0  0  0  0
   47.2922  159.8827   31.1996 C   0  0  0  0  0  0
   47.6239  160.6910   32.2853 C   0  0  0  0  0  0
   45.6562  159.4441   30.9043 Cl  0  0  0  0  0  0
   50.7033  159.1414   29.7041 C   0  0  0  0  0  0
   50.5954  157.7271   29.8069 O   0  0  0  0  0  0
   51.2562  156.9311   28.9040 C   0  0  0  0  0  0
   52.2557  157.3975   28.0473 C   0  0  0  0  0  0
   52.6292  156.6438   26.9402 C   0  0  0  0  0  0
   52.0942  155.3731   26.7591 C   0  0  0  0  0  0
   52.4561  154.4953   25.6335 C   0  0  0  0  0  0
   52.1465  153.1922   25.7040 C   0  0  0  0  0  0
   51.4279  152.6384   26.7925 C   0  0  0  0  0  0
   51.2560  151.4429   26.9039 O   0  0  0  0  0  0
   50.8944  153.4953   27.7271 O   0  0  0  0  0  0
   51.2927  154.8190   27.7667 C   0  0  0  0  0  0
   50.8547  155.5996   28.8278 C   0  0  0  0  0  0
   53.3277  155.0204   24.5092 C   0  0  0  0  0  0
   53.5294  153.9465   23.5133 C   0  0  0  0  0  0
   53.6558  153.0673   22.7734 N   0  0  0  0  0  0
   49.2165  161.6741   33.3435 H   0  0  0  0  0  0
   50.9815  160.8592   31.8436 H   0  0  0  0  0  0
   48.0266  158.7657   29.5273 H   0  0  0  0  0  0
   46.8528  161.0435   32.9535 H   0  0  0  0  0  0
   51.6959  159.4756   30.0128 H   0  0  0  0  0  0
   50.5356  159.4607   28.6745 H   0  0  0  0  0  0
   52.6672  158.3818   28.1665 H   0  0  0  0  0  0
   53.3393  157.0442   26.2360 H   0  0  0  0  0  0
   52.4530  152.4795   24.9561 H   0  0  0  0  0  0
   50.1551  155.1973   29.5450 H   0  0  0  0  0  0
   54.3005  155.3288   24.8936 H   0  0  0  0  0  0
   52.8239  155.8933   24.1040 H   0  0  0  0  0  0
  1  6  1  0  0  0
  1  2  2  0  0  0
  1 24  1  0  0  0
  2  3  1  0  0  0
  2 25  1  0  0  0
  3  4  2  0  0  0
  3  8  1  0  0  0
  4  5  1  0  0  0
  4 26  1  0  0  0
  5  6  2  0  0  0
  5  7  1  0  0  0
  6 27  1  0  0  0
  8  9  1  0  0  0
  8 28  1  0  0  0
  8 29  1  0  0  0
  9 10  1  0  0  0
 10 20  1  0  0  0
 10 11  2  0  0  0
 11 12  1  0  0  0
 11 30  1  0  0  0
 12 13  2  0  0  0
 12 31  1  0  0  0
 13 19  1  0  0  0
 13 14  1  0  0  0
 14 15  2  0  0  0
 14 21  1  0  0  0
 15 16  1  0  0  0
 15 32  1  0  0  0
 16 17  2  0  0  0
 16 18  1  0  0  0
 18 19  1  0  0  0
 19 20  2  0  0  0
 20 33  1  0  0  0
 21 22  1  0  0  0
 21 34  1  0  0  0
 21 35  1  0  0  0
 22 23  3  0  0  0
M  END
> <s_m_entry_id>
11668

> <s_m_entry_name>
ligand_docking-pose.78

> <s_m_Source_Path>
/home/csk/Desktop/cluster/DUD-E-result/aofb

> <s_m_Source_File>
ligand_docking-pose.sdf

> <i_m_Source_File_Index>
78

> <i_lp_mmshare_version>
53161

> <r_lp_tautomer_probability>
1

> <s_lp_Force_Field>
OPLS_2005

> <r_lp_Energy>
19.307042

> <b_lp_Chiralities_Consistent>
1

> <s_lp_Variant>
573398-1

> <s_i_glide_gridfile>
glide-grid_1s3b

> <i_i_glide_lignum>
107

> <i_i_glide_rotatable_bonds>
4

> <r_i_docking_score>
-6.95501102145091

> <r_i_glide_ligand_efficiency>
-0.302391783541344

> <r_i_glide_ligand_efficiency_sa>
-0.859962007292848

> <r_i_glide_ligand_efficiency_ln>
-1.68178472954006

> <r_i_glide_gscore>
-6.95501102145091

> <r_i_glide_lipo>
-4.45174763013375

> <r_i_glide_hbond>
0

> <r_i_glide_metal>
0

> <r_i_glide_rewards>
-2.35837400809898

> <r_i_glide_evdw>
-22.7505931854248

> <r_i_glide_ecoul>
1.90667486190796

> <r_i_glide_erotb>
0.706639046766872

> <r_i_glide_esite>
0

> <r_i_glide_emodel>
-20.226552880316

> <r_i_glide_energy>
-20.8439183235168

> <r_i_glide_einternal>
2.27161264419556

> <i_i_glide_confnum>
20

> <i_i_glide_posenum>
223

> <r_i_glide_eff_state_penalty>
0

> <i_f3d_flags>
0

> <s_user_duplicate_titles>
573398

> <s_m_subgroup_title>
dock_pv

> <s_m_subgroupid>
dock_pv1

> <b_m_subgroup_collapsed>
0

$$$$
22061
                    3D
 Schrodinger Suite 2021-1.
 42 43  0  0  1  0            999 V2000
   53.5117  156.3953   24.8980 C   0  0  0  0  0  0
   52.4511  155.3326   25.1214 C   0  0  0  0  0  0
   52.0803  154.6515   24.1623 O   0  0  0  0  0  0
   52.0539  155.0553   26.5253 C   0  0  0  0  0  0
   51.8380  156.1208   27.4228 C   0  0  0  0  0  0
   51.1752  155.9034   28.6343 C   0  0  0  0  0  0
   50.9221  154.5971   29.0131 C   0  0  0  0  0  0
   51.2543  153.5237   28.1885 C   0  0  0  0  0  0
   51.7860  153.7330   26.9274 C   0  0  0  0  0  0
   51.9830  152.6122   26.1468 O   0  0  0  0  0  0
   53.3127  152.3361   25.7050 C   0  0  0  0  0  0
   53.2559  151.4666   24.4576 C   0  0  0  0  0  0
   53.1059  149.9606   24.7181 C   0  0  0  0  0  0
   52.0675  149.6651   25.7051 C   0  0  0  0  0  0
   51.2556  149.4458   26.4951 N   0  0  0  0  0  0
   50.6440  156.8686   29.4803 O   0  0  0  0  0  0
   51.0177  158.2408   29.4544 C   0  0  0  0  0  0
   49.8176  159.0829   29.8842 C   0  0  0  0  0  0
   49.2118  159.8454   28.9038 C   0  0  0  0  0  0
   48.0519  160.5513   29.1399 C   0  0  0  0  0  0
   47.4857  160.5787   30.4101 C   0  0  0  0  0  0
   48.1014  159.8738   31.4325 C   0  0  0  0  0  0
   49.2526  159.1354   31.1707 C   0  0  0  0  0  0
   47.4275  159.8836   33.0166 Cl  0  0  0  0  0  0
   53.6715  157.0033   25.7865 H   0  0  0  0  0  0
   54.4505  155.9296   24.5870 H   0  0  0  0  0  0
   53.1843  157.0618   24.1021 H   0  0  0  0  0  0
   52.0556  157.1297   27.1077 H   0  0  0  0  0  0
   50.4549  154.4063   29.9699 H   0  0  0  0  0  0
   51.0463  152.5137   28.5083 H   0  0  0  0  0  0
   53.8689  151.8441   26.5013 H   0  0  0  0  0  0
   53.8934  153.2208   25.4528 H   0  0  0  0  0  0
   54.0560  151.6660   23.7835 H   0  0  0  0  0  0
   52.4560  151.8380   23.8420 H   0  0  0  0  0  0
   54.0479  149.5645   25.0944 H   0  0  0  0  0  0
   52.8893  149.4213   23.7990 H   0  0  0  0  0  0
   51.8617  158.4280   30.1026 H   0  0  0  0  0  0
   51.3547  158.5614   28.4752 H   0  0  0  0  0  0
   49.5996  159.8357   27.9021 H   0  0  0  0  0  0
   47.6196  161.0422   28.2963 H   0  0  0  0  0  0
   46.5747  161.1300   30.5858 H   0  0  0  0  0  0
   49.6571  158.6441   32.0230 H   0  0  0  0  0  0
  1  2  1  0  0  0
  1 25  1  0  0  0
  1 26  1  0  0  0
  1 27  1  0  0  0
  2  3  2  0  0  0
  2  4  1  0  0  0
  4  9  1  0  0  0
  4  5  2  0  0  0
  5  6  1  0  0  0
  5 28  1  0  0  0
  6  7  2  0  0  0
  6 16  1  0  0  0
  7  8  1  0  0  0
  7 29  1  0  0  0
  8  9  2  0  0  0
  8 30  1  0  0  0
  9 10  1  0  0  0
 10 11  1  0  0  0
 11 12  1  0  0  0
 11 31  1  0  0  0
 11 32  1  0  0  0
 12 13  1  0  0  0
 12 33  1  0  0  0
 12 34  1  0  0  0
 13 14  1  0  0  0
 13 35  1  0  0  0
 13 36  1  0  0  0
 14 15  3  0  0  0
 16 17  1  0  0  0
 17 18  1  0  0  0
 17 37  1  0  0  0
 17 38  1  0  0  0
 18 23  1  0  0  0
 18 19  2  0  0  0
 19 20  1  0  0  0
 19 39  1  0  0  0
 20 21  2  0  0  0
 20 40  1  0  0  0
 21 22  1  0  0  0
 21 41  1  0  0  0
 22 23  2  0  0  0
 22 24  1  0  0  0
 23 42  1  0  0  0
M  END
> <s_m_entry_id>
11670

> <s_m_entry_name>
ligand_docking-pose.80

> <s_m_Source_Path>
/home/csk/Desktop/cluster/DUD-E-result/aofb

> <s_m_Source_File>
ligand_docking-pose.sdf

> <i_m_Source_File_Index>
80

> <i_lp_mmshare_version>
53161

> <r_lp_tautomer_probability>
0.99995

> <s_lp_Force_Field>
OPLS_2005

> <r_lp_Energy>
28.485809

> <b_lp_Chiralities_Consistent>
1

> <s_lp_Variant>
22061-1

> <s_i_glide_gridfile>
glide-grid_1s3b

> <i_i_glide_lignum>
428

> <i_i_glide_rotatable_bonds>
8

> <r_i_docking_score>
-6.95249284384269

> <r_i_glide_ligand_efficiency>
-0.289687201826779

> <r_i_glide_ligand_efficiency_sa>
-0.835602483831258

> <r_i_glide_ligand_efficiency_ln>
-1.66405056663995

> <r_i_glide_gscore>
-6.95249284384269

> <r_i_glide_lipo>
-4.57887482929435

> <r_i_glide_hbond>
-0.32

> <r_i_glide_metal>
0

> <r_i_glide_rewards>
-2.167323032012

> <r_i_glide_evdw>
-9.55488014221191

> <r_i_glide_ecoul>
-2.35516858100891

> <r_i_glide_erotb>
0.963419873804448

> <r_i_glide_esite>
-0.0186955620788569

> <r_i_glide_emodel>
-25.9991960569485

> <r_i_glide_energy>
-11.9100487232208

> <r_i_glide_einternal>
13.7669172286987

> <i_i_glide_confnum>
32

> <i_i_glide_posenum>
72

> <r_i_glide_eff_state_penalty>
0

> <i_f3d_flags>
0

> <s_user_duplicate_titles>
22061

> <s_m_subgroup_title>
dock_pv

> <s_m_subgroupid>
dock_pv1

> <b_m_subgroup_collapsed>
0

$$$$
22090
                    3D
 Schrodinger Suite 2021-1.
 42 43  0  0  1  0            999 V2000
   54.1144  154.7395   24.2996 C   0  0  0  0  0  0
   53.2563  155.8305   24.9219 C   0  0  0  0  0  0
   53.4449  156.9586   24.5035 O   0  0  0  0  0  0
   52.4560  155.5274   26.1521 C   0  0  0  0  0  0
   52.3070  156.5137   27.1479 C   0  0  0  0  0  0
   51.6008  156.2439   28.3322 C   0  0  0  0  0  0
   51.1214  154.9545   28.5444 C   0  0  0  0  0  0
   51.2560  153.9721   27.5718 C   0  0  0  0  0  0
   51.8813  154.2627   26.3578 C   0  0  0  0  0  0
   51.9330  153.3116   25.3712 O   0  0  0  0  0  0
   52.5420  152.0849   25.7364 C   0  0  0  0  0  0
   53.2551  151.5427   24.5041 C   0  0  0  0  0  0
   53.8085  150.1432   24.6677 C   0  0  0  0  0  0
   52.8876  149.0909   25.0370 C   0  0  0  0  0  0
   52.1715  148.2440   25.3040 N   0  0  0  0  0  0
   51.2549  157.1654   29.3039 O   0  0  0  0  0  0
   51.4221  158.5666   29.1182 C   0  0  0  0  0  0
   50.4797  159.3110   30.0625 C   0  0  0  0  0  0
   50.9389  160.4075   30.7970 C   0  0  0  0  0  0
   50.0915  161.0440   31.7040 C   0  0  0  0  0  0
   48.7763  160.6133   31.8701 C   0  0  0  0  0  0
   48.3072  159.5296   31.1332 C   0  0  0  0  0  0
   49.1563  158.8827   30.2373 C   0  0  0  0  0  0
   47.0362  159.0970   31.2956 F   0  0  0  0  0  0
   53.5232  154.1643   23.5886 H   0  0  0  0  0  0
   54.9678  155.1739   23.7783 H   0  0  0  0  0  0
   54.5118  154.0910   25.0788 H   0  0  0  0  0  0
   52.7294  157.4941   26.9991 H   0  0  0  0  0  0
   50.5963  154.7237   29.4597 H   0  0  0  0  0  0
   50.8443  152.9912   27.7509 H   0  0  0  0  0  0
   51.7769  151.3935   26.0941 H   0  0  0  0  0  0
   53.2767  152.2157   26.5336 H   0  0  0  0  0  0
   54.0559  152.2019   24.2250 H   0  0  0  0  0  0
   52.5894  151.5659   23.6473 H   0  0  0  0  0  0
   54.6859  150.1304   25.3034 H   0  0  0  0  0  0
   54.0560  149.7591   23.7040 H   0  0  0  0  0  0
   52.4593  158.8346   29.3043 H   0  0  0  0  0  0
   51.2035  158.8832   28.1041 H   0  0  0  0  0  0
   51.9589  160.7491   30.6936 H   0  0  0  0  0  0
   50.4562  161.8758   32.2877 H   0  0  0  0  0  0
   48.1245  161.1106   32.5728 H   0  0  0  0  0  0
   48.7810  158.0263   29.7043 H   0  0  0  0  0  0
  1  2  1  0  0  0
  1 25  1  0  0  0
  1 26  1  0  0  0
  1 27  1  0  0  0
  2  3  2  0  0  0
  2  4  1  0  0  0
  4  9  1  0  0  0
  4  5  2  0  0  0
  5  6  1  0  0  0
  5 28  1  0  0  0
  6  7  2  0  0  0
  6 16  1  0  0  0
  7  8  1  0  0  0
  7 29  1  0  0  0
  8  9  2  0  0  0
  8 30  1  0  0  0
  9 10  1  0  0  0
 10 11  1  0  0  0
 11 12  1  0  0  0
 11 31  1  0  0  0
 11 32  1  0  0  0
 12 13  1  0  0  0
 12 33  1  0  0  0
 12 34  1  0  0  0
 13 14  1  0  0  0
 13 35  1  0  0  0
 13 36  1  0  0  0
 14 15  3  0  0  0
 16 17  1  0  0  0
 17 18  1  0  0  0
 17 37  1  0  0  0
 17 38  1  0  0  0
 18 23  1  0  0  0
 18 19  2  0  0  0
 19 20  1  0  0  0
 19 39  1  0  0  0
 20 21  2  0  0  0
 20 40  1  0  0  0
 21 22  1  0  0  0
 21 41  1  0  0  0
 22 23  2  0  0  0
 22 24  1  0  0  0
 23 42  1  0  0  0
M  END
> <s_m_entry_id>
11673

> <s_m_entry_name>
ligand_docking-pose.83

> <s_m_Source_Path>
/home/csk/Desktop/cluster/DUD-E-result/aofb

> <s_m_Source_File>
ligand_docking-pose.sdf

> <i_m_Source_File_Index>
83

> <i_lp_mmshare_version>
53161

> <r_lp_tautomer_probability>
0.99995

> <s_lp_Force_Field>
OPLS_2005

> <r_lp_Energy>
28.852121

> <b_lp_Chiralities_Consistent>
1

> <s_lp_Variant>
22090-1

> <s_i_glide_gridfile>
glide-grid_1s3b

> <i_i_glide_lignum>
430

> <i_i_glide_rotatable_bonds>
8

> <r_i_docking_score>
-6.93330870834231

> <r_i_glide_ligand_efficiency>
-0.288887862847596

> <r_i_glide_ligand_efficiency_sa>
-0.833296791235188

> <r_i_glide_ligand_efficiency_ln>
-1.65945892271209

> <r_i_glide_gscore>
-6.93330870834231

> <r_i_glide_lipo>
-4.18555711574598

> <r_i_glide_hbond>
-0.0882585474596748

> <r_i_glide_metal>
0

> <r_i_glide_rewards>
-2.40433727586041

> <r_i_glide_evdw>
-16.3064403533936

> <r_i_glide_ecoul>
-3.27092933654785

> <r_i_glide_erotb>
1.05080564887561

> <r_i_glide_esite>
0

> <r_i_glide_emodel>
-17.9330523279721

> <r_i_glide_energy>
-19.5773696899414

> <r_i_glide_einternal>
12.9443769454956

> <i_i_glide_confnum>
44

> <i_i_glide_posenum>
334

> <r_i_glide_eff_state_penalty>
0

> <i_f3d_flags>
0

> <s_user_duplicate_titles>
22090

> <s_m_subgroup_title>
dock_pv

> <s_m_subgroupid>
dock_pv1

> <b_m_subgroup_collapsed>
0

$$$$
573385
                    3D
 Schrodinger Suite 2021-1.
 41 43  0  0  1  0            999 V2000
   53.1784  152.3405   22.5040 C   0  0  0  0  0  0
   52.8560  152.6952   23.8353 N   0  0  0  0  0  0
   52.9187  152.1071   25.0213 C   0  0  0  0  0  0
   53.4490  151.0223   25.2162 O   0  0  0  0  0  0
   52.1488  152.8677   26.1270 C   0  0  0  0  0  0
   52.2941  154.4062   26.1273 C   0  0  0  0  0  0
   52.8561  155.1370   25.1369 C   0  0  0  0  0  0
   53.2563  156.4727   25.2606 C   0  0  0  0  0  0
   53.9172  157.0440   24.3949 O   0  0  0  0  0  0
   53.1290  157.0438   26.5108 O   0  0  0  0  0  0
   52.3181  156.4673   27.4664 C   0  0  0  0  0  0
   51.8602  155.1439   27.3410 C   0  0  0  0  0  0
   50.9825  154.6442   28.3035 C   0  0  0  0  0  0
   50.4560  155.5149   29.2577 C   0  0  0  0  0  0
   50.8560  156.8589   29.3040 C   0  0  0  0  0  0
   51.9078  157.2926   28.5041 C   0  0  0  0  0  0
   50.1151  157.6979   30.1040 O   0  0  0  0  0  0
   50.2279  159.1094   29.9615 C   0  0  0  0  0  0
   49.1679  159.7260   30.8531 C   0  0  0  0  0  0
   49.5357  160.6100   31.8685 C   0  0  0  0  0  0
   48.5789  161.0534   32.7741 C   0  0  0  0  0  0
   47.2562  160.6448   32.6346 C   0  0  0  0  0  0
   46.8704  159.8073   31.5913 C   0  0  0  0  0  0
   47.8314  159.3418   30.7000 C   0  0  0  0  0  0
   52.5578  152.9601   21.8588 H   0  0  0  0  0  0
   52.8560  151.3137   22.3153 H   0  0  0  0  0  0
   54.1917  152.6440   22.2527 H   0  0  0  0  0  0
   52.3215  153.5492   23.8619 H   0  0  0  0  0  0
   51.0923  152.6058   26.0887 H   0  0  0  0  0  0
   52.5211  152.5079   27.0838 H   0  0  0  0  0  0
   53.2620  154.7944   24.2161 H   0  0  0  0  0  0
   50.6161  153.6298   28.2525 H   0  0  0  0  0  0
   49.6792  155.1610   29.9183 H   0  0  0  0  0  0
   52.2686  158.3090   28.5393 H   0  0  0  0  0  0
   51.2244  159.4452   30.2558 H   0  0  0  0  0  0
   50.0566  159.4233   28.9297 H   0  0  0  0  0  0
   50.5664  160.9123   31.9956 H   0  0  0  0  0  0
   48.8668  161.7076   33.5833 H   0  0  0  0  0  0
   46.5125  160.9980   33.3326 H   0  0  0  0  0  0
   45.8374  159.5068   31.4868 H   0  0  0  0  0  0
   47.5456  158.6593   29.9120 H   0  0  0  0  0  0
  1  2  1  0  0  0
  1 25  1  0  0  0
  1 26  1  0  0  0
  1 27  1  0  0  0
  2  3  1  0  0  0
  2 28  1  0  0  0
  3  4  2  0  0  0
  3  5  1  0  0  0
  5  6  1  0  0  0
  5 29  1  0  0  0
  5 30  1  0  0  0
  6 12  1  0  0  0
  6  7  2  0  0  0
  7  8  1  0  0  0
  7 31  1  0  0  0
  8  9  2  0  0  0
  8 10  1  0  0  0
 10 11  1  0  0  0
 11 16  1  0  0  0
 11 12  2  0  0  0
 12 13  1  0  0  0
 13 14  2  0  0  0
 13 32  1  0  0  0
 14 15  1  0  0  0
 14 33  1  0  0  0
 15 16  2  0  0  0
 15 17  1  0  0  0
 16 34  1  0  0  0
 17 18  1  0  0  0
 18 19  1  0  0  0
 18 35  1  0  0  0
 18 36  1  0  0  0
 19 24  1  0  0  0
 19 20  2  0  0  0
 20 21  1  0  0  0
 20 37  1  0  0  0
 21 22  2  0  0  0
 21 38  1  0  0  0
 22 23  1  0  0  0
 22 39  1  0  0  0
 23 24  2  0  0  0
 23 40  1  0  0  0
 24 41  1  0  0  0
M  END
> <s_m_entry_id>
11675

> <s_m_entry_name>
ligand_docking-pose.85

> <s_m_Source_Path>
/home/csk/Desktop/cluster/DUD-E-result/aofb

> <s_m_Source_File>
ligand_docking-pose.sdf

> <i_m_Source_File_Index>
85

> <i_lp_mmshare_version>
53161

> <r_lp_tautomer_probability>
1

> <s_lp_Force_Field>
OPLS_2005

> <r_lp_Energy>
19.296405

> <b_lp_Chiralities_Consistent>
1

> <s_lp_Variant>
573385-1

> <s_i_glide_gridfile>
glide-grid_1s3b

> <i_i_glide_lignum>
530

> <i_i_glide_rotatable_bonds>
6

> <r_i_docking_score>
-6.89940887497314

> <r_i_glide_ligand_efficiency>
-0.287475369790547

> <r_i_glide_ligand_efficiency_sa>
-0.829222456230323

> <r_i_glide_ligand_efficiency_ln>
-1.65134513702485

> <r_i_glide_gscore>
-6.89940887497314

> <r_i_glide_lipo>
-4.42719004640396

> <r_i_glide_hbond>
0

> <r_i_glide_metal>
0

> <r_i_glide_rewards>
-2.50572251780391

> <r_i_glide_evdw>
-10.4268646240234

> <r_i_glide_ecoul>
-2.26711297035217

> <r_i_glide_erotb>
0.89491386598873

> <r_i_glide_esite>
0

> <r_i_glide_emodel>
-30.286123699133

> <r_i_glide_energy>
-12.6939775943756

> <r_i_glide_einternal>
23.476131439209

> <i_i_glide_confnum>
157

> <i_i_glide_posenum>
74

> <r_i_glide_eff_state_penalty>
0

> <i_f3d_flags>
0

> <s_user_duplicate_titles>
573385

> <s_m_subgroup_title>
dock_pv

> <s_m_subgroupid>
dock_pv1

> <b_m_subgroup_collapsed>
0

$$$$
512905
                    3D
 Schrodinger Suite 2021-1.
 31 33  0  0  1  0            999 V2000
   48.1959  161.0440   31.9636 C   0  0  0  0  0  0
   49.5808  160.9913   32.1040 C   0  0  0  0  0  0
   50.3530  160.3270   31.1554 C   0  0  0  0  0  0
   49.7356  159.7396   30.0507 C   0  0  0  0  0  0
   48.3528  159.8440   29.8845 C   0  0  0  0  0  0
   47.5783  160.4832   30.8491 C   0  0  0  0  0  0
   50.4560  159.0440   29.0738 N   0  0  0  0  0  0
   51.6748  158.2938   29.3427 C   0  0  0  0  0  0
   51.7915  157.0279   28.5040 C   0  0  0  0  0  0
   51.2829  155.7470   28.6638 C   0  0  0  0  0  0
   51.6560  154.9679   27.5217 C   0  0  0  0  0  0
   51.4597  153.6337   27.1390 C   0  0  0  0  0  0
   51.9219  153.2198   25.8909 C   0  0  0  0  0  0
   52.5372  154.1104   25.0122 C   0  0  0  0  0  0
   52.7658  155.4440   25.3591 C   0  0  0  0  0  0
   52.3380  155.8453   26.6323 C   0  0  0  0  0  0
   52.4560  157.0440   27.3024 N   0  0  0  0  0  0
   52.8975  157.8875   26.9638 H   0  0  0  0  0  0
   47.6004  161.5435   32.7137 H   0  0  0  0  0  0
   50.0560  161.4440   32.9614 H   0  0  0  0  0  0
   51.4243  160.2726   31.2832 H   0  0  0  0  0  0
   47.8686  159.4074   29.0233 H   0  0  0  0  0  0
   46.5059  160.5433   30.7337 H   0  0  0  0  0  0
   49.9622  158.7886   28.2308 H   0  0  0  0  0  0
   52.5355  158.9549   29.2431 H   0  0  0  0  0  0
   51.6560  158.0013   30.3819 H   0  0  0  0  0  0
   50.7125  155.4110   29.5164 H   0  0  0  0  0  0
   50.9608  152.9407   27.8002 H   0  0  0  0  0  0
   51.7957  152.1878   25.6020 H   0  0  0  0  0  0
   52.8702  153.7498   24.0490 H   0  0  0  0  0  0
   53.2755  156.1181   24.6874 H   0  0  0  0  0  0
  1  6  1  0  0  0
  1  2  2  0  0  0
  1 19  1  0  0  0
  2  3  1  0  0  0
  2 20  1  0  0  0
  3  4  2  0  0  0
  3 21  1  0  0  0
  4  5  1  0  0  0
  4  7  1  0  0  0
  5  6  2  0  0  0
  5 22  1  0  0  0
  6 23  1  0  0  0
  7  8  1  0  0  0
  7 24  1  0  0  0
  8  9  1  0  0  0
  8 25  1  0  0  0
  8 26  1  0  0  0
  9 17  1  0  0  0
  9 10  2  0  0  0
 10 11  1  0  0  0
 10 27  1  0  0  0
 11 16  2  0  0  0
 11 12  1  0  0  0
 12 13  2  0  0  0
 12 28  1  0  0  0
 13 14  1  0  0  0
 13 29  1  0  0  0
 14 15  2  0  0  0
 14 30  1  0  0  0
 15 16  1  0  0  0
 15 31  1  0  0  0
 16 17  1  0  0  0
 17 18  1  0  0  0
M  END
> <s_m_entry_id>
11676

> <s_m_entry_name>
ligand_docking-pose.86

> <s_m_Source_Path>
/home/csk/Desktop/cluster/DUD-E-result/aofb

> <s_m_Source_File>
ligand_docking-pose.sdf

> <i_m_Source_File_Index>
86

> <i_lp_mmshare_version>
53161

> <r_lp_tautomer_probability>
1

> <s_lp_Force_Field>
OPLS_2005

> <r_lp_Energy>
8.840362

> <b_lp_Chiralities_Consistent>
1

> <s_lp_Variant>
512905-1

> <s_i_glide_gridfile>
glide-grid_1s3b

> <i_i_glide_lignum>
164

> <i_i_glide_rotatable_bonds>
3

> <r_i_docking_score>
-6.89499553861597

> <r_i_glide_ligand_efficiency>
-0.405587972859763

> <r_i_glide_ligand_efficiency_sa>
-1.0428808870218

> <r_i_glide_ligand_efficiency_ln>
-1.79875079202345

> <r_i_glide_gscore>
-6.89499553861597

> <r_i_glide_lipo>
-3.71226491339886

> <r_i_glide_hbond>
0

> <r_i_glide_metal>
0

> <r_i_glide_rewards>
-2.75263235107856

> <r_i_glide_evdw>
-26.4823341369629

> <r_i_glide_ecoul>
-0.879712224006653

> <r_i_glide_erotb>
1.02597526631058

> <r_i_glide_esite>
0

> <r_i_glide_emodel>
-34.7689063855001

> <r_i_glide_energy>
-27.3620463609695

> <r_i_glide_einternal>
4.63450193405151

> <i_i_glide_confnum>
10

> <i_i_glide_posenum>
268

> <r_i_glide_eff_state_penalty>
0

> <i_f3d_flags>
0

> <s_user_duplicate_titles>
512905

> <s_m_subgroup_title>
dock_pv

> <s_m_subgroupid>
dock_pv1

> <b_m_subgroup_collapsed>
0

$$$$
518690
                    3D
 Schrodinger Suite 2021-1.
 37 38  0  0  1  0            999 V2000
   53.3445  151.9011   25.4616 C   0  0  0  0  0  0
   53.2082  153.0826   24.4900 C   0  0  1  0  0  0
   52.0100  154.0039   24.7953 C   0  0  0  0  0  0
   52.0452  154.7816   26.1038 C   0  0  0  0  0  0
   51.4351  154.2651   27.2524 C   0  0  0  0  0  0
   51.2494  155.0905   28.3610 C   0  0  0  0  0  0
   51.6750  156.4190   28.3242 C   0  0  0  0  0  0
   52.4560  156.8543   27.2523 C   0  0  0  0  0  0
   52.5984  156.0602   26.1214 C   0  0  0  0  0  0
   51.2076  157.2721   29.3038 O   0  0  0  0  0  0
   51.3010  158.6927   29.1387 C   0  0  0  0  0  0
   50.3474  159.3801   30.1059 C   0  0  0  0  0  0
   49.0376  158.9121   30.2667 C   0  0  0  0  0  0
   48.1793  159.5113   31.1835 C   0  0  0  0  0  0
   48.6362  160.5766   31.9520 C   0  0  0  0  0  0
   49.9389  161.0440   31.8020 C   0  0  0  0  0  0
   50.7928  160.4586   30.8727 C   0  0  0  0  0  0
   54.4404  153.8442   24.5040 N   0  0  0  0  0  0
   52.4452  151.2853   25.4576 H   0  0  0  0  0  0
   53.5039  152.2404   26.4852 H   0  0  0  0  0  0
   54.1796  151.2542   25.1931 H   0  0  0  0  0  0
   53.0794  152.6845   23.4811 H   0  0  0  0  0  0
   51.8969  154.7167   23.9776 H   0  0  0  0  0  0
   51.0797  153.4440   24.7819 H   0  0  0  0  0  0
   51.0235  153.2664   27.2547 H   0  0  0  0  0  0
   50.6860  154.7296   29.2087 H   0  0  0  0  0  0
   52.8749  157.8440   27.2534 H   0  0  0  0  0  0
   53.1095  156.4487   25.2526 H   0  0  0  0  0  0
   52.3310  159.0081   29.3126 H   0  0  0  0  0  0
   51.0245  159.0440   28.1433 H   0  0  0  0  0  0
   48.6841  158.0649   29.7042 H   0  0  0  0  0  0
   47.1715  159.1427   31.3077 H   0  0  0  0  0  0
   47.9794  161.0387   32.6743 H   0  0  0  0  0  0
   50.2886  161.8637   32.4109 H   0  0  0  0  0  0
   51.8048  160.8250   30.7759 H   0  0  0  0  0  0
   54.6283  154.0819   25.4743 H   0  0  0  0  0  0
   55.1932  153.2227   24.2106 H   0  0  0  0  0  0
  1  2  1  0  0  0
  1 19  1  0  0  0
  1 20  1  0  0  0
  1 21  1  0  0  0
  2  3  1  0  0  0
  2 18  1  0  0  0
  2 22  1  0  0  0
  3  4  1  0  0  0
  3 23  1  0  0  0
  3 24  1  0  0  0
  4  9  1  0  0  0
  4  5  2  0  0  0
  5  6  1  0  0  0
  5 25  1  0  0  0
  6  7  2  0  0  0
  6 26  1  0  0  0
  7  8  1  0  0  0
  7 10  1  0  0  0
  8  9  2  0  0  0
  8 27  1  0  0  0
  9 28  1  0  0  0
 10 11  1  0  0  0
 11 12  1  0  0  0
 11 29  1  0  0  0
 11 30  1  0  0  0
 12 17  1  0  0  0
 12 13  2  0  0  0
 13 14  1  0  0  0
 13 31  1  0  0  0
 14 15  2  0  0  0
 14 32  1  0  0  0
 15 16  1  0  0  0
 15 33  1  0  0  0
 16 17  2  0  0  0
 16 34  1  0  0  0
 17 35  1  0  0  0
 18 36  1  0  0  0
 18 37  1  0  0  0
M  END
> <s_m_entry_id>
11679

> <s_m_entry_name>
ligand_docking-pose.89

> <s_m_Source_Path>
/home/csk/Desktop/cluster/DUD-E-result/aofb

> <s_m_Source_File>
ligand_docking-pose.sdf

> <i_m_Source_File_Index>
89

> <i_lp_mmshare_version>
53161

> <r_lp_tautomer_probability>
1

> <s_lp_Force_Field>
OPLS_2005

> <r_lp_Energy>
18.296234

> <b_lp_Chiralities_Consistent>
1

> <s_lp_Variant>
518690-2

> <s_i_glide_gridfile>
glide-grid_1s3b

> <i_i_glide_lignum>
313

> <i_i_glide_rotatable_bonds>
5

> <r_i_docking_score>
-6.84549850926033

> <r_i_glide_ligand_efficiency>
-0.380305472736685

> <r_i_glide_ligand_efficiency_sa>
-0.996682293884953

> <r_i_glide_ligand_efficiency_ln>
-1.75960009358135

> <r_i_glide_gscore>
-6.84549850926033

> <r_i_glide_lipo>
-4.26423317571131

> <r_i_glide_hbond>
-0.608

> <r_i_glide_metal>
0

> <r_i_glide_rewards>
-0.954862817015824

> <r_i_glide_evdw>
-29.1775131225586

> <r_i_glide_ecoul>
-4.9950008392334

> <r_i_glide_erotb>
1.18972326547974

> <r_i_glide_esite>
0

> <r_i_glide_emodel>
-40.0208854115656

> <r_i_glide_energy>
-34.172513961792

> <r_i_glide_einternal>
3.85167193412781

> <i_i_glide_confnum>
23

> <i_i_glide_posenum>
79

> <r_i_glide_eff_state_penalty>
0

> <i_f3d_flags>
0

> <s_user_duplicate_titles>
518690

> <s_m_subgroup_title>
dock_pv

> <s_m_subgroupid>
dock_pv1

> <b_m_subgroup_collapsed>
0

$$$$
