CHEMBL1966_lig750
                    3D
 Schrodinger Suite 2021-1.
 44 47  0  0  1  0            999 V2000
   50.1275   42.1643   -1.6629 N   0  0  0  0  0  0
   49.0014   41.5194   -4.1597 C   0  0  0  0  0  0
   50.4224   42.8999   -2.7622 C   0  0  0  0  0  0
   49.8895   42.6106   -4.0335 C   0  0  0  0  0  0
   48.6607   40.7463   -2.9982 C   0  0  0  0  0  0
   49.2737   41.1169   -1.7637 C   0  0  0  0  0  0
   48.4630   41.1400   -5.5119 C   0  0  0  0  0  0
   55.1725   46.9239   -0.6417 C   0  0  0  0  0  0
   54.3709   47.0021   -1.7865 C   0  0  0  0  0  0
   56.2754   47.7603   -0.4987 C   0  0  0  0  0  0
   51.3861   44.0053   -2.4968 C   0  0  0  0  0  0
   54.6825   47.9526   -2.7684 C   0  0  0  0  0  0
   47.7270   39.6608   -2.9784 C   0  0  0  0  0  0
   53.2947   46.0109   -2.0214 C   0  0  0  0  0  0
   47.1078   41.2109   -5.6536 O   0  0  0  0  0  0
   49.2210   40.8108   -6.4174 O   0  0  0  0  0  0
   48.9551   40.4102   -0.5759 C   0  0  0  0  0  0
   52.5216   44.1215   -3.2992 C   0  0  0  0  0  0
   51.2251   44.8975   -1.4217 C   0  0  0  0  0  0
   52.1730   45.8988   -1.1887 C   0  0  0  0  0  0
   53.4545   45.1212   -3.0753 C   0  0  0  0  0  0
   56.5641   48.7158   -1.4645 C   0  0  0  0  0  0
   54.9105   46.0100    0.3208 F   0  0  0  0  0  0
   47.4102   39.0093   -1.7902 C   0  0  0  0  0  0
   55.7706   48.8088   -2.6051 C   0  0  0  0  0  0
   50.2234   43.4843   -5.2603 C   0  0  0  0  0  0
   48.0229   39.3813   -0.6037 C   0  0  0  0  0  0
   46.5005   38.0100   -1.7787 F   0  0  0  0  0  0
   57.6229   49.5628   -1.2992 O   0  0  0  0  0  0
   56.8933   47.6588    0.3793 H   0  0  0  0  0  0
   54.0869   48.0144   -3.6695 H   0  0  0  0  0  0
   47.2377   39.3388   -3.8829 H   0  0  0  0  0  0
   49.4265   40.6917    0.3564 H   0  0  0  0  0  0
   52.7013   43.4133   -4.0967 H   0  0  0  0  0  0
   50.3663   44.8213   -0.7704 H   0  0  0  0  0  0
   52.0403   46.5760   -0.3553 H   0  0  0  0  0  0
   54.3329   45.1763   -3.6994 H   0  0  0  0  0  0
   56.0197   49.5371   -3.3645 H   0  0  0  0  0  0
   49.3048   43.7811   -5.7686 H   0  0  0  0  0  0
   50.7595   44.4096   -5.0444 H   0  0  0  0  0  0
   50.8186   42.9211   -5.9790 H   0  0  0  0  0  0
   47.7796   38.8518    0.3007 H   0  0  0  0  0  0
   58.1977   49.3340   -0.5514 H   0  0  0  0  0  0
   46.6769   41.6208   -4.8990 H   0  0  0  0  0  0
  1  3  2  0  0  0
  1  6  1  0  0  0
  2  5  1  0  0  0
  2  7  1  0  0  0
  2  4  2  0  0  0
  3  4  1  0  0  0
  3 11  1  0  0  0
  4 26  1  0  0  0
  5  6  1  0  0  0
  5 13  2  0  0  0
  6 17  2  0  0  0
  7 15  1  0  0  0
  7 16  2  0  0  0
  8  9  1  0  0  0
  8 10  2  0  0  0
  8 23  1  0  0  0
  9 14  1  0  0  0
  9 12  2  0  0  0
 10 22  1  0  0  0
 10 30  1  0  0  0
 11 18  1  0  0  0
 11 19  2  0  0  0
 12 25  1  0  0  0
 12 31  1  0  0  0
 13 24  1  0  0  0
 13 32  1  0  0  0
 14 20  2  0  0  0
 14 21  1  0  0  0
 15 44  1  0  0  0
 17 27  1  0  0  0
 17 33  1  0  0  0
 18 21  2  0  0  0
 18 34  1  0  0  0
 19 20  1  0  0  0
 19 35  1  0  0  0
 20 36  1  0  0  0
 21 37  1  0  0  0
 22 25  2  0  0  0
 22 29  1  0  0  0
 24 27  2  0  0  0
 24 28  1  0  0  0
 25 38  1  0  0  0
 26 39  1  0  0  0
 26 40  1  0  0  0
 26 41  1  0  0  0
 27 42  1  0  0  0
 29 43  1  0  0  0
M  END
> <s_m_entry_id>
25350

> <s_m_entry_name>
dock_pv.2

> <s_m_Source_Path>
/home/csk/Desktop/cluster/DUD-E-result/pyrd

> <s_m_Source_File>
dock_pv.maegz

> <i_m_Source_File_Index>
2

> <chembl_id>
CHEMBL43639

> <chembl_pref_name>
None

> <i_lp_mmshare_version>
53161

> <r_lp_tautomer_probability>
0.999999999997365

> <s_lp_Force_Field>
OPLS_2005

> <r_lp_Energy>
33.340003

> <b_lp_Chiralities_Consistent>
1

> <s_lp_Variant>
CHEMBL1966_lig750-1

> <s_i_glide_gridfile>
glide-grid_1d3g

> <i_i_glide_lignum>
821

> <i_i_glide_rotatable_bonds>
5

> <r_i_docking_score>
-12.6432885341978

> <r_i_glide_ligand_efficiency>
-0.435975466696475

> <r_i_glide_ligand_efficiency_sa>
-1.33945476041437

> <r_i_glide_ligand_efficiency_ln>
-2.89499246819672

> <r_i_glide_gscore>
-12.6432885341978

> <r_i_glide_lipo>
-6.245091828138

> <r_i_glide_hbond>
-0.48

> <r_i_glide_metal>
0

> <r_i_glide_rewards>
-2.45350705833382

> <r_i_glide_evdw>
-37.871940612793

> <r_i_glide_ecoul>
-13.0219898223877

> <r_i_glide_erotb>
0.382205856271848

> <r_i_glide_esite>
0

> <r_i_glide_emodel>
-83.8730634842706

> <r_i_glide_energy>
-50.8939304351807

> <r_i_glide_einternal>
2.96156024932861

> <i_i_glide_confnum>
8

> <i_i_glide_posenum>
66

> <r_i_glide_eff_state_penalty>
0

> <s_user_duplicate_titles>
CHEMBL1966_lig750,56749

> <i_f3d_flags>
0

> <s_m_subgroup_title>
dock_pv

> <s_m_subgroupid>
dock_pv

> <b_m_subgroup_collapsed>
1

$$$$
CHEMBL1966_lig794
                    3D
 Schrodinger Suite 2021-1.
 47 51  0  0  1  0            999 V2000
   50.3927   42.7935   -2.9061 C   0  0  0  0  0  0
   51.3926   43.7886   -2.7651 N   0  0  0  0  0  0
   50.1301   42.0787   -1.7846 N   0  0  0  0  0  0
   49.7694   42.5350   -4.1412 C   0  0  0  0  0  0
   48.8766   41.4476   -4.2248 C   0  0  0  0  0  0
   52.8043   45.4319   -2.0246 C   0  0  0  0  0  0
   51.6230   44.6695   -1.6990 C   0  0  0  0  0  0
   48.5657   40.6886   -3.0479 C   0  0  0  0  0  0
   52.4232   43.9537   -3.6681 C   0  0  0  0  0  0
   53.2470   44.9830   -3.2990 C   0  0  0  0  0  0
   49.2230   41.0688   -1.8378 C   0  0  0  0  0  0
   48.3267   41.0577   -5.5624 C   0  0  0  0  0  0
   53.3311   46.3596   -1.1053 C   0  0  0  0  0  0
   47.6230   39.6125   -2.9910 C   0  0  0  0  0  0
   46.9677   41.0802   -5.6805 O   0  0  0  0  0  0
   49.0943   40.8100   -6.4851 O   0  0  0  0  0  0
   54.5253   47.1822   -1.4404 C   0  0  0  0  0  0
   48.9022   40.4100   -0.6265 C   0  0  0  0  0  0
   47.3210   38.9958   -1.7818 C   0  0  0  0  0  0
   50.0205   43.4254   -5.3723 C   0  0  0  0  0  0
   47.9539   39.3950   -0.6160 C   0  0  0  0  0  0
   50.9886   44.8244   -0.4621 C   0  0  0  0  0  0
   46.3992   38.0101   -1.7304 F   0  0  0  0  0  0
   52.7410   46.4109    0.1564 C   0  0  0  0  0  0
   51.6230   45.6518    0.4662 C   0  0  0  0  0  0
   54.5850   47.8833   -2.6517 C   0  0  0  0  0  0
   55.6135   47.2476   -0.5635 C   0  0  0  0  0  0
   56.7432   47.9886   -0.8990 C   0  0  0  0  0  0
   55.7169   48.6207   -2.9890 C   0  0  0  0  0  0
   56.7923   48.6736   -2.1083 C   0  0  0  0  0  0
   52.4943   43.2988   -4.5238 H   0  0  0  0  0  0
   54.1215   45.3169   -3.8368 H   0  0  0  0  0  0
   47.1129   39.2753   -3.8792 H   0  0  0  0  0  0
   49.3953   40.7021    0.2901 H   0  0  0  0  0  0
   49.0975   43.6100   -5.9221 H   0  0  0  0  0  0
   50.3841   44.4099   -5.1071 H   0  0  0  0  0  0
   50.7256   42.9596   -6.0607 H   0  0  0  0  0  0
   47.7145   38.8889    0.3010 H   0  0  0  0  0  0
   50.1105   44.2581   -0.1890 H   0  0  0  0  0  0
   53.1508   47.0622    0.9154 H   0  0  0  0  0  0
   51.2230   45.7247    1.4637 H   0  0  0  0  0  0
   53.7520   47.8513   -3.3396 H   0  0  0  0  0  0
   55.5938   46.7081    0.3725 H   0  0  0  0  0  0
   57.5857   48.0114   -0.2248 H   0  0  0  0  0  0
   55.7589   49.1529   -3.9281 H   0  0  0  0  0  0
   57.6727   49.2444   -2.3655 H   0  0  0  0  0  0
   46.5351   41.4340   -4.8990 H   0  0  0  0  0  0
  1  2  1  0  0  0
  1  3  2  0  0  0
  1  4  1  0  0  0
  2  7  1  0  0  0
  2  9  1  0  0  0
  3 11  1  0  0  0
  4  5  2  0  0  0
  4 20  1  0  0  0
  5  8  1  0  0  0
  5 12  1  0  0  0
  6  7  2  0  0  0
  6 13  1  0  0  0
  6 10  1  0  0  0
  7 22  1  0  0  0
  8 14  2  0  0  0
  8 11  1  0  0  0
  9 10  2  0  0  0
  9 31  1  0  0  0
 10 32  1  0  0  0
 11 18  2  0  0  0
 12 15  1  0  0  0
 12 16  2  0  0  0
 13 17  1  0  0  0
 13 24  2  0  0  0
 14 19  1  0  0  0
 14 33  1  0  0  0
 15 47  1  0  0  0
 17 26  2  0  0  0
 17 27  1  0  0  0
 18 21  1  0  0  0
 18 34  1  0  0  0
 19 23  1  0  0  0
 19 21  2  0  0  0
 20 35  1  0  0  0
 20 36  1  0  0  0
 20 37  1  0  0  0
 21 38  1  0  0  0
 22 25  2  0  0  0
 22 39  1  0  0  0
 24 25  1  0  0  0
 24 40  1  0  0  0
 25 41  1  0  0  0
 26 29  1  0  0  0
 26 42  1  0  0  0
 27 28  2  0  0  0
 27 43  1  0  0  0
 28 30  1  0  0  0
 28 44  1  0  0  0
 29 30  2  0  0  0
 29 45  1  0  0  0
 30 46  1  0  0  0
M  END
> <s_m_entry_id>
25351

> <s_m_entry_name>
dock_pv.3

> <s_m_Source_Path>
/home/csk/Desktop/cluster/DUD-E-result/pyrd

> <s_m_Source_File>
dock_pv.maegz

> <i_m_Source_File_Index>
3

> <chembl_id>
CHEMBL50499

> <chembl_pref_name>
None

> <i_lp_mmshare_version>
53161

> <r_lp_tautomer_probability>
1

> <s_lp_Force_Field>
OPLS_2005

> <r_lp_Energy>
31.716592

> <b_lp_Chiralities_Consistent>
1

> <s_lp_Variant>
CHEMBL1966_lig794-1

> <s_i_glide_gridfile>
glide-grid_1d3g

> <i_i_glide_lignum>
865

> <i_i_glide_rotatable_bonds>
4

> <r_i_docking_score>
-11.9406782542971

> <r_i_glide_ligand_efficiency>
-0.398022608476571

> <r_i_glide_ligand_efficiency_sa>
-1.2367487857608

> <r_i_glide_ligand_efficiency_ln>
-2.71305220348641

> <r_i_glide_gscore>
-11.9406782542971

> <r_i_glide_lipo>
-6.30291488430458

> <r_i_glide_hbond>
-0.16

> <r_i_glide_metal>
0

> <r_i_glide_rewards>
-2.75444739412992

> <r_i_glide_evdw>
-37.5242500305176

> <r_i_glide_ecoul>
-8.13738822937012

> <r_i_glide_erotb>
0.373504760068775

> <r_i_glide_esite>
0

> <r_i_glide_emodel>
-67.3435008889537

> <r_i_glide_energy>
-45.6616382598877

> <r_i_glide_einternal>
2.98054027557373

> <i_i_glide_confnum>
60

> <i_i_glide_posenum>
323

> <r_i_glide_eff_state_penalty>
0

> <s_user_duplicate_titles>
CHEMBL1966_lig794,74653

> <i_f3d_flags>
0

> <s_m_subgroup_title>
dock_pv

> <s_m_subgroupid>
dock_pv

> <b_m_subgroup_collapsed>
1

$$$$
CHEMBL1966_lig96
                    3D
 Schrodinger Suite 2021-1.
 42 45  0  0  1  0            999 V2000
   47.3284   38.9919   -1.7767 C   0  0  0  0  0  0
   47.9210   39.3863   -0.5916 C   0  0  0  0  0  0
   48.8601   40.4100   -0.5582 C   0  0  0  0  0  0
   47.6710   39.6127   -2.9688 C   0  0  0  0  0  0
   48.6096   40.6936   -2.9907 C   0  0  0  0  0  0
   49.2230   41.0681   -1.7538 C   0  0  0  0  0  0
   50.0996   42.0960   -1.6497 N   0  0  0  0  0  0
   50.3795   42.8405   -2.7436 C   0  0  0  0  0  0
   49.8068   42.5749   -3.9960 C   0  0  0  0  0  0
   48.9488   41.4676   -4.1517 C   0  0  0  0  0  0
   51.3395   43.9563   -2.4990 C   0  0  0  0  0  0
   52.4230   44.1277   -3.3663 C   0  0  0  0  0  0
   53.3553   45.1321   -3.1470 C   0  0  0  0  0  0
   53.2523   45.9658   -2.0366 C   0  0  0  0  0  0
   52.1752   45.8053   -1.1581 C   0  0  0  0  0  0
   51.2230   44.8100   -1.3889 C   0  0  0  0  0  0
   48.3708   41.1382   -5.5047 C   0  0  0  0  0  0
   49.2921   41.2100   -6.4990 O   0  0  0  0  0  0
   47.2033   40.8103   -5.6990 O   0  0  0  0  0  0
   46.4023   38.0100   -1.7597 F   0  0  0  0  0  0
   54.3345   46.9469   -1.7942 C   0  0  0  0  0  0
   54.6693   47.8848   -2.7780 C   0  0  0  0  0  0
   55.7616   48.7290   -2.6009 C   0  0  0  0  0  0
   56.5327   48.6255   -1.4487 C   0  0  0  0  0  0
   56.2063   47.6980   -0.4634 C   0  0  0  0  0  0
   55.0966   46.8742   -0.6248 C   0  0  0  0  0  0
   50.0450   43.4330   -5.0470 O   0  0  0  0  0  0
   57.6230   49.4377   -1.2990 O   0  0  0  0  0  0
   47.6452   38.8642    0.3010 H   0  0  0  0  0  0
   49.3158   40.7010    0.3773 H   0  0  0  0  0  0
   47.1835   39.2742   -3.8675 H   0  0  0  0  0  0
   52.5546   43.4663   -4.2101 H   0  0  0  0  0  0
   54.1958   45.2319   -3.8167 H   0  0  0  0  0  0
   52.0827   46.4405   -0.2891 H   0  0  0  0  0  0
   50.3990   44.6964   -0.6990 H   0  0  0  0  0  0
   50.0825   41.6587   -6.1819 H   0  0  0  0  0  0
   54.0918   47.9475   -3.6897 H   0  0  0  0  0  0
   56.0230   49.4478   -3.3638 H   0  0  0  0  0  0
   56.8099   47.6100    0.4277 H   0  0  0  0  0  0
   54.8608   46.1441    0.1364 H   0  0  0  0  0  0
   49.2521   43.9230   -5.2990 H   0  0  0  0  0  0
   58.1908   49.2100   -0.5455 H   0  0  0  0  0  0
  1  2  2  0  0  0
  1  4  1  0  0  0
  1 20  1  0  0  0
  2  3  1  0  0  0
  2 29  1  0  0  0
  3  6  2  0  0  0
  3 30  1  0  0  0
  4  5  2  0  0  0
  4 31  1  0  0  0
  5 10  1  0  0  0
  5  6  1  0  0  0
  6  7  1  0  0  0
  7  8  2  0  0  0
  8  9  1  0  0  0
  8 11  1  0  0  0
  9 10  2  0  0  0
  9 27  1  0  0  0
 10 17  1  0  0  0
 11 16  1  0  0  0
 11 12  2  0  0  0
 12 13  1  0  0  0
 12 32  1  0  0  0
 13 14  2  0  0  0
 13 33  1  0  0  0
 14 15  1  0  0  0
 14 21  1  0  0  0
 15 16  2  0  0  0
 15 34  1  0  0  0
 16 35  1  0  0  0
 17 18  1  0  0  0
 17 19  2  0  0  0
 18 36  1  0  0  0
 21 22  2  0  0  0
 21 26  1  0  0  0
 22 23  1  0  0  0
 22 37  1  0  0  0
 23 24  2  0  0  0
 23 38  1  0  0  0
 24 25  1  0  0  0
 24 28  1  0  0  0
 25 26  2  0  0  0
 25 39  1  0  0  0
 26 40  1  0  0  0
 27 41  1  0  0  0
 28 42  1  0  0  0
M  END
> <s_m_entry_id>
25352

> <s_m_entry_name>
dock_pv.4

> <s_m_Source_Path>
/home/csk/Desktop/cluster/DUD-E-result/pyrd

> <s_m_Source_File>
dock_pv.maegz

> <i_m_Source_File_Index>
4

> <chembl_id>
CHEMBL386159

> <chembl_pref_name>
None

> <i_lp_mmshare_version>
53161

> <r_lp_tautomer_probability>
0.999999999997365

> <s_lp_Force_Field>
OPLS_2005

> <r_lp_Energy>
32.642605

> <b_lp_Chiralities_Consistent>
1

> <s_lp_Variant>
CHEMBL1966_lig96-1

> <s_i_glide_gridfile>
glide-grid_1d3g

> <i_i_glide_lignum>
105

> <i_i_glide_rotatable_bonds>
6

> <r_i_docking_score>
-11.9292173933994

> <r_i_glide_ligand_efficiency>
-0.426043478335692

> <r_i_glide_ligand_efficiency_sa>
-1.29371892641673

> <r_i_glide_ligand_efficiency_ln>
-2.75361363143887

> <r_i_glide_gscore>
-11.9292173933994

> <r_i_glide_lipo>
-6.02205461899455

> <r_i_glide_hbond>
-0.403860982617325

> <r_i_glide_metal>
0

> <r_i_glide_rewards>
-2.06516073443026

> <r_i_glide_evdw>
-39.7966270446777

> <r_i_glide_ecoul>
-12.4016962051392

> <r_i_glide_erotb>
0.411944725647511

> <r_i_glide_esite>
0

> <r_i_glide_emodel>
-80.0440806945328

> <r_i_glide_energy>
-52.1983232498169

> <r_i_glide_einternal>
5.11776542663574

> <i_i_glide_confnum>
18

> <i_i_glide_posenum>
193

> <r_i_glide_eff_state_penalty>
0

> <s_user_duplicate_titles>
CHEMBL1966_lig96,365576

> <i_f3d_flags>
0

> <s_m_subgroup_title>
dock_pv

> <s_m_subgroupid>
dock_pv

> <b_m_subgroup_collapsed>
1

$$$$
CHEMBL1966_lig789
                    3D
 Schrodinger Suite 2021-1.
 47 50  0  0  1  0            999 V2000
   49.1751   41.5569   -4.0363 C   0  0  0  0  0  0
   48.7452   40.7661   -2.9238 C   0  0  0  0  0  0
   50.4818   42.9009   -2.5322 C   0  0  0  0  0  0
   50.1167   42.1557   -1.4578 N   0  0  0  0  0  0
   50.0737   42.6168   -3.8367 C   0  0  0  0  0  0
   49.2700   41.1095   -1.6435 C   0  0  0  0  0  0
   48.5421   41.3455   -5.3731 C   0  0  0  0  0  0
   51.2648   44.0100   -2.3019 O   0  0  0  0  0  0
   47.7748   39.7159   -2.9938 C   0  0  0  0  0  0
   54.3564   46.6264   -1.3073 C   0  0  0  0  0  0
   47.6230   42.2792   -5.6990 O   0  0  0  0  0  0
   48.8230   40.4100   -6.0989 O   0  0  0  0  0  0
   53.1637   46.0101   -1.7174 C   0  0  0  0  0  0
   48.8255   40.4100   -0.4989 C   0  0  0  0  0  0
   55.4325   46.9597   -2.2850 C   0  0  0  0  0  0
   47.3404   39.0682   -1.8423 C   0  0  0  0  0  0
   50.9299   44.8871   -1.2207 C   0  0  0  0  0  0
   52.1618   45.6762   -0.7960 C   0  0  0  0  0  0
   47.8654   39.4112   -0.6065 C   0  0  0  0  0  0
   46.3890   38.1136   -1.9181 F   0  0  0  0  0  0
   50.5600   43.4748   -5.0070 C   0  0  0  0  0  0
   54.5231   46.9031    0.0556 C   0  0  0  0  0  0
   53.5222   46.6005    0.9742 C   0  0  0  0  0  0
   55.7218   46.0972   -3.3511 C   0  0  0  0  0  0
   56.1805   48.1379   -2.1484 C   0  0  0  0  0  0
   52.3374   46.0100    0.5494 C   0  0  0  0  0  0
   56.7341   46.4022   -4.2574 C   0  0  0  0  0  0
   57.1901   48.4486   -3.0550 C   0  0  0  0  0  0
   57.4634   47.5779   -4.1060 C   0  0  0  0  0  0
   47.3438   39.4298   -3.9410 H   0  0  0  0  0  0
   53.0205   45.7679   -2.7606 H   0  0  0  0  0  0
   49.2233   40.6754    0.4697 H   0  0  0  0  0  0
   50.1600   45.5834   -1.5506 H   0  0  0  0  0  0
   50.5339   44.3576   -0.3524 H   0  0  0  0  0  0
   47.5197   38.8998    0.2777 H   0  0  0  0  0  0
   49.7219   44.0101   -5.4481 H   0  0  0  0  0  0
   51.3367   44.1855   -4.7298 H   0  0  0  0  0  0
   50.9649   42.8428   -5.7968 H   0  0  0  0  0  0
   55.4379   47.3515    0.4154 H   0  0  0  0  0  0
   53.6741   46.8097    2.0204 H   0  0  0  0  0  0
   55.1717   45.1759   -3.4753 H   0  0  0  0  0  0
   55.9771   48.8260   -1.3411 H   0  0  0  0  0  0
   51.5856   45.7568    1.2818 H   0  0  0  0  0  0
   56.9536   45.7281   -5.0723 H   0  0  0  0  0  0
   57.7590   49.3597   -2.9412 H   0  0  0  0  0  0
   58.2499   47.8142   -4.8074 H   0  0  0  0  0  0
   47.6232   43.0774   -5.1621 H   0  0  0  0  0  0
  1  2  1  0  0  0
  1  5  2  0  0  0
  1  7  1  0  0  0
  2  6  1  0  0  0
  2  9  2  0  0  0
  3  5  1  0  0  0
  3  4  2  0  0  0
  3  8  1  0  0  0
  4  6  1  0  0  0
  5 21  1  0  0  0
  6 14  2  0  0  0
  7 11  1  0  0  0
  7 12  2  0  0  0
  8 17  1  0  0  0
  9 16  1  0  0  0
  9 30  1  0  0  0
 10 13  1  0  0  0
 10 15  1  0  0  0
 10 22  2  0  0  0
 11 47  1  0  0  0
 13 18  2  0  0  0
 13 31  1  0  0  0
 14 19  1  0  0  0
 14 32  1  0  0  0
 15 24  2  0  0  0
 15 25  1  0  0  0
 16 19  2  0  0  0
 16 20  1  0  0  0
 17 18  1  0  0  0
 17 33  1  0  0  0
 17 34  1  0  0  0
 18 26  1  0  0  0
 19 35  1  0  0  0
 21 36  1  0  0  0
 21 37  1  0  0  0
 21 38  1  0  0  0
 22 23  1  0  0  0
 22 39  1  0  0  0
 23 26  2  0  0  0
 23 40  1  0  0  0
 24 27  1  0  0  0
 24 41  1  0  0  0
 25 28  2  0  0  0
 25 42  1  0  0  0
 26 43  1  0  0  0
 27 29  2  0  0  0
 27 44  1  0  0  0
 28 29  1  0  0  0
 28 45  1  0  0  0
 29 46  1  0  0  0
M  END
> <s_m_entry_id>
25353

> <s_m_entry_name>
dock_pv.5

> <s_m_Source_Path>
/home/csk/Desktop/cluster/DUD-E-result/pyrd

> <s_m_Source_File>
dock_pv.maegz

> <i_m_Source_File_Index>
5

> <chembl_id>
CHEMBL51927

> <chembl_pref_name>
None

> <i_lp_mmshare_version>
53161

> <r_lp_tautomer_probability>
1

> <s_lp_Force_Field>
OPLS_2005

> <r_lp_Energy>
29.98884

> <b_lp_Chiralities_Consistent>
1

> <s_lp_Variant>
CHEMBL1966_lig789-1

> <s_i_glide_gridfile>
glide-grid_1d3g

> <i_i_glide_lignum>
860

> <i_i_glide_rotatable_bonds>
6

> <r_i_docking_score>
-11.819232566803

> <r_i_glide_ligand_efficiency>
-0.407559743682861

> <r_i_glide_ligand_efficiency_sa>
-1.25215265658361

> <r_i_glide_ligand_efficiency_ln>
-2.70630454791966

> <r_i_glide_gscore>
-11.819232566803

> <r_i_glide_lipo>
-6.57993955753851

> <r_i_glide_hbond>
-0.16

> <r_i_glide_metal>
0

> <r_i_glide_rewards>
-2.28968464378887

> <r_i_glide_evdw>
-42.3895606994629

> <r_i_glide_ecoul>
-8.79261016845703

> <r_i_glide_erotb>
0.648761194766118

> <r_i_glide_esite>
0

> <r_i_glide_emodel>
-85.286329835134

> <r_i_glide_energy>
-51.1821708679199

> <r_i_glide_einternal>
4.02187871932983

> <i_i_glide_confnum>
143

> <i_i_glide_posenum>
250

> <r_i_glide_eff_state_penalty>
0

> <s_user_duplicate_titles>
CHEMBL1966_lig789,74700

> <i_f3d_flags>
0

> <s_m_subgroup_title>
dock_pv

> <s_m_subgroupid>
dock_pv

> <b_m_subgroup_collapsed>
1

$$$$
CHEMBL1966_lig795
                    3D
 Schrodinger Suite 2021-1.
 46 50  0  0  1  0            999 V2000
   51.5166   43.8800   -2.7656 N   0  0  0  0  0  0
   50.5163   42.8953   -2.9176 C   0  0  0  0  0  0
   53.4070   44.9902   -3.2987 N   0  0  0  0  0  0
   50.2542   42.1890   -1.7914 N   0  0  0  0  0  0
   52.6018   44.0134   -3.6023 C   0  0  0  0  0  0
   49.9143   42.6289   -4.1614 C   0  0  0  0  0  0
   52.9191   45.4812   -2.1188 C   0  0  0  0  0  0
   49.0171   41.5467   -4.2429 C   0  0  0  0  0  0
   51.7183   44.8099   -1.7437 C   0  0  0  0  0  0
   48.6873   40.8090   -3.0595 C   0  0  0  0  0  0
   49.3477   41.1785   -1.8472 C   0  0  0  0  0  0
   48.4630   41.1400   -5.5778 C   0  0  0  0  0  0
   53.4809   46.4647   -1.2861 C   0  0  0  0  0  0
   47.7214   39.7545   -3.0034 C   0  0  0  0  0  0
   47.1050   41.2088   -5.6975 O   0  0  0  0  0  0
   49.2212   40.8123   -6.4879 O   0  0  0  0  0  0
   54.6757   47.2539   -1.6947 C   0  0  0  0  0  0
   49.0263   40.5080   -0.6382 C   0  0  0  0  0  0
   47.3875   39.1586   -1.7935 C   0  0  0  0  0  0
   50.1812   43.4912   -5.4083 C   0  0  0  0  0  0
   51.0532   45.1003   -0.5517 C   0  0  0  0  0  0
   48.0230   39.5435   -0.6221 C   0  0  0  0  0  0
   46.4308   38.2060   -1.7502 F   0  0  0  0  0  0
   52.8676   46.6512   -0.0449 C   0  0  0  0  0  0
   51.6819   46.0096    0.2990 C   0  0  0  0  0  0
   55.7172   47.4883   -0.7928 C   0  0  0  0  0  0
   54.7644   47.7842   -2.9900 C   0  0  0  0  0  0
   55.8801   48.5192   -3.3800 C   0  0  0  0  0  0
   56.8235   48.2335   -1.1833 C   0  0  0  0  0  0
   56.9059   48.7452   -2.4714 C   0  0  0  0  0  0
   52.7210   43.3416   -4.4414 H   0  0  0  0  0  0
   47.2093   39.4227   -3.8922 H   0  0  0  0  0  0
   49.5281   40.7856    0.2777 H   0  0  0  0  0  0
   49.2321   43.7893   -5.8644 H   0  0  0  0  0  0
   50.7193   44.4100   -5.2097 H   0  0  0  0  0  0
   50.7421   42.9315   -6.1570 H   0  0  0  0  0  0
   50.1389   44.6017   -0.2636 H   0  0  0  0  0  0
   47.7558   39.0592    0.2996 H   0  0  0  0  0  0
   53.2968   47.3412    0.6625 H   0  0  0  0  0  0
   51.2386   46.2275    1.2580 H   0  0  0  0  0  0
   55.6745   47.0909    0.2110 H   0  0  0  0  0  0
   53.9669   47.6265   -3.7016 H   0  0  0  0  0  0
   55.9449   48.9287   -4.3770 H   0  0  0  0  0  0
   57.6234   48.4096   -0.4909 H   0  0  0  0  0  0
   57.7696   49.3228   -2.7665 H   0  0  0  0  0  0
   46.6799   41.5934   -4.9252 H   0  0  0  0  0  0
  1  2  1  0  0  0
  1  5  1  0  0  0
  1  9  1  0  0  0
  2  4  2  0  0  0
  2  6  1  0  0  0
  3  5  2  0  0  0
  3  7  1  0  0  0
  4 11  1  0  0  0
  5 31  1  0  0  0
  6  8  2  0  0  0
  6 20  1  0  0  0
  7  9  2  0  0  0
  7 13  1  0  0  0
  8 10  1  0  0  0
  8 12  1  0  0  0
  9 21  1  0  0  0
 10 14  2  0  0  0
 10 11  1  0  0  0
 11 18  2  0  0  0
 12 15  1  0  0  0
 12 16  2  0  0  0
 13 17  1  0  0  0
 13 24  2  0  0  0
 14 19  1  0  0  0
 14 32  1  0  0  0
 15 46  1  0  0  0
 17 26  2  0  0  0
 17 27  1  0  0  0
 18 22  1  0  0  0
 18 33  1  0  0  0
 19 23  1  0  0  0
 19 22  2  0  0  0
 20 34  1  0  0  0
 20 35  1  0  0  0
 20 36  1  0  0  0
 21 25  2  0  0  0
 21 37  1  0  0  0
 22 38  1  0  0  0
 24 25  1  0  0  0
 24 39  1  0  0  0
 25 40  1  0  0  0
 26 29  1  0  0  0
 26 41  1  0  0  0
 27 28  2  0  0  0
 27 42  1  0  0  0
 28 30  1  0  0  0
 28 43  1  0  0  0
 29 30  2  0  0  0
 29 44  1  0  0  0
 30 45  1  0  0  0
M  END
> <s_m_entry_id>
25354

> <s_m_entry_name>
dock_pv.6

> <s_m_Source_Path>
/home/csk/Desktop/cluster/DUD-E-result/pyrd

> <s_m_Source_File>
dock_pv.maegz

> <i_m_Source_File_Index>
6

> <chembl_id>
CHEMBL49331

> <chembl_pref_name>
None

> <i_lp_mmshare_version>
53161

> <r_lp_tautomer_probability>
1

> <s_lp_Force_Field>
OPLS_2005

> <r_lp_Energy>
34.365448

> <b_lp_Chiralities_Consistent>
1

> <s_lp_Variant>
CHEMBL1966_lig795-1

> <s_i_glide_gridfile>
glide-grid_1d3g

> <i_i_glide_lignum>
866

> <i_i_glide_rotatable_bonds>
4

> <r_i_docking_score>
-11.7615238080442

> <r_i_glide_ligand_efficiency>
-0.392050793601474

> <r_i_glide_ligand_efficiency_sa>
-1.2181929684824

> <r_i_glide_ligand_efficiency_ln>
-2.67234636125371

> <r_i_glide_gscore>
-11.7615238080442

> <r_i_glide_lipo>
-5.88061098915201

> <r_i_glide_hbond>
-0.16

> <r_i_glide_metal>
0

> <r_i_glide_rewards>
-3.03227264679093

> <r_i_glide_evdw>
-38.026985168457

> <r_i_glide_ecoul>
-7.7275128364563

> <r_i_glide_erotb>
0.371836011790011

> <r_i_glide_esite>
0

> <r_i_glide_emodel>
-73.11237624241

> <r_i_glide_energy>
-45.7544980049133

> <r_i_glide_einternal>
3.05293035507202

> <i_i_glide_confnum>
21

> <i_i_glide_posenum>
14

> <r_i_glide_eff_state_penalty>
0

> <s_user_duplicate_titles>
CHEMBL1966_lig795,74652

> <i_f3d_flags>
0

> <s_m_subgroup_title>
dock_pv

> <s_m_subgroupid>
dock_pv

> <b_m_subgroup_collapsed>
1

$$$$
CHEMBL1966_lig217
                    3D
 Schrodinger Suite 2021-1.
 43 46  0  0  1  0            999 V2000
   50.0887   42.1353   -1.6592 N   0  0  0  0  0  0
   48.9829   41.4898   -4.1637 C   0  0  0  0  0  0
   50.4004   42.8686   -2.7566 C   0  0  0  0  0  0
   49.8678   42.5819   -4.0293 C   0  0  0  0  0  0
   48.6248   40.7201   -3.0059 C   0  0  0  0  0  0
   49.2231   41.0952   -1.7658 C   0  0  0  0  0  0
   48.4534   41.1207   -5.5208 C   0  0  0  0  0  0
   51.3670   43.9771   -2.4875 C   0  0  0  0  0  0
   54.3437   47.0009   -1.7804 C   0  0  0  0  0  0
   47.6856   39.6390   -2.9933 C   0  0  0  0  0  0
   53.2677   46.0066   -2.0149 C   0  0  0  0  0  0
   49.2230   40.8101   -6.4240 O   0  0  0  0  0  0
   55.1480   46.9247   -0.6362 C   0  0  0  0  0  0
   48.8738   40.4100   -0.5766 C   0  0  0  0  0  0
   51.2177   44.8593   -1.4033 C   0  0  0  0  0  0
   52.4947   44.1130   -3.2996 C   0  0  0  0  0  0
   52.1573   45.8705   -1.1725 C   0  0  0  0  0  0
   53.4213   45.1225   -3.0777 C   0  0  0  0  0  0
   47.3437   39.0047   -1.8023 C   0  0  0  0  0  0
   47.1001   41.2085   -5.6719 O   0  0  0  0  0  0
   54.8914   46.0102    0.3273 F   0  0  0  0  0  0
   50.1878   43.4654   -5.2470 C   0  0  0  0  0  0
   47.9345   39.3880   -0.6085 C   0  0  0  0  0  0
   46.4228   38.0174   -1.7969 F   0  0  0  0  0  0
   54.6563   47.9550   -2.7610 C   0  0  0  0  0  0
   56.2552   47.7583   -0.4990 C   0  0  0  0  0  0
   55.7548   48.8050   -2.6074 C   0  0  0  0  0  0
   56.5583   48.7028   -1.4752 C   0  0  0  0  0  0
   47.2101   39.3105   -3.9037 H   0  0  0  0  0  0
   49.3299   40.6980    0.3595 H   0  0  0  0  0  0
   50.3668   44.7684   -0.7435 H   0  0  0  0  0  0
   52.6732   43.4150   -4.1050 H   0  0  0  0  0  0
   52.0317   46.5340   -0.3292 H   0  0  0  0  0  0
   54.2961   45.1898   -3.7055 H   0  0  0  0  0  0
   49.2708   43.7296   -5.7750 H   0  0  0  0  0  0
   50.6618   44.4088   -5.0022 H   0  0  0  0  0  0
   50.8236   42.9344   -5.9546 H   0  0  0  0  0  0
   47.6687   38.8760    0.3010 H   0  0  0  0  0  0
   54.0597   48.0187   -3.6603 H   0  0  0  0  0  0
   56.8876   47.6577    0.3699 H   0  0  0  0  0  0
   56.0045   49.5242   -3.3747 H   0  0  0  0  0  0
   57.4211   49.3430   -1.3570 H   0  0  0  0  0  0
   46.6640   41.5775   -4.8994 H   0  0  0  0  0  0
  1  3  2  0  0  0
  1  6  1  0  0  0
  2  5  1  0  0  0
  2  7  1  0  0  0
  2  4  2  0  0  0
  3  4  1  0  0  0
  3  8  1  0  0  0
  4 22  1  0  0  0
  5  6  1  0  0  0
  5 10  2  0  0  0
  6 14  2  0  0  0
  7 12  2  0  0  0
  7 20  1  0  0  0
  8 15  1  0  0  0
  8 16  2  0  0  0
  9 11  1  0  0  0
  9 13  1  0  0  0
  9 25  2  0  0  0
 10 19  1  0  0  0
 10 29  1  0  0  0
 11 17  1  0  0  0
 11 18  2  0  0  0
 13 21  1  0  0  0
 13 26  2  0  0  0
 14 23  1  0  0  0
 14 30  1  0  0  0
 15 17  2  0  0  0
 15 31  1  0  0  0
 16 18  1  0  0  0
 16 32  1  0  0  0
 17 33  1  0  0  0
 18 34  1  0  0  0
 19 23  2  0  0  0
 19 24  1  0  0  0
 20 43  1  0  0  0
 22 35  1  0  0  0
 22 36  1  0  0  0
 22 37  1  0  0  0
 23 38  1  0  0  0
 25 27  1  0  0  0
 25 39  1  0  0  0
 26 28  1  0  0  0
 26 40  1  0  0  0
 27 28  2  0  0  0
 27 41  1  0  0  0
 28 42  1  0  0  0
M  END
> <s_m_entry_id>
25355

> <s_m_entry_name>
dock_pv.7

> <s_m_Source_Path>
/home/csk/Desktop/cluster/DUD-E-result/pyrd

> <s_m_Source_File>
dock_pv.maegz

> <i_m_Source_File_Index>
7

> <chembl_id>
CHEMBL300058

> <chembl_pref_name>
BREQUINAR SODIUM

> <i_lp_mmshare_version>
53161

> <r_lp_tautomer_probability>
1

> <s_lp_Force_Field>
OPLS_2005

> <r_lp_Energy>
33.47652

> <b_lp_Chiralities_Consistent>
1

> <s_lp_Variant>
CHEMBL1966_lig217-1

> <s_i_glide_gridfile>
glide-grid_1d3g

> <i_i_glide_lignum>
262

> <i_i_glide_rotatable_bonds>
4

> <r_i_docking_score>
-11.7312844158054

> <r_i_glide_ligand_efficiency>
-0.418974443421621

> <r_i_glide_ligand_efficiency_sa>
-1.2722531729787

> <r_i_glide_ligand_efficiency_ln>
-2.70792488864542

> <r_i_glide_gscore>
-11.7312844158054

> <r_i_glide_lipo>
-6.26437553590107

> <r_i_glide_hbond>
-0.16

> <r_i_glide_metal>
0

> <r_i_glide_rewards>
-2.66319922821265

> <r_i_glide_evdw>
-38.1963081359863

> <r_i_glide_ecoul>
-7.63868761062622

> <r_i_glide_erotb>
0.411908896701586

> <r_i_glide_esite>
0

> <r_i_glide_emodel>
-73.1408721728284

> <r_i_glide_energy>
-45.8349957466125

> <r_i_glide_einternal>
2.5532283782959

> <i_i_glide_confnum>
10

> <i_i_glide_posenum>
249

> <r_i_glide_eff_state_penalty>
0

> <s_user_duplicate_titles>
CHEMBL1966_lig217,CHEMBL1966_lig76,74555

> <i_f3d_flags>
0

> <s_m_subgroup_title>
dock_pv

> <s_m_subgroupid>
dock_pv

> <b_m_subgroup_collapsed>
1

$$$$
CHEMBL1966_lig791
                    3D
 Schrodinger Suite 2021-1.
 50 54  0  0  1  0            999 V2000
   51.6228   43.9082   -2.7992 C   0  0  0  0  0  0
   50.5746   42.8753   -2.9869 C   0  0  0  0  0  0
   53.5849   45.0187   -3.0577 N   0  0  0  0  0  0
   52.7282   44.0874   -3.5971 C   0  0  0  0  0  0
   51.7854   44.8104   -1.6967 C   0  0  0  0  0  0
   52.9948   45.5549   -1.9173 C   0  0  0  0  0  0
   50.2921   42.1960   -1.8494 N   0  0  0  0  0  0
   49.9641   42.6090   -4.2160 C   0  0  0  0  0  0
   49.0417   41.5465   -4.2742 C   0  0  0  0  0  0
   48.7149   40.8105   -3.0866 C   0  0  0  0  0  0
   49.3757   41.1979   -1.8819 C   0  0  0  0  0  0
   48.4696   41.1455   -5.5944 C   0  0  0  0  0  0
   53.4498   46.5106   -0.9914 C   0  0  0  0  0  0
   47.7424   39.7656   -3.0157 C   0  0  0  0  0  0
   47.1110   41.2099   -5.6989 O   0  0  0  0  0  0
   49.2229   40.8101   -6.4989 O   0  0  0  0  0  0
   54.6458   47.3416   -1.2127 C   0  0  0  0  0  0
   49.0428   40.5574   -0.6603 C   0  0  0  0  0  0
   47.3939   39.2010   -1.7954 C   0  0  0  0  0  0
   54.9210   45.3072   -3.5736 C   0  0  0  0  0  0
   51.0783   45.0065   -0.5002 C   0  0  0  0  0  0
   50.2701   43.4648   -5.4593 C   0  0  0  0  0  0
   48.0232   39.6090   -0.6298 C   0  0  0  0  0  0
   46.4268   38.2589   -1.7373 F   0  0  0  0  0  0
   52.7711   46.5707    0.2243 C   0  0  0  0  0  0
   51.6357   45.8270    0.4722 C   0  0  0  0  0  0
   54.7600   48.1518   -2.3489 C   0  0  0  0  0  0
   55.6799   47.2956   -0.2831 C   0  0  0  0  0  0
   56.8231   48.0414   -0.4999 C   0  0  0  0  0  0
   55.9241   48.8802   -2.5733 C   0  0  0  0  0  0
   56.9519   48.8276   -1.6403 C   0  0  0  0  0  0
   53.0059   43.5281   -4.4773 H   0  0  0  0  0  0
   47.2323   39.4218   -3.9014 H   0  0  0  0  0  0
   49.5425   40.8516    0.2516 H   0  0  0  0  0  0
   55.6081   45.4857   -2.7479 H   0  0  0  0  0  0
   55.3298   44.4482   -4.0988 H   0  0  0  0  0  0
   54.8910   46.1754   -4.2301 H   0  0  0  0  0  0
   50.1831   44.4416   -0.2879 H   0  0  0  0  0  0
   49.3420   43.7672   -5.9446 H   0  0  0  0  0  0
   50.8025   44.3882   -5.2498 H   0  0  0  0  0  0
   50.8438   42.8966   -6.1905 H   0  0  0  0  0  0
   47.7441   39.1469    0.3009 H   0  0  0  0  0  0
   53.1401   47.2099    1.0129 H   0  0  0  0  0  0
   51.2227   45.8899    1.4610 H   0  0  0  0  0  0
   53.9552   48.1967   -3.0687 H   0  0  0  0  0  0
   55.6055   46.6765    0.5995 H   0  0  0  0  0  0
   57.6230   48.0102    0.2213 H   0  0  0  0  0  0
   56.0268   49.4939   -3.4566 H   0  0  0  0  0  0
   57.8556   49.3991   -1.7953 H   0  0  0  0  0  0
   46.7001   41.5908   -4.9181 H   0  0  0  0  0  0
  1  2  1  0  0  0
  1  4  2  0  0  0
  1  5  1  0  0  0
  2  7  2  0  0  0
  2  8  1  0  0  0
  3  4  1  0  0  0
  3 20  1  0  0  0
  3  6  1  0  0  0
  4 32  1  0  0  0
  5  6  2  0  0  0
  5 21  1  0  0  0
  6 13  1  0  0  0
  7 11  1  0  0  0
  8  9  2  0  0  0
  8 22  1  0  0  0
  9 10  1  0  0  0
  9 12  1  0  0  0
 10 14  2  0  0  0
 10 11  1  0  0  0
 11 18  2  0  0  0
 12 15  1  0  0  0
 12 16  2  0  0  0
 13 17  1  0  0  0
 13 25  2  0  0  0
 14 19  1  0  0  0
 14 33  1  0  0  0
 15 50  1  0  0  0
 17 27  1  0  0  0
 17 28  2  0  0  0
 18 23  1  0  0  0
 18 34  1  0  0  0
 19 24  1  0  0  0
 19 23  2  0  0  0
 20 35  1  0  0  0
 20 36  1  0  0  0
 20 37  1  0  0  0
 21 26  2  0  0  0
 21 38  1  0  0  0
 22 39  1  0  0  0
 22 40  1  0  0  0
 22 41  1  0  0  0
 23 42  1  0  0  0
 25 26  1  0  0  0
 25 43  1  0  0  0
 26 44  1  0  0  0
 27 30  2  0  0  0
 27 45  1  0  0  0
 28 29  1  0  0  0
 28 46  1  0  0  0
 29 31  2  0  0  0
 29 47  1  0  0  0
 30 31  1  0  0  0
 30 48  1  0  0  0
 31 49  1  0  0  0
M  END
> <s_m_entry_id>
25356

> <s_m_entry_name>
dock_pv.8

> <s_m_Source_Path>
/home/csk/Desktop/cluster/DUD-E-result/pyrd

> <s_m_Source_File>
dock_pv.maegz

> <i_m_Source_File_Index>
8

> <chembl_id>
CHEMBL417722

> <chembl_pref_name>
None

> <i_lp_mmshare_version>
53161

> <r_lp_tautomer_probability>
1

> <s_lp_Force_Field>
OPLS_2005

> <r_lp_Energy>
33.720987

> <b_lp_Chiralities_Consistent>
1

> <s_lp_Variant>
CHEMBL1966_lig791-1

> <s_i_glide_gridfile>
glide-grid_1d3g

> <i_i_glide_lignum>
862

> <i_i_glide_rotatable_bonds>
4

> <r_i_docking_score>
-11.6829626852595

> <r_i_glide_ligand_efficiency>
-0.376869764040629

> <r_i_glide_ligand_efficiency_sa>
-1.18389138387339

> <r_i_glide_ligand_efficiency_ln>
-2.63486612533336

> <r_i_glide_gscore>
-11.6829626852595

> <r_i_glide_lipo>
-6.62863681115282

> <r_i_glide_hbond>
-0.16

> <r_i_glide_metal>
0

> <r_i_glide_rewards>
-2.37629196457636

> <r_i_glide_evdw>
-34.0231666564941

> <r_i_glide_ecoul>
-7.78468704223633

> <r_i_glide_erotb>
0.350827479629838

> <r_i_glide_esite>
0

> <r_i_glide_emodel>
-45.9756688929548

> <r_i_glide_energy>
-41.8078536987305

> <r_i_glide_einternal>
2.52654337882996

> <i_i_glide_confnum>
41

> <i_i_glide_posenum>
377

> <r_i_glide_eff_state_penalty>
0

> <s_user_duplicate_titles>
CHEMBL1966_lig791,75137

> <i_f3d_flags>
0

> <s_m_subgroup_title>
dock_pv

> <s_m_subgroupid>
dock_pv

> <b_m_subgroup_collapsed>
1

$$$$
CHEMBL1966_lig776
                    3D
 Schrodinger Suite 2021-1.
 44 47  0  0  1  0            999 V2000
   49.0020   41.5963   -4.2294 C   0  0  0  0  0  0
   49.9017   42.6609   -4.0502 C   0  0  0  0  0  0
   50.1205   42.1067   -1.7021 N   0  0  0  0  0  0
   48.6269   40.7884   -3.1090 C   0  0  0  0  0  0
   50.4254   42.8861   -2.7674 C   0  0  0  0  0  0
   49.2270   41.0992   -1.8518 C   0  0  0  0  0  0
   48.3574   41.3960   -5.5589 C   0  0  0  0  0  0
   51.3546   44.0093   -2.4597 C   0  0  0  0  0  0
   47.6374   39.7588   -3.1443 C   0  0  0  0  0  0
   53.2395   46.0077   -1.8756 C   0  0  0  0  0  0
   48.9488   40.8116   -6.4512 O   0  0  0  0  0  0
   48.8234   40.4100   -0.6856 C   0  0  0  0  0  0
   51.2140   44.8100   -1.3139 C   0  0  0  0  0  0
   52.4448   44.2335   -3.2997 C   0  0  0  0  0  0
   53.3691   45.2275   -3.0215 C   0  0  0  0  0  0
   52.1477   45.8052   -1.0254 C   0  0  0  0  0  0
   50.1174   43.6162   -5.0245 O   0  0  0  0  0  0
   54.3190   46.9612   -1.5498 C   0  0  0  0  0  0
   47.2465   39.1113   -1.9769 C   0  0  0  0  0  0
   47.1490   42.0095   -5.6983 O   0  0  0  0  0  0
   47.8349   39.4335   -0.7620 C   0  0  0  0  0  0
   46.2676   38.1830   -2.0158 F   0  0  0  0  0  0
   55.0356   46.8084   -0.3607 C   0  0  0  0  0  0
   54.6944   47.9497   -2.4669 C   0  0  0  0  0  0
   50.8234   43.3178   -6.2265 C   0  0  0  0  0  0
   56.1421   47.6089   -0.1103 C   0  0  0  0  0  0
   55.7831   48.7741   -2.2006 C   0  0  0  0  0  0
   56.5077   48.5924   -1.0270 C   0  0  0  0  0  0
   47.1474   39.5040   -4.0713 H   0  0  0  0  0  0
   49.2683   40.6577    0.2679 H   0  0  0  0  0  0
   50.3830   44.6553   -0.6405 H   0  0  0  0  0  0
   52.6100   43.6029   -4.1574 H   0  0  0  0  0  0
   54.2192   45.3560   -3.6759 H   0  0  0  0  0  0
   52.0368   46.3984   -0.1290 H   0  0  0  0  0  0
   47.0101   42.5335   -6.4977 H   0  0  0  0  0  0
   47.5163   38.9211    0.1322 H   0  0  0  0  0  0
   54.7681   46.0351    0.3455 H   0  0  0  0  0  0
   54.1494   48.0686   -3.3928 H   0  0  0  0  0  0
   51.0442   44.2600   -6.7263 H   0  0  0  0  0  0
   51.7719   42.8177   -6.0646 H   0  0  0  0  0  0
   50.2533   42.7458   -6.9461 H   0  0  0  0  0  0
   56.7239   47.4637    0.7872 H   0  0  0  0  0  0
   56.0744   49.5372   -2.9079 H   0  0  0  0  0  0
   57.3674   49.2159   -0.8301 H   0  0  0  0  0  0
  1  2  2  0  0  0
  1  4  1  0  0  0
  1  7  1  0  0  0
  2  5  1  0  0  0
  2 17  1  0  0  0
  3  6  1  0  0  0
  3  5  2  0  0  0
  4  6  1  0  0  0
  4  9  2  0  0  0
  5  8  1  0  0  0
  6 12  2  0  0  0
  7 11  2  0  0  0
  7 20  1  0  0  0
  8 13  2  0  0  0
  8 14  1  0  0  0
  9 19  1  0  0  0
  9 29  1  0  0  0
 10 15  1  0  0  0
 10 18  1  0  0  0
 10 16  2  0  0  0
 12 21  1  0  0  0
 12 30  1  0  0  0
 13 16  1  0  0  0
 13 31  1  0  0  0
 14 15  2  0  0  0
 14 32  1  0  0  0
 15 33  1  0  0  0
 16 34  1  0  0  0
 17 25  1  0  0  0
 18 23  1  0  0  0
 18 24  2  0  0  0
 19 21  2  0  0  0
 19 22  1  0  0  0
 20 35  1  0  0  0
 21 36  1  0  0  0
 23 26  2  0  0  0
 23 37  1  0  0  0
 24 27  1  0  0  0
 24 38  1  0  0  0
 25 39  1  0  0  0
 25 40  1  0  0  0
 25 41  1  0  0  0
 26 28  1  0  0  0
 26 42  1  0  0  0
 27 28  2  0  0  0
 27 43  1  0  0  0
 28 44  1  0  0  0
M  END
> <s_m_entry_id>
25358

> <s_m_entry_name>
dock_pv.10

> <s_m_Source_Path>
/home/csk/Desktop/cluster/DUD-E-result/pyrd

> <s_m_Source_File>
dock_pv.maegz

> <i_m_Source_File_Index>
10

> <chembl_id>
CHEMBL40093

> <chembl_pref_name>
None

> <i_lp_mmshare_version>
53161

> <r_lp_tautomer_probability>
1

> <s_lp_Force_Field>
OPLS_2005

> <r_lp_Energy>
37.864072

> <b_lp_Chiralities_Consistent>
1

> <s_lp_Variant>
CHEMBL1966_lig776-1

> <s_i_glide_gridfile>
glide-grid_1d3g

> <i_i_glide_lignum>
847

> <i_i_glide_rotatable_bonds>
5

> <r_i_docking_score>
-11.5920099065552

> <r_i_glide_ligand_efficiency>
-0.414000353805542

> <r_i_glide_ligand_efficiency_sa>
-1.25714890732217

> <r_i_glide_ligand_efficiency_ln>
-2.67577624263319

> <r_i_glide_gscore>
-11.5920099065552

> <r_i_glide_lipo>
-6.43846318888177

> <r_i_glide_hbond>
-0.16

> <r_i_glide_metal>
0

> <r_i_glide_rewards>
-2.10825785450444

> <r_i_glide_evdw>
-34.8810958862305

> <r_i_glide_ecoul>
-10.3805418014526

> <r_i_glide_erotb>
0.415847201360459

> <r_i_glide_esite>
0

> <r_i_glide_emodel>
-59.6920394967167

> <r_i_glide_energy>
-45.2616376876831

> <r_i_glide_einternal>
11.054666519165

> <i_i_glide_confnum>
26

> <i_i_glide_posenum>
42

> <r_i_glide_eff_state_penalty>
0

> <s_user_duplicate_titles>
CHEMBL1966_lig776,57011

> <i_f3d_flags>
0

> <s_m_subgroup_title>
dock_pv

> <s_m_subgroupid>
dock_pv

> <b_m_subgroup_collapsed>
1

$$$$
CHEMBL1966_lig100
                    3D
 Schrodinger Suite 2021-1.
 42 45  0  0  1  0            999 V2000
   47.3621   38.9659   -1.7976 C   0  0  0  0  0  0
   47.9317   39.3708   -0.6006 C   0  0  0  0  0  0
   48.8553   40.4100   -0.5624 C   0  0  0  0  0  0
   47.6949   39.6101   -2.9821 C   0  0  0  0  0  0
   48.6180   40.7017   -2.9948 C   0  0  0  0  0  0
   49.2230   41.0747   -1.7547 C   0  0  0  0  0  0
   50.0980   42.1046   -1.6481 N   0  0  0  0  0  0
   50.3815   42.8503   -2.7421 C   0  0  0  0  0  0
   49.8071   42.5901   -3.9947 C   0  0  0  0  0  0
   48.9528   41.4817   -4.1530 C   0  0  0  0  0  0
   51.3403   43.9664   -2.4971 C   0  0  0  0  0  0
   52.4229   44.1438   -3.3648 C   0  0  0  0  0  0
   53.3513   45.1508   -3.1424 C   0  0  0  0  0  0
   53.2471   45.9784   -2.0275 C   0  0  0  0  0  0
   52.1725   45.8083   -1.1469 C   0  0  0  0  0  0
   51.2229   44.8106   -1.3809 C   0  0  0  0  0  0
   48.3734   41.1556   -5.5058 C   0  0  0  0  0  0
   49.2973   41.2100   -6.4990 O   0  0  0  0  0  0
   47.2019   40.8421   -5.6989 O   0  0  0  0  0  0
   54.3279   46.9615   -1.7848 C   0  0  0  0  0  0
   55.0946   46.8835   -0.6189 C   0  0  0  0  0  0
   56.2073   47.7036   -0.4603 C   0  0  0  0  0  0
   56.5310   48.6335   -1.4446 C   0  0  0  0  0  0
   55.7566   48.7421   -2.5934 C   0  0  0  0  0  0
   54.6610   47.9014   -2.7678 C   0  0  0  0  0  0
   50.0327   43.4582   -5.0404 O   0  0  0  0  0  0
   57.6230   49.4428   -1.2990 O   0  0  0  0  0  0
   46.6590   38.1456   -1.8083 H   0  0  0  0  0  0
   47.6683   38.8496    0.3009 H   0  0  0  0  0  0
   49.3029   40.7039    0.3756 H   0  0  0  0  0  0
   47.2280   39.2663   -3.8900 H   0  0  0  0  0  0
   52.5536   43.4870   -4.2119 H   0  0  0  0  0  0
   54.1896   45.2578   -3.8138 H   0  0  0  0  0  0
   52.0799   46.4374   -0.2737 H   0  0  0  0  0  0
   50.4012   44.6894   -0.6895 H   0  0  0  0  0  0
   50.0969   41.6405   -6.1804 H   0  0  0  0  0  0
   54.8617   46.1504    0.1397 H   0  0  0  0  0  0
   56.8170   47.6095    0.4264 H   0  0  0  0  0  0
   56.0228   49.4596   -3.3561 H   0  0  0  0  0  0
   54.0810   47.9670   -3.6779 H   0  0  0  0  0  0
   49.2152   43.8924   -5.3167 H   0  0  0  0  0  0
   58.1925   49.2113   -0.5481 H   0  0  0  0  0  0
  1  2  2  0  0  0
  1  4  1  0  0  0
  1 28  1  0  0  0
  2  3  1  0  0  0
  2 29  1  0  0  0
  3  6  2  0  0  0
  3 30  1  0  0  0
  4  5  2  0  0  0
  4 31  1  0  0  0
  5 10  1  0  0  0
  5  6  1  0  0  0
  6  7  1  0  0  0
  7  8  2  0  0  0
  8  9  1  0  0  0
  8 11  1  0  0  0
  9 10  2  0  0  0
  9 26  1  0  0  0
 10 17  1  0  0  0
 11 16  1  0  0  0
 11 12  2  0  0  0
 12 13  1  0  0  0
 12 32  1  0  0  0
 13 14  2  0  0  0
 13 33  1  0  0  0
 14 15  1  0  0  0
 14 20  1  0  0  0
 15 16  2  0  0  0
 15 34  1  0  0  0
 16 35  1  0  0  0
 17 18  1  0  0  0
 17 19  2  0  0  0
 18 36  1  0  0  0
 20 21  2  0  0  0
 20 25  1  0  0  0
 21 22  1  0  0  0
 21 37  1  0  0  0
 22 23  2  0  0  0
 22 38  1  0  0  0
 23 24  1  0  0  0
 23 27  1  0  0  0
 24 25  2  0  0  0
 24 39  1  0  0  0
 25 40  1  0  0  0
 26 41  1  0  0  0
 27 42  1  0  0  0
M  END
> <s_m_entry_id>
25359

> <s_m_entry_name>
dock_pv.11

> <s_m_Source_Path>
/home/csk/Desktop/cluster/DUD-E-result/pyrd

> <s_m_Source_File>
dock_pv.maegz

> <i_m_Source_File_Index>
11

> <chembl_id>
CHEMBL218062

> <chembl_pref_name>
None

> <i_lp_mmshare_version>
53161

> <r_lp_tautomer_probability>
0.999999999997365

> <s_lp_Force_Field>
OPLS_2005

> <r_lp_Energy>
33.882709

> <b_lp_Chiralities_Consistent>
1

> <s_lp_Variant>
CHEMBL1966_lig100-1

> <s_i_glide_gridfile>
glide-grid_1d3g

> <i_i_glide_lignum>
109

> <i_i_glide_rotatable_bonds>
6

> <r_i_docking_score>
-11.5705987110926

> <r_i_glide_ligand_efficiency>
-0.428540693003431

> <r_i_glide_ligand_efficiency_sa>
-1.28562207759789

> <r_i_glide_ligand_efficiency_ln>
-2.6934446237142

> <r_i_glide_gscore>
-11.5705987110926

> <r_i_glide_lipo>
-6.02440047867044

> <r_i_glide_hbond>
-0.403986994369907

> <r_i_glide_metal>
0

> <r_i_glide_rewards>
-1.84832706490149

> <r_i_glide_evdw>
-39.1255683898926

> <r_i_glide_ecoul>
-11.9153919219971

> <r_i_glide_erotb>
0.449703034643393

> <r_i_glide_esite>
0

> <r_i_glide_emodel>
-77.5826510866373

> <r_i_glide_energy>
-51.0409603118896

> <r_i_glide_einternal>
5.01577854156494

> <i_i_glide_confnum>
58

> <i_i_glide_posenum>
59

> <r_i_glide_eff_state_penalty>
0

> <s_user_duplicate_titles>
CHEMBL1966_lig100,365559

> <i_f3d_flags>
0

> <s_m_subgroup_title>
dock_pv

> <s_m_subgroupid>
dock_pv

> <b_m_subgroup_collapsed>
1

$$$$
CHEMBL1966_lig488
                    3D
 Schrodinger Suite 2021-1.
 41 44  0  0  1  0            999 V2000
   46.8227   38.3886   -1.0034 C   0  0  0  0  0  0
   47.6266   39.4300   -1.7568 C   0  0  0  0  0  0
   47.4310   39.6099   -3.1290 C   0  0  0  0  0  0
   48.1590   40.5524   -3.8681 C   0  0  0  0  0  0
   47.9025   40.8070   -5.3165 C   0  0  0  0  0  0
   48.8230   41.0123   -6.0989 O   0  0  0  0  0  0
   46.5867   40.8100   -5.6716 O   0  0  0  0  0  0
   49.1003   41.3097   -3.1652 C   0  0  0  0  0  0
   49.9260   42.3559   -3.5131 N   0  0  0  0  0  0
   50.5151   42.8193   -2.3635 C   0  0  0  0  0  0
   50.1973   42.0965   -1.3123 N   0  0  0  0  0  0
   49.3023   41.1642   -1.7747 C   0  0  0  0  0  0
   48.5641   40.2027   -1.0626 C   0  0  0  0  0  0
   51.4165   44.0096   -2.3361 C   0  0  0  0  0  0
   52.4222   44.1227   -3.3002 C   0  0  0  0  0  0
   53.3577   45.1507   -3.2245 C   0  0  0  0  0  0
   53.3375   46.0746   -2.1774 C   0  0  0  0  0  0
   52.3173   45.9723   -1.2204 C   0  0  0  0  0  0
   51.3638   44.9479   -1.2986 C   0  0  0  0  0  0
   50.4258   44.8271   -0.3303 F   0  0  0  0  0  0
   54.4231   47.0909   -2.1011 C   0  0  0  0  0  0
   54.7196   47.8742   -3.2270 C   0  0  0  0  0  0
   55.7978   48.7585   -3.2209 C   0  0  0  0  0  0
   56.5895   48.8840   -2.0841 C   0  0  0  0  0  0
   57.6358   49.7408   -2.0803 F   0  0  0  0  0  0
   56.3068   48.1172   -0.9577 C   0  0  0  0  0  0
   55.2291   47.2284   -0.9577 C   0  0  0  0  0  0
   55.0010   46.4743    0.1438 F   0  0  0  0  0  0
   47.4429   37.8951   -0.2528 H   0  0  0  0  0  0
   45.9779   38.8584   -0.4987 H   0  0  0  0  0  0
   46.4512   37.6101   -1.6703 H   0  0  0  0  0  0
   46.6897   38.9972   -3.6255 H   0  0  0  0  0  0
   46.0193   40.7787   -4.8992 H   0  0  0  0  0  0
   50.0374   42.7887   -4.4186 H   0  0  0  0  0  0
   48.7055   40.0745    0.0005 H   0  0  0  0  0  0
   52.5033   43.3949   -4.0951 H   0  0  0  0  0  0
   54.1408   45.2086   -3.9643 H   0  0  0  0  0  0
   52.2805   46.6657   -0.3931 H   0  0  0  0  0  0
   54.1182   47.7838   -4.1212 H   0  0  0  0  0  0
   56.0207   49.3517   -4.0966 H   0  0  0  0  0  0
   56.9504   48.2061   -0.0984 H   0  0  0  0  0  0
  1  2  1  0  0  0
  1 29  1  0  0  0
  1 30  1  0  0  0
  1 31  1  0  0  0
  2  3  2  0  0  0
  2 13  1  0  0  0
  3  4  1  0  0  0
  3 32  1  0  0  0
  4  5  1  0  0  0
  4  8  2  0  0  0
  5  6  2  0  0  0
  5  7  1  0  0  0
  7 33  1  0  0  0
  8  9  1  0  0  0
  8 12  1  0  0  0
  9 10  1  0  0  0
  9 34  1  0  0  0
 10 11  2  0  0  0
 10 14  1  0  0  0
 11 12  1  0  0  0
 12 13  2  0  0  0
 13 35  1  0  0  0
 14 15  2  0  0  0
 14 19  1  0  0  0
 15 16  1  0  0  0
 15 36  1  0  0  0
 16 17  2  0  0  0
 16 37  1  0  0  0
 17 18  1  0  0  0
 17 21  1  0  0  0
 18 19  2  0  0  0
 18 38  1  0  0  0
 19 20  1  0  0  0
 21 22  2  0  0  0
 21 27  1  0  0  0
 22 23  1  0  0  0
 22 39  1  0  0  0
 23 24  2  0  0  0
 23 40  1  0  0  0
 24 25  1  0  0  0
 24 26  1  0  0  0
 26 27  2  0  0  0
 26 41  1  0  0  0
 27 28  1  0  0  0
M  END
> <s_m_entry_id>
25360

> <s_m_entry_name>
dock_pv.12

> <s_m_Source_Path>
/home/csk/Desktop/cluster/DUD-E-result/pyrd

> <s_m_Source_File>
dock_pv.maegz

> <i_m_Source_File_Index>
12

> <chembl_id>
CHEMBL3677745

> <chembl_pref_name>
None

> <i_lp_mmshare_version>
53161

> <r_lp_tautomer_probability>
1

> <s_lp_Force_Field>
OPLS_2005

> <r_lp_Energy>
25.936193

> <b_lp_Chiralities_Consistent>
1

> <s_lp_Variant>
CHEMBL1966_lig488-1

> <s_i_glide_gridfile>
glide-grid_1d3g

> <i_i_glide_lignum>
538

> <i_i_glide_rotatable_bonds>
4

> <r_i_docking_score>
-11.4984487059445

> <r_i_glide_ligand_efficiency>
-0.41065888235516

> <r_i_glide_ligand_efficiency_sa>
-1.24700223197738

> <r_i_glide_ligand_efficiency_ln>
-2.65417957045603

> <r_i_glide_gscore>
-11.4984487059445

> <r_i_glide_lipo>
-5.4263587018483

> <r_i_glide_hbond>
-0.16

> <r_i_glide_metal>
0

> <r_i_glide_rewards>
-3.50225912045454

> <r_i_glide_evdw>
-41.5443878173828

> <r_i_glide_ecoul>
-4.87447738647461

> <r_i_glide_erotb>
0.398560115198703

> <r_i_glide_esite>
0

> <r_i_glide_emodel>
-72.1083446790886

> <r_i_glide_energy>
-46.4188652038574

> <r_i_glide_einternal>
4.89498519897461

> <i_i_glide_confnum>
31

> <i_i_glide_posenum>
205

> <r_i_glide_eff_state_penalty>
0

> <s_user_duplicate_titles>
CHEMBL1966_lig488

> <i_f3d_flags>
0

> <s_m_subgroup_title>
dock_pv

> <s_m_subgroupid>
dock_pv

> <b_m_subgroup_collapsed>
1

$$$$
CHEMBL1966_lig793
                    3D
 Schrodinger Suite 2021-1.
 47 51  0  0  1  0            999 V2000
   51.4287   43.8163   -2.7789 C   0  0  0  0  0  0
   50.3852   42.7742   -2.9408 C   0  0  0  0  0  0
   50.1184   42.0850   -1.8074 N   0  0  0  0  0  0
   49.7655   42.5110   -4.1690 C   0  0  0  0  0  0
   52.8230   45.5006   -2.0163 C   0  0  0  0  0  0
   48.8599   41.4362   -4.2406 C   0  0  0  0  0  0
   53.2615   45.0469   -3.2400 N   0  0  0  0  0  0
   51.6365   44.7522   -1.6990 C   0  0  0  0  0  0
   48.5577   40.6832   -3.0578 C   0  0  0  0  0  0
   52.4747   44.0100   -3.6549 C   0  0  0  0  0  0
   49.2230   41.0669   -1.8524 C   0  0  0  0  0  0
   48.2986   41.0519   -5.5726 C   0  0  0  0  0  0
   53.3901   46.4350   -1.1393 C   0  0  0  0  0  0
   47.6166   39.6100   -2.9916 C   0  0  0  0  0  0
   46.9391   41.0718   -5.6823 O   0  0  0  0  0  0
   49.0617   40.8100   -6.4990 O   0  0  0  0  0  0
   54.6092   47.2100   -1.4851 C   0  0  0  0  0  0
   48.9116   40.4100   -0.6374 C   0  0  0  0  0  0
   47.3225   38.9950   -1.7795 C   0  0  0  0  0  0
   50.0487   43.3885   -5.4025 C   0  0  0  0  0  0
   47.9639   39.3949   -0.6186 C   0  0  0  0  0  0
   51.0072   44.9859   -0.4719 C   0  0  0  0  0  0
   46.4003   38.0100   -1.7204 F   0  0  0  0  0  0
   52.7758   46.5463    0.1099 C   0  0  0  0  0  0
   51.6233   45.8455    0.4338 C   0  0  0  0  0  0
   55.6661   47.2960   -0.5748 C   0  0  0  0  0  0
   54.7181   47.8566   -2.7233 C   0  0  0  0  0  0
   55.8695   48.5686   -3.0495 C   0  0  0  0  0  0
   56.8135   48.0100   -0.8990 C   0  0  0  0  0  0
   56.9133   48.6453   -2.1326 C   0  0  0  0  0  0
   54.0898   45.3417   -3.7374 H   0  0  0  0  0  0
   52.7296   43.4626   -4.5476 H   0  0  0  0  0  0
   47.1003   39.2716   -3.8757 H   0  0  0  0  0  0
   49.4096   40.7060    0.2753 H   0  0  0  0  0  0
   49.1304   43.6099   -5.9470 H   0  0  0  0  0  0
   50.4609   44.3589   -5.1517 H   0  0  0  0  0  0
   50.7306   42.8880   -6.0897 H   0  0  0  0  0  0
   47.7310   38.8904    0.3010 H   0  0  0  0  0  0
   50.1194   44.4382   -0.1926 H   0  0  0  0  0  0
   53.1949   47.2099    0.8526 H   0  0  0  0  0  0
   51.2230   45.9686    1.4245 H   0  0  0  0  0  0
   55.6058   46.8010    0.3839 H   0  0  0  0  0  0
   53.9058   47.8137   -3.4348 H   0  0  0  0  0  0
   55.9497   49.0660   -4.0052 H   0  0  0  0  0  0
   57.6230   48.0602   -0.1899 H   0  0  0  0  0  0
   57.8076   49.1993   -2.3781 H   0  0  0  0  0  0
   46.5122   41.4278   -4.8990 H   0  0  0  0  0  0
  1  2  1  0  0  0
  1  8  1  0  0  0
  1 10  2  0  0  0
  2  3  2  0  0  0
  2  4  1  0  0  0
  3 11  1  0  0  0
  4  6  2  0  0  0
  4 20  1  0  0  0
  5  8  2  0  0  0
  5 13  1  0  0  0
  5  7  1  0  0  0
  6  9  1  0  0  0
  6 12  1  0  0  0
  7 10  1  0  0  0
  7 31  1  0  0  0
  8 22  1  0  0  0
  9 14  2  0  0  0
  9 11  1  0  0  0
 10 32  1  0  0  0
 11 18  2  0  0  0
 12 15  1  0  0  0
 12 16  2  0  0  0
 13 17  1  0  0  0
 13 24  2  0  0  0
 14 19  1  0  0  0
 14 33  1  0  0  0
 15 47  1  0  0  0
 17 26  2  0  0  0
 17 27  1  0  0  0
 18 21  1  0  0  0
 18 34  1  0  0  0
 19 23  1  0  0  0
 19 21  2  0  0  0
 20 35  1  0  0  0
 20 36  1  0  0  0
 20 37  1  0  0  0
 21 38  1  0  0  0
 22 25  2  0  0  0
 22 39  1  0  0  0
 24 25  1  0  0  0
 24 40  1  0  0  0
 25 41  1  0  0  0
 26 29  1  0  0  0
 26 42  1  0  0  0
 27 28  2  0  0  0
 27 43  1  0  0  0
 28 30  1  0  0  0
 28 44  1  0  0  0
 29 30  2  0  0  0
 29 45  1  0  0  0
 30 46  1  0  0  0
M  END
> <s_m_entry_id>
25361

> <s_m_entry_name>
dock_pv.13

> <s_m_Source_Path>
/home/csk/Desktop/cluster/DUD-E-result/pyrd

> <s_m_Source_File>
dock_pv.maegz

> <i_m_Source_File_Index>
13

> <chembl_id>
CHEMBL50494

> <chembl_pref_name>
None

> <i_lp_mmshare_version>
53161

> <r_lp_tautomer_probability>
1

> <s_lp_Force_Field>
OPLS_2005

> <r_lp_Energy>
37.166296

> <b_lp_Chiralities_Consistent>
1

> <s_lp_Variant>
CHEMBL1966_lig793-1

> <s_i_glide_gridfile>
glide-grid_1d3g

> <i_i_glide_lignum>
864

> <i_i_glide_rotatable_bonds>
4

> <r_i_docking_score>
-11.3876607394897

> <r_i_glide_ligand_efficiency>
-0.379588691316325

> <r_i_glide_ligand_efficiency_sa>
-1.17947031921337

> <r_i_glide_ligand_efficiency_ln>
-2.58740059851373

> <r_i_glide_gscore>
-11.3876607394897

> <r_i_glide_lipo>
-6.54999486126807

> <r_i_glide_hbond>
-0.16

> <r_i_glide_metal>
0

> <r_i_glide_rewards>
-1.96911950418095

> <r_i_glide_evdw>
-36.4374160766602

> <r_i_glide_ecoul>
-8.40120220184326

> <r_i_glide_erotb>
0.373504760068775

> <r_i_glide_esite>
0

> <r_i_glide_emodel>
-63.454493532281

> <r_i_glide_energy>
-44.8386182785034

> <r_i_glide_einternal>
2.53930449485779

> <i_i_glide_confnum>
5

> <i_i_glide_posenum>
299

> <r_i_glide_eff_state_penalty>
0

> <s_user_duplicate_titles>
CHEMBL1966_lig793

> <i_f3d_flags>
0

> <s_m_subgroup_title>
dock_pv

> <s_m_subgroupid>
dock_pv

> <b_m_subgroup_collapsed>
1

$$$$
CHEMBL1966_lig702
                    3D
 Schrodinger Suite 2021-1.
 44 48  0  0  1  0            999 V2000
   50.5689   42.9885   -1.9501 C   0  0  0  0  0  0
   50.4841   42.7828   -3.3355 C   0  0  0  0  0  0
   50.0230   42.1306   -1.0569 N   0  0  0  0  0  0
   49.5404   41.8480   -3.8237 C   0  0  0  0  0  0
   48.9000   40.9648   -2.8845 C   0  0  0  0  0  0
   52.2823   44.8100   -2.1751 C   0  0  0  0  0  0
   51.2230   44.2443   -1.4330 C   0  0  0  0  0  0
   49.2525   41.1051   -1.5061 C   0  0  0  0  0  0
   49.1770   41.8262   -5.2990 C   0  0  0  0  0  0
   53.0320   45.8899   -1.6494 C   0  0  0  0  0  0
   51.4007   43.6100   -4.2343 C   0  0  0  0  0  0
   52.6396   44.1360   -3.4906 C   0  0  0  0  0  0
   47.8893   40.0089   -3.2053 C   0  0  0  0  0  0
   49.1667   43.0501   -5.8894 O   0  0  0  0  0  0
   48.8811   40.8100   -5.9224 O   0  0  0  0  0  0
   54.2641   46.4307   -2.3029 C   0  0  0  0  0  0
   48.6950   40.2373   -0.5347 C   0  0  0  0  0  0
   47.2963   39.2271   -2.2200 C   0  0  0  0  0  0
   47.7109   39.3195   -0.8990 C   0  0  0  0  0  0
   50.8959   44.8026   -0.1917 C   0  0  0  0  0  0
   46.2772   38.4100   -2.5489 F   0  0  0  0  0  0
   52.6759   46.4100   -0.4052 C   0  0  0  0  0  0
   51.6230   45.8741    0.3165 C   0  0  0  0  0  0
   55.3131   45.5761   -2.6676 C   0  0  0  0  0  0
   54.4230   47.8077   -2.4992 C   0  0  0  0  0  0
   55.5983   48.3164   -3.0490 C   0  0  0  0  0  0
   56.4873   46.0775   -3.2212 C   0  0  0  0  0  0
   56.6249   47.4487   -3.4095 C   0  0  0  0  0  0
   50.8293   44.4100   -4.6695 H   0  0  0  0  0  0
   51.7451   43.0278   -5.0833 H   0  0  0  0  0  0
   53.3224   43.3073   -3.3005 H   0  0  0  0  0  0
   53.1768   44.8514   -4.0990 H   0  0  0  0  0  0
   47.5268   39.8928   -4.2126 H   0  0  0  0  0  0
   49.0029   40.3237    0.4963 H   0  0  0  0  0  0
   47.2513   38.6967   -0.1449 H   0  0  0  0  0  0
   50.0925   44.3881    0.4001 H   0  0  0  0  0  0
   53.2524   47.2100    0.0340 H   0  0  0  0  0  0
   51.3837   46.2836    1.2851 H   0  0  0  0  0  0
   55.2296   44.5125   -2.5023 H   0  0  0  0  0  0
   53.6310   48.4864   -2.2237 H   0  0  0  0  0  0
   55.7209   49.3790   -3.1910 H   0  0  0  0  0  0
   57.2918   45.4083   -3.4908 H   0  0  0  0  0  0
   57.5381   47.8424   -3.8316 H   0  0  0  0  0  0
   48.9838   43.7775   -5.2862 H   0  0  0  0  0  0
  1  2  1  0  0  0
  1  3  2  0  0  0
  1  7  1  0  0  0
  2  4  2  0  0  0
  2 11  1  0  0  0
  3  8  1  0  0  0
  4  9  1  0  0  0
  4  5  1  0  0  0
  5  8  1  0  0  0
  5 13  2  0  0  0
  6  7  2  0  0  0
  6 10  1  0  0  0
  6 12  1  0  0  0
  7 20  1  0  0  0
  8 17  2  0  0  0
  9 14  1  0  0  0
  9 15  2  0  0  0
 10 16  1  0  0  0
 10 22  2  0  0  0
 11 12  1  0  0  0
 11 29  1  0  0  0
 11 30  1  0  0  0
 12 31  1  0  0  0
 12 32  1  0  0  0
 13 18  1  0  0  0
 13 33  1  0  0  0
 14 44  1  0  0  0
 16 24  2  0  0  0
 16 25  1  0  0  0
 17 19  1  0  0  0
 17 34  1  0  0  0
 18 19  2  0  0  0
 18 21  1  0  0  0
 19 35  1  0  0  0
 20 23  2  0  0  0
 20 36  1  0  0  0
 22 23  1  0  0  0
 22 37  1  0  0  0
 23 38  1  0  0  0
 24 27  1  0  0  0
 24 39  1  0  0  0
 25 26  2  0  0  0
 25 40  1  0  0  0
 26 28  1  0  0  0
 26 41  1  0  0  0
 27 28  2  0  0  0
 27 42  1  0  0  0
 28 43  1  0  0  0
M  END
> <s_m_entry_id>
25362

> <s_m_entry_name>
dock_pv.14

> <s_m_Source_Path>
/home/csk/Desktop/cluster/DUD-E-result/pyrd

> <s_m_Source_File>
dock_pv.maegz

> <i_m_Source_File_Index>
14

> <chembl_id>
CHEMBL106930

> <chembl_pref_name>
None

> <i_lp_mmshare_version>
53161

> <r_lp_tautomer_probability>
1

> <s_lp_Force_Field>
OPLS_2005

> <r_lp_Energy>
34.469344

> <b_lp_Chiralities_Consistent>
1

> <s_lp_Variant>
CHEMBL1966_lig702-1

> <s_i_glide_gridfile>
glide-grid_1d3g

> <i_i_glide_lignum>
771

> <i_i_glide_rotatable_bonds>
3

> <r_i_docking_score>
-11.3611646785856

> <r_i_glide_ligand_efficiency>
-0.405755881378059

> <r_i_glide_ligand_efficiency_sa>
-1.23211383329775

> <r_i_glide_ligand_efficiency_ln>
-2.62249038610741

> <r_i_glide_gscore>
-11.3611646785856

> <r_i_glide_lipo>
-6.55376082363821

> <r_i_glide_hbond>
-0.16

> <r_i_glide_metal>
0

> <r_i_glide_rewards>
-2.36656514530896

> <r_i_glide_evdw>
-32.6919136047363

> <r_i_glide_ecoul>
-6.19232892990112

> <r_i_glide_erotb>
0.282606310083511

> <r_i_glide_esite>
0

> <r_i_glide_emodel>
-36.4400168947191

> <r_i_glide_energy>
-38.8842425346375

> <r_i_glide_einternal>
6.91868305206299

> <i_i_glide_confnum>
3

> <i_i_glide_posenum>
207

> <r_i_glide_eff_state_penalty>
0

> <s_user_duplicate_titles>
CHEMBL1966_lig702,173890

> <i_f3d_flags>
0

> <s_m_subgroup_title>
dock_pv

> <s_m_subgroupid>
dock_pv

> <b_m_subgroup_collapsed>
1

$$$$
CHEMBL1966_lig774
                    3D
 Schrodinger Suite 2021-1.
 43 46  0  0  1  0            999 V2000
   50.1138   42.1611   -1.6611 N   0  0  0  0  0  0
   48.9966   41.5079   -4.1606 C   0  0  0  0  0  0
   50.4119   42.8981   -2.7603 C   0  0  0  0  0  0
   49.8789   42.6035   -4.0317 C   0  0  0  0  0  0
   48.6516   40.7374   -2.9999 C   0  0  0  0  0  0
   49.2591   41.1113   -1.7633 C   0  0  0  0  0  0
   48.4601   41.1304   -5.5140 C   0  0  0  0  0  0
   51.3764   44.0096   -2.4950 C   0  0  0  0  0  0
   47.7196   39.6508   -2.9835 C   0  0  0  0  0  0
   47.1054   41.2091   -5.6612 O   0  0  0  0  0  0
   53.2835   46.0256   -2.0333 C   0  0  0  0  0  0
   54.3310   47.0586   -1.8518 C   0  0  0  0  0  0
   49.2230   40.8102   -6.4188 O   0  0  0  0  0  0
   48.9330   40.4104   -0.5758 C   0  0  0  0  0  0
   52.5114   44.1219   -3.3001 C   0  0  0  0  0  0
   51.2238   44.8999   -1.4179 C   0  0  0  0  0  0
   52.1700   45.9057   -1.1928 C   0  0  0  0  0  0
   53.4442   45.1223   -3.0780 C   0  0  0  0  0  0
   54.6497   47.9155   -2.9138 C   0  0  0  0  0  0
   55.0841   47.1146   -0.6750 C   0  0  0  0  0  0
   47.3953   39.0066   -1.7925 C   0  0  0  0  0  0
   56.4662   48.8407   -1.6429 C   0  0  0  0  0  0
   50.2023   43.4754   -5.2568 C   0  0  0  0  0  0
   48.0003   39.3831   -0.6048 C   0  0  0  0  0  0
   55.7164   48.8017   -2.8109 C   0  0  0  0  0  0
   56.1605   47.9937   -0.5804 C   0  0  0  0  0  0
   46.4829   38.0109   -1.7827 F   0  0  0  0  0  0
   57.5018   49.7039   -1.5479 F   0  0  0  0  0  0
   47.2391   39.3226   -3.8918 H   0  0  0  0  0  0
   49.4004   40.6923    0.3569 H   0  0  0  0  0  0
   52.6889   43.4147   -4.0976 H   0  0  0  0  0  0
   50.3645   44.8222   -0.7673 H   0  0  0  0  0  0
   52.0343   46.5905   -0.3678 H   0  0  0  0  0  0
   54.3230   45.1768   -3.7017 H   0  0  0  0  0  0
   54.0836   47.8737   -3.8341 H   0  0  0  0  0  0
   54.8690   46.4443    0.1446 H   0  0  0  0  0  0
   49.2846   43.7503   -5.7782 H   0  0  0  0  0  0
   50.6992   44.4096   -5.0240 H   0  0  0  0  0  0
   50.8223   42.9290   -5.9669 H   0  0  0  0  0  0
   47.7491   38.8575    0.3008 H   0  0  0  0  0  0
   55.9768   49.4492   -3.6348 H   0  0  0  0  0  0
   56.7787   48.0099    0.3010 H   0  0  0  0  0  0
   46.6683   41.5954   -4.8984 H   0  0  0  0  0  0
  1  3  2  0  0  0
  1  6  1  0  0  0
  2  5  1  0  0  0
  2  7  1  0  0  0
  2  4  2  0  0  0
  3  4  1  0  0  0
  3  8  1  0  0  0
  4 23  1  0  0  0
  5  6  1  0  0  0
  5  9  2  0  0  0
  6 14  2  0  0  0
  7 10  1  0  0  0
  7 13  2  0  0  0
  8 15  2  0  0  0
  8 16  1  0  0  0
  9 21  1  0  0  0
  9 29  1  0  0  0
 10 43  1  0  0  0
 11 17  1  0  0  0
 11 12  1  0  0  0
 11 18  2  0  0  0
 12 19  1  0  0  0
 12 20  2  0  0  0
 14 24  1  0  0  0
 14 30  1  0  0  0
 15 18  1  0  0  0
 15 31  1  0  0  0
 16 17  2  0  0  0
 16 32  1  0  0  0
 17 33  1  0  0  0
 18 34  1  0  0  0
 19 25  2  0  0  0
 19 35  1  0  0  0
 20 26  1  0  0  0
 20 36  1  0  0  0
 21 24  2  0  0  0
 21 27  1  0  0  0
 22 26  2  0  0  0
 22 28  1  0  0  0
 22 25  1  0  0  0
 23 37  1  0  0  0
 23 38  1  0  0  0
 23 39  1  0  0  0
 24 40  1  0  0  0
 25 41  1  0  0  0
 26 42  1  0  0  0
M  END
> <s_m_entry_id>
25363

> <s_m_entry_name>
dock_pv.15

> <s_m_Source_Path>
/home/csk/Desktop/cluster/DUD-E-result/pyrd

> <s_m_Source_File>
dock_pv.maegz

> <i_m_Source_File_Index>
15

> <chembl_id>
CHEMBL39188

> <chembl_pref_name>
None

> <i_lp_mmshare_version>
53161

> <r_lp_tautomer_probability>
1

> <s_lp_Force_Field>
OPLS_2005

> <r_lp_Energy>
32.900395

> <b_lp_Chiralities_Consistent>
1

> <s_lp_Variant>
CHEMBL1966_lig774-1

> <s_i_glide_gridfile>
glide-grid_1d3g

> <i_i_glide_lignum>
845

> <i_i_glide_rotatable_bonds>
4

> <r_i_docking_score>
-11.3565247900624

> <r_i_glide_ligand_efficiency>
-0.405590171073659

> <r_i_glide_ligand_efficiency_sa>
-1.23161063921544

> <r_i_glide_ligand_efficiency_ln>
-2.62141936360321

> <r_i_glide_gscore>
-11.3565247900624

> <r_i_glide_lipo>
-6.2451982466595

> <r_i_glide_hbond>
-0.16

> <r_i_glide_metal>
0

> <r_i_glide_rewards>
-2.481742396205

> <r_i_glide_evdw>
-37.1160316467285

> <r_i_glide_ecoul>
-6.8379430770874

> <r_i_glide_erotb>
0.411908896701586

> <r_i_glide_esite>
0

> <r_i_glide_emodel>
-68.8854556578737

> <r_i_glide_energy>
-43.9539747238159

> <r_i_glide_einternal>
3.18017244338989

> <i_i_glide_confnum>
15

> <i_i_glide_posenum>
57

> <r_i_glide_eff_state_penalty>
0

> <s_user_duplicate_titles>
CHEMBL1966_lig774,57481

> <i_f3d_flags>
0

> <s_m_subgroup_title>
dock_pv

> <s_m_subgroupid>
dock_pv

> <b_m_subgroup_collapsed>
1

$$$$
CHEMBL1966_lig733
                    3D
 Schrodinger Suite 2021-1.
 43 46  0  0  1  0            999 V2000
   50.2519   42.1964   -1.7257 N   0  0  0  0  0  0
   49.0717   41.5619   -4.2030 C   0  0  0  0  0  0
   50.5517   42.9182   -2.8353 C   0  0  0  0  0  0
   49.9839   42.6342   -4.0956 C   0  0  0  0  0  0
   48.7280   40.8101   -3.0310 C   0  0  0  0  0  0
   49.3612   41.1762   -1.8046 C   0  0  0  0  0  0
   48.4936   41.1800   -5.5409 C   0  0  0  0  0  0
   51.5461   44.0099   -2.5845 C   0  0  0  0  0  0
   54.5324   47.0465   -1.9576 C   0  0  0  0  0  0
   47.7660   39.7529   -2.9977 C   0  0  0  0  0  0
   53.4678   46.0307   -2.1548 C   0  0  0  0  0  0
   47.1373   41.2727   -5.6556 O   0  0  0  0  0  0
   49.2230   40.8188   -6.4568 O   0  0  0  0  0  0
   54.9408   47.8624   -3.0238 C   0  0  0  0  0  0
   49.0191   40.4968   -0.6058 C   0  0  0  0  0  0
   51.4145   44.9049   -1.5099 C   0  0  0  0  0  0
   52.6631   44.1317   -3.4149 C   0  0  0  0  0  0
   53.5984   45.1390   -3.2154 C   0  0  0  0  0  0
   52.3689   45.9062   -1.2974 C   0  0  0  0  0  0
   47.4104   39.1471   -1.7983 C   0  0  0  0  0  0
   56.0251   48.7296   -2.8868 C   0  0  0  0  0  0
   50.2951   43.4921   -5.3326 C   0  0  0  0  0  0
   48.0230   39.5257   -0.6145 C   0  0  0  0  0  0
   46.4559   38.1909   -1.7788 F   0  0  0  0  0  0
   56.4232   49.4916   -3.9304 F   0  0  0  0  0  0
   55.2224   47.1353   -0.7430 C   0  0  0  0  0  0
   56.3187   47.9881   -0.6146 C   0  0  0  0  0  0
   56.7155   48.7915   -1.6804 C   0  0  0  0  0  0
   47.2716   39.4225   -3.8980 H   0  0  0  0  0  0
   54.4304   47.8075   -3.9744 H   0  0  0  0  0  0
   49.5014   40.7746    0.3211 H   0  0  0  0  0  0
   50.5675   44.8319   -0.8430 H   0  0  0  0  0  0
   52.8208   43.4271   -4.2188 H   0  0  0  0  0  0
   54.4570   45.2099   -3.8665 H   0  0  0  0  0  0
   52.2525   46.5844   -0.4648 H   0  0  0  0  0  0
   49.3701   43.7965   -5.8236 H   0  0  0  0  0  0
   50.8241   44.4100   -5.1155 H   0  0  0  0  0  0
   50.8724   42.9270   -6.0635 H   0  0  0  0  0  0
   47.7428   39.0334    0.3008 H   0  0  0  0  0  0
   54.9471   46.4996    0.0866 H   0  0  0  0  0  0
   56.8859   48.0097    0.3009 H   0  0  0  0  0  0
   57.5677   49.4468   -1.5761 H   0  0  0  0  0  0
   46.7239   41.6964   -4.8986 H   0  0  0  0  0  0
  1  3  2  0  0  0
  1  6  1  0  0  0
  2  5  1  0  0  0
  2  7  1  0  0  0
  2  4  2  0  0  0
  3  4  1  0  0  0
  3  8  1  0  0  0
  4 22  1  0  0  0
  5  6  1  0  0  0
  5 10  2  0  0  0
  6 15  2  0  0  0
  7 12  1  0  0  0
  7 13  2  0  0  0
  8 16  1  0  0  0
  8 17  2  0  0  0
  9 11  1  0  0  0
  9 14  1  0  0  0
  9 26  2  0  0  0
 10 20  1  0  0  0
 10 29  1  0  0  0
 11 18  2  0  0  0
 11 19  1  0  0  0
 12 43  1  0  0  0
 14 21  2  0  0  0
 14 30  1  0  0  0
 15 23  1  0  0  0
 15 31  1  0  0  0
 16 19  2  0  0  0
 16 32  1  0  0  0
 17 18  1  0  0  0
 17 33  1  0  0  0
 18 34  1  0  0  0
 19 35  1  0  0  0
 20 23  2  0  0  0
 20 24  1  0  0  0
 21 25  1  0  0  0
 21 28  1  0  0  0
 22 36  1  0  0  0
 22 37  1  0  0  0
 22 38  1  0  0  0
 23 39  1  0  0  0
 26 27  1  0  0  0
 26 40  1  0  0  0
 27 28  2  0  0  0
 27 41  1  0  0  0
 28 42  1  0  0  0
M  END
> <s_m_entry_id>
25364

> <s_m_entry_name>
dock_pv.16

> <s_m_Source_Path>
/home/csk/Desktop/cluster/DUD-E-result/pyrd

> <s_m_Source_File>
dock_pv.maegz

> <i_m_Source_File_Index>
16

> <chembl_id>
CHEMBL38978

> <chembl_pref_name>
None

> <i_lp_mmshare_version>
53161

> <r_lp_tautomer_probability>
1

> <s_lp_Force_Field>
OPLS_2005

> <r_lp_Energy>
30.895998

> <b_lp_Chiralities_Consistent>
1

> <s_lp_Variant>
CHEMBL1966_lig733-1

> <s_i_glide_gridfile>
glide-grid_1d3g

> <i_i_glide_lignum>
804

> <i_i_glide_rotatable_bonds>
4

> <r_i_docking_score>
-11.3104460336635

> <r_i_glide_ligand_efficiency>
-0.403944501202267

> <r_i_glide_ligand_efficiency_sa>
-1.22661341623818

> <r_i_glide_ligand_efficiency_ln>
-2.61078303369526

> <r_i_glide_gscore>
-11.3104460336635

> <r_i_glide_lipo>
-6.13322525605579

> <r_i_glide_hbond>
-0.16

> <r_i_glide_metal>
0

> <r_i_glide_rewards>
-2.54167709576466

> <r_i_glide_evdw>
-35.9373893737793

> <r_i_glide_ecoul>
-7.27055406570435

> <r_i_glide_erotb>
0.411908896701586

> <r_i_glide_esite>
0

> <r_i_glide_emodel>
-66.9138123645648

> <r_i_glide_energy>
-43.2079434394836

> <r_i_glide_einternal>
4.07224893569946

> <i_i_glide_confnum>
15

> <i_i_glide_posenum>
382

> <r_i_glide_eff_state_penalty>
0

> <s_user_duplicate_titles>
CHEMBL1966_lig733,57517

> <i_f3d_flags>
0

> <s_m_subgroup_title>
dock_pv

> <s_m_subgroupid>
dock_pv

> <b_m_subgroup_collapsed>
1

$$$$
CHEMBL1966_lig753
                    3D
 Schrodinger Suite 2021-1.
 42 45  0  0  1  0            999 V2000
   50.0762   42.0822   -1.6694 N   0  0  0  0  0  0
   50.3719   42.8295   -2.7617 C   0  0  0  0  0  0
   49.8434   42.5575   -4.0381 C   0  0  0  0  0  0
   48.9676   41.4640   -4.1858 C   0  0  0  0  0  0
   49.2230   41.0387   -1.7925 C   0  0  0  0  0  0
   48.6166   40.6862   -3.0349 C   0  0  0  0  0  0
   48.4434   41.1083   -5.5465 C   0  0  0  0  0  0
   51.3193   43.9431   -2.4848 C   0  0  0  0  0  0
   48.9300   40.4100   -0.6205 N   0  0  0  0  0  0
   54.2784   46.9442   -1.6932 C   0  0  0  0  0  0
   53.2032   45.9651   -1.9716 C   0  0  0  0  0  0
   49.2193   40.8101   -6.4501 O   0  0  0  0  0  0
   55.0125   46.8818   -0.5013 C   0  0  0  0  0  0
   51.1515   44.8106   -1.3936 C   0  0  0  0  0  0
   52.4428   44.0996   -3.2991 C   0  0  0  0  0  0
   53.3601   45.1123   -3.0608 C   0  0  0  0  0  0
   52.0864   45.8169   -1.1406 C   0  0  0  0  0  0
   47.0910   41.2072   -5.6990 O   0  0  0  0  0  0
   54.6767   46.0100    0.4762 F   0  0  0  0  0  0
   50.1588   43.4569   -5.2466 C   0  0  0  0  0  0
   47.6786   39.6100   -3.0096 C   0  0  0  0  0  0
   54.6523   47.8769   -2.6706 C   0  0  0  0  0  0
   48.0208   39.4101   -0.6454 C   0  0  0  0  0  0
   56.1277   47.6938   -0.3216 C   0  0  0  0  0  0
   47.3809   38.9802   -1.8030 C   0  0  0  0  0  0
   55.7490   48.7156   -2.4716 C   0  0  0  0  0  0
   56.4951   48.6168   -1.2992 C   0  0  0  0  0  0
   50.2982   44.7025   -0.7394 H   0  0  0  0  0  0
   52.6255   43.4156   -4.1151 H   0  0  0  0  0  0
   54.2282   45.1981   -3.6987 H   0  0  0  0  0  0
   51.9552   46.4638   -0.2855 H   0  0  0  0  0  0
   46.6585   41.5837   -4.9278 H   0  0  0  0  0  0
   49.2450   43.7050   -5.7887 H   0  0  0  0  0  0
   50.6030   44.4096   -4.9861 H   0  0  0  0  0  0
   50.8229   42.9491   -5.9457 H   0  0  0  0  0  0
   47.1905   39.2803   -3.9144 H   0  0  0  0  0  0
   54.1012   47.9380   -3.5988 H   0  0  0  0  0  0
   47.8236   38.9311    0.3009 H   0  0  0  0  0  0
   56.7074   47.6095    0.5860 H   0  0  0  0  0  0
   46.6725   38.1653   -1.7649 H   0  0  0  0  0  0
   56.0282   49.4291   -3.2332 H   0  0  0  0  0  0
   57.3575   49.2502   -1.1457 H   0  0  0  0  0  0
  1  2  2  0  0  0
  1  5  1  0  0  0
  2  3  1  0  0  0
  2  8  1  0  0  0
  3 20  1  0  0  0
  3  4  2  0  0  0
  4  6  1  0  0  0
  4  7  1  0  0  0
  5  6  2  0  0  0
  5  9  1  0  0  0
  6 21  1  0  0  0
  7 12  2  0  0  0
  7 18  1  0  0  0
  8 14  2  0  0  0
  8 15  1  0  0  0
  9 23  2  0  0  0
 10 11  1  0  0  0
 10 13  1  0  0  0
 10 22  2  0  0  0
 11 16  1  0  0  0
 11 17  2  0  0  0
 13 19  1  0  0  0
 13 24  2  0  0  0
 14 17  1  0  0  0
 14 28  1  0  0  0
 15 16  2  0  0  0
 15 29  1  0  0  0
 16 30  1  0  0  0
 17 31  1  0  0  0
 18 32  1  0  0  0
 20 33  1  0  0  0
 20 34  1  0  0  0
 20 35  1  0  0  0
 21 25  2  0  0  0
 21 36  1  0  0  0
 22 26  1  0  0  0
 22 37  1  0  0  0
 23 25  1  0  0  0
 23 38  1  0  0  0
 24 27  1  0  0  0
 24 39  1  0  0  0
 25 40  1  0  0  0
 26 27  2  0  0  0
 26 41  1  0  0  0
 27 42  1  0  0  0
M  END
> <s_m_entry_id>
25365

> <s_m_entry_name>
dock_pv.17

> <s_m_Source_Path>
/home/csk/Desktop/cluster/DUD-E-result/pyrd

> <s_m_Source_File>
dock_pv.maegz

> <i_m_Source_File_Index>
17

> <chembl_id>
CHEMBL289071

> <chembl_pref_name>
None

> <i_lp_mmshare_version>
53161

> <r_lp_tautomer_probability>
1

> <s_lp_Force_Field>
OPLS_2005

> <r_lp_Energy>
31.378972

> <b_lp_Chiralities_Consistent>
1

> <s_lp_Variant>
CHEMBL1966_lig753-1

> <s_i_glide_gridfile>
glide-grid_1d3g

> <i_i_glide_lignum>
824

> <i_i_glide_rotatable_bonds>
4

> <r_i_docking_score>
-11.3101890197717

> <r_i_glide_ligand_efficiency>
-0.418895889621174

> <r_i_glide_ligand_efficiency_sa>
-1.25668766748291

> <r_i_glide_ligand_efficiency_ln>
-2.63282554076398

> <r_i_glide_gscore>
-11.3101890197717

> <r_i_glide_lipo>
-5.71876503716942

> <r_i_glide_hbond>
-0.16

> <r_i_glide_metal>
0

> <r_i_glide_rewards>
-2.72581594590813

> <r_i_glide_evdw>
-39.0347938537598

> <r_i_glide_ecoul>
-8.00882720947266

> <r_i_glide_erotb>
0.447455737414731

> <r_i_glide_esite>
0

> <r_i_glide_emodel>
-73.3642250877349

> <r_i_glide_energy>
-47.0436210632324

> <r_i_glide_einternal>
2.33522605895996

> <i_i_glide_confnum>
58

> <i_i_glide_posenum>
137

> <r_i_glide_eff_state_penalty>
0

> <s_user_duplicate_titles>
CHEMBL1966_lig753,56530

> <i_f3d_flags>
0

> <s_m_subgroup_title>
dock_pv

> <s_m_subgroupid>
dock_pv

> <b_m_subgroup_collapsed>
1

$$$$
CHEMBL1966_lig612
                    3D
 Schrodinger Suite 2021-1.
 45 48  0  0  1  0            999 V2000
   47.8918   39.3956   -0.6107 C   0  0  0  0  0  0
   47.3194   38.9948   -1.8077 C   0  0  0  0  0  0
   47.6808   39.6117   -3.0017 C   0  0  0  0  0  0
   48.8419   40.4094   -0.5779 C   0  0  0  0  0  0
   49.2231   41.0647   -1.7721 C   0  0  0  0  0  0
   48.6251   40.6879   -3.0137 C   0  0  0  0  0  0
   48.9817   41.4584   -4.1718 C   0  0  0  0  0  0
   49.8606   42.5526   -4.0335 C   0  0  0  0  0  0
   50.3942   42.8293   -2.7614 C   0  0  0  0  0  0
   50.0907   42.0985   -1.6636 N   0  0  0  0  0  0
   51.3666   43.9226   -2.4988 C   0  0  0  0  0  0
   51.2082   44.8366   -1.4444 C   0  0  0  0  0  0
   52.1467   45.8544   -1.2424 C   0  0  0  0  0  0
   53.2701   45.9498   -2.0728 C   0  0  0  0  0  0
   53.4425   45.0081   -3.0849 C   0  0  0  0  0  0
   52.5047   44.0102   -3.2995 C   0  0  0  0  0  0
   48.4526   41.0988   -5.5306 C   0  0  0  0  0  0
   47.0984   41.1758   -5.6765 O   0  0  0  0  0  0
   49.2226   40.8111   -6.4413 O   0  0  0  0  0  0
   50.1776   43.4515   -5.2420 C   0  0  0  0  0  0
   54.2963   47.0192   -1.9516 C   0  0  0  0  0  0
   55.0695   47.2542   -0.7962 C   0  0  0  0  0  0
   56.0911   48.1549   -0.7761 N   0  0  0  0  0  0
   56.3686   48.8521   -1.9084 C   0  0  0  0  0  0
   55.6345   48.6982   -3.0799 C   0  0  0  0  0  0
   54.5905   47.7811   -3.0912 C   0  0  0  0  0  0
   54.7974   46.3650    0.6650 Cl  0  0  0  0  0  0
   46.3951   38.0100   -1.8017 F   0  0  0  0  0  0
   57.5447   49.8104   -1.8736 C   0  0  0  0  0  0
   47.5965   38.9037    0.3004 H   0  0  0  0  0  0
   47.2125   39.2785   -3.9144 H   0  0  0  0  0  0
   49.2838   40.7088    0.3613 H   0  0  0  0  0  0
   50.3421   44.7790   -0.8004 H   0  0  0  0  0  0
   51.9957   46.5686   -0.4461 H   0  0  0  0  0  0
   54.3268   45.0434   -3.7012 H   0  0  0  0  0  0
   52.6822   43.2866   -4.0826 H   0  0  0  0  0  0
   46.6622   41.5334   -4.8987 H   0  0  0  0  0  0
   49.2607   43.7098   -5.7732 H   0  0  0  0  0  0
   50.6378   44.3999   -4.9832 H   0  0  0  0  0  0
   50.8254   42.9363   -5.9503 H   0  0  0  0  0  0
   55.8786   49.2633   -3.9678 H   0  0  0  0  0  0
   54.0280   47.6385   -4.0036 H   0  0  0  0  0  0
   58.3031   49.4939   -2.5902 H   0  0  0  0  0  0
   57.2184   50.8117   -2.1483 H   0  0  0  0  0  0
   58.0224   49.8750   -0.8990 H   0  0  0  0  0  0
  1  2  2  0  0  0
  1  4  1  0  0  0
  1 30  1  0  0  0
  2  3  1  0  0  0
  2 28  1  0  0  0
  3  6  2  0  0  0
  3 31  1  0  0  0
  4  5  2  0  0  0
  4 32  1  0  0  0
  5  6  1  0  0  0
  5 10  1  0  0  0
  6  7  1  0  0  0
  7  8  2  0  0  0
  7 17  1  0  0  0
  8  9  1  0  0  0
  8 20  1  0  0  0
  9 10  2  0  0  0
  9 11  1  0  0  0
 11 12  2  0  0  0
 11 16  1  0  0  0
 12 13  1  0  0  0
 12 33  1  0  0  0
 13 14  2  0  0  0
 13 34  1  0  0  0
 14 15  1  0  0  0
 14 21  1  0  0  0
 15 16  2  0  0  0
 15 35  1  0  0  0
 16 36  1  0  0  0
 17 18  1  0  0  0
 17 19  2  0  0  0
 18 37  1  0  0  0
 20 38  1  0  0  0
 20 39  1  0  0  0
 20 40  1  0  0  0
 21 22  2  0  0  0
 21 26  1  0  0  0
 22 23  1  0  0  0
 22 27  1  0  0  0
 23 24  2  0  0  0
 24 25  1  0  0  0
 24 29  1  0  0  0
 25 26  2  0  0  0
 25 41  1  0  0  0
 26 42  1  0  0  0
 29 43  1  0  0  0
 29 44  1  0  0  0
 29 45  1  0  0  0
M  END
> <s_m_entry_id>
25366

> <s_m_entry_name>
dock_pv.18

> <s_m_Source_Path>
/home/csk/Desktop/cluster/DUD-E-result/pyrd

> <s_m_Source_File>
dock_pv.maegz

> <i_m_Source_File_Index>
18

> <chembl_id>
CHEMBL4228971

> <chembl_pref_name>
None

> <i_lp_mmshare_version>
53161

> <r_lp_tautomer_probability>
1

> <s_lp_Force_Field>
OPLS_2005

> <r_lp_Energy>
34.785487

> <b_lp_Chiralities_Consistent>
1

> <s_lp_Variant>
CHEMBL1966_lig612-1

> <s_i_glide_gridfile>
glide-grid_1d3g

> <i_i_glide_lignum>
666

> <i_i_glide_rotatable_bonds>
4

> <r_i_docking_score>
-11.2954640295755

> <r_i_glide_ligand_efficiency>
-0.389498759640535

> <r_i_glide_ligand_efficiency_sa>
-1.19666359148421

> <r_i_glide_ligand_efficiency_ln>
-2.58637483451871

> <r_i_glide_gscore>
-11.2954640295755

> <r_i_glide_lipo>
-6.53888666145474

> <r_i_glide_hbond>
-0.16

> <r_i_glide_metal>
0

> <r_i_glide_rewards>
-1.79140168962467

> <r_i_glide_evdw>
-40.0915641784668

> <r_i_glide_ecoul>
-7.71365547180176

> <r_i_glide_erotb>
0.356450851197487

> <r_i_glide_esite>
0

> <r_i_glide_emodel>
-72.3597032814889

> <r_i_glide_energy>
-47.8052196502686

> <r_i_glide_einternal>
1.75927150249481

> <i_i_glide_confnum>
2

> <i_i_glide_posenum>
197

> <r_i_glide_eff_state_penalty>
0

> <s_user_duplicate_titles>
CHEMBL1966_lig612

> <i_f3d_flags>
0

> <s_m_subgroup_title>
dock_pv

> <s_m_subgroupid>
dock_pv

> <b_m_subgroup_collapsed>
1

$$$$
CHEMBL1966_lig738
                    3D
 Schrodinger Suite 2021-1.
 40 43  0  0  1  0            999 V2000
   50.8230   43.1322   -2.5172 C   0  0  0  0  0  0
   50.4392   42.4100   -1.4327 N   0  0  0  0  0  0
   51.5722   44.3868   -2.0990 C   0  0  0  0  0  0
   49.4853   41.7308   -3.9852 C   0  0  0  0  0  0
   50.4559   42.7422   -3.8250 C   0  0  0  0  0  0
   53.0276   44.9286   -2.9036 S   0  0  0  0  0  0
   49.0440   40.9980   -2.8483 C   0  0  0  0  0  0
   53.2782   46.2190   -1.7684 C   0  0  0  0  0  0
   49.6190   41.3401   -1.5872 C   0  0  0  0  0  0
   51.3221   45.2095   -0.9961 C   0  0  0  0  0  0
   48.7974   41.4805   -5.2989 C   0  0  0  0  0  0
   52.2847   46.2051   -0.7960 C   0  0  0  0  0  0
   48.0301   39.9891   -2.8921 C   0  0  0  0  0  0
   54.4759   47.0955   -1.9153 C   0  0  0  0  0  0
   48.8230   40.4102   -5.8904 O   0  0  0  0  0  0
   49.2230   40.6188   -0.4361 C   0  0  0  0  0  0
   47.6230   39.3370   -1.7435 C   0  0  0  0  0  0
   48.0230   42.5076   -5.6990 O   0  0  0  0  0  0
   51.1218   43.3585   -5.0476 C   0  0  0  0  0  0
   48.2255   39.6412   -0.5363 C   0  0  0  0  0  0
   46.6497   38.4018   -1.8016 F   0  0  0  0  0  0
   55.2664   47.3900   -0.7996 C   0  0  0  0  0  0
   54.8239   47.6139   -3.1686 C   0  0  0  0  0  0
   55.9576   48.4101   -3.3065 C   0  0  0  0  0  0
   56.4087   48.1762   -0.9439 C   0  0  0  0  0  0
   56.7462   48.6860   -2.1937 C   0  0  0  0  0  0
   50.4825   45.0633   -0.3324 H   0  0  0  0  0  0
   52.2510   46.8996    0.0303 H   0  0  0  0  0  0
   47.5502   39.7135   -3.8180 H   0  0  0  0  0  0
   49.6572   40.8571    0.5241 H   0  0  0  0  0  0
   48.0752   43.3329   -5.2017 H   0  0  0  0  0  0
   50.8229   42.9374   -6.0064 H   0  0  0  0  0  0
   50.9201   44.4100   -5.0838 H   0  0  0  0  0  0
   52.1984   43.2100   -4.9765 H   0  0  0  0  0  0
   47.9042   39.0660    0.3010 H   0  0  0  0  0  0
   55.0118   46.9927    0.1725 H   0  0  0  0  0  0
   54.2171   47.4020   -4.0375 H   0  0  0  0  0  0
   56.2279   48.8112   -4.2719 H   0  0  0  0  0  0
   57.0433   48.3914   -0.0990 H   0  0  0  0  0  0
   57.6305   49.2977   -2.2998 H   0  0  0  0  0  0
  1  2  2  0  0  0
  1  3  1  0  0  0
  1  5  1  0  0  0
  2  9  1  0  0  0
  3  6  1  0  0  0
  3 10  2  0  0  0
  4  5  2  0  0  0
  4  7  1  0  0  0
  4 11  1  0  0  0
  5 19  1  0  0  0
  6  8  1  0  0  0
  7 13  2  0  0  0
  7  9  1  0  0  0
  8 14  1  0  0  0
  8 12  2  0  0  0
  9 16  2  0  0  0
 10 12  1  0  0  0
 10 27  1  0  0  0
 11 15  2  0  0  0
 11 18  1  0  0  0
 12 28  1  0  0  0
 13 17  1  0  0  0
 13 29  1  0  0  0
 14 22  2  0  0  0
 14 23  1  0  0  0
 16 20  1  0  0  0
 16 30  1  0  0  0
 17 21  1  0  0  0
 17 20  2  0  0  0
 18 31  1  0  0  0
 19 32  1  0  0  0
 19 33  1  0  0  0
 19 34  1  0  0  0
 20 35  1  0  0  0
 22 25  1  0  0  0
 22 36  1  0  0  0
 23 24  2  0  0  0
 23 37  1  0  0  0
 24 26  1  0  0  0
 24 38  1  0  0  0
 25 26  2  0  0  0
 25 39  1  0  0  0
 26 40  1  0  0  0
M  END
> <s_m_entry_id>
25367

> <s_m_entry_name>
dock_pv.19

> <s_m_Source_Path>
/home/csk/Desktop/cluster/DUD-E-result/pyrd

> <s_m_Source_File>
dock_pv.maegz

> <i_m_Source_File_Index>
19

> <chembl_id>
CHEMBL288381

> <chembl_pref_name>
None

> <i_lp_mmshare_version>
53161

> <r_lp_tautomer_probability>
1

> <s_lp_Force_Field>
OPLS_2005

> <r_lp_Energy>
26.999605

> <b_lp_Chiralities_Consistent>
1

> <s_lp_Variant>
CHEMBL1966_lig738-1

> <s_i_glide_gridfile>
glide-grid_1d3g

> <i_i_glide_lignum>
809

> <i_i_glide_rotatable_bonds>
4

> <r_i_docking_score>
-11.2802573721898

> <r_i_glide_ligand_efficiency>
-0.433856052776532

> <r_i_glide_ligand_efficiency_sa>
-1.28529684920934

> <r_i_glide_ligand_efficiency_ln>
-2.64913143031538

> <r_i_glide_gscore>
-11.2802573721898

> <r_i_glide_lipo>
-6.01464347939492

> <r_i_glide_hbond>
-0.16

> <r_i_glide_metal>
0

> <r_i_glide_rewards>
-2.63578652627093

> <r_i_glide_evdw>
-34.3735427856445

> <r_i_glide_ecoul>
-7.9173321723938

> <r_i_glide_erotb>
0.436449598617318

> <r_i_glide_esite>
0

> <r_i_glide_emodel>
-63.3145502378638

> <r_i_glide_energy>
-42.2908749580383

> <r_i_glide_einternal>
8.37094879150391

> <i_i_glide_confnum>
7

> <i_i_glide_posenum>
348

> <r_i_glide_eff_state_penalty>
0

> <s_user_duplicate_titles>
CHEMBL1966_lig738,57449

> <i_f3d_flags>
0

> <s_m_subgroup_title>
dock_pv

> <s_m_subgroupid>
dock_pv

> <b_m_subgroup_collapsed>
1

$$$$
CHEMBL1966_lig759
                    3D
 Schrodinger Suite 2021-1.
 43 46  0  0  1  0            999 V2000
   50.1254   42.1617   -1.6640 N   0  0  0  0  0  0
   49.0048   41.5120   -4.1624 C   0  0  0  0  0  0
   50.4222   42.8976   -2.7636 C   0  0  0  0  0  0
   49.8877   42.6066   -4.0364 C   0  0  0  0  0  0
   48.6621   40.7393   -3.0006 C   0  0  0  0  0  0
   49.2723   41.1125   -1.7649 C   0  0  0  0  0  0
   48.4636   41.1335   -5.5140 C   0  0  0  0  0  0
   51.3813   44.0100   -2.4942 C   0  0  0  0  0  0
   47.7306   39.6524   -2.9824 C   0  0  0  0  0  0
   47.1088   41.2111   -5.6567 O   0  0  0  0  0  0
   53.2851   46.0208   -2.0082 C   0  0  0  0  0  0
   49.2226   40.8103   -6.4203 O   0  0  0  0  0  0
   48.9482   40.4101   -0.5759 C   0  0  0  0  0  0
   51.2231   44.8897   -1.4074 C   0  0  0  0  0  0
   52.5127   44.1384   -3.2995 C   0  0  0  0  0  0
   53.4400   45.1425   -3.0739 C   0  0  0  0  0  0
   52.1738   45.8895   -1.1665 C   0  0  0  0  0  0
   54.3602   47.0104   -1.7778 C   0  0  0  0  0  0
   47.4065   39.0085   -1.7923 C   0  0  0  0  0  0
   50.2097   43.4822   -5.2609 C   0  0  0  0  0  0
   48.0149   39.3833   -0.6040 C   0  0  0  0  0  0
   46.4949   38.0116   -1.7805 F   0  0  0  0  0  0
   55.1546   46.9109   -0.6359 C   0  0  0  0  0  0
   54.6706   47.9670   -2.7541 C   0  0  0  0  0  0
   55.7729   48.8053   -2.5943 C   0  0  0  0  0  0
   56.2738   47.7245   -0.4967 C   0  0  0  0  0  0
   56.5756   48.6745   -1.4653 C   0  0  0  0  0  0
   47.2461   39.3270   -3.8890 H   0  0  0  0  0  0
   49.4197   40.6903    0.3544 H   0  0  0  0  0  0
   50.3668   44.8001   -0.7520 H   0  0  0  0  0  0
   52.6930   43.4397   -4.1040 H   0  0  0  0  0  0
   54.3170   45.2088   -3.7008 H   0  0  0  0  0  0
   52.0463   46.5553   -0.3255 H   0  0  0  0  0  0
   49.2856   43.7739   -5.7638 H   0  0  0  0  0  0
   50.7378   44.4067   -5.0416 H   0  0  0  0  0  0
   50.8011   42.9241   -5.9873 H   0  0  0  0  0  0
   47.7679   38.8563    0.3002 H   0  0  0  0  0  0
   54.9413   46.1631    0.1156 H   0  0  0  0  0  0
   54.0691   48.0423   -3.6497 H   0  0  0  0  0  0
   56.0233   49.5341   -3.3511 H   0  0  0  0  0  0
   56.9072   47.6106    0.3714 H   0  0  0  0  0  0
   57.4434   49.3064   -1.3403 H   0  0  0  0  0  0
   46.6734   41.6095   -4.8981 H   0  0  0  0  0  0
  1  3  2  0  0  0
  1  6  1  0  0  0
  2  5  1  0  0  0
  2  7  1  0  0  0
  2  4  2  0  0  0
  3  4  1  0  0  0
  3  8  1  0  0  0
  4 20  1  0  0  0
  5  6  1  0  0  0
  5  9  2  0  0  0
  6 13  2  0  0  0
  7 10  1  0  0  0
  7 12  2  0  0  0
  8 14  1  0  0  0
  8 15  2  0  0  0
  9 19  1  0  0  0
  9 28  1  0  0  0
 10 43  1  0  0  0
 11 16  2  0  0  0
 11 18  1  0  0  0
 11 17  1  0  0  0
 13 21  1  0  0  0
 13 29  1  0  0  0
 14 17  2  0  0  0
 14 30  1  0  0  0
 15 16  1  0  0  0
 15 31  1  0  0  0
 16 32  1  0  0  0
 17 33  1  0  0  0
 18 23  1  0  0  0
 18 24  2  0  0  0
 19 21  2  0  0  0
 19 22  1  0  0  0
 20 34  1  0  0  0
 20 35  1  0  0  0
 20 36  1  0  0  0
 21 37  1  0  0  0
 23 26  2  0  0  0
 23 38  1  0  0  0
 24 25  1  0  0  0
 24 39  1  0  0  0
 25 27  2  0  0  0
 25 40  1  0  0  0
 26 27  1  0  0  0
 26 41  1  0  0  0
 27 42  1  0  0  0
M  END
> <s_m_entry_id>
25368

> <s_m_entry_name>
dock_pv.20

> <s_m_Source_Path>
/home/csk/Desktop/cluster/DUD-E-result/pyrd

> <s_m_Source_File>
dock_pv.maegz

> <i_m_Source_File_Index>
20

> <chembl_id>
CHEMBL288708

> <chembl_pref_name>
None

> <i_lp_mmshare_version>
53161

> <r_lp_tautomer_probability>
1

> <s_lp_Force_Field>
OPLS_2005

> <r_lp_Energy>
32.576318

> <b_lp_Chiralities_Consistent>
1

> <s_lp_Variant>
CHEMBL1966_lig759-1

> <s_i_glide_gridfile>
glide-grid_1d3g

> <i_i_glide_lignum>
830

> <i_i_glide_rotatable_bonds>
4

> <r_i_docking_score>
-11.2268324037569

> <r_i_glide_ligand_efficiency>
-0.415808607546553

> <r_i_glide_ligand_efficiency_sa>
-1.24742582126922

> <r_i_glide_ligand_efficiency_ln>
-2.61342149479696

> <r_i_glide_gscore>
-11.2268324037569

> <r_i_glide_lipo>
-6.25966605339248

> <r_i_glide_hbond>
-0.16

> <r_i_glide_metal>
0

> <r_i_glide_rewards>
-2.26350104229949

> <r_i_glide_evdw>
-37.4281768798828

> <r_i_glide_ecoul>
-7.47945737838745

> <r_i_glide_erotb>
0.449662142687308

> <r_i_glide_esite>
0

> <r_i_glide_emodel>
-68.7989117092188

> <r_i_glide_energy>
-44.9076342582703

> <r_i_glide_einternal>
4.75631237030029

> <i_i_glide_confnum>
14

> <i_i_glide_posenum>
183

> <r_i_glide_eff_state_penalty>
0

> <s_user_duplicate_titles>
CHEMBL1966_lig759,CHEMBL1966_lig102,57479

> <i_f3d_flags>
0

> <s_m_subgroup_title>
dock_pv

> <s_m_subgroupid>
dock_pv

> <b_m_subgroup_collapsed>
1

$$$$
CHEMBL1966_lig755
                    3D
 Schrodinger Suite 2021-1.
 46 49  0  0  1  0            999 V2000
   50.0900   42.0788   -1.6684 N   0  0  0  0  0  0
   48.9655   41.4434   -4.1741 C   0  0  0  0  0  0
   50.3771   42.8131   -2.7652 C   0  0  0  0  0  0
   49.8401   42.5395   -4.0366 C   0  0  0  0  0  0
   48.6143   40.6757   -3.0139 C   0  0  0  0  0  0
   49.2230   41.0491   -1.7753 C   0  0  0  0  0  0
   48.4380   41.0822   -5.5331 C   0  0  0  0  0  0
   51.3385   43.9083   -2.4990 C   0  0  0  0  0  0
   47.6611   39.6100   -2.9973 C   0  0  0  0  0  0
   47.0830   41.1457   -5.6789 O   0  0  0  0  0  0
   53.2230   45.9381   -2.0886 C   0  0  0  0  0  0
   54.2634   46.9715   -1.9196 C   0  0  0  0  0  0
   49.2127   40.8100   -6.4448 O   0  0  0  0  0  0
   48.8332   40.4100   -0.5775 C   0  0  0  0  0  0
   52.4605   44.0126   -3.3189 C   0  0  0  0  0  0
   51.1830   44.8100   -1.4348 C   0  0  0  0  0  0
   52.1228   45.8225   -1.2312 C   0  0  0  0  0  0
   53.3835   45.0248   -3.1244 C   0  0  0  0  0  0
   54.9593   47.0800   -0.7150 C   0  0  0  0  0  0
   54.6246   47.7762   -3.0064 C   0  0  0  0  0  0
   47.3014   38.9969   -1.8017 C   0  0  0  0  0  0
   50.1477   43.4440   -5.2431 C   0  0  0  0  0  0
   47.8785   39.3995   -0.6079 C   0  0  0  0  0  0
   56.0279   47.9617   -0.6134 C   0  0  0  0  0  0
   55.6800   48.6724   -2.8970 C   0  0  0  0  0  0
   56.3809   48.7624   -1.6989 C   0  0  0  0  0  0
   46.3727   38.0162   -1.7904 F   0  0  0  0  0  0
   57.5106   49.7551   -1.5635 C   0  0  0  0  0  0
   47.1864   39.2786   -3.9071 H   0  0  0  0  0  0
   49.2764   40.7115    0.3606 H   0  0  0  0  0  0
   52.6332   43.2957   -4.1088 H   0  0  0  0  0  0
   50.3283   44.7368   -0.7774 H   0  0  0  0  0  0
   51.9916   46.5168   -0.4139 H   0  0  0  0  0  0
   54.2560   45.0819   -3.7556 H   0  0  0  0  0  0
   54.7065   46.4482    0.1244 H   0  0  0  0  0  0
   54.0951   47.6949   -3.9453 H   0  0  0  0  0  0
   49.2325   43.6795   -5.7877 H   0  0  0  0  0  0
   50.5753   44.4043   -4.9748 H   0  0  0  0  0  0
   50.8230   42.9478   -5.9397 H   0  0  0  0  0  0
   47.5796   38.9092    0.3010 H   0  0  0  0  0  0
   56.5950   48.0100    0.3010 H   0  0  0  0  0  0
   55.9557   49.2874   -3.7416 H   0  0  0  0  0  0
   57.6230   50.0100   -0.5136 H   0  0  0  0  0  0
   58.4455   49.3375   -1.9365 H   0  0  0  0  0  0
   57.2930   50.6798   -2.0994 H   0  0  0  0  0  0
   46.6447   41.4959   -4.8990 H   0  0  0  0  0  0
  1  3  2  0  0  0
  1  6  1  0  0  0
  2  5  1  0  0  0
  2  7  1  0  0  0
  2  4  2  0  0  0
  3  4  1  0  0  0
  3  8  1  0  0  0
  4 22  1  0  0  0
  5  6  1  0  0  0
  5  9  2  0  0  0
  6 14  2  0  0  0
  7 10  1  0  0  0
  7 13  2  0  0  0
  8 15  2  0  0  0
  8 16  1  0  0  0
  9 21  1  0  0  0
  9 29  1  0  0  0
 10 46  1  0  0  0
 11 17  1  0  0  0
 11 12  1  0  0  0
 11 18  2  0  0  0
 12 19  1  0  0  0
 12 20  2  0  0  0
 14 23  1  0  0  0
 14 30  1  0  0  0
 15 18  1  0  0  0
 15 31  1  0  0  0
 16 17  2  0  0  0
 16 32  1  0  0  0
 17 33  1  0  0  0
 18 34  1  0  0  0
 19 24  2  0  0  0
 19 35  1  0  0  0
 20 25  1  0  0  0
 20 36  1  0  0  0
 21 23  2  0  0  0
 21 27  1  0  0  0
 22 37  1  0  0  0
 22 38  1  0  0  0
 22 39  1  0  0  0
 23 40  1  0  0  0
 24 26  1  0  0  0
 24 41  1  0  0  0
 25 26  2  0  0  0
 25 42  1  0  0  0
 26 28  1  0  0  0
 28 43  1  0  0  0
 28 44  1  0  0  0
 28 45  1  0  0  0
M  END
> <s_m_entry_id>
25370

> <s_m_entry_name>
dock_pv.22

> <s_m_Source_Path>
/home/csk/Desktop/cluster/DUD-E-result/pyrd

> <s_m_Source_File>
dock_pv.maegz

> <i_m_Source_File_Index>
22

> <chembl_id>
CHEMBL38421

> <chembl_pref_name>
None

> <i_lp_mmshare_version>
53161

> <r_lp_tautomer_probability>
1

> <s_lp_Force_Field>
OPLS_2005

> <r_lp_Energy>
32.352662

> <b_lp_Chiralities_Consistent>
1

> <s_lp_Variant>
CHEMBL1966_lig755-1

> <s_i_glide_gridfile>
glide-grid_1d3g

> <i_i_glide_lignum>
826

> <i_i_glide_rotatable_bonds>
4

> <r_i_docking_score>
-11.2020520639669

> <r_i_glide_ligand_efficiency>
-0.400073287998818

> <r_i_glide_ligand_efficiency_sa>
-1.21485813292986

> <r_i_glide_ligand_efficiency_ln>
-2.58576252290404

> <r_i_glide_gscore>
-11.2020520639669

> <r_i_glide_lipo>
-6.46881479731727

> <r_i_glide_hbond>
-0.16

> <r_i_glide_metal>
0

> <r_i_glide_rewards>
-1.95268349872654

> <r_i_glide_evdw>
-37.6730155944824

> <r_i_glide_ecoul>
-7.71139097213745

> <r_i_glide_erotb>
0.419805657621662

> <r_i_glide_esite>
0

> <r_i_glide_emodel>
-67.0298945983798

> <r_i_glide_energy>
-45.3844065666199

> <r_i_glide_einternal>
3.97470116615295

> <i_i_glide_confnum>
11

> <i_i_glide_posenum>
111

> <r_i_glide_eff_state_penalty>
0

> <s_user_duplicate_titles>
CHEMBL1966_lig755,56875

> <i_f3d_flags>
0

> <s_m_subgroup_title>
dock_pv

> <s_m_subgroupid>
dock_pv

> <b_m_subgroup_collapsed>
1

$$$$
CHEMBL1966_lig579
                    3D
 Schrodinger Suite 2021-1.
 43 46  0  0  1  0            999 V2000
   48.4380   40.4871   -2.7732 C   0  0  0  0  0  0
   48.8235   40.4101   -1.3597 C   0  0  0  0  0  0
   48.1726   39.6100   -0.4990 C   0  0  0  0  0  0
   47.1327   38.7248   -0.9794 C   0  0  0  0  0  0
   46.6957   38.7883   -2.2554 C   0  0  0  0  0  0
   47.3360   39.7040   -3.1170 N   0  0  0  0  0  0
   47.0195   40.0100   -4.4040 N   0  0  0  0  0  0
   47.9324   40.8254   -4.9397 C   0  0  0  0  0  0
   48.8229   41.2099   -3.8597 C   0  0  0  0  0  0
   49.8169   42.2783   -3.8926 C   0  0  0  0  0  0
   50.1214   42.8101   -4.9610 O   0  0  0  0  0  0
   50.3147   42.7033   -2.7125 N   0  0  0  0  0  0
   53.0186   45.8434   -1.8530 C   0  0  0  0  0  0
   53.2273   45.0350   -2.9727 C   0  0  0  0  0  0
   52.3417   44.0099   -3.2990 C   0  0  0  0  0  0
   51.2063   43.7764   -2.4987 C   0  0  0  0  0  0
   50.9817   44.5969   -1.3806 C   0  0  0  0  0  0
   51.8789   45.6251   -1.0642 C   0  0  0  0  0  0
   54.0830   46.8095   -1.4827 C   0  0  0  0  0  0
   54.8041   46.6164   -0.3021 C   0  0  0  0  0  0
   55.9306   47.3858   -0.0402 C   0  0  0  0  0  0
   56.3209   48.3783   -0.9349 C   0  0  0  0  0  0
   55.5908   48.6052   -2.0982 C   0  0  0  0  0  0
   54.4726   47.8202   -2.3716 C   0  0  0  0  0  0
   51.6564   46.3884    0.0324 F   0  0  0  0  0  0
   49.9069   44.3827   -0.5820 F   0  0  0  0  0  0
   52.6620   43.1946   -4.3302 F   0  0  0  0  0  0
   54.3590   45.1835   -3.6990 F   0  0  0  0  0  0
   47.9458   41.2100   -6.0990 O   0  0  0  0  0  0
   45.6868   39.8089   -4.9828 C   0  0  0  0  0  0
   49.6254   40.9932   -0.9395 H   0  0  0  0  0  0
   48.4660   39.5801    0.5407 H   0  0  0  0  0  0
   46.8228   37.9201   -0.3352 H   0  0  0  0  0  0
   45.9883   38.0977   -2.6876 H   0  0  0  0  0  0
   49.8522   42.3523   -1.8913 H   0  0  0  0  0  0
   54.5277   45.8310    0.3870 H   0  0  0  0  0  0
   56.5045   47.2100    0.8585 H   0  0  0  0  0  0
   57.1998   48.9718   -0.7248 H   0  0  0  0  0  0
   55.9047   49.3707   -2.7927 H   0  0  0  0  0  0
   53.9322   47.9685   -3.2961 H   0  0  0  0  0  0
   45.6960   39.7774   -6.0725 H   0  0  0  0  0  0
   45.2220   38.8861   -4.6393 H   0  0  0  0  0  0
   45.0636   40.6592   -4.7078 H   0  0  0  0  0  0
  1  2  1  0  0  0
  1  6  1  0  0  0
  1  9  2  0  0  0
  2  3  2  0  0  0
  2 31  1  0  0  0
  3  4  1  0  0  0
  3 32  1  0  0  0
  4  5  2  0  0  0
  4 33  1  0  0  0
  5  6  1  0  0  0
  5 34  1  0  0  0
  6  7  1  0  0  0
  7  8  1  0  0  0
  7 30  1  0  0  0
  8  9  1  0  0  0
  8 29  2  0  0  0
  9 10  1  0  0  0
 10 11  2  0  0  0
 10 12  1  0  0  0
 12 16  1  0  0  0
 12 35  1  0  0  0
 13 14  1  0  0  0
 13 18  2  0  0  0
 13 19  1  0  0  0
 14 15  2  0  0  0
 14 28  1  0  0  0
 15 16  1  0  0  0
 15 27  1  0  0  0
 16 17  2  0  0  0
 17 18  1  0  0  0
 17 26  1  0  0  0
 18 25  1  0  0  0
 19 20  1  0  0  0
 19 24  2  0  0  0
 20 21  2  0  0  0
 20 36  1  0  0  0
 21 22  1  0  0  0
 21 37  1  0  0  0
 22 23  2  0  0  0
 22 38  1  0  0  0
 23 24  1  0  0  0
 23 39  1  0  0  0
 24 40  1  0  0  0
 30 41  1  0  0  0
 30 42  1  0  0  0
 30 43  1  0  0  0
M  END
> <s_m_entry_id>
25371

> <s_m_entry_name>
dock_pv.23

> <s_m_Source_Path>
/home/csk/Desktop/cluster/DUD-E-result/pyrd

> <s_m_Source_File>
dock_pv.maegz

> <i_m_Source_File_Index>
23

> <chembl_id>
CHEMBL4169359

> <chembl_pref_name>
None

> <i_lp_mmshare_version>
53161

> <r_lp_tautomer_probability>
1

> <s_lp_Force_Field>
OPLS_2005

> <r_lp_Energy>
58.547686

> <b_lp_Chiralities_Consistent>
1

> <s_lp_Variant>
CHEMBL1966_lig579-1

> <s_i_glide_gridfile>
glide-grid_1d3g

> <i_i_glide_lignum>
633

> <i_i_glide_rotatable_bonds>
4

> <r_i_docking_score>
-11.1800524275247

> <r_i_glide_ligand_efficiency>
-0.372668414250825

> <r_i_glide_ligand_efficiency_sa>
-1.15796740938962

> <r_i_glide_ligand_efficiency_ln>
-2.54022972796155

> <r_i_glide_gscore>
-11.1800524275247

> <r_i_glide_lipo>
-5.51648907130888

> <r_i_glide_hbond>
-0.204217162016047

> <r_i_glide_metal>
0

> <r_i_glide_rewards>
-3.24534867488484

> <r_i_glide_evdw>
-48.7591857910156

> <r_i_glide_ecoul>
-1.55928599834442

> <r_i_glide_erotb>
0.457854669987475

> <r_i_glide_esite>
0

> <r_i_glide_emodel>
-59.2965494913119

> <r_i_glide_energy>
-50.31847178936

> <r_i_glide_einternal>
5.33307552337646

> <i_i_glide_confnum>
70

> <i_i_glide_posenum>
47

> <r_i_glide_eff_state_penalty>
0

> <s_user_duplicate_titles>
CHEMBL1966_lig579

> <i_f3d_flags>
0

> <s_m_subgroup_title>
dock_pv

> <s_m_subgroupid>
dock_pv

> <b_m_subgroup_collapsed>
1

$$$$
CHEMBL1966_lig483
                    3D
 Schrodinger Suite 2021-1.
 41 44  0  0  1  0            999 V2000
   46.8230   38.1080   -1.0596 C   0  0  0  0  0  0
   47.5662   39.2100   -1.7791 C   0  0  0  0  0  0
   47.3281   39.4326   -3.1366 C   0  0  0  0  0  0
   48.0230   40.4100   -3.8584 C   0  0  0  0  0  0
   47.7551   40.6873   -5.2990 C   0  0  0  0  0  0
   48.6748   40.8104   -6.0990 O   0  0  0  0  0  0
   46.4371   40.8100   -5.6224 O   0  0  0  0  0  0
   48.9737   41.1505   -3.1536 C   0  0  0  0  0  0
   49.7755   42.2101   -3.4959 N   0  0  0  0  0  0
   50.3632   42.6623   -2.3439 C   0  0  0  0  0  0
   50.0749   41.9236   -1.2981 N   0  0  0  0  0  0
   49.2144   40.9715   -1.7711 C   0  0  0  0  0  0
   48.4634   40.0100   -1.0672 C   0  0  0  0  0  0
   51.2285   43.8618   -2.3084 C   0  0  0  0  0  0
   52.2100   44.0101   -3.2990 C   0  0  0  0  0  0
   53.1754   45.0147   -3.1845 C   0  0  0  0  0  0
   53.1756   45.8923   -2.0961 C   0  0  0  0  0  0
   52.1477   45.7865   -1.1514 C   0  0  0  0  0  0
   51.1907   44.7756   -1.2466 C   0  0  0  0  0  0
   50.2659   44.6498   -0.2688 F   0  0  0  0  0  0
   54.2914   46.8588   -1.9221 C   0  0  0  0  0  0
   54.6595   47.7129   -2.9709 C   0  0  0  0  0  0
   55.7478   48.5764   -2.8400 C   0  0  0  0  0  0
   56.4837   48.5979   -1.6572 C   0  0  0  0  0  0
   56.1291   47.7535   -0.6079 C   0  0  0  0  0  0
   55.0390   46.8938   -0.7328 C   0  0  0  0  0  0
   54.7374   46.0729    0.3009 F   0  0  0  0  0  0
   46.8230   38.2889    0.0125 H   0  0  0  0  0  0
   45.7818   38.0639   -1.3803 H   0  0  0  0  0  0
   47.2901   37.1434   -1.2576 H   0  0  0  0  0  0
   46.5964   38.8161   -3.6400 H   0  0  0  0  0  0
   45.8827   40.8560   -4.8398 H   0  0  0  0  0  0
   49.8701   42.6647   -4.3927 H   0  0  0  0  0  0
   48.6082   39.8704   -0.0055 H   0  0  0  0  0  0
   52.2795   43.3067   -4.1166 H   0  0  0  0  0  0
   53.9625   45.0879   -3.9172 H   0  0  0  0  0  0
   52.1222   46.4523   -0.3012 H   0  0  0  0  0  0
   54.1033   47.7027   -3.8981 H   0  0  0  0  0  0
   56.0232   49.2272   -3.6574 H   0  0  0  0  0  0
   57.3319   49.2597   -1.5541 H   0  0  0  0  0  0
   56.7110   47.7536    0.3009 H   0  0  0  0  0  0
  1  2  1  0  0  0
  1 28  1  0  0  0
  1 29  1  0  0  0
  1 30  1  0  0  0
  2  3  2  0  0  0
  2 13  1  0  0  0
  3  4  1  0  0  0
  3 31  1  0  0  0
  4  5  1  0  0  0
  4  8  2  0  0  0
  5  6  2  0  0  0
  5  7  1  0  0  0
  7 32  1  0  0  0
  8  9  1  0  0  0
  8 12  1  0  0  0
  9 10  1  0  0  0
  9 33  1  0  0  0
 10 11  2  0  0  0
 10 14  1  0  0  0
 11 12  1  0  0  0
 12 13  2  0  0  0
 13 34  1  0  0  0
 14 15  2  0  0  0
 14 19  1  0  0  0
 15 16  1  0  0  0
 15 35  1  0  0  0
 16 17  2  0  0  0
 16 36  1  0  0  0
 17 18  1  0  0  0
 17 21  1  0  0  0
 18 19  2  0  0  0
 18 37  1  0  0  0
 19 20  1  0  0  0
 21 22  2  0  0  0
 21 26  1  0  0  0
 22 23  1  0  0  0
 22 38  1  0  0  0
 23 24  2  0  0  0
 23 39  1  0  0  0
 24 25  1  0  0  0
 24 40  1  0  0  0
 25 26  2  0  0  0
 25 41  1  0  0  0
 26 27  1  0  0  0
M  END
> <s_m_entry_id>
25372

> <s_m_entry_name>
dock_pv.24

> <s_m_Source_Path>
/home/csk/Desktop/cluster/DUD-E-result/pyrd

> <s_m_Source_File>
dock_pv.maegz

> <i_m_Source_File_Index>
24

> <chembl_id>
CHEMBL3677740

> <chembl_pref_name>
None

> <i_lp_mmshare_version>
53161

> <r_lp_tautomer_probability>
1

> <s_lp_Force_Field>
OPLS_2005

> <r_lp_Energy>
25.916164

> <b_lp_Chiralities_Consistent>
1

> <s_lp_Variant>
CHEMBL1966_lig483-1

> <s_i_glide_gridfile>
glide-grid_1d3g

> <i_i_glide_lignum>
533

> <i_i_glide_rotatable_bonds>
4

> <r_i_docking_score>
-11.1671290560439

> <r_i_glide_ligand_efficiency>
-0.413597372446069

> <r_i_glide_ligand_efficiency_sa>
-1.24079211597506

> <r_i_glide_ligand_efficiency_ln>
-2.59952353973597

> <r_i_glide_gscore>
-11.1671290560439

> <r_i_glide_lipo>
-5.40656348351476

> <r_i_glide_hbond>
-0.16

> <r_i_glide_metal>
0

> <r_i_glide_rewards>
-2.97081789202206

> <r_i_glide_evdw>
-43.1896705627441

> <r_i_glide_ecoul>
-6.0313892364502

> <r_i_glide_erotb>
0.434444233097681

> <r_i_glide_esite>
0

> <r_i_glide_emodel>
-74.0327145483631

> <r_i_glide_energy>
-49.2210597991943

> <r_i_glide_einternal>
4.85501909255981

> <i_i_glide_confnum>
26

> <i_i_glide_posenum>
260

> <r_i_glide_eff_state_penalty>
0

> <s_user_duplicate_titles>
CHEMBL1966_lig483

> <i_f3d_flags>
0

> <s_m_subgroup_title>
dock_pv

> <s_m_subgroupid>
dock_pv

> <b_m_subgroup_collapsed>
1

$$$$
CHEMBL1966_lig550
                    3D
 Schrodinger Suite 2021-1.
 38 41  0  0  1  0            999 V2000
   46.3221   40.8100   -5.6150 O   0  0  0  0  0  0
   47.6415   40.6854   -5.2989 C   0  0  0  0  0  0
   48.5590   40.8103   -6.0991 O   0  0  0  0  0  0
   47.9261   40.4100   -3.8635 C   0  0  0  0  0  0
   47.2227   39.4518   -3.1181 C   0  0  0  0  0  0
   47.4769   39.2396   -1.7621 C   0  0  0  0  0  0
   48.4234   40.0098   -1.0810 C   0  0  0  0  0  0
   49.1800   40.9422   -1.8134 C   0  0  0  0  0  0
   50.0799   41.8677   -1.3685 N   0  0  0  0  0  0
   50.3667   42.6000   -2.4206 C   0  0  0  0  0  0
   49.7494   42.1547   -3.5596 N   0  0  0  0  0  0
   48.9177   41.1228   -3.1900 C   0  0  0  0  0  0
   51.2234   43.8112   -2.3695 C   0  0  0  0  0  0
   51.0610   44.7081   -1.2990 C   0  0  0  0  0  0
   50.0285   44.5682   -0.4333 F   0  0  0  0  0  0
   51.9856   45.7281   -1.0795 C   0  0  0  0  0  0
   51.8323   46.5435   -0.0080 F   0  0  0  0  0  0
   53.0894   45.8772   -1.9251 C   0  0  0  0  0  0
   53.1939   45.0463   -3.0487 C   0  0  0  0  0  0
   54.2601   45.2091   -3.8587 F   0  0  0  0  0  0
   52.2634   44.0194   -3.2961 C   0  0  0  0  0  0
   52.4192   43.2086   -4.3671 F   0  0  0  0  0  0
   54.2018   46.8100   -1.5968 C   0  0  0  0  0  0
   54.8596   46.6998   -0.3654 C   0  0  0  0  0  0
   56.0028   47.4502   -0.0999 C   0  0  0  0  0  0
   56.4871   48.3440   -1.0538 C   0  0  0  0  0  0
   55.8298   48.4824   -2.2734 C   0  0  0  0  0  0
   56.3180   49.3267   -3.2094 F   0  0  0  0  0  0
   54.6879   47.7282   -2.5392 C   0  0  0  0  0  0
   45.7725   40.8623   -4.8298 H   0  0  0  0  0  0
   46.4585   38.8517   -3.5920 H   0  0  0  0  0  0
   46.9064   38.4982   -1.2207 H   0  0  0  0  0  0
   48.5822   39.8750   -0.0206 H   0  0  0  0  0  0
   49.8420   42.6024   -4.4605 H   0  0  0  0  0  0
   54.5144   45.9904    0.3739 H   0  0  0  0  0  0
   56.5205   47.3251    0.8400 H   0  0  0  0  0  0
   57.3798   48.9183   -0.8581 H   0  0  0  0  0  0
   54.2068   47.8268   -3.5014 H   0  0  0  0  0  0
  1  2  1  0  0  0
  1 30  1  0  0  0
  2  3  2  0  0  0
  2  4  1  0  0  0
  4  5  2  0  0  0
  4 12  1  0  0  0
  5  6  1  0  0  0
  5 31  1  0  0  0
  6  7  2  0  0  0
  6 32  1  0  0  0
  7  8  1  0  0  0
  7 33  1  0  0  0
  8  9  1  0  0  0
  8 12  2  0  0  0
  9 10  2  0  0  0
 10 11  1  0  0  0
 10 13  1  0  0  0
 11 12  1  0  0  0
 11 34  1  0  0  0
 13 14  2  0  0  0
 13 21  1  0  0  0
 14 15  1  0  0  0
 14 16  1  0  0  0
 16 17  1  0  0  0
 16 18  2  0  0  0
 18 19  1  0  0  0
 18 23  1  0  0  0
 19 20  1  0  0  0
 19 21  2  0  0  0
 21 22  1  0  0  0
 23 24  2  0  0  0
 23 29  1  0  0  0
 24 25  1  0  0  0
 24 35  1  0  0  0
 25 26  2  0  0  0
 25 36  1  0  0  0
 26 27  1  0  0  0
 26 37  1  0  0  0
 27 28  1  0  0  0
 27 29  2  0  0  0
 29 38  1  0  0  0
M  END
> <s_m_entry_id>
25373

> <s_m_entry_name>
dock_pv.25

> <s_m_Source_Path>
/home/csk/Desktop/cluster/DUD-E-result/pyrd

> <s_m_Source_File>
dock_pv.maegz

> <i_m_Source_File_Index>
25

> <chembl_id>
CHEMBL3677810

> <chembl_pref_name>
None

> <i_lp_mmshare_version>
53161

> <r_lp_tautomer_probability>
1

> <s_lp_Force_Field>
OPLS_2005

> <r_lp_Energy>
25.87673

> <b_lp_Chiralities_Consistent>
1

> <s_lp_Variant>
CHEMBL1966_lig550-1

> <s_i_glide_gridfile>
glide-grid_1d3g

> <i_i_glide_lignum>
604

> <i_i_glide_rotatable_bonds>
4

> <r_i_docking_score>
-11.1652031473378

> <r_i_glide_ligand_efficiency>
-0.385007005080614

> <r_i_glide_ligand_efficiency_sa>
-1.1828634983884

> <r_i_glide_ligand_efficiency_ln>
-2.55654839561725

> <r_i_glide_gscore>
-11.1652031473378

> <r_i_glide_lipo>
-5.13219628491835

> <r_i_glide_hbond>
-0.16

> <r_i_glide_metal>
0

> <r_i_glide_rewards>
-3.35257039772727

> <r_i_glide_evdw>
-41.0080528259277

> <r_i_glide_ecoul>
-5.52897596359253

> <r_i_glide_erotb>
0.360507755936473

> <r_i_glide_esite>
-0.00119518479339799

> <r_i_glide_emodel>
-63.555314823462

> <r_i_glide_energy>
-46.5370287895203

> <r_i_glide_einternal>
4.85646057128906

> <i_i_glide_confnum>
26

> <i_i_glide_posenum>
321

> <r_i_glide_eff_state_penalty>
0

> <s_user_duplicate_titles>
CHEMBL1966_lig550

> <i_f3d_flags>
0

> <s_m_subgroup_title>
dock_pv

> <s_m_subgroupid>
dock_pv

> <b_m_subgroup_collapsed>
1

$$$$
CHEMBL1966_lig609
                    3D
 Schrodinger Suite 2021-1.
 45 48  0  0  1  0            999 V2000
   47.8785   39.4009   -0.6115 C   0  0  0  0  0  0
   47.3040   38.9986   -1.8069 C   0  0  0  0  0  0
   47.6667   39.6104   -3.0029 C   0  0  0  0  0  0
   48.8343   40.4100   -0.5813 C   0  0  0  0  0  0
   49.2230   41.0525   -1.7783 C   0  0  0  0  0  0
   48.6177   40.6789   -3.0184 C   0  0  0  0  0  0
   48.9709   41.4488   -4.1777 C   0  0  0  0  0  0
   49.8461   42.5450   -4.0377 C   0  0  0  0  0  0
   50.3840   42.8164   -2.7662 C   0  0  0  0  0  0
   50.0919   42.0817   -1.6702 N   0  0  0  0  0  0
   51.3505   43.9096   -2.4991 C   0  0  0  0  0  0
   51.1958   44.8125   -1.4364 C   0  0  0  0  0  0
   52.1390   45.8224   -1.2296 C   0  0  0  0  0  0
   53.2504   45.9267   -2.0742 C   0  0  0  0  0  0
   53.4133   45.0099   -3.1059 C   0  0  0  0  0  0
   52.4781   44.0103   -3.3131 C   0  0  0  0  0  0
   48.4463   41.0892   -5.5389 C   0  0  0  0  0  0
   47.0926   41.1625   -5.6921 O   0  0  0  0  0  0
   49.2228   40.8100   -6.4470 O   0  0  0  0  0  0
   50.1541   43.4527   -5.2417 C   0  0  0  0  0  0
   54.3016   46.9496   -1.8876 C   0  0  0  0  0  0
   54.6707   47.8249   -2.9258 C   0  0  0  0  0  0
   55.6801   48.7209   -2.8075 N   0  0  0  0  0  0
   56.3735   48.7449   -1.6477 C   0  0  0  0  0  0
   56.0977   47.8893   -0.5835 C   0  0  0  0  0  0
   55.0340   46.9989   -0.6974 C   0  0  0  0  0  0
   54.0231   47.7754   -4.1108 F   0  0  0  0  0  0
   46.3737   38.0196   -1.7972 F   0  0  0  0  0  0
   57.4767   49.7690   -1.5545 C   0  0  0  0  0  0
   47.5788   38.9149    0.3008 H   0  0  0  0  0  0
   47.1940   39.2794   -3.9138 H   0  0  0  0  0  0
   49.2769   40.7111    0.3572 H   0  0  0  0  0  0
   50.3366   44.7451   -0.7841 H   0  0  0  0  0  0
   52.0056   46.5185   -0.4142 H   0  0  0  0  0  0
   54.2940   45.0568   -3.7259 H   0  0  0  0  0  0
   52.6503   43.2931   -4.1027 H   0  0  0  0  0  0
   46.6536   41.5118   -4.9121 H   0  0  0  0  0  0
   49.2366   43.6951   -5.7800 H   0  0  0  0  0  0
   50.5902   44.4097   -4.9729 H   0  0  0  0  0  0
   50.8215   42.9546   -5.9442 H   0  0  0  0  0  0
   56.7087   47.9110    0.3011 H   0  0  0  0  0  0
   54.8108   46.3217    0.1152 H   0  0  0  0  0  0
   57.6230   50.0100   -0.5054 H   0  0  0  0  0  0
   58.4083   49.3715   -1.9570 H   0  0  0  0  0  0
   57.2228   50.6884   -2.0848 H   0  0  0  0  0  0
  1  2  2  0  0  0
  1  4  1  0  0  0
  1 30  1  0  0  0
  2  3  1  0  0  0
  2 28  1  0  0  0
  3  6  2  0  0  0
  3 31  1  0  0  0
  4  5  2  0  0  0
  4 32  1  0  0  0
  5  6  1  0  0  0
  5 10  1  0  0  0
  6  7  1  0  0  0
  7  8  2  0  0  0
  7 17  1  0  0  0
  8  9  1  0  0  0
  8 20  1  0  0  0
  9 10  2  0  0  0
  9 11  1  0  0  0
 11 12  2  0  0  0
 11 16  1  0  0  0
 12 13  1  0  0  0
 12 33  1  0  0  0
 13 14  2  0  0  0
 13 34  1  0  0  0
 14 15  1  0  0  0
 14 21  1  0  0  0
 15 16  2  0  0  0
 15 35  1  0  0  0
 16 36  1  0  0  0
 17 18  1  0  0  0
 17 19  2  0  0  0
 18 37  1  0  0  0
 20 38  1  0  0  0
 20 39  1  0  0  0
 20 40  1  0  0  0
 21 22  2  0  0  0
 21 26  1  0  0  0
 22 23  1  0  0  0
 22 27  1  0  0  0
 23 24  2  0  0  0
 24 25  1  0  0  0
 24 29  1  0  0  0
 25 26  2  0  0  0
 25 41  1  0  0  0
 26 42  1  0  0  0
 29 43  1  0  0  0
 29 44  1  0  0  0
 29 45  1  0  0  0
M  END
> <s_m_entry_id>
25374

> <s_m_entry_name>
dock_pv.26

> <s_m_Source_Path>
/home/csk/Desktop/cluster/DUD-E-result/pyrd

> <s_m_Source_File>
dock_pv.maegz

> <i_m_Source_File_Index>
26

> <chembl_id>
CHEMBL4225740

> <chembl_pref_name>
None

> <i_lp_mmshare_version>
53161

> <r_lp_tautomer_probability>
1

> <s_lp_Force_Field>
OPLS_2005

> <r_lp_Energy>
34.550563

> <b_lp_Chiralities_Consistent>
1

> <s_lp_Variant>
CHEMBL1966_lig609-1

> <s_i_glide_gridfile>
glide-grid_1d3g

> <i_i_glide_lignum>
663

> <i_i_glide_rotatable_bonds>
4

> <r_i_docking_score>
-11.1577422049267

> <r_i_glide_ligand_efficiency>
-0.38474973120437

> <r_i_glide_ligand_efficiency_sa>
-1.1820730715305

> <r_i_glide_ligand_efficiency_ln>
-2.55484002899828

> <r_i_glide_gscore>
-11.1577422049267

> <r_i_glide_lipo>
-6.2270536705225

> <r_i_glide_hbond>
-0.16

> <r_i_glide_metal>
0

> <r_i_glide_rewards>
-2.09580614259941

> <r_i_glide_evdw>
-38.2386817932129

> <r_i_glide_ecoul>
-7.64591836929321

> <r_i_glide_erotb>
0.383939453249814

> <r_i_glide_esite>
0

> <r_i_glide_emodel>
-70.2583047113067

> <r_i_glide_energy>
-45.8846001625061

> <r_i_glide_einternal>
2.55725193023682

> <i_i_glide_confnum>
42

> <i_i_glide_posenum>
158

> <r_i_glide_eff_state_penalty>
0

> <s_user_duplicate_titles>
CHEMBL1966_lig609

> <i_f3d_flags>
0

> <s_m_subgroup_title>
dock_pv

> <s_m_subgroupid>
dock_pv

> <b_m_subgroup_collapsed>
1

$$$$
CHEMBL1966_lig611
                    3D
 Schrodinger Suite 2021-1.
 42 45  0  0  1  0            999 V2000
   48.0058   39.4697   -0.6052 C   0  0  0  0  0  0
   47.3339   39.1556   -1.7739 C   0  0  0  0  0  0
   47.6802   39.7690   -2.9732 C   0  0  0  0  0  0
   49.0058   40.4292   -0.5929 C   0  0  0  0  0  0
   49.3202   41.1376   -1.7787 C   0  0  0  0  0  0
   48.6704   40.8022   -3.0046 C   0  0  0  0  0  0
   49.0267   41.5588   -4.1694 C   0  0  0  0  0  0
   49.9344   42.6329   -4.0464 C   0  0  0  0  0  0
   50.4835   42.9079   -2.7771 C   0  0  0  0  0  0
   50.2017   42.1616   -1.6823 N   0  0  0  0  0  0
   51.4499   44.0095   -2.5010 C   0  0  0  0  0  0
   51.2750   44.9095   -1.4359 C   0  0  0  0  0  0
   52.2134   45.9215   -1.2058 C   0  0  0  0  0  0
   53.3448   46.0351   -2.0248 C   0  0  0  0  0  0
   53.5163   45.1358   -3.0723 C   0  0  0  0  0  0
   52.5885   44.1312   -3.2990 C   0  0  0  0  0  0
   48.4745   41.1787   -5.5169 C   0  0  0  0  0  0
   47.1219   41.2842   -5.6609 O   0  0  0  0  0  0
   49.2227   40.8118   -6.4148 O   0  0  0  0  0  0
   50.2584   43.5021   -5.2724 C   0  0  0  0  0  0
   54.4024   47.0564   -1.8125 C   0  0  0  0  0  0
   55.1683   47.1286   -0.6348 C   0  0  0  0  0  0
   56.2128   47.9849   -0.4984 N   0  0  0  0  0  0
   56.5246   48.8075   -1.5269 C   0  0  0  0  0  0
   55.8168   48.8067   -2.7246 C   0  0  0  0  0  0
   54.7444   47.9256   -2.8600 C   0  0  0  0  0  0
   54.8600   46.0710    0.6985 Cl  0  0  0  0  0  0
   46.0316   38.0319   -1.7082 Cl  0  0  0  0  0  0
   47.7414   38.9558    0.3001 H   0  0  0  0  0  0
   47.1498   39.4845   -3.8683 H   0  0  0  0  0  0
   49.5111   40.6775    0.3294 H   0  0  0  0  0  0
   50.4077   44.8342   -0.7955 H   0  0  0  0  0  0
   52.0661   46.6077   -0.3842 H   0  0  0  0  0  0
   54.3944   45.1946   -3.6984 H   0  0  0  0  0  0
   52.7717   43.4272   -4.0990 H   0  0  0  0  0  0
   46.6997   41.7119   -4.9112 H   0  0  0  0  0  0
   49.3368   43.8219   -5.7599 H   0  0  0  0  0  0
   50.8088   44.4095   -5.0532 H   0  0  0  0  0  0
   50.8244   42.9336   -6.0096 H   0  0  0  0  0  0
   57.3660   49.4687   -1.3740 H   0  0  0  0  0  0
   56.0921   49.4717   -3.5304 H   0  0  0  0  0  0
   54.1929   47.9005   -3.7898 H   0  0  0  0  0  0
  1  2  2  0  0  0
  1  4  1  0  0  0
  1 29  1  0  0  0
  2  3  1  0  0  0
  2 28  1  0  0  0
  3  6  2  0  0  0
  3 30  1  0  0  0
  4  5  2  0  0  0
  4 31  1  0  0  0
  5  6  1  0  0  0
  5 10  1  0  0  0
  6  7  1  0  0  0
  7  8  2  0  0  0
  7 17  1  0  0  0
  8  9  1  0  0  0
  8 20  1  0  0  0
  9 10  2  0  0  0
  9 11  1  0  0  0
 11 12  2  0  0  0
 11 16  1  0  0  0
 12 13  1  0  0  0
 12 32  1  0  0  0
 13 14  2  0  0  0
 13 33  1  0  0  0
 14 15  1  0  0  0
 14 21  1  0  0  0
 15 16  2  0  0  0
 15 34  1  0  0  0
 16 35  1  0  0  0
 17 18  1  0  0  0
 17 19  2  0  0  0
 18 36  1  0  0  0
 20 37  1  0  0  0
 20 38  1  0  0  0
 20 39  1  0  0  0
 21 22  2  0  0  0
 21 26  1  0  0  0
 22 23  1  0  0  0
 22 27  1  0  0  0
 23 24  2  0  0  0
 24 25  1  0  0  0
 24 40  1  0  0  0
 25 26  2  0  0  0
 25 41  1  0  0  0
 26 42  1  0  0  0
M  END
> <s_m_entry_id>
25375

> <s_m_entry_name>
dock_pv.27

> <s_m_Source_Path>
/home/csk/Desktop/cluster/DUD-E-result/pyrd

> <s_m_Source_File>
dock_pv.maegz

> <i_m_Source_File_Index>
27

> <chembl_id>
CHEMBL4224944

> <chembl_pref_name>
None

> <i_lp_mmshare_version>
53161

> <r_lp_tautomer_probability>
1

> <s_lp_Force_Field>
OPLS_2005

> <r_lp_Energy>
35.255204

> <b_lp_Chiralities_Consistent>
1

> <s_lp_Variant>
CHEMBL1966_lig611-1

> <s_i_glide_gridfile>
glide-grid_1d3g

> <i_i_glide_lignum>
665

> <i_i_glide_rotatable_bonds>
4

> <r_i_docking_score>
-11.127344816256

> <r_i_glide_ligand_efficiency>
-0.397405172009142

> <r_i_glide_ligand_efficiency_sa>
-1.20675616134893

> <r_i_glide_ligand_efficiency_ln>
-2.56851789663225

> <r_i_glide_gscore>
-11.127344816256

> <r_i_glide_lipo>
-6.58386577037313

> <r_i_glide_hbond>
-0.16

> <r_i_glide_metal>
0

> <r_i_glide_rewards>
-1.57767531897262

> <r_i_glide_evdw>
-40.8544082641602

> <r_i_glide_ecoul>
-7.43820381164551

> <r_i_glide_erotb>
0.352647258044611

> <r_i_glide_esite>
0

> <r_i_glide_emodel>
-74.5483078101653

> <r_i_glide_energy>
-48.2926120758057

> <r_i_glide_einternal>
1.64566707611084

> <i_i_glide_confnum>
12

> <i_i_glide_posenum>
17

> <r_i_glide_eff_state_penalty>
0

> <s_user_duplicate_titles>
CHEMBL1966_lig611

> <i_f3d_flags>
0

> <s_m_subgroup_title>
dock_pv

> <s_m_subgroupid>
dock_pv

> <b_m_subgroup_collapsed>
1

$$$$
CHEMBL1966_lig98
                    3D
 Schrodinger Suite 2021-1.
 41 44  0  0  1  0            999 V2000
   48.8488   41.3135   -4.1151 C   0  0  0  0  0  0
   49.7203   42.4008   -3.9279 C   0  0  0  0  0  0
   50.0237   41.8291   -1.6046 N   0  0  0  0  0  0
   48.4812   40.5172   -2.9730 C   0  0  0  0  0  0
   50.2940   42.6217   -2.6736 C   0  0  0  0  0  0
   49.1300   40.8102   -1.7312 C   0  0  0  0  0  0
   48.2812   41.0628   -5.4853 C   0  0  0  0  0  0
   51.2224   43.7635   -2.4184 C   0  0  0  0  0  0
   47.4685   39.5103   -2.9688 C   0  0  0  0  0  0
   53.0836   45.8170   -1.9064 C   0  0  0  0  0  0
   47.0997   40.8095   -5.7002 O   0  0  0  0  0  0
   48.7400   40.1365   -0.5475 C   0  0  0  0  0  0
   52.2852   44.0098   -3.2995 C   0  0  0  0  0  0
   51.0744   44.5966   -1.2996 C   0  0  0  0  0  0
   51.9999   45.6107   -1.0439 C   0  0  0  0  0  0
   53.2025   45.0238   -3.0468 C   0  0  0  0  0  0
   49.9719   43.2905   -4.9528 O   0  0  0  0  0  0
   54.1562   46.7956   -1.6017 C   0  0  0  0  0  0
   47.0802   38.8897   -1.7874 C   0  0  0  0  0  0
   49.2230   41.1637   -6.4672 O   0  0  0  0  0  0
   47.7122   39.1996   -0.5949 C   0  0  0  0  0  0
   46.0528   38.0112   -1.7838 F   0  0  0  0  0  0
   54.7743   46.7840   -0.3476 C   0  0  0  0  0  0
   54.6239   47.6727   -2.5892 C   0  0  0  0  0  0
   55.8720   47.6002   -0.1007 C   0  0  0  0  0  0
   55.7094   48.5078   -2.3346 C   0  0  0  0  0  0
   56.3374   48.4592   -1.0930 C   0  0  0  0  0  0
   46.9420   39.2499   -3.8716 H   0  0  0  0  0  0
   49.2214   40.3755    0.3907 H   0  0  0  0  0  0
   52.4340   43.3783   -4.1632 H   0  0  0  0  0  0
   50.2556   44.4441   -0.6114 H   0  0  0  0  0  0
   51.8853   46.2201   -0.1590 H   0  0  0  0  0  0
   54.0436   45.1544   -3.7096 H   0  0  0  0  0  0
   49.1649   43.6987   -5.2929 H   0  0  0  0  0  0
   50.0226   41.5664   -6.1144 H   0  0  0  0  0  0
   47.3973   38.6950    0.3009 H   0  0  0  0  0  0
   54.4397   46.1036    0.4222 H   0  0  0  0  0  0
   54.1572   47.6952   -3.5639 H   0  0  0  0  0  0
   56.3713   47.5494    0.8538 H   0  0  0  0  0  0
   56.0730   49.1780   -3.1004 H   0  0  0  0  0  0
   57.1942   49.0885   -0.8969 H   0  0  0  0  0  0
  1  2  2  0  0  0
  1  4  1  0  0  0
  1  7  1  0  0  0
  2  5  1  0  0  0
  2 17  1  0  0  0
  3  6  1  0  0  0
  3  5  2  0  0  0
  4  6  1  0  0  0
  4  9  2  0  0  0
  5  8  1  0  0  0
  6 12  2  0  0  0
  7 11  2  0  0  0
  7 20  1  0  0  0
  8 13  2  0  0  0
  8 14  1  0  0  0
  9 19  1  0  0  0
  9 28  1  0  0  0
 10 15  1  0  0  0
 10 18  1  0  0  0
 10 16  2  0  0  0
 12 21  1  0  0  0
 12 29  1  0  0  0
 13 16  1  0  0  0
 13 30  1  0  0  0
 14 15  2  0  0  0
 14 31  1  0  0  0
 15 32  1  0  0  0
 16 33  1  0  0  0
 17 34  1  0  0  0
 18 23  1  0  0  0
 18 24  2  0  0  0
 19 21  2  0  0  0
 19 22  1  0  0  0
 20 35  1  0  0  0
 21 36  1  0  0  0
 23 25  2  0  0  0
 23 37  1  0  0  0
 24 26  1  0  0  0
 24 38  1  0  0  0
 25 27  1  0  0  0
 25 39  1  0  0  0
 26 27  2  0  0  0
 26 40  1  0  0  0
 27 41  1  0  0  0
M  END
> <s_m_entry_id>
25376

> <s_m_entry_name>
dock_pv.28

> <s_m_Source_Path>
/home/csk/Desktop/cluster/DUD-E-result/pyrd

> <s_m_Source_File>
dock_pv.maegz

> <i_m_Source_File_Index>
28

> <chembl_id>
CHEMBL41719

> <chembl_pref_name>
None

> <i_lp_mmshare_version>
53161

> <r_lp_tautomer_probability>
1

> <s_lp_Force_Field>
OPLS_2005

> <r_lp_Energy>
33.199265

> <b_lp_Chiralities_Consistent>
1

> <s_lp_Variant>
CHEMBL1966_lig98-1

> <s_i_glide_gridfile>
glide-grid_1d3g

> <i_i_glide_lignum>
107

> <i_i_glide_rotatable_bonds>
5

> <r_i_docking_score>
-11.1209523782289

> <r_i_glide_ligand_efficiency>
-0.411887125119589

> <r_i_glide_ligand_efficiency_sa>
-1.23566137400125

> <r_i_glide_ligand_efficiency_ln>
-2.58877437042268

> <r_i_glide_gscore>
-11.1209523782289

> <r_i_glide_lipo>
-6.17320684322507

> <r_i_glide_hbond>
-0.114602466489626

> <r_i_glide_metal>
0

> <r_i_glide_rewards>
-2.22139883307914

> <r_i_glide_evdw>
-40.0087471008301

> <r_i_glide_ecoul>
-7.04386520385742

> <r_i_glide_erotb>
0.445272900185051

> <r_i_glide_esite>
0

> <r_i_glide_emodel>
-72.1827620678262

> <r_i_glide_energy>
-47.0526123046875

> <r_i_glide_einternal>
3.55676960945129

> <i_i_glide_confnum>
33

> <i_i_glide_posenum>
42

> <r_i_glide_eff_state_penalty>
0

> <s_user_duplicate_titles>
CHEMBL1966_lig98,57598

> <i_f3d_flags>
0

> <s_m_subgroup_title>
dock_pv

> <s_m_subgroupid>
dock_pv

> <b_m_subgroup_collapsed>
1

$$$$
CHEMBL1966_lig578
                    3D
 Schrodinger Suite 2021-1.
 43 46  0  0  1  0            999 V2000
   48.2381   40.4818   -3.3375 C   0  0  0  0  0  0
   48.0228   39.6414   -2.2392 C   0  0  0  0  0  0
   46.9407   38.7755   -2.2509 C   0  0  0  0  0  0
   46.0237   38.8092   -3.2990 C   0  0  0  0  0  0
   46.2283   39.6258   -4.3998 C   0  0  0  0  0  0
   47.3503   40.4054   -4.4204 N   0  0  0  0  0  0
   47.7116   41.2085   -5.4347 N   0  0  0  0  0  0
   48.7190   41.9070   -4.9616 C   0  0  0  0  0  0
   49.1078   41.5383   -3.6514 C   0  0  0  0  0  0
   50.0229   42.1862   -2.7693 C   0  0  0  0  0  0
   50.0989   41.8943   -1.5760 O   0  0  0  0  0  0
   50.7007   43.1564   -3.3696 N   0  0  0  0  0  0
   53.5088   45.9026   -1.9964 C   0  0  0  0  0  0
   52.2982   45.7736   -1.2974 C   0  0  0  0  0  0
   51.3512   44.8238   -1.6921 C   0  0  0  0  0  0
   51.6229   44.0099   -2.8006 C   0  0  0  0  0  0
   52.8323   44.0990   -3.4675 C   0  0  0  0  0  0
   53.7757   45.0433   -3.0682 C   0  0  0  0  0  0
   54.5312   46.8948   -1.6084 C   0  0  0  0  0  0
   54.8645   47.9333   -2.4844 C   0  0  0  0  0  0
   55.8961   48.8102   -2.1672 C   0  0  0  0  0  0
   56.5961   48.6395   -0.9776 C   0  0  0  0  0  0
   56.2662   47.6097   -0.0995 C   0  0  0  0  0  0
   55.2228   46.7470   -0.4054 C   0  0  0  0  0  0
   54.9726   45.0983   -3.6991 F   0  0  0  0  0  0
   53.1073   43.2100   -4.4558 F   0  0  0  0  0  0
   50.1648   44.7532   -1.0416 F   0  0  0  0  0  0
   52.0322   46.5793   -0.2411 F   0  0  0  0  0  0
   46.8149   37.7669   -1.1362 C   0  0  0  0  0  0
   49.2230   42.9392   -5.6990 O   0  0  0  0  0  0
   48.6914   39.6771   -1.3933 H   0  0  0  0  0  0
   45.2231   38.1027   -3.3256 H   0  0  0  0  0  0
   45.5831   39.6519   -5.2658 H   0  0  0  0  0  0
   50.5855   43.2117   -4.3729 H   0  0  0  0  0  0
   54.3367   48.0476   -3.4208 H   0  0  0  0  0  0
   56.1601   49.6100   -2.8440 H   0  0  0  0  0  0
   57.4059   49.3122   -0.7375 H   0  0  0  0  0  0
   56.8247   47.4773    0.8145 H   0  0  0  0  0  0
   54.9801   45.9409    0.2728 H   0  0  0  0  0  0
   45.9050   37.1791   -1.2537 H   0  0  0  0  0  0
   46.8228   38.2706   -0.1683 H   0  0  0  0  0  0
   47.6701   37.0897   -1.1494 H   0  0  0  0  0  0
   48.6213   43.6930   -5.6195 H   0  0  0  0  0  0
  1  2  1  0  0  0
  1  6  1  0  0  0
  1  9  2  0  0  0
  2  3  2  0  0  0
  2 31  1  0  0  0
  3  4  1  0  0  0
  3 29  1  0  0  0
  4  5  2  0  0  0
  4 32  1  0  0  0
  5  6  1  0  0  0
  5 33  1  0  0  0
  6  7  1  0  0  0
  7  8  2  0  0  0
  8  9  1  0  0  0
  8 30  1  0  0  0
  9 10  1  0  0  0
 10 11  2  0  0  0
 10 12  1  0  0  0
 12 16  1  0  0  0
 12 34  1  0  0  0
 13 14  1  0  0  0
 13 18  2  0  0  0
 13 19  1  0  0  0
 14 15  2  0  0  0
 14 28  1  0  0  0
 15 16  1  0  0  0
 15 27  1  0  0  0
 16 17  2  0  0  0
 17 18  1  0  0  0
 17 26  1  0  0  0
 18 25  1  0  0  0
 19 20  1  0  0  0
 19 24  2  0  0  0
 20 21  2  0  0  0
 20 35  1  0  0  0
 21 22  1  0  0  0
 21 36  1  0  0  0
 22 23  2  0  0  0
 22 37  1  0  0  0
 23 24  1  0  0  0
 23 38  1  0  0  0
 24 39  1  0  0  0
 29 40  1  0  0  0
 29 41  1  0  0  0
 29 42  1  0  0  0
 30 43  1  0  0  0
M  END
> <s_m_entry_id>
25377

> <s_m_entry_name>
dock_pv.29

> <s_m_Source_Path>
/home/csk/Desktop/cluster/DUD-E-result/pyrd

> <s_m_Source_File>
dock_pv.maegz

> <i_m_Source_File_Index>
29

> <chembl_id>
CHEMBL4177202

> <chembl_pref_name>
None

> <i_lp_mmshare_version>
53161

> <r_lp_tautomer_probability>
1

> <s_lp_Force_Field>
OPLS_2005

> <r_lp_Energy>
28.564029

> <b_lp_Chiralities_Consistent>
1

> <s_lp_Variant>
CHEMBL1966_lig578-1

> <s_i_glide_gridfile>
glide-grid_1d3g

> <i_i_glide_lignum>
632

> <i_i_glide_rotatable_bonds>
5

> <r_i_docking_score>
-11.1144323316423

> <r_i_glide_ligand_efficiency>
-0.370481077721411

> <r_i_glide_ligand_efficiency_sa>
-1.15117084623167

> <r_i_glide_ligand_efficiency_ln>
-2.52532012718886

> <r_i_glide_gscore>
-11.1144323316423

> <r_i_glide_lipo>
-5.33251770569372

> <r_i_glide_hbond>
-0.32

> <r_i_glide_metal>
0

> <r_i_glide_rewards>
-3.18281042767879

> <r_i_glide_evdw>
-36.9330978393555

> <r_i_glide_ecoul>
-5.85762739181519

> <r_i_glide_erotb>
0.457854669987475

> <r_i_glide_esite>
-0.0116598675172667

> <r_i_glide_emodel>
-41.9178342260241

> <r_i_glide_energy>
-42.7907252311707

> <r_i_glide_einternal>
6.14564180374146

> <i_i_glide_confnum>
46

> <i_i_glide_posenum>
149

> <r_i_glide_eff_state_penalty>
0

> <s_user_duplicate_titles>
CHEMBL1966_lig578

> <i_f3d_flags>
0

> <s_m_subgroup_title>
dock_pv

> <s_m_subgroupid>
dock_pv

> <b_m_subgroup_collapsed>
1

$$$$
CHEMBL1966_lig775
                    3D
 Schrodinger Suite 2021-1.
 42 45  0  0  1  0            999 V2000
   50.0799   42.1418   -1.6795 N   0  0  0  0  0  0
   50.4068   42.8709   -2.7770 C   0  0  0  0  0  0
   49.8875   42.5872   -4.0576 C   0  0  0  0  0  0
   49.0119   41.4906   -4.2042 C   0  0  0  0  0  0
   48.6603   40.7158   -3.0536 C   0  0  0  0  0  0
   49.2238   41.0966   -1.8007 C   0  0  0  0  0  0
   48.4682   41.1266   -5.5563 C   0  0  0  0  0  0
   51.3744   43.9749   -2.4991 C   0  0  0  0  0  0
   54.3534   46.9874   -1.7809 C   0  0  0  0  0  0
   53.2775   45.9956   -2.0171 C   0  0  0  0  0  0
   49.2227   40.8100   -6.4693 O   0  0  0  0  0  0
   55.1512   46.9163   -0.6321 C   0  0  0  0  0  0
   47.3658   38.9594   -1.9074 N   0  0  0  0  0  0
   52.5096   44.1016   -3.2997 C   0  0  0  0  0  0
   51.2185   44.8598   -1.4185 C   0  0  0  0  0  0
   52.1608   45.8664   -1.1824 C   0  0  0  0  0  0
   53.4368   45.1086   -3.0758 C   0  0  0  0  0  0
   48.8232   40.4100   -0.6254 C   0  0  0  0  0  0
   47.7544   39.6115   -3.0253 C   0  0  0  0  0  0
   47.1128   41.2098   -5.6836 O   0  0  0  0  0  0
   54.8842   46.0114    0.3379 F   0  0  0  0  0  0
   50.2103   43.4738   -5.2726 C   0  0  0  0  0  0
   47.8933   39.3758   -0.7340 C   0  0  0  0  0  0
   54.6732   47.9320   -2.7673 C   0  0  0  0  0  0
   56.2631   47.7440   -0.4972 C   0  0  0  0  0  0
   55.7755   48.7756   -2.6158 C   0  0  0  0  0  0
   56.5757   48.6787   -1.4800 C   0  0  0  0  0  0
   52.6908   43.3984   -4.0998 H   0  0  0  0  0  0
   50.3606   44.7761   -0.7666 H   0  0  0  0  0  0
   52.0312   46.5339   -0.3426 H   0  0  0  0  0  0
   54.3158   45.1707   -3.6998 H   0  0  0  0  0  0
   49.2291   40.6942    0.3340 H   0  0  0  0  0  0
   47.3078   39.2466   -3.9375 H   0  0  0  0  0  0
   46.6902   41.5797   -4.9033 H   0  0  0  0  0  0
   49.2904   43.7545   -5.7870 H   0  0  0  0  0  0
   50.7086   44.4053   -5.0313 H   0  0  0  0  0  0
   50.8239   42.9345   -5.9933 H   0  0  0  0  0  0
   47.5699   38.8381    0.1437 H   0  0  0  0  0  0
   54.0797   47.9932   -3.6695 H   0  0  0  0  0  0
   56.8881   47.6469    0.3784 H   0  0  0  0  0  0
   56.0232   49.4921   -3.3858 H   0  0  0  0  0  0
   57.4401   49.3167   -1.3629 H   0  0  0  0  0  0
  1  2  2  0  0  0
  1  6  1  0  0  0
  2  3  1  0  0  0
  2  8  1  0  0  0
  3 22  1  0  0  0
  3  4  2  0  0  0
  4  5  1  0  0  0
  4  7  1  0  0  0
  5  6  2  0  0  0
  5 19  1  0  0  0
  6 18  1  0  0  0
  7 11  2  0  0  0
  7 20  1  0  0  0
  8 14  2  0  0  0
  8 15  1  0  0  0
  9 10  1  0  0  0
  9 12  1  0  0  0
  9 24  2  0  0  0
 10 16  1  0  0  0
 10 17  2  0  0  0
 12 21  1  0  0  0
 12 25  2  0  0  0
 13 23  1  0  0  0
 13 19  2  0  0  0
 14 17  1  0  0  0
 14 28  1  0  0  0
 15 16  2  0  0  0
 15 29  1  0  0  0
 16 30  1  0  0  0
 17 31  1  0  0  0
 18 23  2  0  0  0
 18 32  1  0  0  0
 19 33  1  0  0  0
 20 34  1  0  0  0
 22 35  1  0  0  0
 22 36  1  0  0  0
 22 37  1  0  0  0
 23 38  1  0  0  0
 24 26  1  0  0  0
 24 39  1  0  0  0
 25 27  1  0  0  0
 25 40  1  0  0  0
 26 27  2  0  0  0
 26 41  1  0  0  0
 27 42  1  0  0  0
M  END
> <s_m_entry_id>
25378

> <s_m_entry_name>
dock_pv.30

> <s_m_Source_Path>
/home/csk/Desktop/cluster/DUD-E-result/pyrd

> <s_m_Source_File>
dock_pv.maegz

> <i_m_Source_File_Index>
30

> <chembl_id>
CHEMBL39325

> <chembl_pref_name>
None

> <i_lp_mmshare_version>
53161

> <r_lp_tautomer_probability>
1

> <s_lp_Force_Field>
OPLS_2005

> <r_lp_Energy>
23.579717

> <b_lp_Chiralities_Consistent>
1

> <s_lp_Variant>
CHEMBL1966_lig775-1

> <s_i_glide_gridfile>
glide-grid_1d3g

> <i_i_glide_lignum>
846

> <i_i_glide_rotatable_bonds>
4

> <r_i_docking_score>
-11.107758105441

> <r_i_glide_ligand_efficiency>
-0.411398448349665

> <r_i_glide_ligand_efficiency_sa>
-1.23419534369309

> <r_i_glide_ligand_efficiency_ln>
-2.58570296124224

> <r_i_glide_gscore>
-11.107758105441

> <r_i_glide_lipo>
-5.93609303146186

> <r_i_glide_hbond>
-0.16

> <r_i_glide_metal>
0

> <r_i_glide_rewards>
-2.39184757607278

> <r_i_glide_evdw>
-38.5301971435547

> <r_i_glide_ecoul>
-7.60508918762207

> <r_i_glide_erotb>
0.447455737414731

> <r_i_glide_esite>
0

> <r_i_glide_emodel>
-72.4537126119149

> <r_i_glide_energy>
-46.1352863311768

> <r_i_glide_einternal>
2.44551920890808

> <i_i_glide_confnum>
20

> <i_i_glide_posenum>
144

> <r_i_glide_eff_state_penalty>
0

> <s_user_duplicate_titles>
CHEMBL1966_lig775,55879

> <i_f3d_flags>
0

> <s_m_subgroup_title>
dock_pv

> <s_m_subgroupid>
dock_pv

> <b_m_subgroup_collapsed>
1

$$$$
CHEMBL1966_lig607
                    3D
 Schrodinger Suite 2021-1.
 42 45  0  0  1  0            999 V2000
   48.0230   39.5261   -0.6085 C   0  0  0  0  0  0
   47.3727   39.1761   -1.7783 C   0  0  0  0  0  0
   47.7270   39.7708   -2.9841 C   0  0  0  0  0  0
   49.0299   40.4819   -0.6053 C   0  0  0  0  0  0
   49.3577   41.1656   -1.8024 C   0  0  0  0  0  0
   48.7116   40.8092   -3.0250 C   0  0  0  0  0  0
   49.0617   41.5577   -4.1972 C   0  0  0  0  0  0
   49.9734   42.6303   -4.0885 C   0  0  0  0  0  0
   50.5356   42.9116   -2.8263 C   0  0  0  0  0  0
   50.2482   42.1827   -1.7212 N   0  0  0  0  0  0
   51.5113   44.0100   -2.5638 C   0  0  0  0  0  0
   51.3404   44.9164   -1.5054 C   0  0  0  0  0  0
   52.2762   45.9317   -1.2867 C   0  0  0  0  0  0
   53.4039   46.0437   -2.1064 C   0  0  0  0  0  0
   53.5746   45.1390   -3.1488 C   0  0  0  0  0  0
   52.6472   44.1289   -3.3665 C   0  0  0  0  0  0
   48.4898   41.1752   -5.5362 C   0  0  0  0  0  0
   47.1343   41.2739   -5.6547 O   0  0  0  0  0  0
   49.2228   40.8106   -6.4478 O   0  0  0  0  0  0
   50.2870   43.4939   -5.3204 C   0  0  0  0  0  0
   54.4558   47.0666   -1.8850 C   0  0  0  0  0  0
   55.1632   47.1512   -0.6758 C   0  0  0  0  0  0
   56.1992   48.0099   -0.4985 N   0  0  0  0  0  0
   56.5575   48.8226   -1.5202 C   0  0  0  0  0  0
   55.9052   48.8099   -2.7498 C   0  0  0  0  0  0
   54.8426   47.9234   -2.9268 C   0  0  0  0  0  0
   54.8434   46.3248    0.3483 F   0  0  0  0  0  0
   46.0929   38.0256   -1.7063 Cl  0  0  0  0  0  0
   47.7468   39.0279    0.3010 H   0  0  0  0  0  0
   47.2084   39.4643   -3.8790 H   0  0  0  0  0  0
   49.5276   40.7465    0.3169 H   0  0  0  0  0  0
   50.4758   44.8455   -0.8609 H   0  0  0  0  0  0
   52.1309   46.6205   -0.4672 H   0  0  0  0  0  0
   54.4547   45.2030   -3.7709 H   0  0  0  0  0  0
   52.8266   43.4156   -4.1574 H   0  0  0  0  0  0
   46.7228   41.7026   -4.8997 H   0  0  0  0  0  0
   49.3623   43.8029   -5.8094 H   0  0  0  0  0  0
   50.8228   44.4089   -5.1004 H   0  0  0  0  0  0
   50.8611   42.9297   -6.0543 H   0  0  0  0  0  0
   57.3903   49.4869   -1.3359 H   0  0  0  0  0  0
   56.2166   49.4684   -3.5478 H   0  0  0  0  0  0
   54.3319   47.8882   -3.8791 H   0  0  0  0  0  0
  1  2  2  0  0  0
  1  4  1  0  0  0
  1 29  1  0  0  0
  2  3  1  0  0  0
  2 28  1  0  0  0
  3  6  2  0  0  0
  3 30  1  0  0  0
  4  5  2  0  0  0
  4 31  1  0  0  0
  5  6  1  0  0  0
  5 10  1  0  0  0
  6  7  1  0  0  0
  7  8  2  0  0  0
  7 17  1  0  0  0
  8  9  1  0  0  0
  8 20  1  0  0  0
  9 10  2  0  0  0
  9 11  1  0  0  0
 11 12  2  0  0  0
 11 16  1  0  0  0
 12 13  1  0  0  0
 12 32  1  0  0  0
 13 14  2  0  0  0
 13 33  1  0  0  0
 14 15  1  0  0  0
 14 21  1  0  0  0
 15 16  2  0  0  0
 15 34  1  0  0  0
 16 35  1  0  0  0
 17 18  1  0  0  0
 17 19  2  0  0  0
 18 36  1  0  0  0
 20 37  1  0  0  0
 20 38  1  0  0  0
 20 39  1  0  0  0
 21 22  2  0  0  0
 21 26  1  0  0  0
 22 23  1  0  0  0
 22 27  1  0  0  0
 23 24  2  0  0  0
 24 25  1  0  0  0
 24 40  1  0  0  0
 25 26  2  0  0  0
 25 41  1  0  0  0
 26 42  1  0  0  0
M  END
> <s_m_entry_id>
25379

> <s_m_entry_name>
dock_pv.31

> <s_m_Source_Path>
/home/csk/Desktop/cluster/DUD-E-result/pyrd

> <s_m_Source_File>
dock_pv.maegz

> <i_m_Source_File_Index>
31

> <chembl_id>
CHEMBL4224790

> <chembl_pref_name>
None

> <i_lp_mmshare_version>
53161

> <r_lp_tautomer_probability>
1

> <s_lp_Force_Field>
OPLS_2005

> <r_lp_Energy>
34.686666

> <b_lp_Chiralities_Consistent>
1

> <s_lp_Variant>
CHEMBL1966_lig607-1

> <s_i_glide_gridfile>
glide-grid_1d3g

> <i_i_glide_lignum>
661

> <i_i_glide_rotatable_bonds>
4

> <r_i_docking_score>
-11.105747085647

> <r_i_glide_ligand_efficiency>
-0.396633824487393

> <r_i_glide_ligand_efficiency_sa>
-1.2044138959735

> <r_i_glide_ligand_efficiency_ln>
-2.56353250627078

> <r_i_glide_gscore>
-11.105747085647

> <r_i_glide_lipo>
-6.21643492220422

> <r_i_glide_hbond>
-0.16

> <r_i_glide_metal>
0

> <r_i_glide_rewards>
-2.09441579036886

> <r_i_glide_evdw>
-38.1354751586914

> <r_i_glide_ecoul>
-7.3853964805603

> <r_i_glide_erotb>
0.379686856944701

> <r_i_glide_esite>
0

> <r_i_glide_emodel>
-70.2944403220629

> <r_i_glide_energy>
-45.5208716392517

> <r_i_glide_einternal>
1.78798723220825

> <i_i_glide_confnum>
14

> <i_i_glide_posenum>
301

> <r_i_glide_eff_state_penalty>
0

> <s_user_duplicate_titles>
CHEMBL1966_lig607

> <i_f3d_flags>
0

> <s_m_subgroup_title>
dock_pv

> <s_m_subgroupid>
dock_pv

> <b_m_subgroup_collapsed>
1

$$$$
CHEMBL1966_lig489
                    3D
 Schrodinger Suite 2021-1.
 41 44  0  0  1  0            999 V2000
   46.8677   38.4459   -0.9152 C   0  0  0  0  0  0
   47.6738   39.4671   -1.6946 C   0  0  0  0  0  0
   47.4729   39.6098   -3.0716 C   0  0  0  0  0  0
   48.1904   40.5384   -3.8389 C   0  0  0  0  0  0
   47.9154   40.7526   -5.2936 C   0  0  0  0  0  0
   48.8256   40.8874   -6.0990 O   0  0  0  0  0  0
   46.5937   40.8103   -5.6208 O   0  0  0  0  0  0
   49.1352   41.3133   -3.1538 C   0  0  0  0  0  0
   49.9677   42.3464   -3.5202 N   0  0  0  0  0  0
   50.5488   42.8363   -2.3746 C   0  0  0  0  0  0
   50.2136   42.1542   -1.3058 N   0  0  0  0  0  0
   49.3387   41.2035   -1.7585 C   0  0  0  0  0  0
   48.6159   40.2546   -1.0228 C   0  0  0  0  0  0
   51.4612   44.0100   -2.3557 C   0  0  0  0  0  0
   51.4352   44.9338   -1.2992 C   0  0  0  0  0  0
   52.3905   45.9514   -1.2346 C   0  0  0  0  0  0
   53.3828   46.0572   -2.2177 C   0  0  0  0  0  0
   53.3679   45.1628   -3.2903 C   0  0  0  0  0  0
   52.4230   44.1436   -3.3587 C   0  0  0  0  0  0
   54.4755   47.0680   -2.1347 C   0  0  0  0  0  0
   54.7715   47.8703   -3.2478 C   0  0  0  0  0  0
   55.8413   48.7656   -3.2229 C   0  0  0  0  0  0
   56.6269   48.8794   -2.0799 C   0  0  0  0  0  0
   57.6635   49.7475   -2.0561 F   0  0  0  0  0  0
   56.3480   48.0923   -0.9670 C   0  0  0  0  0  0
   55.2786   47.1934   -0.9871 C   0  0  0  0  0  0
   55.0521   46.4226    0.1031 F   0  0  0  0  0  0
   47.4592   38.0255   -0.1002 H   0  0  0  0  0  0
   45.9746   38.9110   -0.4988 H   0  0  0  0  0  0
   46.5704   37.6102   -1.5466 H   0  0  0  0  0  0
   46.7287   38.9858   -3.5464 H   0  0  0  0  0  0
   46.0399   40.8631   -4.8389 H   0  0  0  0  0  0
   50.0976   42.7558   -4.4343 H   0  0  0  0  0  0
   48.7656   40.1527    0.0421 H   0  0  0  0  0  0
   50.6992   44.8413   -0.5137 H   0  0  0  0  0  0
   52.3765   46.6352   -0.3975 H   0  0  0  0  0  0
   54.1276   45.2358   -4.0524 H   0  0  0  0  0  0
   52.4704   43.4333   -4.1717 H   0  0  0  0  0  0
   54.1732   47.7914   -4.1458 H   0  0  0  0  0  0
   56.0629   49.3733   -4.0884 H   0  0  0  0  0  0
   56.9818   48.1747   -0.0987 H   0  0  0  0  0  0
  1  2  1  0  0  0
  1 28  1  0  0  0
  1 29  1  0  0  0
  1 30  1  0  0  0
  2  3  2  0  0  0
  2 13  1  0  0  0
  3  4  1  0  0  0
  3 31  1  0  0  0
  4  5  1  0  0  0
  4  8  2  0  0  0
  5  6  2  0  0  0
  5  7  1  0  0  0
  7 32  1  0  0  0
  8  9  1  0  0  0
  8 12  1  0  0  0
  9 10  1  0  0  0
  9 33  1  0  0  0
 10 11  2  0  0  0
 10 14  1  0  0  0
 11 12  1  0  0  0
 12 13  2  0  0  0
 13 34  1  0  0  0
 14 15  2  0  0  0
 14 19  1  0  0  0
 15 16  1  0  0  0
 15 35  1  0  0  0
 16 17  2  0  0  0
 16 36  1  0  0  0
 17 18  1  0  0  0
 17 20  1  0  0  0
 18 19  2  0  0  0
 18 37  1  0  0  0
 19 38  1  0  0  0
 20 21  2  0  0  0
 20 26  1  0  0  0
 21 22  1  0  0  0
 21 39  1  0  0  0
 22 23  2  0  0  0
 22 40  1  0  0  0
 23 24  1  0  0  0
 23 25  1  0  0  0
 25 26  2  0  0  0
 25 41  1  0  0  0
 26 27  1  0  0  0
M  END
> <s_m_entry_id>
25380

> <s_m_entry_name>
dock_pv.32

> <s_m_Source_Path>
/home/csk/Desktop/cluster/DUD-E-result/pyrd

> <s_m_Source_File>
dock_pv.maegz

> <i_m_Source_File_Index>
32

> <chembl_id>
CHEMBL3677746

> <chembl_pref_name>
None

> <i_lp_mmshare_version>
53161

> <r_lp_tautomer_probability>
1

> <s_lp_Force_Field>
OPLS_2005

> <r_lp_Energy>
22.903005

> <b_lp_Chiralities_Consistent>
1

> <s_lp_Variant>
CHEMBL1966_lig489-1

> <s_i_glide_gridfile>
glide-grid_1d3g

> <i_i_glide_lignum>
539

> <i_i_glide_rotatable_bonds>
4

> <r_i_docking_score>
-11.092735889815

> <r_i_glide_ligand_efficiency>
-0.410842069993148

> <r_i_glide_ligand_efficiency_sa>
-1.23252620862538

> <r_i_glide_ligand_efficiency_ln>
-2.58220603710509

> <r_i_glide_gscore>
-11.092735889815

> <r_i_glide_lipo>
-5.38701124886551

> <r_i_glide_hbond>
-0.16

> <r_i_glide_metal>
0

> <r_i_glide_rewards>
-3.19465044238365

> <r_i_glide_evdw>
-39.8040237426758

> <r_i_glide_ecoul>
-5.30211496353149

> <r_i_glide_erotb>
0.434444233097681

> <r_i_glide_esite>
0

> <r_i_glide_emodel>
-68.5364614133516

> <r_i_glide_energy>
-45.1061387062073

> <r_i_glide_einternal>
6.24460220336914

> <i_i_glide_confnum>
14

> <i_i_glide_posenum>
230

> <r_i_glide_eff_state_penalty>
0

> <s_user_duplicate_titles>
CHEMBL1966_lig489

> <i_f3d_flags>
0

> <s_m_subgroup_title>
dock_pv

> <s_m_subgroupid>
dock_pv

> <b_m_subgroup_collapsed>
1

$$$$
CHEMBL1966_lig664 
                    3D
 Schrodinger Suite 2021-1.
 43 46  0  0  1  0            999 V2000
   54.1768   46.2098   -0.1883 C   0  0  0  0  0  0
   55.2506   46.9218    0.3340 C   0  0  0  0  0  0
   56.0432   47.6936   -0.5034 C   0  0  0  0  0  0
   55.7538   47.7706   -1.8607 C   0  0  0  0  0  0
   54.6773   47.0468   -2.4000 C   0  0  0  0  0  0
   53.8808   46.2210   -1.5609 C   0  0  0  0  0  0
   46.1137   38.8682   -3.1178 C   0  0  0  0  0  0
   46.6792   38.8012   -1.8516 C   0  0  0  0  0  0
   47.8024   39.5764   -1.5597 C   0  0  0  0  0  0
   46.6987   39.6594   -4.0941 C   0  0  0  0  0  0
   47.8513   40.4096   -3.8320 C   0  0  0  0  0  0
   48.3956   40.4046   -2.5319 C   0  0  0  0  0  0
   49.5239   41.3241   -2.1394 C   0  0  0  0  0  0
   49.8569   42.3665   -3.1616 C   0  0  0  0  0  0
   49.3514   42.2888   -4.4306 C   0  0  0  0  0  0
   48.4262   41.2487   -4.9255 C   0  0  0  0  0  0
   48.0721   41.1143   -6.0995 O   0  0  0  0  0  0
   50.0217   41.2373   -1.0167 O   0  0  0  0  0  0
   49.6229   43.2130   -5.4001 O   0  0  0  0  0  0
   50.7025   43.4249   -2.7870 N   0  0  0  0  0  0
   51.9800   43.4380   -3.4830 C   0  0  0  0  0  0
   52.8447   44.7045   -3.2809 C   0  0  0  0  0  0
   52.8087   45.4396   -2.0111 N   0  0  0  0  0  0
   51.5179   45.3461   -1.2992 C   0  0  0  0  0  0
   50.7701   43.9940   -1.4248 C   0  0  0  0  0  0
   54.3711   47.2236   -4.1001 Cl  0  0  0  0  0  0
   56.7587   48.7826   -2.8414 Cl  0  0  0  0  0  0
   53.5979   45.6091    0.4973 H   0  0  0  0  0  0
   55.4670   46.8763    1.3914 H   0  0  0  0  0  0
   56.8818   48.2446   -0.1047 H   0  0  0  0  0  0
   45.2402   38.2992   -3.3921 H   0  0  0  0  0  0
   46.2371   38.1796   -1.0873 H   0  0  0  0  0  0
   48.1929   39.5406   -0.5523 H   0  0  0  0  0  0
   46.2335   39.6800   -5.0677 H   0  0  0  0  0  0
   49.0087   43.0970   -6.1318 H   0  0  0  0  0  0
   52.4300   42.5003   -3.1849 H   0  0  0  0  0  0
   51.8523   43.3365   -4.5589 H   0  0  0  0  0  0
   53.8637   44.5294   -3.6275 H   0  0  0  0  0  0
   52.4233   45.4231   -3.9815 H   0  0  0  0  0  0
   50.8789   46.1234   -1.7066 H   0  0  0  0  0  0
   51.5982   45.6175   -0.2470 H   0  0  0  0  0  0
   49.7512   44.1499   -1.0686 H   0  0  0  0  0  0
   51.2245   43.2865   -0.7334 H   0  0  0  0  0  0
  1  2  2  0  0  0
  1  6  1  0  0  0
  1 28  1  0  0  0
  2  3  1  0  0  0
  2 29  1  0  0  0
  3  4  2  0  0  0
  3 30  1  0  0  0
  4  5  1  0  0  0
  4 27  1  0  0  0
  5  6  2  0  0  0
  5 26  1  0  0  0
  6 23  1  0  0  0
  7  8  2  0  0  0
  7 10  1  0  0  0
  7 31  1  0  0  0
  8  9  1  0  0  0
  8 32  1  0  0  0
  9 12  2  0  0  0
  9 33  1  0  0  0
 10 11  2  0  0  0
 10 34  1  0  0  0
 11 12  1  0  0  0
 11 16  1  0  0  0
 12 13  1  0  0  0
 13 14  1  0  0  0
 13 18  2  0  0  0
 14 15  2  0  0  0
 14 20  1  0  0  0
 15 16  1  0  0  0
 15 19  1  0  0  0
 16 17  2  0  0  0
 19 35  1  0  0  0
 20 21  1  0  0  0
 20 25  1  0  0  0
 21 22  1  0  0  0
 21 36  1  0  0  0
 21 37  1  0  0  0
 22 23  1  0  0  0
 22 38  1  0  0  0
 22 39  1  0  0  0
 23 24  1  0  0  0
 24 25  1  0  0  0
 24 40  1  0  0  0
 24 41  1  0  0  0
 25 42  1  0  0  0
 25 43  1  0  0  0
M  END
> <s_m_entry_id>
25381

> <s_m_entry_name>
dock_pv.33

> <s_m_Source_Path>
/home/csk/Desktop/cluster/DUD-E-result/pyrd

> <s_m_Source_File>
dock_pv.maegz

> <i_m_Source_File_Index>
33

> <chembl_id>
CHEMBL4586212

> <chembl_pref_name>
None

> <i_lp_mmshare_version>
53161

> <r_lp_tautomer_probability>
0.0909090909090909

> <s_lp_Force_Field>
OPLS_2005

> <r_lp_Energy>
38.726336

> <b_lp_Chiralities_Consistent>
1

> <s_lp_Variant>
CHEMBL1966_lig664 -3

> <s_i_glide_gridfile>
glide-grid_1d3g

> <i_i_glide_lignum>
729

> <i_i_glide_rotatable_bonds>
3

> <r_i_docking_score>
-11.0852471687803

> <r_i_glide_ligand_efficiency>
-0.410564709954825

> <r_i_glide_ligand_efficiency_sa>
-1.23169412851132

> <r_i_glide_ligand_efficiency_ln>
-2.58046278630943

> <r_i_glide_gscore>
-11.0852471687803

> <r_i_glide_lipo>
-5.81589568059916

> <r_i_glide_hbond>
-0.207576634312027

> <r_i_glide_metal>
0

> <r_i_glide_rewards>
-2.70124799558729

> <r_i_glide_evdw>
-42.079963684082

> <r_i_glide_ecoul>
-3.31983971595764

> <r_i_glide_erotb>
0.241447283315931

> <r_i_glide_esite>
0

> <r_i_glide_emodel>
-65.2207046654295

> <r_i_glide_energy>
-45.3998034000397

> <r_i_glide_einternal>
3.90238833427429

> <i_i_glide_confnum>
6

> <i_i_glide_posenum>
11

> <r_i_glide_eff_state_penalty>
0

> <s_user_duplicate_titles>
CHEMBL1966_lig664 ,CHEMBL1966_lig664 

> <i_f3d_flags>
0

> <s_m_subgroup_title>
dock_pv

> <s_m_subgroupid>
dock_pv

> <b_m_subgroup_collapsed>
1

$$$$
CHEMBL1966_lig741
                    3D
 Schrodinger Suite 2021-1.
 42 45  0  0  1  0            999 V2000
   48.9842   41.3893   -4.1184 C   0  0  0  0  0  0
   49.8473   42.5029   -4.0002 C   0  0  0  0  0  0
   50.0775   42.1068   -1.6170 N   0  0  0  0  0  0
   50.3774   42.8170   -2.7324 C   0  0  0  0  0  0
   48.6417   40.6442   -2.9454 C   0  0  0  0  0  0
   48.4575   40.9719   -5.4671 C   0  0  0  0  0  0
   49.2232   41.0602   -1.7109 C   0  0  0  0  0  0
   51.3334   43.9328   -2.4885 C   0  0  0  0  0  0
   54.3073   46.9794   -1.8640 C   0  0  0  0  0  0
   47.7405   39.6121   -2.9828 N   0  0  0  0  0  0
   53.2425   45.9630   -2.0552 C   0  0  0  0  0  0
   49.2222   40.8106   -6.4150 O   0  0  0  0  0  0
   55.0648   47.0355   -0.6848 C   0  0  0  0  0  0
   51.1932   44.8285   -1.4147 C   0  0  0  0  0  0
   52.4517   44.0571   -3.3146 C   0  0  0  0  0  0
   53.3830   45.0649   -3.1085 C   0  0  0  0  0  0
   52.1389   45.8377   -1.2021 C   0  0  0  0  0  0
   47.1053   40.8103   -5.5487 O   0  0  0  0  0  0
   54.7875   46.2116    0.3536 F   0  0  0  0  0  0
   50.1418   43.3868   -5.2223 C   0  0  0  0  0  0
   48.8246   40.4100   -0.5193 C   0  0  0  0  0  0
   54.6509   47.8347   -2.9218 C   0  0  0  0  0  0
   47.3847   39.0055   -1.8281 C   0  0  0  0  0  0
   56.1486   47.9097   -0.5863 C   0  0  0  0  0  0
   47.8918   39.3781   -0.5896 C   0  0  0  0  0  0
   55.7307   48.7131   -2.8141 C   0  0  0  0  0  0
   56.4786   48.7540   -1.6416 C   0  0  0  0  0  0
   50.3487   44.7447   -0.7448 H   0  0  0  0  0  0
   52.6208   43.3502   -4.1126 H   0  0  0  0  0  0
   54.2501   45.1247   -3.7480 H   0  0  0  0  0  0
   52.0181   46.5129   -0.3682 H   0  0  0  0  0  0
   46.6870   40.9428   -4.6922 H   0  0  0  0  0  0
   49.2229   43.6082   -5.7676 H   0  0  0  0  0  0
   50.5560   44.3595   -4.9729 H   0  0  0  0  0  0
   50.8225   42.8888   -5.9127 H   0  0  0  0  0  0
   49.2423   40.7186    0.4290 H   0  0  0  0  0  0
   54.0921   47.8033   -3.8465 H   0  0  0  0  0  0
   46.6728   38.1967   -1.9095 H   0  0  0  0  0  0
   56.7559   47.9205    0.3018 H   0  0  0  0  0  0
   47.5730   38.8623    0.3003 H   0  0  0  0  0  0
   55.9957   49.3545   -3.6434 H   0  0  0  0  0  0
   57.3240   49.4223   -1.5574 H   0  0  0  0  0  0
  1  2  2  0  0  0
  1  5  1  0  0  0
  1  6  1  0  0  0
  2  4  1  0  0  0
  2 20  1  0  0  0
  3  7  1  0  0  0
  3  4  2  0  0  0
  4  8  1  0  0  0
  5  7  2  0  0  0
  5 10  1  0  0  0
  6 12  2  0  0  0
  6 18  1  0  0  0
  7 21  1  0  0  0
  8 14  2  0  0  0
  8 15  1  0  0  0
  9 11  1  0  0  0
  9 13  1  0  0  0
  9 22  2  0  0  0
 10 23  2  0  0  0
 11 16  1  0  0  0
 11 17  2  0  0  0
 13 19  1  0  0  0
 13 24  2  0  0  0
 14 17  1  0  0  0
 14 28  1  0  0  0
 15 16  2  0  0  0
 15 29  1  0  0  0
 16 30  1  0  0  0
 17 31  1  0  0  0
 18 32  1  0  0  0
 20 33  1  0  0  0
 20 34  1  0  0  0
 20 35  1  0  0  0
 21 25  2  0  0  0
 21 36  1  0  0  0
 22 26  1  0  0  0
 22 37  1  0  0  0
 23 25  1  0  0  0
 23 38  1  0  0  0
 24 27  1  0  0  0
 24 39  1  0  0  0
 25 40  1  0  0  0
 26 27  2  0  0  0
 26 41  1  0  0  0
 27 42  1  0  0  0
M  END
> <s_m_entry_id>
25382

> <s_m_entry_name>
dock_pv.34

> <s_m_Source_Path>
/home/csk/Desktop/cluster/DUD-E-result/pyrd

> <s_m_Source_File>
dock_pv.maegz

> <i_m_Source_File_Index>
34

> <chembl_id>
CHEMBL289854

> <chembl_pref_name>
None

> <i_lp_mmshare_version>
53161

> <r_lp_tautomer_probability>
1

> <s_lp_Force_Field>
OPLS_2005

> <r_lp_Energy>
38.844352

> <b_lp_Chiralities_Consistent>
1

> <s_lp_Variant>
CHEMBL1966_lig741-1

> <s_i_glide_gridfile>
glide-grid_1d3g

> <i_i_glide_lignum>
812

> <i_i_glide_rotatable_bonds>
4

> <r_i_docking_score>
-11.0824862842235

> <r_i_glide_ligand_efficiency>
-0.410462454971242

> <r_i_glide_ligand_efficiency_sa>
-1.23138736356091

> <r_i_glide_ligand_efficiency_ln>
-2.57982009790136

> <r_i_glide_gscore>
-11.0824862842235

> <r_i_glide_lipo>
-6.11369654761268

> <r_i_glide_hbond>
-0.16

> <r_i_glide_metal>
0

> <r_i_glide_rewards>
-2.38325500886141

> <r_i_glide_evdw>
-38.0515823364258

> <r_i_glide_ecoul>
-6.46940898895264

> <r_i_glide_erotb>
0.447455737414731

> <r_i_glide_esite>
0

> <r_i_glide_emodel>
-70.1324598780859

> <r_i_glide_energy>
-44.5209913253784

> <r_i_glide_einternal>
2.7722327709198

> <i_i_glide_confnum>
12

> <i_i_glide_posenum>
196

> <r_i_glide_eff_state_penalty>
0

> <s_user_duplicate_titles>
CHEMBL1966_lig741,55922

> <i_f3d_flags>
0

> <s_m_subgroup_title>
dock_pv

> <s_m_subgroupid>
dock_pv

> <b_m_subgroup_collapsed>
1

$$$$
CHEMBL1966_lig751
                    3D
 Schrodinger Suite 2021-1.
 44 47  0  0  1  0            999 V2000
   50.1096   42.0391   -1.7768 N   0  0  0  0  0  0
   50.3960   42.7678   -2.8787 C   0  0  0  0  0  0
   49.8475   42.4884   -4.1459 C   0  0  0  0  0  0
   48.9512   41.4108   -4.2645 C   0  0  0  0  0  0
   48.5989   40.6578   -3.0962 C   0  0  0  0  0  0
   49.2230   41.0262   -1.8658 C   0  0  0  0  0  0
   51.3416   43.8748   -2.5935 C   0  0  0  0  0  0
   47.6173   39.6225   -3.0652 C   0  0  0  0  0  0
   53.2308   45.8712   -2.0247 C   0  0  0  0  0  0
   48.8241   40.4099   -0.6579 C   0  0  0  0  0  0
   52.4847   44.0128   -3.3798 C   0  0  0  0  0  0
   51.1472   44.7515   -1.5146 C   0  0  0  0  0  0
   52.0870   45.7418   -1.2310 C   0  0  0  0  0  0
   53.4099   45.0133   -3.1082 C   0  0  0  0  0  0
   54.3008   46.8415   -1.7002 C   0  0  0  0  0  0
   47.2462   39.0309   -1.8604 C   0  0  0  0  0  0
   48.2880   41.0805   -5.6006 C   0  0  0  0  0  0
   47.8418   39.4254   -0.6706 C   0  0  0  0  0  0
   46.2814   38.0860   -1.8363 F   0  0  0  0  0  0
   50.1515   43.3597   -5.3681 C   0  0  0  0  0  0
   46.9616   41.5533   -5.6995 O   0  0  0  0  0  0
   54.9335   46.7876   -0.4549 C   0  0  0  0  0  0
   54.7459   47.7562   -2.6623 C   0  0  0  0  0  0
   56.0222   47.6098   -0.1896 C   0  0  0  0  0  0
   55.8167   48.6019   -2.3855 C   0  0  0  0  0  0
   56.4540   48.5197   -1.1509 C   0  0  0  0  0  0
   47.1083   39.3233   -3.9675 H   0  0  0  0  0  0
   49.2775   40.7134    0.2752 H   0  0  0  0  0  0
   52.6795   43.3229   -4.1881 H   0  0  0  0  0  0
   50.2708   44.6611   -0.8887 H   0  0  0  0  0  0
   51.9324   46.3954   -0.3848 H   0  0  0  0  0  0
   54.3088   45.0829   -3.7005 H   0  0  0  0  0  0
   48.8629   41.4356   -6.4547 H   0  0  0  0  0  0
   48.2758   40.0079   -5.7286 H   0  0  0  0  0  0
   47.5341   38.9634    0.2537 H   0  0  0  0  0  0
   50.7603   42.8159   -6.0898 H   0  0  0  0  0  0
   49.2251   43.6467   -5.8660 H   0  0  0  0  0  0
   50.6558   44.2906   -5.1304 H   0  0  0  0  0  0
   46.9578   42.5185   -5.6612 H   0  0  0  0  0  0
   54.6126   46.0745    0.2916 H   0  0  0  0  0  0
   54.2674   47.8033   -3.6302 H   0  0  0  0  0  0
   56.5358   47.5414    0.7568 H   0  0  0  0  0  0
   56.1603   49.3071   -3.1285 H   0  0  0  0  0  0
   57.2963   49.1617   -0.9365 H   0  0  0  0  0  0
  1  2  2  0  0  0
  1  6  1  0  0  0
  2  3  1  0  0  0
  2  7  1  0  0  0
  3 20  1  0  0  0
  3  4  2  0  0  0
  4  5  1  0  0  0
  4 17  1  0  0  0
  5  6  1  0  0  0
  5  8  2  0  0  0
  6 10  2  0  0  0
  7 11  2  0  0  0
  7 12  1  0  0  0
  8 16  1  0  0  0
  8 27  1  0  0  0
  9 13  1  0  0  0
  9 15  1  0  0  0
  9 14  2  0  0  0
 10 18  1  0  0  0
 10 28  1  0  0  0
 11 14  1  0  0  0
 11 29  1  0  0  0
 12 13  2  0  0  0
 12 30  1  0  0  0
 13 31  1  0  0  0
 14 32  1  0  0  0
 15 22  1  0  0  0
 15 23  2  0  0  0
 16 18  2  0  0  0
 16 19  1  0  0  0
 17 21  1  0  0  0
 17 33  1  0  0  0
 17 34  1  0  0  0
 18 35  1  0  0  0
 20 36  1  0  0  0
 20 37  1  0  0  0
 20 38  1  0  0  0
 21 39  1  0  0  0
 22 24  2  0  0  0
 22 40  1  0  0  0
 23 25  1  0  0  0
 23 41  1  0  0  0
 24 26  1  0  0  0
 24 42  1  0  0  0
 25 26  2  0  0  0
 25 43  1  0  0  0
 26 44  1  0  0  0
M  END
> <s_m_entry_id>
25383

> <s_m_entry_name>
dock_pv.35

> <s_m_Source_Path>
/home/csk/Desktop/cluster/DUD-E-result/pyrd

> <s_m_Source_File>
dock_pv.maegz

> <i_m_Source_File_Index>
35

> <chembl_id>
CHEMBL39128

> <chembl_pref_name>
None

> <i_lp_mmshare_version>
53161

> <r_lp_tautomer_probability>
1

> <s_lp_Force_Field>
OPLS_2005

> <r_lp_Energy>
27.880825

> <b_lp_Chiralities_Consistent>
1

> <s_lp_Variant>
CHEMBL1966_lig751-1

> <s_i_glide_gridfile>
glide-grid_1d3g

> <i_i_glide_lignum>
822

> <i_i_glide_rotatable_bonds>
4

> <r_i_docking_score>
-11.0823772285776

> <r_i_glide_ligand_efficiency>
-0.426245278022215

> <r_i_glide_ligand_efficiency_sa>
-1.26274995894663

> <r_i_glide_ligand_efficiency_ln>
-2.60265992788576

> <r_i_glide_gscore>
-11.0823772285776

> <r_i_glide_lipo>
-6.33682294866171

> <r_i_glide_hbond>
-0.193261667096314

> <r_i_glide_metal>
0

> <r_i_glide_rewards>
-2.28784488909596

> <r_i_glide_evdw>
-40.8333282470703

> <r_i_glide_ecoul>
-4.70342063903809

> <r_i_glide_erotb>
0.48273178448562

> <r_i_glide_esite>
0

> <r_i_glide_emodel>
-69.8706444915036

> <r_i_glide_energy>
-45.5367488861084

> <r_i_glide_einternal>
3.20089983940125

> <i_i_glide_confnum>
46

> <i_i_glide_posenum>
193

> <r_i_glide_eff_state_penalty>
0

> <s_user_duplicate_titles>
CHEMBL1966_lig751

> <i_f3d_flags>
0

> <s_m_subgroup_title>
dock_pv

> <s_m_subgroupid>
dock_pv

> <b_m_subgroup_collapsed>
1

$$$$
CHEMBL1966_lig737
                    3D
 Schrodinger Suite 2021-1.
 40 43  0  0  1  0            999 V2000
   50.1340   42.1571   -1.6730 N   0  0  0  0  0  0
   49.0085   41.5090   -4.1697 C   0  0  0  0  0  0
   50.4301   42.8931   -2.7714 C   0  0  0  0  0  0
   49.8944   42.6029   -4.0446 C   0  0  0  0  0  0
   48.6668   40.7377   -3.0076 C   0  0  0  0  0  0
   49.2773   41.1112   -1.7725 C   0  0  0  0  0  0
   48.4656   41.1329   -5.5205 C   0  0  0  0  0  0
   54.3425   47.0295   -1.7266 C   0  0  0  0  0  0
   55.3185   46.9594   -0.2859 S   0  0  0  0  0  0
   51.3856   44.0097   -2.4955 C   0  0  0  0  0  0
   47.7343   39.6509   -2.9863 C   0  0  0  0  0  0
   53.2693   46.0267   -1.9486 C   0  0  0  0  0  0
   47.1112   41.2090   -5.6583 O   0  0  0  0  0  0
   54.8036   48.0113   -2.5993 C   0  0  0  0  0  0
   56.3611   48.2047   -0.8983 C   0  0  0  0  0  0
   49.2228   40.8120   -6.4296 O   0  0  0  0  0  0
   55.9393   48.6789   -2.1297 C   0  0  0  0  0  0
   48.9540   40.4100   -0.5831 C   0  0  0  0  0  0
   51.2228   44.8643   -1.3883 C   0  0  0  0  0  0
   52.5167   44.1797   -3.2990 C   0  0  0  0  0  0
   53.4323   45.1950   -3.0509 C   0  0  0  0  0  0
   52.1575   45.8666   -1.1151 C   0  0  0  0  0  0
   47.4121   39.0085   -1.7938 C   0  0  0  0  0  0
   50.2170   43.4772   -5.2697 C   0  0  0  0  0  0
   48.0206   39.3839   -0.6083 C   0  0  0  0  0  0
   46.4962   38.0142   -1.7820 F   0  0  0  0  0  0
   47.2518   39.3202   -3.8958 H   0  0  0  0  0  0
   54.3446   48.2158   -3.5555 H   0  0  0  0  0  0
   57.2206   48.5264   -0.3267 H   0  0  0  0  0  0
   56.4421   49.4642   -2.6752 H   0  0  0  0  0  0
   49.4215   40.6958    0.3481 H   0  0  0  0  0  0
   50.3684   44.7524   -0.7349 H   0  0  0  0  0  0
   52.7037   43.5054   -4.1238 H   0  0  0  0  0  0
   54.2937   45.2999   -3.6946 H   0  0  0  0  0  0
   52.0308   46.5091   -0.2535 H   0  0  0  0  0  0
   49.2976   43.7584   -5.7847 H   0  0  0  0  0  0
   50.7283   44.4084   -5.0462 H   0  0  0  0  0  0
   50.8246   42.9203   -5.9827 H   0  0  0  0  0  0
   47.7710   38.8577    0.2963 H   0  0  0  0  0  0
   46.6812   41.6064   -4.8968 H   0  0  0  0  0  0
  1  3  2  0  0  0
  1  6  1  0  0  0
  2  5  1  0  0  0
  2  7  1  0  0  0
  2  4  2  0  0  0
  3  4  1  0  0  0
  3 10  1  0  0  0
  4 24  1  0  0  0
  5  6  1  0  0  0
  5 11  2  0  0  0
  6 18  2  0  0  0
  7 13  1  0  0  0
  7 16  2  0  0  0
  8 12  1  0  0  0
  8  9  1  0  0  0
  8 14  2  0  0  0
  9 15  1  0  0  0
 10 19  2  0  0  0
 10 20  1  0  0  0
 11 23  1  0  0  0
 11 27  1  0  0  0
 12 21  1  0  0  0
 12 22  2  0  0  0
 13 40  1  0  0  0
 14 17  1  0  0  0
 14 28  1  0  0  0
 15 17  2  0  0  0
 15 29  1  0  0  0
 17 30  1  0  0  0
 18 25  1  0  0  0
 18 31  1  0  0  0
 19 22  1  0  0  0
 19 32  1  0  0  0
 20 21  2  0  0  0
 20 33  1  0  0  0
 21 34  1  0  0  0
 22 35  1  0  0  0
 23 25  2  0  0  0
 23 26  1  0  0  0
 24 36  1  0  0  0
 24 37  1  0  0  0
 24 38  1  0  0  0
 25 39  1  0  0  0
M  END
> <s_m_entry_id>
25384

> <s_m_entry_name>
dock_pv.36

> <s_m_Source_Path>
/home/csk/Desktop/cluster/DUD-E-result/pyrd

> <s_m_Source_File>
dock_pv.maegz

> <i_m_Source_File_Index>
36

> <chembl_id>
CHEMBL41799

> <chembl_pref_name>
None

> <i_lp_mmshare_version>
53161

> <r_lp_tautomer_probability>
1

> <s_lp_Force_Field>
OPLS_2005

> <r_lp_Energy>
27.549614

> <b_lp_Chiralities_Consistent>
1

> <s_lp_Variant>
CHEMBL1966_lig737-1

> <s_i_glide_gridfile>
glide-grid_1d3g

> <i_i_glide_lignum>
808

> <i_i_glide_rotatable_bonds>
4

> <r_i_docking_score>
-11.0578941706014

> <r_i_glide_ligand_efficiency>
-0.425303621946207

> <r_i_glide_ligand_efficiency_sa>
-1.25996030652669

> <r_i_glide_ligand_efficiency_ln>
-2.59691016205551

> <r_i_glide_gscore>
-11.0578941706014

> <r_i_glide_lipo>
-6.03584174314145

> <r_i_glide_hbond>
-0.16

> <r_i_glide_metal>
0

> <r_i_glide_rewards>
-2.19546276139829

> <r_i_glide_evdw>
-38.1719131469727

> <r_i_glide_ecoul>
-7.96295738220215

> <r_i_glide_erotb>
0.436449598617318

> <r_i_glide_esite>
0

> <r_i_glide_emodel>
-72.205152179083

> <r_i_glide_energy>
-46.1348705291748

> <r_i_glide_einternal>
4.01481342315674

> <i_i_glide_confnum>
40

> <i_i_glide_posenum>
263

> <r_i_glide_eff_state_penalty>
0

> <s_user_duplicate_titles>
CHEMBL1966_lig737,57823

> <i_f3d_flags>
0

> <s_m_subgroup_title>
dock_pv

> <s_m_subgroupid>
dock_pv

> <b_m_subgroup_collapsed>
1

$$$$
CHEMBL1966_lig688
                    3D
 Schrodinger Suite 2021-1.
 47 51  0  0  1  0            999 V2000
   50.1597   42.5569   -2.4991 C   0  0  0  0  0  0
   49.6197   42.2527   -3.7618 C   0  0  0  0  0  0
   49.8962   41.8313   -1.3983 N   0  0  0  0  0  0
   48.7345   41.1815   -3.8909 C   0  0  0  0  0  0
   48.4222   40.4104   -2.7566 C   0  0  0  0  0  0
   54.8416   46.6838    0.3851 C   0  0  0  0  0  0
   51.0805   43.7193   -2.3482 C   0  0  0  0  0  0
   49.0706   40.7693   -1.5311 C   0  0  0  0  0  0
   54.9236   47.2727   -1.0223 C   0  0  0  0  0  0
   48.1115   40.8540   -5.2117 C   0  0  0  0  0  0
   51.8791   44.0101   -3.4513 C   0  0  0  0  0  0
   54.1524   46.8261   -2.1417 C   0  0  0  0  0  0
   53.0892   45.7366   -2.1465 C   0  0  0  0  0  0
   49.9537   43.1562   -4.9147 C   0  0  0  0  0  0
   52.9426   44.9094   -3.2784 C   0  0  0  0  0  0
   51.2126   44.5026   -1.1872 C   0  0  0  0  0  0
   47.4755   39.3464   -2.7719 C   0  0  0  0  0  0
   51.3932   43.6101   -4.8467 C   0  0  0  0  0  0
   52.1429   45.5545   -1.1262 C   0  0  0  0  0  0
   46.7793   41.1258   -5.3409 O   0  0  0  0  0  0
   48.8079   40.4100   -6.0993 O   0  0  0  0  0  0
   48.8221   40.0099   -0.3880 C   0  0  0  0  0  0
   55.9824   46.8102    1.0668 F   0  0  0  0  0  0
   53.8600   47.2098    1.0994 F   0  0  0  0  0  0
   54.6086   45.4111    0.3207 F   0  0  0  0  0  0
   47.2548   38.6156   -1.6294 C   0  0  0  0  0  0
   47.9820   38.9041   -0.4983 C   0  0  0  0  0  0
   46.3439   37.6205   -1.6087 F   0  0  0  0  0  0
   55.9103   48.2577   -1.1996 C   0  0  0  0  0  0
   54.4216   47.4504   -3.3750 C   0  0  0  0  0  0
   55.4138   48.4109   -3.5286 C   0  0  0  0  0  0
   56.1574   48.8217   -2.4388 C   0  0  0  0  0  0
   49.2727   43.9974   -4.8268 H   0  0  0  0  0  0
   49.7738   42.7367   -5.9032 H   0  0  0  0  0  0
   53.6094   45.0723   -4.0989 H   0  0  0  0  0  0
   50.5618   44.3267   -0.3432 H   0  0  0  0  0  0
   46.9318   39.0833   -3.6659 H   0  0  0  0  0  0
   52.1086   42.9616   -5.3439 H   0  0  0  0  0  0
   51.2231   44.5040   -5.4517 H   0  0  0  0  0  0
   52.1543   46.1809   -0.2486 H   0  0  0  0  0  0
   49.3186   40.2395    0.5436 H   0  0  0  0  0  0
   47.8391   38.2168    0.3010 H   0  0  0  0  0  0
   56.5188   48.5928   -0.3722 H   0  0  0  0  0  0
   53.8550   47.1944   -4.2574 H   0  0  0  0  0  0
   55.5999   48.8627   -4.4886 H   0  0  0  0  0  0
   56.9236   49.5750   -2.5522 H   0  0  0  0  0  0
   46.3905   41.5384   -4.5650 H   0  0  0  0  0  0
  1  2  1  0  0  0
  1  3  2  0  0  0
  1  7  1  0  0  0
  2  4  2  0  0  0
  2 14  1  0  0  0
  3  8  1  0  0  0
  4 10  1  0  0  0
  4  5  1  0  0  0
  5  8  1  0  0  0
  5 17  2  0  0  0
  6  9  1  0  0  0
  6 23  1  0  0  0
  6 24  1  0  0  0
  6 25  1  0  0  0
  7 11  2  0  0  0
  7 16  1  0  0  0
  8 22  2  0  0  0
  9 12  1  0  0  0
  9 29  2  0  0  0
 10 20  1  0  0  0
 10 21  2  0  0  0
 11 15  1  0  0  0
 11 18  1  0  0  0
 12 13  1  0  0  0
 12 30  2  0  0  0
 13 19  1  0  0  0
 13 15  2  0  0  0
 14 18  1  0  0  0
 14 33  1  0  0  0
 14 34  1  0  0  0
 15 35  1  0  0  0
 16 19  2  0  0  0
 16 36  1  0  0  0
 17 26  1  0  0  0
 17 37  1  0  0  0
 18 38  1  0  0  0
 18 39  1  0  0  0
 19 40  1  0  0  0
 20 47  1  0  0  0
 22 27  1  0  0  0
 22 41  1  0  0  0
 26 27  2  0  0  0
 26 28  1  0  0  0
 27 42  1  0  0  0
 29 32  1  0  0  0
 29 43  1  0  0  0
 30 31  1  0  0  0
 30 44  1  0  0  0
 31 32  2  0  0  0
 31 45  1  0  0  0
 32 46  1  0  0  0
M  END
> <s_m_entry_id>
25385

> <s_m_entry_name>
dock_pv.37

> <s_m_Source_Path>
/home/csk/Desktop/cluster/DUD-E-result/pyrd

> <s_m_Source_File>
dock_pv.maegz

> <i_m_Source_File_Index>
37

> <chembl_id>
CHEMBL322274

> <chembl_pref_name>
None

> <i_lp_mmshare_version>
53161

> <r_lp_tautomer_probability>
1

> <s_lp_Force_Field>
OPLS_2005

> <r_lp_Energy>
36.513643

> <b_lp_Chiralities_Consistent>
1

> <s_lp_Variant>
CHEMBL1966_lig688-1

> <s_i_glide_gridfile>
glide-grid_1d3g

> <i_i_glide_lignum>
757

> <i_i_glide_rotatable_bonds>
4

> <r_i_docking_score>
-11.035965167523

> <r_i_glide_ligand_efficiency>
-0.344873911485095

> <r_i_glide_ligand_efficiency_sa>
-1.09490641851077

> <r_i_glide_ligand_efficiency_ln>
-2.47125343005711

> <r_i_glide_gscore>
-11.035965167523

> <r_i_glide_lipo>
-6.75995894605438

> <r_i_glide_hbond>
-0.16

> <r_i_glide_metal>
0

> <r_i_glide_rewards>
-2.3238244415971

> <r_i_glide_evdw>
-18.3639240264893

> <r_i_glide_ecoul>
-7.21637630462646

> <r_i_glide_erotb>
0.208470867146883

> <r_i_glide_esite>
0

> <r_i_glide_emodel>
-60.2547973201449

> <r_i_glide_energy>
-25.5803003311157

> <r_i_glide_einternal>
19.3548965454102

> <i_i_glide_confnum>
2

> <i_i_glide_posenum>
169

> <r_i_glide_eff_state_penalty>
0

> <s_user_duplicate_titles>
CHEMBL1966_lig688

> <i_f3d_flags>
0

> <s_m_subgroup_title>
dock_pv

> <s_m_subgroupid>
dock_pv

> <b_m_subgroup_collapsed>
1

$$$$
CHEMBL1966_lig739
                    3D
 Schrodinger Suite 2021-1.
 43 46  0  0  1  0            999 V2000
   50.3116   42.2182   -1.7545 N   0  0  0  0  0  0
   49.1150   41.5788   -4.2274 C   0  0  0  0  0  0
   50.6117   42.9310   -2.8681 C   0  0  0  0  0  0
   50.0293   42.6497   -4.1244 C   0  0  0  0  0  0
   48.7772   40.8312   -3.0510 C   0  0  0  0  0  0
   49.4104   41.2065   -1.8267 C   0  0  0  0  0  0
   48.5145   41.2085   -5.5619 C   0  0  0  0  0  0
   51.6222   44.0099   -2.6273 C   0  0  0  0  0  0
   47.8037   39.7843   -3.0110 C   0  0  0  0  0  0
   47.1585   41.3189   -5.6600 O   0  0  0  0  0  0
   53.5404   46.0532   -2.2630 C   0  0  0  0  0  0
   54.5700   47.1239   -2.1625 C   0  0  0  0  0  0
   49.2229   40.8452   -6.4926 O   0  0  0  0  0  0
   49.0471   40.5552   -0.6200 C   0  0  0  0  0  0
   51.5143   44.9168   -1.5574 C   0  0  0  0  0  0
   52.7284   44.1159   -3.4693 C   0  0  0  0  0  0
   53.6606   45.1315   -3.2989 C   0  0  0  0  0  0
   52.4677   45.9272   -1.3719 C   0  0  0  0  0  0
   54.8799   47.8876   -3.2964 C   0  0  0  0  0  0
   55.3071   47.3206   -0.9899 C   0  0  0  0  0  0
   47.4247   39.2094   -1.8042 C   0  0  0  0  0  0
   56.6695   48.9710   -2.1137 C   0  0  0  0  0  0
   50.3291   43.5068   -5.3631 C   0  0  0  0  0  0
   48.0231   39.6098   -0.6203 C   0  0  0  0  0  0
   55.9245   48.8065   -3.2746 C   0  0  0  0  0  0
   56.3653   48.2305   -0.9747 C   0  0  0  0  0  0
   46.4584   38.2662   -1.7776 F   0  0  0  0  0  0
   57.9841   50.0891   -2.0997 Cl  0  0  0  0  0  0
   47.3128   39.4494   -3.9112 H   0  0  0  0  0  0
   49.5236   40.8426    0.3059 H   0  0  0  0  0  0
   50.6766   44.8511   -0.8773 H   0  0  0  0  0  0
   52.8628   43.4005   -4.2670 H   0  0  0  0  0  0
   54.4994   45.2086   -3.9747 H   0  0  0  0  0  0
   52.3565   46.6236   -0.5535 H   0  0  0  0  0  0
   54.3210   47.7509   -4.2111 H   0  0  0  0  0  0
   55.0977   46.7304   -0.1098 H   0  0  0  0  0  0
   49.3992   43.8309   -5.8323 H   0  0  0  0  0  0
   50.8824   44.4100   -5.1515 H   0  0  0  0  0  0
   50.8798   42.9355   -6.1101 H   0  0  0  0  0  0
   47.7186   39.1445    0.3009 H   0  0  0  0  0  0
   56.1618   49.3825   -4.1573 H   0  0  0  0  0  0
   56.9759   48.3503   -0.0967 H   0  0  0  0  0  0
   46.7595   41.7443   -4.8974 H   0  0  0  0  0  0
  1  3  2  0  0  0
  1  6  1  0  0  0
  2  5  1  0  0  0
  2  7  1  0  0  0
  2  4  2  0  0  0
  3  4  1  0  0  0
  3  8  1  0  0  0
  4 23  1  0  0  0
  5  6  1  0  0  0
  5  9  2  0  0  0
  6 14  2  0  0  0
  7 10  1  0  0  0
  7 13  2  0  0  0
  8 15  2  0  0  0
  8 16  1  0  0  0
  9 21  1  0  0  0
  9 29  1  0  0  0
 10 43  1  0  0  0
 11 17  1  0  0  0
 11 12  1  0  0  0
 11 18  2  0  0  0
 12 19  1  0  0  0
 12 20  2  0  0  0
 14 24  1  0  0  0
 14 30  1  0  0  0
 15 18  1  0  0  0
 15 31  1  0  0  0
 16 17  2  0  0  0
 16 32  1  0  0  0
 17 33  1  0  0  0
 18 34  1  0  0  0
 19 25  2  0  0  0
 19 35  1  0  0  0
 20 26  1  0  0  0
 20 36  1  0  0  0
 21 24  2  0  0  0
 21 27  1  0  0  0
 22 26  2  0  0  0
 22 28  1  0  0  0
 22 25  1  0  0  0
 23 37  1  0  0  0
 23 38  1  0  0  0
 23 39  1  0  0  0
 24 40  1  0  0  0
 25 41  1  0  0  0
 26 42  1  0  0  0
M  END
> <s_m_entry_id>
25386

> <s_m_entry_name>
dock_pv.38

> <s_m_Source_Path>
/home/csk/Desktop/cluster/DUD-E-result/pyrd

> <s_m_Source_File>
dock_pv.maegz

> <i_m_Source_File_Index>
38

> <chembl_id>
CHEMBL38639

> <chembl_pref_name>
None

> <i_lp_mmshare_version>
53161

> <r_lp_tautomer_probability>
1

> <s_lp_Force_Field>
OPLS_2005

> <r_lp_Energy>
32.705462

> <b_lp_Chiralities_Consistent>
1

> <s_lp_Variant>
CHEMBL1966_lig739-1

> <s_i_glide_gridfile>
glide-grid_1d3g

> <i_i_glide_lignum>
810

> <i_i_glide_rotatable_bonds>
4

> <r_i_docking_score>
-11.0308939432645

> <r_i_glide_ligand_efficiency>
-0.393960497973734

> <r_i_glide_ligand_efficiency_sa>
-1.19629610217292

> <r_i_glide_ligand_efficiency_ln>
-2.54625420322514

> <r_i_glide_gscore>
-11.0308939432645

> <r_i_glide_lipo>
-6.07570002613079

> <r_i_glide_hbond>
-0.16

> <r_i_glide_metal>
0

> <r_i_glide_rewards>
-2.24282646598427

> <r_i_glide_evdw>
-38.0306053161621

> <r_i_glide_ecoul>
-6.88164138793945

> <r_i_glide_erotb>
0.381409022849545

> <r_i_glide_esite>
0

> <r_i_glide_emodel>
-66.7583942583066

> <r_i_glide_energy>
-44.9122467041016

> <r_i_glide_einternal>
4.31014060974121

> <i_i_glide_confnum>
2

> <i_i_glide_posenum>
124

> <r_i_glide_eff_state_penalty>
0

> <s_user_duplicate_titles>
CHEMBL1966_lig739,56653

> <i_f3d_flags>
0

> <s_m_subgroup_title>
dock_pv

> <s_m_subgroupid>
dock_pv

> <b_m_subgroup_collapsed>
1

$$$$
CHEMBL1966_lig744
                    3D
 Schrodinger Suite 2021-1.
 43 46  0  0  1  0            999 V2000
   50.0984   42.0789   -1.6319 N   0  0  0  0  0  0
   50.4230   42.8487   -2.6941 C   0  0  0  0  0  0
   49.0441   41.5035   -4.1731 C   0  0  0  0  0  0
   49.9438   42.5849   -3.9936 C   0  0  0  0  0  0
   48.6506   40.7168   -3.0332 C   0  0  0  0  0  0
   49.2233   41.0648   -1.7756 C   0  0  0  0  0  0
   51.2244   44.0368   -2.2782 C   0  0  0  0  0  0
   48.4860   41.1860   -5.5381 C   0  0  0  0  0  0
   52.4230   44.4100   -2.9169 C   0  0  0  0  0  0
   53.2020   45.4955   -2.4737 C   0  0  0  0  0  0
   47.6930   39.6521   -3.0452 C   0  0  0  0  0  0
   49.2230   40.9371   -6.4841 O   0  0  0  0  0  0
   48.8230   40.4099   -0.5926 C   0  0  0  0  0  0
   54.5204   45.8335   -3.0762 C   0  0  0  0  0  0
   47.2976   39.0343   -1.8611 C   0  0  0  0  0  0
   47.1259   41.2100   -5.6457 O   0  0  0  0  0  0
   50.3066   43.4971   -5.1748 C   0  0  0  0  0  0
   47.8553   39.4135   -0.6486 C   0  0  0  0  0  0
   46.3506   38.0725   -1.8816 F   0  0  0  0  0  0
   50.8088   44.8174   -1.1871 C   0  0  0  0  0  0
   52.7384   46.2436   -1.3887 C   0  0  0  0  0  0
   51.5530   45.9094   -0.7484 C   0  0  0  0  0  0
   55.4819   44.8392   -3.2990 C   0  0  0  0  0  0
   54.8389   47.1653   -3.3732 C   0  0  0  0  0  0
   56.0936   47.4997   -3.8750 C   0  0  0  0  0  0
   56.7400   45.1725   -3.7968 C   0  0  0  0  0  0
   57.0402   46.5010   -4.0829 C   0  0  0  0  0  0
   52.7859   43.8100   -3.7390 H   0  0  0  0  0  0
   47.2400   39.3268   -3.9680 H   0  0  0  0  0  0
   49.2553   40.6962    0.3554 H   0  0  0  0  0  0
   46.6937   41.5448   -4.8567 H   0  0  0  0  0  0
   49.4038   43.8122   -5.6992 H   0  0  0  0  0  0
   50.8231   44.4099   -4.8989 H   0  0  0  0  0  0
   50.9218   42.9661   -5.8996 H   0  0  0  0  0  0
   47.5357   38.9246    0.2580 H   0  0  0  0  0  0
   49.8920   44.5780   -0.6672 H   0  0  0  0  0  0
   53.3172   47.0757   -1.0144 H   0  0  0  0  0  0
   51.2230   46.4915    0.0987 H   0  0  0  0  0  0
   55.2631   43.8070   -3.0645 H   0  0  0  0  0  0
   54.1116   47.9480   -3.2121 H   0  0  0  0  0  0
   56.3322   48.5293   -4.0984 H   0  0  0  0  0  0
   57.4866   44.4100   -3.9555 H   0  0  0  0  0  0
   58.0175   46.7580   -4.4647 H   0  0  0  0  0  0
  1  2  2  0  0  0
  1  6  1  0  0  0
  2  4  1  0  0  0
  2  7  1  0  0  0
  3  5  1  0  0  0
  3  8  1  0  0  0
  3  4  2  0  0  0
  4 17  1  0  0  0
  5  6  1  0  0  0
  5 11  2  0  0  0
  6 13  2  0  0  0
  7  9  1  0  0  0
  7 20  2  0  0  0
  8 12  2  0  0  0
  8 16  1  0  0  0
  9 10  2  0  0  0
  9 28  1  0  0  0
 10 14  1  0  0  0
 10 21  1  0  0  0
 11 15  1  0  0  0
 11 29  1  0  0  0
 13 18  1  0  0  0
 13 30  1  0  0  0
 14 23  2  0  0  0
 14 24  1  0  0  0
 15 18  2  0  0  0
 15 19  1  0  0  0
 16 31  1  0  0  0
 17 32  1  0  0  0
 17 33  1  0  0  0
 17 34  1  0  0  0
 18 35  1  0  0  0
 20 22  1  0  0  0
 20 36  1  0  0  0
 21 22  2  0  0  0
 21 37  1  0  0  0
 22 38  1  0  0  0
 23 26  1  0  0  0
 23 39  1  0  0  0
 24 25  2  0  0  0
 24 40  1  0  0  0
 25 27  1  0  0  0
 25 41  1  0  0  0
 26 27  2  0  0  0
 26 42  1  0  0  0
 27 43  1  0  0  0
M  END
> <s_m_entry_id>
25387

> <s_m_entry_name>
dock_pv.39

> <s_m_Source_Path>
/home/csk/Desktop/cluster/DUD-E-result/pyrd

> <s_m_Source_File>
dock_pv.maegz

> <i_m_Source_File_Index>
39

> <chembl_id>
CHEMBL39397

> <chembl_pref_name>
None

> <i_lp_mmshare_version>
53161

> <r_lp_tautomer_probability>
1

> <s_lp_Force_Field>
OPLS_2005

> <r_lp_Energy>
32.497042

> <b_lp_Chiralities_Consistent>
1

> <s_lp_Variant>
CHEMBL1966_lig744-1

> <s_i_glide_gridfile>
glide-grid_1d3g

> <i_i_glide_lignum>
815

> <i_i_glide_rotatable_bonds>
4

> <r_i_docking_score>
-11.0120640126232

> <r_i_glide_ligand_efficiency>
-0.407854222689747

> <r_i_glide_ligand_efficiency_sa>
-1.22356266672502

> <r_i_glide_ligand_efficiency_ln>
-2.56342695407468

> <r_i_glide_gscore>
-11.0120640126232

> <r_i_glide_lipo>
-6.28370064918825

> <r_i_glide_hbond>
-0.16

> <r_i_glide_metal>
0

> <r_i_glide_rewards>
-2.1710750704838

> <r_i_glide_evdw>
-37.9348754882812

> <r_i_glide_ecoul>
-6.3347110748291

> <r_i_glide_erotb>
0.449662142687308

> <r_i_glide_esite>
0

> <r_i_glide_emodel>
-60.301973223186

> <r_i_glide_energy>
-44.2695865631104

> <r_i_glide_einternal>
3.07958054542542

> <i_i_glide_confnum>
33

> <i_i_glide_posenum>
352

> <r_i_glide_eff_state_penalty>
0

> <s_user_duplicate_titles>
CHEMBL1966_lig744

> <i_f3d_flags>
0

> <s_m_subgroup_title>
dock_pv

> <s_m_subgroupid>
dock_pv

> <b_m_subgroup_collapsed>
1

$$$$
CHEMBL1966_lig766
                    3D
 Schrodinger Suite 2021-1.
 42 45  0  0  1  0            999 V2000
   50.0828   42.1600   -1.6007 N   0  0  0  0  0  0
   50.3852   42.8775   -2.7121 C   0  0  0  0  0  0
   49.8458   42.5707   -3.9794 C   0  0  0  0  0  0
   48.9689   41.4696   -4.0979 C   0  0  0  0  0  0
   49.2295   41.1108   -1.6997 C   0  0  0  0  0  0
   48.6333   40.7101   -2.9311 C   0  0  0  0  0  0
   48.4232   41.0771   -5.4418 C   0  0  0  0  0  0
   51.3505   43.9918   -2.4639 C   0  0  0  0  0  0
   54.3508   46.9924   -1.7809 C   0  0  0  0  0  0
   53.2646   46.0097   -2.0118 C   0  0  0  0  0  0
   49.1829   40.8100   -6.3656 O   0  0  0  0  0  0
   55.1510   46.9165   -0.6335 C   0  0  0  0  0  0
   47.9872   39.3812   -0.4990 N   0  0  0  0  0  0
   52.4616   44.1313   -3.2991 C   0  0  0  0  0  0
   51.2208   44.8701   -1.3736 C   0  0  0  0  0  0
   52.1680   45.8747   -1.1525 C   0  0  0  0  0  0
   53.3940   45.1373   -3.0877 C   0  0  0  0  0  0
   47.0639   41.0881   -5.5602 O   0  0  0  0  0  0
   54.8841   46.0104    0.3351 F   0  0  0  0  0  0
   48.8617   40.4100   -0.5294 C   0  0  0  0  0  0
   50.1481   43.4442   -5.2079 C   0  0  0  0  0  0
   47.7181   39.6100   -2.8937 C   0  0  0  0  0  0
   54.6721   47.9379   -2.7659 C   0  0  0  0  0  0
   47.4366   38.9959   -1.6728 C   0  0  0  0  0  0
   56.2639   47.7426   -0.4976 C   0  0  0  0  0  0
   55.7758   48.7796   -2.6141 C   0  0  0  0  0  0
   56.5762   48.6795   -1.4790 C   0  0  0  0  0  0
   52.6255   43.4363   -4.1096 H   0  0  0  0  0  0
   50.3822   44.7762   -0.6982 H   0  0  0  0  0  0
   52.0606   46.5321   -0.3017 H   0  0  0  0  0  0
   54.2554   45.2081   -3.7341 H   0  0  0  0  0  0
   46.6249   41.4328   -4.7789 H   0  0  0  0  0  0
   49.2921   40.6935    0.4192 H   0  0  0  0  0  0
   50.8222   42.9320   -5.8942 H   0  0  0  0  0  0
   49.2297   43.6650   -5.7543 H   0  0  0  0  0  0
   50.5753   44.4100   -4.9643 H   0  0  0  0  0  0
   47.2507   39.2392   -3.7922 H   0  0  0  0  0  0
   54.0762   48.0040   -3.6657 H   0  0  0  0  0  0
   46.7520   38.1611   -1.6215 H   0  0  0  0  0  0
   56.8908   47.6429    0.3758 H   0  0  0  0  0  0
   56.0233   49.4975   -3.3830 H   0  0  0  0  0  0
   57.4414   49.3164   -1.3614 H   0  0  0  0  0  0
  1  2  2  0  0  0
  1  5  1  0  0  0
  2  3  1  0  0  0
  2  8  1  0  0  0
  3 21  1  0  0  0
  3  4  2  0  0  0
  4  6  1  0  0  0
  4  7  1  0  0  0
  5  6  2  0  0  0
  5 20  1  0  0  0
  6 22  1  0  0  0
  7 11  2  0  0  0
  7 18  1  0  0  0
  8 14  2  0  0  0
  8 15  1  0  0  0
  9 10  1  0  0  0
  9 12  1  0  0  0
  9 23  2  0  0  0
 10 16  1  0  0  0
 10 17  2  0  0  0
 12 19  1  0  0  0
 12 25  2  0  0  0
 13 20  2  0  0  0
 13 24  1  0  0  0
 14 17  1  0  0  0
 14 28  1  0  0  0
 15 16  2  0  0  0
 15 29  1  0  0  0
 16 30  1  0  0  0
 17 31  1  0  0  0
 18 32  1  0  0  0
 20 33  1  0  0  0
 21 34  1  0  0  0
 21 35  1  0  0  0
 21 36  1  0  0  0
 22 24  2  0  0  0
 22 37  1  0  0  0
 23 26  1  0  0  0
 23 38  1  0  0  0
 24 39  1  0  0  0
 25 27  1  0  0  0
 25 40  1  0  0  0
 26 27  2  0  0  0
 26 41  1  0  0  0
 27 42  1  0  0  0
M  END
> <s_m_entry_id>
25388

> <s_m_entry_name>
dock_pv.40

> <s_m_Source_Path>
/home/csk/Desktop/cluster/DUD-E-result/pyrd

> <s_m_Source_File>
dock_pv.maegz

> <i_m_Source_File_Index>
40

> <chembl_id>
CHEMBL39971

> <chembl_pref_name>
None

> <i_lp_mmshare_version>
53161

> <r_lp_tautomer_probability>
1

> <s_lp_Force_Field>
OPLS_2005

> <r_lp_Energy>
37.358945

> <b_lp_Chiralities_Consistent>
1

> <s_lp_Variant>
CHEMBL1966_lig766-1

> <s_i_glide_gridfile>
glide-grid_1d3g

> <i_i_glide_lignum>
837

> <i_i_glide_rotatable_bonds>
4

> <r_i_docking_score>
-10.9798537427167

> <r_i_glide_ligand_efficiency>
-0.406661249730247

> <r_i_glide_ligand_efficiency_sa>
-1.21998374785045

> <r_i_glide_ligand_efficiency_ln>
-2.55592893426824

> <r_i_glide_gscore>
-10.9798537427167

> <r_i_glide_lipo>
-6.04110435482016

> <r_i_glide_hbond>
-0.16

> <r_i_glide_metal>
0

> <r_i_glide_rewards>
-2.44854830787502

> <r_i_glide_evdw>
-39.6482276916504

> <r_i_glide_ecoul>
-5.30163621902466

> <r_i_glide_erotb>
0.447455737414731

> <r_i_glide_esite>
0

> <r_i_glide_emodel>
-69.8116036713056

> <r_i_glide_energy>
-44.949863910675

> <r_i_glide_einternal>
3.04116797447205

> <i_i_glide_confnum>
32

> <i_i_glide_posenum>
244

> <r_i_glide_eff_state_penalty>
0

> <s_user_duplicate_titles>
CHEMBL1966_lig766,55878

> <i_f3d_flags>
0

> <s_m_subgroup_title>
dock_pv

> <s_m_subgroupid>
dock_pv

> <b_m_subgroup_collapsed>
1

$$$$
CHEMBL1966_lig81
                    3D
 Schrodinger Suite 2021-1.
 43 45  0  0  1  0            999 V2000
   51.3260   45.1255   -0.8584 C   0  0  0  0  0  0
   50.4229   44.0697   -0.9960 C   0  0  0  0  0  0
   50.5262   43.1769   -2.0712 C   0  0  0  0  0  0
   51.5087   43.4311   -3.0511 C   0  0  0  0  0  0
   52.4230   44.4734   -2.8990 C   0  0  0  0  0  0
   52.3769   45.3058   -1.7695 C   0  0  0  0  0  0
   53.4712   46.2826   -1.5008 C   0  0  0  0  0  0
   53.9991   46.4099   -0.2086 C   0  0  0  0  0  0
   55.0978   47.2264    0.0402 C   0  0  0  0  0  0
   55.6640   47.9657   -0.9955 C   0  0  0  0  0  0
   55.1365   47.8860   -2.2946 C   0  0  0  0  0  0
   54.0514   47.0371   -2.5297 C   0  0  0  0  0  0
   49.6203   42.0806   -2.0911 N   0  0  0  0  0  0
   49.3539   41.2261   -3.1040 C   0  0  0  0  0  0
   48.1123   40.4242   -3.0987 C   0  0  0  0  0  0
   50.0432   41.2059   -4.0990 O   0  0  0  0  0  0
   47.6028   39.6100   -2.0571 C   0  0  0  0  0  0
   46.1267   38.8100   -2.5135 S   0  0  0  0  0  0
   46.0948   39.6100   -4.0169 C   0  0  0  0  0  0
   47.2029   40.4100   -4.2166 C   0  0  0  0  0  0
   48.0230   39.4651   -0.6911 C   0  0  0  0  0  0
   47.5288   38.3452   -0.0990 O   0  0  0  0  0  0
   48.8140   40.2265   -0.1351 O   0  0  0  0  0  0
   47.3086   41.1853   -5.4197 C   0  0  0  0  0  0
   48.3181   41.2098   -6.1005 O   0  0  0  0  0  0
   46.1716   41.8867   -5.6990 O   0  0  0  0  0  0
   49.4577   43.9096   -0.0602 F   0  0  0  0  0  0
   55.6236   48.5887   -3.3791 O   0  0  0  0  0  0
   56.7005   49.5009   -3.1875 C   0  0  0  0  0  0
   51.2403   45.7697    0.0043 H   0  0  0  0  0  0
   51.6546   42.8057   -3.9146 H   0  0  0  0  0  0
   53.2109   44.5862   -3.6295 H   0  0  0  0  0  0
   53.5875   45.8365    0.6095 H   0  0  0  0  0  0
   55.5073   47.2885    1.0382 H   0  0  0  0  0  0
   56.5123   48.5946   -0.7710 H   0  0  0  0  0  0
   53.6605   46.9655   -3.5345 H   0  0  0  0  0  0
   49.0498   41.9852   -1.2618 H   0  0  0  0  0  0
   45.2647   39.4465   -4.6899 H   0  0  0  0  0  0
   47.6230   38.4099    0.8705 H   0  0  0  0  0  0
   46.3257   42.6300   -6.3060 H   0  0  0  0  0  0
   56.9249   49.9951   -4.1327 H   0  0  0  0  0  0
   56.4464   50.2774   -2.4641 H   0  0  0  0  0  0
   57.6051   48.9874   -2.8582 H   0  0  0  0  0  0
  1  6  2  0  0  0
  1  2  1  0  0  0
  1 30  1  0  0  0
  2  3  2  0  0  0
  2 27  1  0  0  0
  3  4  1  0  0  0
  3 13  1  0  0  0
  4  5  2  0  0  0
  4 31  1  0  0  0
  5  6  1  0  0  0
  5 32  1  0  0  0
  6  7  1  0  0  0
  7  8  2  0  0  0
  7 12  1  0  0  0
  8  9  1  0  0  0
  8 33  1  0  0  0
  9 10  2  0  0  0
  9 34  1  0  0  0
 10 11  1  0  0  0
 10 35  1  0  0  0
 11 12  2  0  0  0
 11 28  1  0  0  0
 12 36  1  0  0  0
 13 14  1  0  0  0
 13 37  1  0  0  0
 14 15  1  0  0  0
 14 16  2  0  0  0
 15 17  2  0  0  0
 15 20  1  0  0  0
 17 18  1  0  0  0
 17 21  1  0  0  0
 18 19  1  0  0  0
 19 20  2  0  0  0
 19 38  1  0  0  0
 20 24  1  0  0  0
 21 22  1  0  0  0
 21 23  2  0  0  0
 22 39  1  0  0  0
 24 25  2  0  0  0
 24 26  1  0  0  0
 26 40  1  0  0  0
 28 29  1  0  0  0
 29 41  1  0  0  0
 29 42  1  0  0  0
 29 43  1  0  0  0
M  END
> <s_m_entry_id>
25389

> <s_m_entry_name>
dock_pv.41

> <s_m_Source_Path>
/home/csk/Desktop/cluster/DUD-E-result/pyrd

> <s_m_Source_File>
dock_pv.maegz

> <i_m_Source_File_Index>
41

> <chembl_id>
CHEMBL371482

> <chembl_pref_name>
None

> <i_lp_mmshare_version>
53161

> <r_lp_tautomer_probability>
1

> <s_lp_Force_Field>
OPLS_2005

> <r_lp_Energy>
30.117981

> <b_lp_Chiralities_Consistent>
1

> <s_lp_Variant>
CHEMBL1966_lig81-1

> <s_i_glide_gridfile>
glide-grid_1d3g

> <i_i_glide_lignum>
90

> <i_i_glide_rotatable_bonds>
9

> <r_i_docking_score>
-10.9718965114676

> <r_i_glide_ligand_efficiency>
-0.378341259016125

> <r_i_glide_ligand_efficiency_sa>
-1.16238421462171

> <r_i_glide_ligand_efficiency_ln>
-2.51228607783632

> <r_i_glide_gscore>
-10.9718965114676

> <r_i_glide_lipo>
-5.09592143926268

> <r_i_glide_hbond>
-0.139217033645723

> <r_i_glide_metal>
0

> <r_i_glide_rewards>
-2.05942622231386

> <r_i_glide_evdw>
-33.6518325805664

> <r_i_glide_ecoul>
-17.7903022766113

> <r_i_glide_erotb>
0.686626058581872

> <r_i_glide_esite>
-0.0128209043072252

> <r_i_glide_emodel>
-59.4980374206612

> <r_i_glide_energy>
-51.4421348571777

> <r_i_glide_einternal>
16.0599479675293

> <i_i_glide_confnum>
102

> <i_i_glide_posenum>
169

> <r_i_glide_eff_state_penalty>
0

> <s_user_duplicate_titles>
CHEMBL1966_lig81

> <i_f3d_flags>
0

> <s_m_subgroup_title>
dock_pv

> <s_m_subgroupid>
dock_pv

> <b_m_subgroup_collapsed>
1

$$$$
CHEMBL1966_lig663 
                    3D
 Schrodinger Suite 2021-1.
 43 46  0  0  1  0            999 V2000
   54.3009   46.6135   -0.5986 C   0  0  0  0  0  0
   55.2596   47.6067   -0.4136 C   0  0  0  0  0  0
   55.7205   48.3409   -1.5073 C   0  0  0  0  0  0
   55.2471   48.0709   -2.7858 C   0  0  0  0  0  0
   54.3064   47.0658   -2.9697 C   0  0  0  0  0  0
   53.8149   46.3305   -1.8794 C   0  0  0  0  0  0
   46.1444   38.8656   -3.0776 C   0  0  0  0  0  0
   46.7118   38.8075   -1.8104 C   0  0  0  0  0  0
   47.8345   39.5800   -1.5250 C   0  0  0  0  0  0
   46.7184   39.6517   -4.0614 C   0  0  0  0  0  0
   47.8656   40.4082   -3.8057 C   0  0  0  0  0  0
   48.4131   40.4095   -2.5025 C   0  0  0  0  0  0
   49.5251   41.3342   -2.1040 C   0  0  0  0  0  0
   49.8526   42.3606   -3.1380 C   0  0  0  0  0  0
   49.3503   42.2828   -4.4097 C   0  0  0  0  0  0
   48.4273   41.2440   -4.9104 C   0  0  0  0  0  0
   48.0730   41.1124   -6.0903 O   0  0  0  0  0  0
   50.0107   41.2697   -0.9733 O   0  0  0  0  0  0
   49.6248   43.2092   -5.3751 O   0  0  0  0  0  0
   50.7103   43.4057   -2.7779 N   0  0  0  0  0  0
   51.9987   43.3233   -3.4383 C   0  0  0  0  0  0
   52.8551   44.5946   -3.3390 C   0  0  0  0  0  0
   52.8804   45.3168   -2.0647 N   0  0  0  0  0  0
   51.6165   45.3023   -1.3072 C   0  0  0  0  0  0
   50.7861   44.0022   -1.4254 C   0  0  0  0  0  0
   56.8651   49.6139   -1.2987 Cl  0  0  0  0  0  0
   53.9495   46.0555    0.2569 H   0  0  0  0  0  0
   55.6157   47.8193    0.5832 H   0  0  0  0  0  0
   55.6068   48.6397   -3.6311 H   0  0  0  0  0  0
   53.9518   46.8815   -3.9733 H   0  0  0  0  0  0
   45.2812   38.2811   -3.3463 H   0  0  0  0  0  0
   46.2790   38.1813   -1.0439 H   0  0  0  0  0  0
   48.2309   39.5455   -0.5193 H   0  0  0  0  0  0
   46.2510   39.6601   -5.0357 H   0  0  0  0  0  0
   49.0008   43.1109   -6.1004 H   0  0  0  0  0  0
   52.4336   42.4141   -3.0405 H   0  0  0  0  0  0
   51.8906   43.1297   -4.5040 H   0  0  0  0  0  0
   53.8623   44.3750   -3.6978 H   0  0  0  0  0  0
   52.4240   45.2933   -4.0508 H   0  0  0  0  0  0
   51.0027   46.1070   -1.7047 H   0  0  0  0  0  0
   51.7734   45.5299   -0.2525 H   0  0  0  0  0  0
   49.7784   44.2093   -1.0631 H   0  0  0  0  0  0
   51.2206   43.2878   -0.7300 H   0  0  0  0  0  0
  1  2  2  0  0  0
  1  6  1  0  0  0
  1 27  1  0  0  0
  2  3  1  0  0  0
  2 28  1  0  0  0
  3  4  2  0  0  0
  3 26  1  0  0  0
  4  5  1  0  0  0
  4 29  1  0  0  0
  5  6  2  0  0  0
  5 30  1  0  0  0
  6 23  1  0  0  0
  7  8  2  0  0  0
  7 10  1  0  0  0
  7 31  1  0  0  0
  8  9  1  0  0  0
  8 32  1  0  0  0
  9 12  2  0  0  0
  9 33  1  0  0  0
 10 11  2  0  0  0
 10 34  1  0  0  0
 11 12  1  0  0  0
 11 16  1  0  0  0
 12 13  1  0  0  0
 13 14  1  0  0  0
 13 18  2  0  0  0
 14 15  2  0  0  0
 14 20  1  0  0  0
 15 16  1  0  0  0
 15 19  1  0  0  0
 16 17  2  0  0  0
 19 35  1  0  0  0
 20 21  1  0  0  0
 20 25  1  0  0  0
 21 22  1  0  0  0
 21 36  1  0  0  0
 21 37  1  0  0  0
 22 23  1  0  0  0
 22 38  1  0  0  0
 22 39  1  0  0  0
 23 24  1  0  0  0
 24 25  1  0  0  0
 24 40  1  0  0  0
 24 41  1  0  0  0
 25 42  1  0  0  0
 25 43  1  0  0  0
M  END
> <s_m_entry_id>
25390

> <s_m_entry_name>
dock_pv.42

> <s_m_Source_Path>
/home/csk/Desktop/cluster/DUD-E-result/pyrd

> <s_m_Source_File>
dock_pv.maegz

> <i_m_Source_File_Index>
42

> <chembl_id>
CHEMBL4474026

> <chembl_pref_name>
None

> <i_lp_mmshare_version>
53161

> <r_lp_tautomer_probability>
0.0909090909090909

> <s_lp_Force_Field>
OPLS_2005

> <r_lp_Energy>
34.281417

> <b_lp_Chiralities_Consistent>
1

> <s_lp_Variant>
CHEMBL1966_lig663 -3

> <s_i_glide_gridfile>
glide-grid_1d3g

> <i_i_glide_lignum>
725

> <i_i_glide_rotatable_bonds>
3

> <r_i_docking_score>
-10.9652031641184

> <r_i_glide_ligand_efficiency>
-0.421738583235321

> <r_i_glide_ligand_efficiency_sa>
-1.24939889337345

> <r_i_glide_ligand_efficiency_ln>
-2.57514198332697

> <r_i_glide_gscore>
-10.9652031641184

> <r_i_glide_lipo>
-5.71317079690976

> <r_i_glide_hbond>
-0.202452609523233

> <r_i_glide_metal>
0

> <r_i_glide_rewards>
-2.83571132492929

> <r_i_glide_evdw>
-40.6561431884766

> <r_i_glide_ecoul>
-3.09636402130127

> <r_i_glide_erotb>
0.28339332986295

> <r_i_glide_esite>
0

> <r_i_glide_emodel>
-59.1456028745173

> <r_i_glide_energy>
-43.7525072097778

> <r_i_glide_einternal>
0.772542119026184

> <i_i_glide_confnum>
18

> <i_i_glide_posenum>
357

> <r_i_glide_eff_state_penalty>
0

> <s_user_duplicate_titles>
CHEMBL1966_lig663 ,CHEMBL1966_lig663 

> <i_f3d_flags>
0

> <s_m_subgroup_title>
dock_pv

> <s_m_subgroupid>
dock_pv

> <b_m_subgroup_collapsed>
1

$$$$
CHEMBL1966_lig601
                    3D
 Schrodinger Suite 2021-1.
 43 46  0  0  1  0            999 V2000
   50.0841   42.1090   -1.7073 N   0  0  0  0  0  0
   50.3980   42.8494   -2.7981 C   0  0  0  0  0  0
   49.8820   42.5709   -4.0786 C   0  0  0  0  0  0
   49.0072   41.4737   -4.2230 C   0  0  0  0  0  0
   49.2231   41.0710   -1.8250 C   0  0  0  0  0  0
   48.6445   40.6965   -3.0742 C   0  0  0  0  0  0
   48.4660   41.1209   -5.5768 C   0  0  0  0  0  0
   51.3336   43.9706   -2.4979 C   0  0  0  0  0  0
   53.1979   45.9861   -1.9081 C   0  0  0  0  0  0
   49.2227   40.8116   -6.4914 O   0  0  0  0  0  0
   51.1470   44.8099   -1.3865 C   0  0  0  0  0  0
   52.4621   44.1612   -3.2990 C   0  0  0  0  0  0
   53.3687   45.1755   -3.0263 C   0  0  0  0  0  0
   52.0752   45.8081   -1.0917 C   0  0  0  0  0  0
   54.2687   46.9454   -1.5713 C   0  0  0  0  0  0
   47.1102   41.2088   -5.6991 O   0  0  0  0  0  0
   50.1981   43.4653   -5.2886 C   0  0  0  0  0  0
   47.7120   39.6120   -3.0823 C   0  0  0  0  0  0
   48.8230   40.4101   -0.6386 C   0  0  0  0  0  0
   54.9534   46.8123   -0.3609 C   0  0  0  0  0  0
   54.6738   47.9143   -2.4965 C   0  0  0  0  0  0
   47.3411   38.9789   -1.9003 C   0  0  0  0  0  0
   47.8831   39.3856   -0.6890 C   0  0  0  0  0  0
   55.7601   48.7385   -2.2184 C   0  0  0  0  0  0
   56.0579   47.6101   -0.0990 C   0  0  0  0  0  0
   56.4524   48.5756   -1.0223 C   0  0  0  0  0  0
   50.2886   44.6802   -0.7426 H   0  0  0  0  0  0
   52.6589   43.5002   -4.1299 H   0  0  0  0  0  0
   54.2405   45.2868   -3.6543 H   0  0  0  0  0  0
   51.9326   46.4278   -0.2182 H   0  0  0  0  0  0
   46.6923   41.5559   -4.9067 H   0  0  0  0  0  0
   49.2780   43.7398   -5.8066 H   0  0  0  0  0  0
   50.6814   44.4030   -5.0419 H   0  0  0  0  0  0
   50.8228   42.9362   -6.0068 H   0  0  0  0  0  0
   47.2716   39.2733   -4.0070 H   0  0  0  0  0  0
   49.2453   40.7110    0.3084 H   0  0  0  0  0  0
   54.6642   46.0540    0.3524 H   0  0  0  0  0  0
   54.1545   48.0178   -3.4390 H   0  0  0  0  0  0
   46.6285   38.1674   -1.9234 H   0  0  0  0  0  0
   47.5836   38.8886    0.2203 H   0  0  0  0  0  0
   56.0783   49.4853   -2.9331 H   0  0  0  0  0  0
   56.6137   47.4763    0.8174 H   0  0  0  0  0  0
   57.3103   49.1966   -0.8133 H   0  0  0  0  0  0
  1  2  2  0  0  0
  1  5  1  0  0  0
  2  3  1  0  0  0
  2  8  1  0  0  0
  3 17  1  0  0  0
  3  4  2  0  0  0
  4  6  1  0  0  0
  4  7  1  0  0  0
  5  6  1  0  0  0
  5 19  2  0  0  0
  6 18  2  0  0  0
  7 10  2  0  0  0
  7 16  1  0  0  0
  8 11  2  0  0  0
  8 12  1  0  0  0
  9 13  1  0  0  0
  9 15  1  0  0  0
  9 14  2  0  0  0
 11 14  1  0  0  0
 11 27  1  0  0  0
 12 13  2  0  0  0
 12 28  1  0  0  0
 13 29  1  0  0  0
 14 30  1  0  0  0
 15 20  1  0  0  0
 15 21  2  0  0  0
 16 31  1  0  0  0
 17 32  1  0  0  0
 17 33  1  0  0  0
 17 34  1  0  0  0
 18 22  1  0  0  0
 18 35  1  0  0  0
 19 23  1  0  0  0
 19 36  1  0  0  0
 20 25  2  0  0  0
 20 37  1  0  0  0
 21 24  1  0  0  0
 21 38  1  0  0  0
 22 23  2  0  0  0
 22 39  1  0  0  0
 23 40  1  0  0  0
 24 26  2  0  0  0
 24 41  1  0  0  0
 25 26  1  0  0  0
 25 42  1  0  0  0
 26 43  1  0  0  0
M  END
> <s_m_entry_id>
25391

> <s_m_entry_name>
dock_pv.43

> <s_m_Source_Path>
/home/csk/Desktop/cluster/DUD-E-result/pyrd

> <s_m_Source_File>
dock_pv.maegz

> <i_m_Source_File_Index>
43

> <chembl_id>
CHEMBL39448

> <chembl_pref_name>
None

> <i_lp_mmshare_version>
53161

> <r_lp_tautomer_probability>
1

> <s_lp_Force_Field>
OPLS_2005

> <r_lp_Energy>
33.838566

> <b_lp_Chiralities_Consistent>
1

> <s_lp_Variant>
CHEMBL1966_lig601-1

> <s_i_glide_gridfile>
glide-grid_1d3g

> <i_i_glide_lignum>
655

> <i_i_glide_rotatable_bonds>
4

> <r_i_docking_score>
-10.9630306769148

> <r_i_glide_ligand_efficiency>
-0.421655026035185

> <r_i_glide_ligand_efficiency_sa>
-1.24915135549682

> <r_i_glide_ligand_efficiency_ln>
-2.57463178183573

> <r_i_glide_gscore>
-10.9630306769148

> <r_i_glide_lipo>
-6.30413362022186

> <r_i_glide_hbond>
-0.16

> <r_i_glide_metal>
0

> <r_i_glide_rewards>
-2.03552377192296

> <r_i_glide_evdw>
-37.4806480407715

> <r_i_glide_ecoul>
-7.21484136581421

> <r_i_glide_erotb>
0.49288532214072

> <r_i_glide_esite>
0

> <r_i_glide_emodel>
-67.5574178314208

> <r_i_glide_energy>
-44.6954894065857

> <r_i_glide_einternal>
4.06559944152832

> <i_i_glide_confnum>
1

> <i_i_glide_posenum>
399

> <r_i_glide_eff_state_penalty>
0

> <s_user_duplicate_titles>
CHEMBL1966_lig601,56979

> <i_f3d_flags>
0

> <s_m_subgroup_title>
dock_pv

> <s_m_subgroupid>
dock_pv

> <b_m_subgroup_collapsed>
1

$$$$
CHEMBL1966_lig764
                    3D
 Schrodinger Suite 2021-1.
 43 46  0  0  1  0            999 V2000
   49.2228   41.8413   -4.1028 C   0  0  0  0  0  0
   50.4753   42.4893   -1.6610 N   0  0  0  0  0  0
   50.1681   42.8896   -4.0234 C   0  0  0  0  0  0
   50.7322   43.2100   -2.7667 C   0  0  0  0  0  0
   48.8973   41.0859   -2.9156 C   0  0  0  0  0  0
   49.6186   41.4530   -1.7272 C   0  0  0  0  0  0
   48.6224   41.4935   -5.4395 C   0  0  0  0  0  0
   51.7231   44.2954   -2.4984 C   0  0  0  0  0  0
   47.8915   40.0429   -2.7886 C   0  0  0  0  0  0
   53.6941   46.2701   -2.1251 C   0  0  0  0  0  0
   49.2250   40.8098   -6.2482 O   0  0  0  0  0  0
   52.8583   44.3518   -3.2993 C   0  0  0  0  0  0
   51.6215   45.2087   -1.4321 C   0  0  0  0  0  0
   52.6096   46.1831   -1.2412 C   0  0  0  0  0  0
   53.8179   45.3272   -3.1352 C   0  0  0  0  0  0
   54.7499   47.3054   -2.0465 C   0  0  0  0  0  0
   47.3933   42.0099   -5.6995 O   0  0  0  0  0  0
   46.7391   39.6082   -4.0031 Cl  0  0  0  0  0  0
   50.5495   43.6423   -5.3056 C   0  0  0  0  0  0
   49.3544   40.8060   -0.5074 C   0  0  0  0  0  0
   48.4205   39.7843   -0.4560 C   0  0  0  0  0  0
   47.6924   39.4114   -1.5686 C   0  0  0  0  0  0
   55.5091   47.4713   -0.8879 C   0  0  0  0  0  0
   55.0745   48.0430   -3.1934 C   0  0  0  0  0  0
   56.1564   48.9171   -3.1928 C   0  0  0  0  0  0
   56.6037   48.3302   -0.8989 C   0  0  0  0  0  0
   56.9206   49.0572   -2.0408 C   0  0  0  0  0  0
   53.0076   43.6135   -4.0743 H   0  0  0  0  0  0
   50.7743   45.1687   -0.7623 H   0  0  0  0  0  0
   52.5173   46.8790   -0.4215 H   0  0  0  0  0  0
   54.6740   45.3415   -3.7939 H   0  0  0  0  0  0
   47.1331   42.7279   -5.1170 H   0  0  0  0  0  0
   49.6520   44.0270   -5.7898 H   0  0  0  0  0  0
   51.2219   44.4769   -5.1664 H   0  0  0  0  0  0
   51.0194   42.9694   -6.0217 H   0  0  0  0  0  0
   49.8920   41.0947    0.3845 H   0  0  0  0  0  0
   48.2674   39.2634    0.4720 H   0  0  0  0  0  0
   46.9463   38.6355   -1.4731 H   0  0  0  0  0  0
   55.2914   46.8931   -0.0014 H   0  0  0  0  0  0
   54.4970   47.9219   -4.0989 H   0  0  0  0  0  0
   56.4047   49.4779   -4.0823 H   0  0  0  0  0  0
   57.2242   48.4133   -0.0236 H   0  0  0  0  0  0
   57.7717   49.7225   -2.0333 H   0  0  0  0  0  0
  1  3  2  0  0  0
  1  5  1  0  0  0
  1  7  1  0  0  0
  2  6  1  0  0  0
  2  4  2  0  0  0
  3  4  1  0  0  0
  3 19  1  0  0  0
  4  8  1  0  0  0
  5  6  1  0  0  0
  5  9  2  0  0  0
  6 20  2  0  0  0
  7 11  2  0  0  0
  7 17  1  0  0  0
  8 12  2  0  0  0
  8 13  1  0  0  0
  9 18  1  0  0  0
  9 22  1  0  0  0
 10 14  1  0  0  0
 10 16  1  0  0  0
 10 15  2  0  0  0
 12 15  1  0  0  0
 12 28  1  0  0  0
 13 14  2  0  0  0
 13 29  1  0  0  0
 14 30  1  0  0  0
 15 31  1  0  0  0
 16 23  2  0  0  0
 16 24  1  0  0  0
 17 32  1  0  0  0
 19 33  1  0  0  0
 19 34  1  0  0  0
 19 35  1  0  0  0
 20 21  1  0  0  0
 20 36  1  0  0  0
 21 22  2  0  0  0
 21 37  1  0  0  0
 22 38  1  0  0  0
 23 26  1  0  0  0
 23 39  1  0  0  0
 24 25  2  0  0  0
 24 40  1  0  0  0
 25 27  1  0  0  0
 25 41  1  0  0  0
 26 27  2  0  0  0
 26 42  1  0  0  0
 27 43  1  0  0  0
M  END
> <s_m_entry_id>
25392

> <s_m_entry_name>
dock_pv.44

> <s_m_Source_Path>
/home/csk/Desktop/cluster/DUD-E-result/pyrd

> <s_m_Source_File>
dock_pv.maegz

> <i_m_Source_File_Index>
44

> <chembl_id>
CHEMBL40846

> <chembl_pref_name>
None

> <i_lp_mmshare_version>
53161

> <r_lp_tautomer_probability>
1

> <s_lp_Force_Field>
OPLS_2005

> <r_lp_Energy>
40.158748

> <b_lp_Chiralities_Consistent>
1

> <s_lp_Variant>
CHEMBL1966_lig764-1

> <s_i_glide_gridfile>
glide-grid_1d3g

> <i_i_glide_lignum>
835

> <i_i_glide_rotatable_bonds>
4

> <r_i_docking_score>
-10.9588383986564

> <r_i_glide_ligand_efficiency>
-0.40588290365394

> <r_i_glide_ligand_efficiency_sa>
-1.2176487096241

> <r_i_glide_ligand_efficiency_ln>
-2.55103690863603

> <r_i_glide_gscore>
-10.9588383986564

> <r_i_glide_lipo>
-6.43910151124038

> <r_i_glide_hbond>
-0.16

> <r_i_glide_metal>
0

> <r_i_glide_rewards>
-2.00147966700342

> <r_i_glide_evdw>
-33.7793846130371

> <r_i_glide_ecoul>
-7.22820281982422

> <r_i_glide_erotb>
0.414942433212914

> <r_i_glide_esite>
0

> <r_i_glide_emodel>
-56.8005289243433

> <r_i_glide_energy>
-41.0075874328613

> <r_i_glide_einternal>
5.10194969177246

> <i_i_glide_confnum>
1

> <i_i_glide_posenum>
372

> <r_i_glide_eff_state_penalty>
0

> <s_user_duplicate_titles>
CHEMBL1966_lig764,56978

> <i_f3d_flags>
0

> <s_m_subgroup_title>
dock_pv

> <s_m_subgroupid>
dock_pv

> <b_m_subgroup_collapsed>
1

$$$$
CHEMBL1966_lig605
                    3D
 Schrodinger Suite 2021-1.
 45 48  0  0  1  0            999 V2000
   47.8833   39.3852   -0.6589 C   0  0  0  0  0  0
   47.3376   38.9790   -1.8690 C   0  0  0  0  0  0
   47.7062   39.6102   -3.0526 C   0  0  0  0  0  0
   48.8237   40.4099   -0.6111 C   0  0  0  0  0  0
   49.2231   41.0685   -1.7981 C   0  0  0  0  0  0
   48.6390   40.6945   -3.0466 C   0  0  0  0  0  0
   48.9959   41.4728   -4.1977 C   0  0  0  0  0  0
   49.8730   42.5666   -4.0491 C   0  0  0  0  0  0
   50.4002   42.8369   -2.7715 C   0  0  0  0  0  0
   50.0875   42.1036   -1.6778 N   0  0  0  0  0  0
   51.3747   43.9258   -2.4992 C   0  0  0  0  0  0
   51.2122   44.8441   -1.4504 C   0  0  0  0  0  0
   52.1457   45.8685   -1.2589 C   0  0  0  0  0  0
   53.2698   45.9622   -2.0896 C   0  0  0  0  0  0
   53.4501   45.0107   -3.0902 C   0  0  0  0  0  0
   52.5140   44.0107   -3.2997 C   0  0  0  0  0  0
   48.4609   41.1191   -5.5568 C   0  0  0  0  0  0
   47.1068   41.2087   -5.6979 O   0  0  0  0  0  0
   49.2229   40.8104   -6.4666 O   0  0  0  0  0  0
   50.1937   43.4685   -5.2540 C   0  0  0  0  0  0
   54.2883   47.0392   -1.9756 C   0  0  0  0  0  0
   55.0326   47.3022   -0.8092 C   0  0  0  0  0  0
   56.0273   48.2300   -0.7746 N   0  0  0  0  0  0
   56.3177   48.9186   -1.9076 C   0  0  0  0  0  0
   55.6278   48.7232   -3.0996 C   0  0  0  0  0  0
   54.6012   47.7848   -3.1219 C   0  0  0  0  0  0
   54.7609   46.4102    0.6486 Cl  0  0  0  0  0  0
   57.4506   49.9227   -1.8234 C   0  0  0  0  0  0
   47.5854   38.8903    0.2519 H   0  0  0  0  0  0
   46.6209   38.1710   -1.8904 H   0  0  0  0  0  0
   47.2595   39.2758   -3.9760 H   0  0  0  0  0  0
   49.2497   40.7106    0.3350 H   0  0  0  0  0  0
   50.3445   44.7890   -0.8084 H   0  0  0  0  0  0
   51.9899   46.5895   -0.4699 H   0  0  0  0  0  0
   54.3376   45.0429   -3.7017 H   0  0  0  0  0  0
   52.6929   43.2825   -4.0783 H   0  0  0  0  0  0
   46.6788   41.5620   -4.9135 H   0  0  0  0  0  0
   49.2757   43.7423   -5.7753 H   0  0  0  0  0  0
   50.6726   44.4079   -4.9962 H   0  0  0  0  0  0
   50.8253   42.9463   -5.9717 H   0  0  0  0  0  0
   55.8802   49.2806   -3.9901 H   0  0  0  0  0  0
   54.0626   47.6171   -4.0448 H   0  0  0  0  0  0
   57.7906   50.2224   -2.8153 H   0  0  0  0  0  0
   57.1305   50.8211   -1.2990 H   0  0  0  0  0  0
   58.3046   49.4975   -1.2994 H   0  0  0  0  0  0
  1  2  2  0  0  0
  1  4  1  0  0  0
  1 29  1  0  0  0
  2  3  1  0  0  0
  2 30  1  0  0  0
  3  6  2  0  0  0
  3 31  1  0  0  0
  4  5  2  0  0  0
  4 32  1  0  0  0
  5  6  1  0  0  0
  5 10  1  0  0  0
  6  7  1  0  0  0
  7  8  2  0  0  0
  7 17  1  0  0  0
  8  9  1  0  0  0
  8 20  1  0  0  0
  9 10  2  0  0  0
  9 11  1  0  0  0
 11 12  2  0  0  0
 11 16  1  0  0  0
 12 13  1  0  0  0
 12 33  1  0  0  0
 13 14  2  0  0  0
 13 34  1  0  0  0
 14 15  1  0  0  0
 14 21  1  0  0  0
 15 16  2  0  0  0
 15 35  1  0  0  0
 16 36  1  0  0  0
 17 18  1  0  0  0
 17 19  2  0  0  0
 18 37  1  0  0  0
 20 38  1  0  0  0
 20 39  1  0  0  0
 20 40  1  0  0  0
 21 22  2  0  0  0
 21 26  1  0  0  0
 22 23  1  0  0  0
 22 27  1  0  0  0
 23 24  2  0  0  0
 24 25  1  0  0  0
 24 28  1  0  0  0
 25 26  2  0  0  0
 25 41  1  0  0  0
 26 42  1  0  0  0
 28 43  1  0  0  0
 28 44  1  0  0  0
 28 45  1  0  0  0
M  END
> <s_m_entry_id>
25393

> <s_m_entry_name>
dock_pv.45

> <s_m_Source_Path>
/home/csk/Desktop/cluster/DUD-E-result/pyrd

> <s_m_Source_File>
dock_pv.maegz

> <i_m_Source_File_Index>
45

> <chembl_id>
CHEMBL4226599

> <chembl_pref_name>
None

> <i_lp_mmshare_version>
53161

> <r_lp_tautomer_probability>
1

> <s_lp_Force_Field>
OPLS_2005

> <r_lp_Energy>
36.075982

> <b_lp_Chiralities_Consistent>
1

> <s_lp_Variant>
CHEMBL1966_lig605-1

> <s_i_glide_gridfile>
glide-grid_1d3g

> <i_i_glide_lignum>
659

> <i_i_glide_rotatable_bonds>
4

> <r_i_docking_score>
-10.9525930036461

> <r_i_glide_ligand_efficiency>
-0.391164035844505

> <r_i_glide_ligand_efficiency_sa>
-1.18780439612046

> <r_i_glide_ligand_efficiency_ln>
-2.52818004734573

> <r_i_glide_gscore>
-10.9525930036461

> <r_i_glide_lipo>
-6.54024879307903

> <r_i_glide_hbond>
-0.16

> <r_i_glide_metal>
0

> <r_i_glide_rewards>
-1.57948172088709

> <r_i_glide_evdw>
-39.8441886901855

> <r_i_glide_ecoul>
-7.11547040939331

> <r_i_glide_erotb>
0.386667506238251

> <r_i_glide_esite>
0

> <r_i_glide_emodel>
-70.6202250027539

> <r_i_glide_energy>
-46.9596590995789

> <r_i_glide_einternal>
2.19037103652954

> <i_i_glide_confnum>
14

> <i_i_glide_posenum>
286

> <r_i_glide_eff_state_penalty>
0

> <s_user_duplicate_titles>
CHEMBL1966_lig605

> <i_f3d_flags>
0

> <s_m_subgroup_title>
dock_pv

> <s_m_subgroupid>
dock_pv

> <b_m_subgroup_collapsed>
1

$$$$
CHEMBL1966_lig594
                    3D
 Schrodinger Suite 2021-1.
 42 45  0  0  1  0            999 V2000
   48.0229   39.5610   -0.6078 C   0  0  0  0  0  0
   47.4612   39.1827   -1.8199 C   0  0  0  0  0  0
   47.8656   39.7905   -3.0039 C   0  0  0  0  0  0
   49.0196   40.5276   -0.5553 C   0  0  0  0  0  0
   49.4083   41.2100   -1.7350 C   0  0  0  0  0  0
   48.8236   40.8480   -2.9929 C   0  0  0  0  0  0
   49.2231   41.6032   -4.1482 C   0  0  0  0  0  0
   50.1449   42.6407   -3.9745 C   0  0  0  0  0  0
   50.6425   42.9460   -2.7052 C   0  0  0  0  0  0
   50.2855   42.2431   -1.6035 N   0  0  0  0  0  0
   51.6229   44.0521   -2.4996 C   0  0  0  0  0  0
   51.5360   44.9711   -1.4363 C   0  0  0  0  0  0
   52.4734   46.0078   -1.3023 C   0  0  0  0  0  0
   53.5400   46.1272   -2.2076 C   0  0  0  0  0  0
   53.6244   45.1990   -3.2461 C   0  0  0  0  0  0
   52.6784   44.1939   -3.3994 C   0  0  0  0  0  0
   48.7149   41.3133   -5.5390 C   0  0  0  0  0  0
   47.3598   41.2103   -5.6611 O   0  0  0  0  0  0
   49.4743   41.2098   -6.4989 O   0  0  0  0  0  0
   54.5853   47.2033   -2.1500 C   0  0  0  0  0  0
   54.8594   47.9007   -3.3388 C   0  0  0  0  0  0
   55.8522   48.8100   -3.4861 N   0  0  0  0  0  0
   56.6068   49.0951   -2.4038 C   0  0  0  0  0  0
   56.4100   48.4824   -1.1718 C   0  0  0  0  0  0
   55.3907   47.5256   -1.0248 C   0  0  0  0  0  0
   55.2624   46.8448    0.3399 C   0  0  0  0  0  0
   54.4238   47.5218    1.1017 F   0  0  0  0  0  0
   54.8166   45.6100    0.2599 F   0  0  0  0  0  0
   56.4231   46.7925    0.9835 F   0  0  0  0  0  0
   47.7089   39.0701    0.2997 H   0  0  0  0  0  0
   46.7160   38.4005   -1.8428 H   0  0  0  0  0  0
   47.4253   39.4536   -3.9287 H   0  0  0  0  0  0
   49.4618   40.8026    0.3913 H   0  0  0  0  0  0
   50.4619   43.2278   -4.8262 H   0  0  0  0  0  0
   50.7265   44.8959   -0.7241 H   0  0  0  0  0  0
   52.3727   46.7094   -0.4877 H   0  0  0  0  0  0
   54.4455   45.2535   -3.9450 H   0  0  0  0  0  0
   52.7947   43.4902   -4.2111 H   0  0  0  0  0  0
   46.9008   41.4705   -4.8598 H   0  0  0  0  0  0
   54.2855   47.7073   -4.2343 H   0  0  0  0  0  0
   57.3878   49.8296   -2.5395 H   0  0  0  0  0  0
   57.0626   48.7420   -0.3503 H   0  0  0  0  0  0
  1  2  2  0  0  0
  1  4  1  0  0  0
  1 30  1  0  0  0
  2  3  1  0  0  0
  2 31  1  0  0  0
  3  6  2  0  0  0
  3 32  1  0  0  0
  4  5  2  0  0  0
  4 33  1  0  0  0
  5  6  1  0  0  0
  5 10  1  0  0  0
  6  7  1  0  0  0
  7  8  2  0  0  0
  7 17  1  0  0  0
  8  9  1  0  0  0
  8 34  1  0  0  0
  9 10  2  0  0  0
  9 11  1  0  0  0
 11 12  2  0  0  0
 11 16  1  0  0  0
 12 13  1  0  0  0
 12 35  1  0  0  0
 13 14  2  0  0  0
 13 36  1  0  0  0
 14 15  1  0  0  0
 14 20  1  0  0  0
 15 16  2  0  0  0
 15 37  1  0  0  0
 16 38  1  0  0  0
 17 18  1  0  0  0
 17 19  2  0  0  0
 18 39  1  0  0  0
 20 21  2  0  0  0
 20 25  1  0  0  0
 21 22  1  0  0  0
 21 40  1  0  0  0
 22 23  2  0  0  0
 23 24  1  0  0  0
 23 41  1  0  0  0
 24 25  2  0  0  0
 24 42  1  0  0  0
 25 26  1  0  0  0
 26 27  1  0  0  0
 26 28  1  0  0  0
 26 29  1  0  0  0
M  END
> <s_m_entry_id>
25394

> <s_m_entry_name>
dock_pv.46

> <s_m_Source_Path>
/home/csk/Desktop/cluster/DUD-E-result/pyrd

> <s_m_Source_File>
dock_pv.maegz

> <i_m_Source_File_Index>
46

> <chembl_id>
CHEMBL4227592

> <chembl_pref_name>
None

> <i_lp_mmshare_version>
53161

> <r_lp_tautomer_probability>
1

> <s_lp_Force_Field>
OPLS_2005

> <r_lp_Energy>
32.814452

> <b_lp_Chiralities_Consistent>
1

> <s_lp_Variant>
CHEMBL1966_lig594-1

> <s_i_glide_gridfile>
glide-grid_1d3g

> <i_i_glide_lignum>
648

> <i_i_glide_rotatable_bonds>
5

> <r_i_docking_score>
-10.9501101114787

> <r_i_glide_ligand_efficiency>
-0.377590003844093

> <r_i_glide_ligand_efficiency_sa>
-1.16007612071888

> <r_i_glide_ligand_efficiency_ln>
-2.50729754469429

> <r_i_glide_gscore>
-10.9501101114787

> <r_i_glide_lipo>
-6.0975133830376

> <r_i_glide_hbond>
-0.16

> <r_i_glide_metal>
0

> <r_i_glide_rewards>
-2.43566552611136

> <r_i_glide_evdw>
-36.5915908813477

> <r_i_glide_ecoul>
-5.36256122589111

> <r_i_glide_erotb>
0.377032525621333

> <r_i_glide_esite>
0

> <r_i_glide_emodel>
-61.1411860538348

> <r_i_glide_energy>
-41.9541521072388

> <r_i_glide_einternal>
6.926926612854

> <i_i_glide_confnum>
40

> <i_i_glide_posenum>
199

> <r_i_glide_eff_state_penalty>
0

> <s_user_duplicate_titles>
CHEMBL1966_lig594

> <i_f3d_flags>
0

> <s_m_subgroup_title>
dock_pv

> <s_m_subgroupid>
dock_pv

> <b_m_subgroup_collapsed>
1

$$$$
CHEMBL1966_lig711
                    3D
 Schrodinger Suite 2021-1.
 45 49  0  0  1  0            999 V2000
   49.4877   42.0720   -3.5467 C   0  0  0  0  0  0
   48.5793   41.0250   -3.7934 C   0  0  0  0  0  0
   49.9384   42.2955   -2.2278 C   0  0  0  0  0  0
   49.6230   41.4606   -1.2063 N   0  0  0  0  0  0
   48.1714   40.1888   -2.7112 C   0  0  0  0  0  0
   50.0396   43.1541   -4.8636 S   0  0  0  0  0  0
   50.7802   43.5074   -1.9219 C   0  0  0  0  0  0
   48.7847   40.4130   -1.4391 C   0  0  0  0  0  0
   48.0219   40.8100   -5.1702 C   0  0  0  0  0  0
   51.6981   43.9146   -2.8990 C   0  0  0  0  0  0
   52.6092   45.6100   -1.4086 C   0  0  0  0  0  0
   52.6099   44.9297   -2.6249 C   0  0  0  0  0  0
   50.7359   44.2163   -0.7123 C   0  0  0  0  0  0
   51.7155   43.1931   -4.2119 C   0  0  0  0  0  0
   53.7371   46.5359   -1.1170 C   0  0  0  0  0  0
   47.1486   39.1972   -2.7969 C   0  0  0  0  0  0
   46.6695   40.9494   -5.2992 O   0  0  0  0  0  0
   51.6230   45.2741   -0.4692 C   0  0  0  0  0  0
   48.7692   40.5601   -6.0990 O   0  0  0  0  0  0
   54.2657   47.3679   -2.1178 C   0  0  0  0  0  0
   48.4230   39.6101   -0.3414 C   0  0  0  0  0  0
   46.7977   38.4586   -1.6796 C   0  0  0  0  0  0
   47.4780   38.6134   -0.4993 C   0  0  0  0  0  0
   55.4367   48.1002   -1.9047 C   0  0  0  0  0  0
   45.7592   37.6101   -1.6990 F   0  0  0  0  0  0
   54.3871   46.4896    0.1223 C   0  0  0  0  0  0
   55.5605   47.2097    0.3343 C   0  0  0  0  0  0
   56.0877   48.0098   -0.6756 C   0  0  0  0  0  0
   56.0240   48.9632   -3.0052 C   0  0  0  0  0  0
   53.3588   45.1609   -3.3687 H   0  0  0  0  0  0
   50.0230   43.9393    0.0507 H   0  0  0  0  0  0
   52.4228   43.6100   -4.8992 H   0  0  0  0  0  0
   52.0231   42.1658   -4.0565 H   0  0  0  0  0  0
   46.6054   39.0229   -3.7097 H   0  0  0  0  0  0
   51.5903   45.7795    0.4853 H   0  0  0  0  0  0
   53.7807   47.4210   -3.0822 H   0  0  0  0  0  0
   48.8846   39.7644    0.6230 H   0  0  0  0  0  0
   47.2229   37.9528    0.3010 H   0  0  0  0  0  0
   54.0211   45.8475    0.9105 H   0  0  0  0  0  0
   56.0710   47.1395    1.2833 H   0  0  0  0  0  0
   57.0034   48.5572   -0.4988 H   0  0  0  0  0  0
   56.0254   50.0100   -2.7002 H   0  0  0  0  0  0
   55.4756   48.8668   -3.9430 H   0  0  0  0  0  0
   57.0600   48.6776   -3.1914 H   0  0  0  0  0  0
   46.2442   41.2744   -4.5013 H   0  0  0  0  0  0
  1  2  2  0  0  0
  1  3  1  0  0  0
  1  6  1  0  0  0
  2  5  1  0  0  0
  2  9  1  0  0  0
  3  4  2  0  0  0
  3  7  1  0  0  0
  4  8  1  0  0  0
  5 16  2  0  0  0
  5  8  1  0  0  0
  6 14  1  0  0  0
  7 13  1  0  0  0
  7 10  2  0  0  0
  8 21  2  0  0  0
  9 17  1  0  0  0
  9 19  2  0  0  0
 10 14  1  0  0  0
 10 12  1  0  0  0
 11 12  2  0  0  0
 11 15  1  0  0  0
 11 18  1  0  0  0
 12 30  1  0  0  0
 13 18  2  0  0  0
 13 31  1  0  0  0
 14 32  1  0  0  0
 14 33  1  0  0  0
 15 20  1  0  0  0
 15 26  2  0  0  0
 16 22  1  0  0  0
 16 34  1  0  0  0
 17 45  1  0  0  0
 18 35  1  0  0  0
 20 24  2  0  0  0
 20 36  1  0  0  0
 21 23  1  0  0  0
 21 37  1  0  0  0
 22 25  1  0  0  0
 22 23  2  0  0  0
 23 38  1  0  0  0
 24 29  1  0  0  0
 24 28  1  0  0  0
 26 27  1  0  0  0
 26 39  1  0  0  0
 27 28  2  0  0  0
 27 40  1  0  0  0
 28 41  1  0  0  0
 29 42  1  0  0  0
 29 43  1  0  0  0
 29 44  1  0  0  0
M  END
> <s_m_entry_id>
25395

> <s_m_entry_name>
dock_pv.47

> <s_m_Source_Path>
/home/csk/Desktop/cluster/DUD-E-result/pyrd

> <s_m_Source_File>
dock_pv.maegz

> <i_m_Source_File_Index>
47

> <chembl_id>
CHEMBL108213

> <chembl_pref_name>
None

> <i_lp_mmshare_version>
53161

> <r_lp_tautomer_probability>
1

> <s_lp_Force_Field>
OPLS_2005

> <r_lp_Energy>
33.196594

> <b_lp_Chiralities_Consistent>
1

> <s_lp_Variant>
CHEMBL1966_lig711-1

> <s_i_glide_gridfile>
glide-grid_1d3g

> <i_i_glide_lignum>
781

> <i_i_glide_rotatable_bonds>
3

> <r_i_docking_score>
-10.9487518833957

> <r_i_glide_ligand_efficiency>
-0.377543168392956

> <r_i_glide_ligand_efficiency_sa>
-1.15993222737448

> <r_i_glide_ligand_efficiency_ln>
-2.50698654490498

> <r_i_glide_gscore>
-10.9487518833957

> <r_i_glide_lipo>
-6.80011107216761

> <r_i_glide_hbond>
-0.16

> <r_i_glide_metal>
0

> <r_i_glide_rewards>
-1.72732334969572

> <r_i_glide_evdw>
-32.2440872192383

> <r_i_glide_ecoul>
-5.95012140274048

> <r_i_glide_erotb>
0.243405109840607

> <r_i_glide_esite>
0

> <r_i_glide_emodel>
-73.1987166804975

> <r_i_glide_energy>
-38.1942086219788

> <r_i_glide_einternal>
2.02936410903931

> <i_i_glide_confnum>
15

> <i_i_glide_posenum>
127

> <r_i_glide_eff_state_penalty>
0

> <s_user_duplicate_titles>
CHEMBL1966_lig711,174284

> <i_f3d_flags>
0

> <s_m_subgroup_title>
dock_pv

> <s_m_subgroupid>
dock_pv

> <b_m_subgroup_collapsed>
1

$$$$
CHEMBL1966_lig780
                    3D
 Schrodinger Suite 2021-1.
 44 47  0  0  1  0            999 V2000
   50.5961   42.7395   -3.1822 C   0  0  0  0  0  0
   50.4424   42.1693   -1.9625 N   0  0  0  0  0  0
   48.8241   41.3957   -4.1299 C   0  0  0  0  0  0
   48.6755   40.7415   -2.8636 C   0  0  0  0  0  0
   49.8047   42.4051   -4.2808 C   0  0  0  0  0  0
   49.4991   41.2115   -1.7967 C   0  0  0  0  0  0
   48.0019   40.9689   -5.3072 C   0  0  0  0  0  0
   51.6054   43.6709   -3.3489 O   0  0  0  0  0  0
   47.7524   39.6786   -2.5833 C   0  0  0  0  0  0
   53.7214   46.1982   -1.7335 C   0  0  0  0  0  0
   46.6588   40.8100   -5.1187 O   0  0  0  0  0  0
   53.2232   45.2427   -2.6301 C   0  0  0  0  0  0
   52.0229   44.5721   -2.3895 C   0  0  0  0  0  0
   48.5444   40.8101   -6.3838 O   0  0  0  0  0  0
   49.3242   40.6961   -0.4992 C   0  0  0  0  0  0
   54.9558   46.9779   -2.0405 C   0  0  0  0  0  0
   47.6236   39.1652   -1.2995 C   0  0  0  0  0  0
   48.4230   39.6628   -0.2771 C   0  0  0  0  0  0
   46.7756   38.1419   -1.0630 F   0  0  0  0  0  0
   50.0193   43.1606   -5.6028 C   0  0  0  0  0  0
   53.0026   46.4301   -0.5534 C   0  0  0  0  0  0
   51.7783   45.8138   -0.3219 C   0  0  0  0  0  0
   51.2737   44.9090   -1.2490 C   0  0  0  0  0  0
   55.2637   47.3363   -3.3615 C   0  0  0  0  0  0
   55.8117   47.3977   -1.0140 C   0  0  0  0  0  0
   56.9350   48.1657   -1.2990 C   0  0  0  0  0  0
   56.3937   48.0977   -3.6481 C   0  0  0  0  0  0
   57.2230   48.5143   -2.6133 C   0  0  0  0  0  0
   47.1475   39.2375   -3.3588 H   0  0  0  0  0  0
   53.7649   45.0132   -3.5355 H   0  0  0  0  0  0
   49.9491   41.0573    0.3046 H   0  0  0  0  0  0
   48.4085   39.2135    0.7007 H   0  0  0  0  0  0
   50.4232   42.5004   -6.3696 H   0  0  0  0  0  0
   49.0721   43.5526   -5.9753 H   0  0  0  0  0  0
   50.6930   44.0098   -5.5158 H   0  0  0  0  0  0
   53.3533   47.1529    0.1684 H   0  0  0  0  0  0
   51.2230   46.0461    0.5738 H   0  0  0  0  0  0
   50.3038   44.4765   -1.0600 H   0  0  0  0  0  0
   54.6173   47.0443   -4.1759 H   0  0  0  0  0  0
   55.6151   47.1312    0.0139 H   0  0  0  0  0  0
   57.5890   48.4779   -0.4990 H   0  0  0  0  0  0
   56.6253   48.3690   -4.6666 H   0  0  0  0  0  0
   58.0998   49.1066   -2.8305 H   0  0  0  0  0  0
   46.3607   41.0900   -4.2501 H   0  0  0  0  0  0
  1  2  2  0  0  0
  1  5  1  0  0  0
  1  8  1  0  0  0
  2  6  1  0  0  0
  3  5  2  0  0  0
  3  4  1  0  0  0
  3  7  1  0  0  0
  4  9  2  0  0  0
  4  6  1  0  0  0
  5 20  1  0  0  0
  6 15  2  0  0  0
  7 11  1  0  0  0
  7 14  2  0  0  0
  8 13  1  0  0  0
  9 17  1  0  0  0
  9 29  1  0  0  0
 10 12  2  0  0  0
 10 16  1  0  0  0
 10 21  1  0  0  0
 11 44  1  0  0  0
 12 13  1  0  0  0
 12 30  1  0  0  0
 13 23  2  0  0  0
 15 18  1  0  0  0
 15 31  1  0  0  0
 16 24  2  0  0  0
 16 25  1  0  0  0
 17 19  1  0  0  0
 17 18  2  0  0  0
 18 32  1  0  0  0
 20 33  1  0  0  0
 20 34  1  0  0  0
 20 35  1  0  0  0
 21 22  2  0  0  0
 21 36  1  0  0  0
 22 23  1  0  0  0
 22 37  1  0  0  0
 23 38  1  0  0  0
 24 27  1  0  0  0
 24 39  1  0  0  0
 25 26  2  0  0  0
 25 40  1  0  0  0
 26 28  1  0  0  0
 26 41  1  0  0  0
 27 28  2  0  0  0
 27 42  1  0  0  0
 28 43  1  0  0  0
M  END
> <s_m_entry_id>
25396

> <s_m_entry_name>
dock_pv.48

> <s_m_Source_Path>
/home/csk/Desktop/cluster/DUD-E-result/pyrd

> <s_m_Source_File>
dock_pv.maegz

> <i_m_Source_File_Index>
48

> <chembl_id>
CHEMBL49129

> <chembl_pref_name>
None

> <i_lp_mmshare_version>
53161

> <r_lp_tautomer_probability>
1

> <s_lp_Force_Field>
OPLS_2005

> <r_lp_Energy>
31.229816

> <b_lp_Chiralities_Consistent>
1

> <s_lp_Variant>
CHEMBL1966_lig780-1

> <s_i_glide_gridfile>
glide-grid_1d3g

> <i_i_glide_lignum>
851

> <i_i_glide_rotatable_bonds>
5

> <r_i_docking_score>
-10.9311275483847

> <r_i_glide_ligand_efficiency>
-0.39039741244231

> <r_i_glide_ligand_efficiency_sa>
-1.18547647595436

> <r_i_glide_ligand_efficiency_ln>
-2.52322519001823

> <r_i_glide_gscore>
-10.9311275483847

> <r_i_glide_lipo>
-6.16165046067201

> <r_i_glide_hbond>
-0.163010925785836

> <r_i_glide_metal>
0

> <r_i_glide_rewards>
-2.44694806470259

> <r_i_glide_evdw>
-32.3376731872559

> <r_i_glide_ecoul>
-7.31398248672485

> <r_i_glide_erotb>
0.554462935147278

> <r_i_glide_esite>
0

> <r_i_glide_emodel>
-54.6977407010972

> <r_i_glide_energy>
-39.6516556739807

> <r_i_glide_einternal>
15.5597553253174

> <i_i_glide_confnum>
61

> <i_i_glide_posenum>
100

> <r_i_glide_eff_state_penalty>
0

> <s_user_duplicate_titles>
CHEMBL1966_lig780,74074

> <i_f3d_flags>
0

> <s_m_subgroup_title>
dock_pv

> <s_m_subgroupid>
dock_pv

> <b_m_subgroup_collapsed>
1

$$$$
CHEMBL1966_lig602
                    3D
 Schrodinger Suite 2021-1.
 42 45  0  0  1  0            999 V2000
   47.8992   39.3880   -0.6280 C   0  0  0  0  0  0
   47.3440   38.9809   -1.8348 C   0  0  0  0  0  0
   47.7033   39.6105   -3.0247 C   0  0  0  0  0  0
   48.8414   40.4100   -0.5943 C   0  0  0  0  0  0
   49.2230   41.0755   -1.7848 C   0  0  0  0  0  0
   48.6338   40.6987   -3.0296 C   0  0  0  0  0  0
   48.9879   41.4747   -4.1855 C   0  0  0  0  0  0
   49.8676   42.5698   -4.0439 C   0  0  0  0  0  0
   50.3994   42.8473   -2.7698 C   0  0  0  0  0  0
   50.0880   42.1140   -1.6735 N   0  0  0  0  0  0
   51.3670   43.9497   -2.4990 C   0  0  0  0  0  0
   51.2087   44.8441   -1.4279 C   0  0  0  0  0  0
   52.1467   45.8580   -1.2042 C   0  0  0  0  0  0
   53.2648   45.9807   -2.0383 C   0  0  0  0  0  0
   53.4315   45.0746   -3.0809 C   0  0  0  0  0  0
   52.5025   44.0679   -3.3015 C   0  0  0  0  0  0
   48.4557   41.1168   -5.5449 C   0  0  0  0  0  0
   47.1035   41.2099   -5.6968 O   0  0  0  0  0  0
   49.2230   40.8100   -6.4520 O   0  0  0  0  0  0
   50.1854   43.4663   -5.2532 C   0  0  0  0  0  0
   54.3145   47.0102   -1.8379 C   0  0  0  0  0  0
   55.0526   47.0967   -0.6477 C   0  0  0  0  0  0
   56.0923   47.9571   -0.4978 N   0  0  0  0  0  0
   56.4221   48.7718   -1.5283 C   0  0  0  0  0  0
   55.7350   48.7595   -2.7383 C   0  0  0  0  0  0
   54.6714   47.8690   -2.8884 C   0  0  0  0  0  0
   54.7618   46.2689    0.3836 F   0  0  0  0  0  0
   47.6132   38.9039    0.2951 H   0  0  0  0  0  0
   46.6279   38.1718   -1.8473 H   0  0  0  0  0  0
   47.2529   39.2751   -3.9460 H   0  0  0  0  0  0
   49.2766   40.7120    0.3469 H   0  0  0  0  0  0
   50.3491   44.7653   -0.7778 H   0  0  0  0  0  0
   52.0059   46.5415   -0.3792 H   0  0  0  0  0  0
   54.3130   45.1296   -3.6998 H   0  0  0  0  0  0
   52.6820   43.3600   -4.0981 H   0  0  0  0  0  0
   46.6695   41.5641   -4.9161 H   0  0  0  0  0  0
   49.2677   43.7326   -5.7787 H   0  0  0  0  0  0
   50.6570   44.4097   -5.0005 H   0  0  0  0  0  0
   50.8224   42.9439   -5.9661 H   0  0  0  0  0  0
   57.2593   49.4367   -1.3669 H   0  0  0  0  0  0
   56.0238   49.4180   -3.5448 H   0  0  0  0  0  0
   54.1369   47.8312   -3.8276 H   0  0  0  0  0  0
  1  2  2  0  0  0
  1  4  1  0  0  0
  1 28  1  0  0  0
  2  3  1  0  0  0
  2 29  1  0  0  0
  3  6  2  0  0  0
  3 30  1  0  0  0
  4  5  2  0  0  0
  4 31  1  0  0  0
  5  6  1  0  0  0
  5 10  1  0  0  0
  6  7  1  0  0  0
  7  8  2  0  0  0
  7 17  1  0  0  0
  8  9  1  0  0  0
  8 20  1  0  0  0
  9 10  2  0  0  0
  9 11  1  0  0  0
 11 12  2  0  0  0
 11 16  1  0  0  0
 12 13  1  0  0  0
 12 32  1  0  0  0
 13 14  2  0  0  0
 13 33  1  0  0  0
 14 15  1  0  0  0
 14 21  1  0  0  0
 15 16  2  0  0  0
 15 34  1  0  0  0
 16 35  1  0  0  0
 17 18  1  0  0  0
 17 19  2  0  0  0
 18 36  1  0  0  0
 20 37  1  0  0  0
 20 38  1  0  0  0
 20 39  1  0  0  0
 21 22  2  0  0  0
 21 26  1  0  0  0
 22 23  1  0  0  0
 22 27  1  0  0  0
 23 24  2  0  0  0
 24 25  1  0  0  0
 24 40  1  0  0  0
 25 26  2  0  0  0
 25 41  1  0  0  0
 26 42  1  0  0  0
M  END
> <s_m_entry_id>
25397

> <s_m_entry_name>
dock_pv.49

> <s_m_Source_Path>
/home/csk/Desktop/cluster/DUD-E-result/pyrd

> <s_m_Source_File>
dock_pv.maegz

> <i_m_Source_File_Index>
49

> <chembl_id>
CHEMBL4225494

> <chembl_pref_name>
None

> <i_lp_mmshare_version>
53161

> <r_lp_tautomer_probability>
1

> <s_lp_Force_Field>
OPLS_2005

> <r_lp_Energy>
36.053902

> <b_lp_Chiralities_Consistent>
1

> <s_lp_Variant>
CHEMBL1966_lig602-1

> <s_i_glide_gridfile>
glide-grid_1d3g

> <i_i_glide_lignum>
656

> <i_i_glide_rotatable_bonds>
4

> <r_i_docking_score>
-10.9262336226958

> <r_i_glide_ligand_efficiency>
-0.404675319359103

> <r_i_glide_ligand_efficiency_sa>
-1.21402595674356

> <r_i_glide_ligand_efficiency_ln>
-2.54344705432414

> <r_i_glide_gscore>
-10.9262336226958

> <r_i_glide_lipo>
-6.01879753421794

> <r_i_glide_hbond>
-0.16

> <r_i_glide_metal>
0

> <r_i_glide_rewards>
-2.26670507548058

> <r_i_glide_evdw>
-37.3794479370117

> <r_i_glide_ecoul>
-7.06142902374268

> <r_i_glide_erotb>
0.447455737414731

> <r_i_glide_esite>
0

> <r_i_glide_emodel>
-70.422719159119

> <r_i_glide_energy>
-44.4408769607544

> <r_i_glide_einternal>
2.08657073974609

> <i_i_glide_confnum>
3

> <i_i_glide_posenum>
396

> <r_i_glide_eff_state_penalty>
0

> <s_user_duplicate_titles>
CHEMBL1966_lig602

> <i_f3d_flags>
0

> <s_m_subgroup_title>
dock_pv

> <s_m_subgroupid>
dock_pv

> <b_m_subgroup_collapsed>
1

$$$$
CHEMBL1966_lig593
                    3D
 Schrodinger Suite 2021-1.
 42 45  0  0  1  0            999 V2000
   47.9403   39.3554   -0.5969 C   0  0  0  0  0  0
   47.4098   38.9557   -1.8153 C   0  0  0  0  0  0
   47.7656   39.6160   -2.9861 C   0  0  0  0  0  0
   48.8433   40.4101   -0.5237 C   0  0  0  0  0  0
   49.2234   41.1077   -1.6957 C   0  0  0  0  0  0
   48.6667   40.7241   -2.9576 C   0  0  0  0  0  0
   49.0297   41.5101   -4.0997 C   0  0  0  0  0  0
   49.9270   42.5668   -3.9249 C   0  0  0  0  0  0
   50.4138   42.8812   -2.6552 C   0  0  0  0  0  0
   50.0639   42.1711   -1.5545 N   0  0  0  0  0  0
   51.3688   44.0081   -2.4564 C   0  0  0  0  0  0
   51.2783   44.9200   -1.3891 C   0  0  0  0  0  0
   52.2146   45.9582   -1.2604 C   0  0  0  0  0  0
   53.2897   46.0724   -2.1576 C   0  0  0  0  0  0
   53.3715   45.1498   -3.2013 C   0  0  0  0  0  0
   52.4233   44.1467   -3.3585 C   0  0  0  0  0  0
   48.4867   41.2536   -5.4780 C   0  0  0  0  0  0
   47.1305   41.1351   -5.5669 O   0  0  0  0  0  0
   49.2235   41.2098   -6.4554 O   0  0  0  0  0  0
   54.3391   47.1447   -2.0831 C   0  0  0  0  0  0
   55.1218   47.4700   -0.9441 C   0  0  0  0  0  0
   56.0854   48.4341   -0.9678 N   0  0  0  0  0  0
   56.3440   49.0787   -2.1259 C   0  0  0  0  0  0
   55.6530   48.8049   -3.2982 C   0  0  0  0  0  0
   54.6350   47.8538   -3.2614 C   0  0  0  0  0  0
   55.0576   46.7610    0.4091 C   0  0  0  0  0  0
   56.2851   46.5089    0.8676 F   0  0  0  0  0  0
   54.4237   47.5180    1.2922 F   0  0  0  0  0  0
   54.4230   45.6100    0.3714 F   0  0  0  0  0  0
   47.6655   38.8243    0.2986 H   0  0  0  0  0  0
   46.7257   38.1201   -1.8531 H   0  0  0  0  0  0
   47.3507   39.2684   -3.9190 H   0  0  0  0  0  0
   49.2571   40.7028    0.4301 H   0  0  0  0  0  0
   50.2197   43.1723   -4.7728 H   0  0  0  0  0  0
   50.4707   44.8418   -0.6753 H   0  0  0  0  0  0
   52.1132   46.6622   -0.4471 H   0  0  0  0  0  0
   54.1909   45.2099   -3.9011 H   0  0  0  0  0  0
   52.5403   43.4464   -4.1730 H   0  0  0  0  0  0
   46.6874   41.3326   -4.7387 H   0  0  0  0  0  0
   57.1263   49.8237   -2.1009 H   0  0  0  0  0  0
   55.8864   49.3363   -4.2086 H   0  0  0  0  0  0
   54.0817   47.6540   -4.1686 H   0  0  0  0  0  0
  1  2  2  0  0  0
  1  4  1  0  0  0
  1 30  1  0  0  0
  2  3  1  0  0  0
  2 31  1  0  0  0
  3  6  2  0  0  0
  3 32  1  0  0  0
  4  5  2  0  0  0
  4 33  1  0  0  0
  5  6  1  0  0  0
  5 10  1  0  0  0
  6  7  1  0  0  0
  7  8  2  0  0  0
  7 17  1  0  0  0
  8  9  1  0  0  0
  8 34  1  0  0  0
  9 10  2  0  0  0
  9 11  1  0  0  0
 11 12  2  0  0  0
 11 16  1  0  0  0
 12 13  1  0  0  0
 12 35  1  0  0  0
 13 14  2  0  0  0
 13 36  1  0  0  0
 14 15  1  0  0  0
 14 20  1  0  0  0
 15 16  2  0  0  0
 15 37  1  0  0  0
 16 38  1  0  0  0
 17 18  1  0  0  0
 17 19  2  0  0  0
 18 39  1  0  0  0
 20 21  2  0  0  0
 20 25  1  0  0  0
 21 22  1  0  0  0
 21 26  1  0  0  0
 22 23  2  0  0  0
 23 24  1  0  0  0
 23 40  1  0  0  0
 24 25  2  0  0  0
 24 41  1  0  0  0
 25 42  1  0  0  0
 26 27  1  0  0  0
 26 28  1  0  0  0
 26 29  1  0  0  0
M  END
> <s_m_entry_id>
25398

> <s_m_entry_name>
dock_pv.50

> <s_m_Source_Path>
/home/csk/Desktop/cluster/DUD-E-result/pyrd

> <s_m_Source_File>
dock_pv.maegz

> <i_m_Source_File_Index>
50

> <chembl_id>
CHEMBL4227002

> <chembl_pref_name>
None

> <i_lp_mmshare_version>
53161

> <r_lp_tautomer_probability>
1

> <s_lp_Force_Field>
OPLS_2005

> <r_lp_Energy>
37.46518

> <b_lp_Chiralities_Consistent>
1

> <s_lp_Variant>
CHEMBL1966_lig593-1

> <s_i_glide_gridfile>
glide-grid_1d3g

> <i_i_glide_lignum>
647

> <i_i_glide_rotatable_bonds>
5

> <r_i_docking_score>
-10.8933194434103

> <r_i_glide_ligand_efficiency>
-0.375631704945181

> <r_i_glide_ligand_efficiency_sa>
-1.15405960606879

> <r_i_glide_ligand_efficiency_ln>
-2.4942939217937

> <r_i_glide_gscore>
-10.8933194434103

> <r_i_glide_lipo>
-6.02665889421002

> <r_i_glide_hbond>
-0.16

> <r_i_glide_metal>
0

> <r_i_glide_rewards>
-2.46619732344065

> <r_i_glide_evdw>
-36.9484748840332

> <r_i_glide_ecoul>
-5.13381338119507

> <r_i_glide_erotb>
0.377032525621333

> <r_i_glide_esite>
0

> <r_i_glide_emodel>
-62.8353756044021

> <r_i_glide_energy>
-42.0822882652283

> <r_i_glide_einternal>
6.88161087036133

> <i_i_glide_confnum>
30

> <i_i_glide_posenum>
290

> <r_i_glide_eff_state_penalty>
0

> <s_user_duplicate_titles>
CHEMBL1966_lig593

> <i_f3d_flags>
0

> <s_m_subgroup_title>
dock_pv

> <s_m_subgroupid>
dock_pv

> <b_m_subgroup_collapsed>
1

$$$$
CHEMBL1966_lig762
                    3D
 Schrodinger Suite 2021-1.
 46 49  0  0  1  0            999 V2000
   50.3922   42.2923   -1.6798 N   0  0  0  0  0  0
   49.1835   41.6575   -4.1537 C   0  0  0  0  0  0
   50.6553   43.0238   -2.7822 C   0  0  0  0  0  0
   50.0914   42.7363   -4.0456 C   0  0  0  0  0  0
   48.8799   40.8895   -2.9793 C   0  0  0  0  0  0
   49.5303   41.2585   -1.7609 C   0  0  0  0  0  0
   48.5478   41.3140   -5.4838 C   0  0  0  0  0  0
   51.6230   44.1189   -2.5004 C   0  0  0  0  0  0
   47.9433   39.8148   -2.9324 C   0  0  0  0  0  0
   53.5360   46.1271   -2.0201 C   0  0  0  0  0  0
   49.2231   41.1734   -6.4956 O   0  0  0  0  0  0
   49.2221   40.5937   -0.5564 C   0  0  0  0  0  0
   51.4647   45.0148   -1.4262 C   0  0  0  0  0  0
   52.7624   44.2393   -3.2991 C   0  0  0  0  0  0
   53.6978   45.2325   -3.0720 C   0  0  0  0  0  0
   52.4182   46.0100   -1.1859 C   0  0  0  0  0  0
   54.5922   47.1422   -1.8128 C   0  0  0  0  0  0
   47.1871   41.2103   -5.4920 O   0  0  0  0  0  0
   47.6088   39.2124   -1.7262 C   0  0  0  0  0  0
   50.4130   43.5898   -5.2811 C   0  0  0  0  0  0
   48.2387   39.6101   -0.5577 C   0  0  0  0  0  0
   55.3295   47.1612   -0.6265 C   0  0  0  0  0  0
   54.9374   48.0106   -2.8561 C   0  0  0  0  0  0
   46.5253   38.1552   -1.6679 C   0  0  0  0  0  0
   56.4262   48.0083   -0.5083 C   0  0  0  0  0  0
   56.0207   48.8743   -2.7243 C   0  0  0  0  0  0
   56.7645   48.8664   -1.5497 C   0  0  0  0  0  0
   47.4524   39.4699   -3.8280 H   0  0  0  0  0  0
   49.7140   40.8768    0.3631 H   0  0  0  0  0  0
   50.6012   44.9408   -0.7803 H   0  0  0  0  0  0
   52.9397   43.5310   -4.0958 H   0  0  0  0  0  0
   54.5732   45.2887   -3.7015 H   0  0  0  0  0  0
   52.2848   46.6869   -0.3547 H   0  0  0  0  0  0
   46.7888   41.4618   -4.6557 H   0  0  0  0  0  0
   49.5017   44.0080   -5.7081 H   0  0  0  0  0  0
   51.0815   44.4100   -5.0938 H   0  0  0  0  0  0
   50.8852   42.9887   -6.0567 H   0  0  0  0  0  0
   47.9957   39.0883    0.3381 H   0  0  0  0  0  0
   55.0928   46.4779    0.1766 H   0  0  0  0  0  0
   54.3787   47.9984   -3.7817 H   0  0  0  0  0  0
   46.9305   37.2109   -1.3005 H   0  0  0  0  0  0
   46.0513   38.0101   -2.6387 H   0  0  0  0  0  0
   45.7492   38.4690   -0.9706 H   0  0  0  0  0  0
   57.0490   47.9844    0.3696 H   0  0  0  0  0  0
   56.2918   49.5368   -3.5333 H   0  0  0  0  0  0
   57.6192   49.5194   -1.4475 H   0  0  0  0  0  0
  1  3  2  0  0  0
  1  6  1  0  0  0
  2  5  1  0  0  0
  2  7  1  0  0  0
  2  4  2  0  0  0
  3  4  1  0  0  0
  3  8  1  0  0  0
  4 20  1  0  0  0
  5  6  1  0  0  0
  5  9  2  0  0  0
  6 12  2  0  0  0
  7 11  2  0  0  0
  7 18  1  0  0  0
  8 13  2  0  0  0
  8 14  1  0  0  0
  9 19  1  0  0  0
  9 28  1  0  0  0
 10 15  1  0  0  0
 10 17  1  0  0  0
 10 16  2  0  0  0
 12 21  1  0  0  0
 12 29  1  0  0  0
 13 16  1  0  0  0
 13 30  1  0  0  0
 14 15  2  0  0  0
 14 31  1  0  0  0
 15 32  1  0  0  0
 16 33  1  0  0  0
 17 22  1  0  0  0
 17 23  2  0  0  0
 18 34  1  0  0  0
 19 21  2  0  0  0
 19 24  1  0  0  0
 20 35  1  0  0  0
 20 36  1  0  0  0
 20 37  1  0  0  0
 21 38  1  0  0  0
 22 25  2  0  0  0
 22 39  1  0  0  0
 23 26  1  0  0  0
 23 40  1  0  0  0
 24 41  1  0  0  0
 24 42  1  0  0  0
 24 43  1  0  0  0
 25 27  1  0  0  0
 25 44  1  0  0  0
 26 27  2  0  0  0
 26 45  1  0  0  0
 27 46  1  0  0  0
M  END
> <s_m_entry_id>
25399

> <s_m_entry_name>
dock_pv.51

> <s_m_Source_Path>
/home/csk/Desktop/cluster/DUD-E-result/pyrd

> <s_m_Source_File>
dock_pv.maegz

> <i_m_Source_File_Index>
51

> <chembl_id>
CHEMBL290910

> <chembl_pref_name>
None

> <i_lp_mmshare_version>
53161

> <r_lp_tautomer_probability>
1

> <s_lp_Force_Field>
OPLS_2005

> <r_lp_Energy>
33.386286

> <b_lp_Chiralities_Consistent>
1

> <s_lp_Variant>
CHEMBL1966_lig762-1

> <s_i_glide_gridfile>
glide-grid_1d3g

> <i_i_glide_lignum>
833

> <i_i_glide_rotatable_bonds>
4

> <r_i_docking_score>
-10.8838479673099

> <r_i_glide_ligand_efficiency>
-0.403105480270735

> <r_i_glide_ligand_efficiency_sa>
-1.20931643948364

> <r_i_glide_ligand_efficiency_ln>
-2.53358037253244

> <r_i_glide_gscore>
-10.8838479673099

> <r_i_glide_lipo>
-6.48529989062385

> <r_i_glide_hbond>
-0.16

> <r_i_glide_metal>
0

> <r_i_glide_rewards>
-2.00460343319929

> <r_i_glide_evdw>
-38.5993614196777

> <r_i_glide_ecoul>
-5.08438205718994

> <r_i_glide_erotb>
0.458680736075664

> <r_i_glide_esite>
0

> <r_i_glide_emodel>
-60.976992948803

> <r_i_glide_energy>
-43.6837434768677

> <r_i_glide_einternal>
5.04912281036377

> <i_i_glide_confnum>
41

> <i_i_glide_posenum>
97

> <r_i_glide_eff_state_penalty>
0

> <s_user_duplicate_titles>
CHEMBL1966_lig762,55936

> <i_f3d_flags>
0

> <s_m_subgroup_title>
dock_pv

> <s_m_subgroupid>
dock_pv

> <b_m_subgroup_collapsed>
1

$$$$
CHEMBL1966_lig682
                    3D
 Schrodinger Suite 2021-1.
 45 49  0  0  1  0            999 V2000
   50.5091   42.8511   -1.8631 C   0  0  0  0  0  0
   50.3440   42.6762   -3.2504 C   0  0  0  0  0  0
   50.0229   41.9627   -0.9571 N   0  0  0  0  0  0
   49.4260   41.6899   -3.6954 C   0  0  0  0  0  0
   48.8207   40.8074   -2.7399 C   0  0  0  0  0  0
   51.1488   44.1274   -1.3542 C   0  0  0  0  0  0
   52.0791   44.8099   -2.1623 C   0  0  0  0  0  0
   49.2234   40.9421   -1.3791 C   0  0  0  0  0  0
   48.9913   41.6143   -5.1417 C   0  0  0  0  0  0
   52.7114   45.9839   -1.6993 C   0  0  0  0  0  0
   51.1251   43.6099   -4.1852 C   0  0  0  0  0  0
   52.3987   44.1715   -3.5059 C   0  0  0  0  0  0
   53.4794   46.7961   -2.5081 O   0  0  0  0  0  0
   47.7873   39.8602   -3.0342 C   0  0  0  0  0  0
   48.7154   42.8100   -5.6990 O   0  0  0  0  0  0
   48.8227   40.5650   -5.7542 O   0  0  0  0  0  0
   48.6718   40.0787   -0.4025 C   0  0  0  0  0  0
   47.2018   39.0998   -2.0328 C   0  0  0  0  0  0
   54.7393   46.4622   -2.9652 C   0  0  0  0  0  0
   47.6515   39.1921   -0.7293 C   0  0  0  0  0  0
   50.9011   44.6305   -0.0746 C   0  0  0  0  0  0
   46.1613   38.2926   -2.3225 F   0  0  0  0  0  0
   52.5032   46.4082   -0.3933 C   0  0  0  0  0  0
   51.6239   45.7169    0.4247 C   0  0  0  0  0  0
   55.3447   45.2159   -2.7659 C   0  0  0  0  0  0
   55.4232   47.4466   -3.6799 C   0  0  0  0  0  0
   56.7001   47.2005   -4.1787 C   0  0  0  0  0  0
   56.6225   44.9660   -3.2577 C   0  0  0  0  0  0
   57.2948   45.9596   -3.9630 C   0  0  0  0  0  0
   50.4668   44.4094   -4.4982 H   0  0  0  0  0  0
   51.4110   43.1032   -5.1045 H   0  0  0  0  0  0
   53.1197   43.3640   -3.3757 H   0  0  0  0  0  0
   52.8788   44.9326   -4.0991 H   0  0  0  0  0  0
   47.3941   39.7472   -4.0306 H   0  0  0  0  0  0
   49.0108   40.1516    0.6202 H   0  0  0  0  0  0
   47.1979   38.5786    0.0342 H   0  0  0  0  0  0
   50.1826   44.1446    0.5693 H   0  0  0  0  0  0
   53.0217   47.2751   -0.0167 H   0  0  0  0  0  0
   51.4721   46.0568    1.4374 H   0  0  0  0  0  0
   54.8268   44.4432   -2.2223 H   0  0  0  0  0  0
   54.9574   48.4070   -3.8454 H   0  0  0  0  0  0
   57.2263   47.9682   -4.7267 H   0  0  0  0  0  0
   57.0930   44.0104   -3.0837 H   0  0  0  0  0  0
   58.2893   45.7678   -4.3388 H   0  0  0  0  0  0
   48.5856   43.5415   -5.0872 H   0  0  0  0  0  0
  1  2  1  0  0  0
  1  3  2  0  0  0
  1  6  1  0  0  0
  2  4  2  0  0  0
  2 11  1  0  0  0
  3  8  1  0  0  0
  4  9  1  0  0  0
  4  5  1  0  0  0
  5  8  1  0  0  0
  5 14  2  0  0  0
  6  7  2  0  0  0
  6 21  1  0  0  0
  7 10  1  0  0  0
  7 12  1  0  0  0
  8 17  2  0  0  0
  9 15  1  0  0  0
  9 16  2  0  0  0
 10 13  1  0  0  0
 10 23  2  0  0  0
 11 12  1  0  0  0
 11 30  1  0  0  0
 11 31  1  0  0  0
 12 32  1  0  0  0
 12 33  1  0  0  0
 13 19  1  0  0  0
 14 18  1  0  0  0
 14 34  1  0  0  0
 15 45  1  0  0  0
 17 20  1  0  0  0
 17 35  1  0  0  0
 18 20  2  0  0  0
 18 22  1  0  0  0
 19 25  2  0  0  0
 19 26  1  0  0  0
 20 36  1  0  0  0
 21 24  2  0  0  0
 21 37  1  0  0  0
 23 24  1  0  0  0
 23 38  1  0  0  0
 24 39  1  0  0  0
 25 28  1  0  0  0
 25 40  1  0  0  0
 26 27  2  0  0  0
 26 41  1  0  0  0
 27 29  1  0  0  0
 27 42  1  0  0  0
 28 29  2  0  0  0
 28 43  1  0  0  0
 29 44  1  0  0  0
M  END
> <s_m_entry_id>
25400

> <s_m_entry_name>
dock_pv.52

> <s_m_Source_Path>
/home/csk/Desktop/cluster/DUD-E-result/pyrd

> <s_m_Source_File>
dock_pv.maegz

> <i_m_Source_File_Index>
52

> <chembl_id>
CHEMBL322929

> <chembl_pref_name>
None

> <i_lp_mmshare_version>
53161

> <r_lp_tautomer_probability>
1

> <s_lp_Force_Field>
OPLS_2005

> <r_lp_Energy>
31.89043

> <b_lp_Chiralities_Consistent>
1

> <s_lp_Variant>
CHEMBL1966_lig682-1

> <s_i_glide_gridfile>
glide-grid_1d3g

> <i_i_glide_lignum>
751

> <i_i_glide_rotatable_bonds>
4

> <r_i_docking_score>
-10.8814209204847

> <r_i_glide_ligand_efficiency>
-0.375221411051197

> <r_i_glide_ligand_efficiency_sa>
-1.15279905323624

> <r_i_glide_ligand_efficiency_ln>
-2.49156946176426

> <r_i_glide_gscore>
-10.8814209204847

> <r_i_glide_lipo>
-6.43576497359478

> <r_i_glide_hbond>
-0.135233123611724

> <r_i_glide_metal>
0

> <r_i_glide_rewards>
-2.08957749355708

> <r_i_glide_evdw>
-33.3496627807617

> <r_i_glide_ecoul>
-6.30853414535522

> <r_i_glide_erotb>
0.39291793112025

> <r_i_glide_esite>
0

> <r_i_glide_emodel>
-38.5052773719902

> <r_i_glide_energy>
-39.6581969261169

> <r_i_glide_einternal>
11.6367349624634

> <i_i_glide_confnum>
1

> <i_i_glide_posenum>
100

> <r_i_glide_eff_state_penalty>
0

> <s_user_duplicate_titles>
CHEMBL1966_lig682,173851

> <i_f3d_flags>
0

> <s_m_subgroup_title>
dock_pv

> <s_m_subgroupid>
dock_pv

> <b_m_subgroup_collapsed>
1

$$$$
CHEMBL1966_lig577
                    3D
 Schrodinger Suite 2021-1.
 43 46  0  0  1  0            999 V2000
   48.2462   40.2956   -2.6725 C   0  0  0  0  0  0
   48.0230   39.6206   -1.4555 C   0  0  0  0  0  0
   47.0559   38.6387   -1.3845 C   0  0  0  0  0  0
   46.2201   38.4308   -2.4641 C   0  0  0  0  0  0
   46.2964   39.2100   -3.6216 C   0  0  0  0  0  0
   47.3833   40.0326   -3.7464 N   0  0  0  0  0  0
   47.7361   40.7151   -4.8594 N   0  0  0  0  0  0
   48.7528   41.4628   -4.4990 C   0  0  0  0  0  0
   49.1035   41.3144   -3.1319 C   0  0  0  0  0  0
   50.0230   42.0722   -2.3440 C   0  0  0  0  0  0
   50.1873   41.8500   -1.1447 O   0  0  0  0  0  0
   50.5672   43.0793   -3.0160 N   0  0  0  0  0  0
   53.3071   46.0001   -1.8322 C   0  0  0  0  0  0
   52.1554   45.8054   -1.0501 C   0  0  0  0  0  0
   51.2253   44.8138   -1.3906 C   0  0  0  0  0  0
   51.4612   44.0100   -2.5222 C   0  0  0  0  0  0
   52.5968   44.2096   -3.2990 C   0  0  0  0  0  0
   53.5150   45.1941   -2.9552 C   0  0  0  0  0  0
   54.3554   46.9822   -1.4854 C   0  0  0  0  0  0
   55.1159   46.8020   -0.3296 C   0  0  0  0  0  0
   56.2205   47.6100   -0.0990 C   0  0  0  0  0  0
   56.5436   48.6226   -0.9987 C   0  0  0  0  0  0
   55.7707   48.8321   -2.1349 C   0  0  0  0  0  0
   54.6766   48.0100   -2.3794 C   0  0  0  0  0  0
   54.6384   45.3336   -3.6990 F   0  0  0  0  0  0
   52.8230   43.4127   -4.3721 F   0  0  0  0  0  0
   50.0980   44.6742   -0.6522 F   0  0  0  0  0  0
   51.9365   46.5786    0.0405 F   0  0  0  0  0  0
   45.2479   39.1242   -4.7348 C   0  0  0  0  0  0
   49.2659   42.3601   -5.3946 O   0  0  0  0  0  0
   48.6497   39.8229   -0.5992 H   0  0  0  0  0  0
   46.9481   38.0470   -0.4860 H   0  0  0  0  0  0
   45.5528   37.6100   -2.3674 H   0  0  0  0  0  0
   50.4271   43.0633   -4.0170 H   0  0  0  0  0  0
   54.8865   46.0022    0.3603 H   0  0  0  0  0  0
   56.8303   47.4486    0.7768 H   0  0  0  0  0  0
   57.4049   49.2488   -0.8182 H   0  0  0  0  0  0
   56.0298   49.6169   -2.8308 H   0  0  0  0  0  0
   54.0996   48.1467   -3.2833 H   0  0  0  0  0  0
   44.4609   38.4100   -4.4990 H   0  0  0  0  0  0
   44.8230   40.1151   -4.8990 H   0  0  0  0  0  0
   45.6230   38.8225   -5.6990 H   0  0  0  0  0  0
   48.6524   43.0983   -5.4777 H   0  0  0  0  0  0
  1  2  1  0  0  0
  1  6  1  0  0  0
  1  9  2  0  0  0
  2  3  2  0  0  0
  2 31  1  0  0  0
  3  4  1  0  0  0
  3 32  1  0  0  0
  4  5  2  0  0  0
  4 33  1  0  0  0
  5  6  1  0  0  0
  5 29  1  0  0  0
  6  7  1  0  0  0
  7  8  2  0  0  0
  8  9  1  0  0  0
  8 30  1  0  0  0
  9 10  1  0  0  0
 10 11  2  0  0  0
 10 12  1  0  0  0
 12 16  1  0  0  0
 12 34  1  0  0  0
 13 14  1  0  0  0
 13 18  2  0  0  0
 13 19  1  0  0  0
 14 15  2  0  0  0
 14 28  1  0  0  0
 15 16  1  0  0  0
 15 27  1  0  0  0
 16 17  2  0  0  0
 17 18  1  0  0  0
 17 26  1  0  0  0
 18 25  1  0  0  0
 19 20  1  0  0  0
 19 24  2  0  0  0
 20 21  2  0  0  0
 20 35  1  0  0  0
 21 22  1  0  0  0
 21 36  1  0  0  0
 22 23  2  0  0  0
 22 37  1  0  0  0
 23 24  1  0  0  0
 23 38  1  0  0  0
 24 39  1  0  0  0
 29 40  1  0  0  0
 29 41  1  0  0  0
 29 42  1  0  0  0
 30 43  1  0  0  0
M  END
> <s_m_entry_id>
25401

> <s_m_entry_name>
dock_pv.53

> <s_m_Source_Path>
/home/csk/Desktop/cluster/DUD-E-result/pyrd

> <s_m_Source_File>
dock_pv.maegz

> <i_m_Source_File_Index>
53

> <chembl_id>
CHEMBL4165923

> <chembl_pref_name>
None

> <i_lp_mmshare_version>
53161

> <r_lp_tautomer_probability>
1

> <s_lp_Force_Field>
OPLS_2005

> <r_lp_Energy>
30.110916

> <b_lp_Chiralities_Consistent>
1

> <s_lp_Variant>
CHEMBL1966_lig577-1

> <s_i_glide_gridfile>
glide-grid_1d3g

> <i_i_glide_lignum>
631

> <i_i_glide_rotatable_bonds>
5

> <r_i_docking_score>
-10.8741335879436

> <r_i_glide_ligand_efficiency>
-0.362471119598121

> <r_i_glide_ligand_efficiency_sa>
-1.12628204400787

> <r_i_glide_ligand_efficiency_ln>
-2.47072163435599

> <r_i_glide_gscore>
-10.8741335879436

> <r_i_glide_lipo>
-5.46959442479288

> <r_i_glide_hbond>
-0.0851466763933936

> <r_i_glide_metal>
0

> <r_i_glide_rewards>
-3.22019533154246

> <r_i_glide_evdw>
-37.5680351257324

> <r_i_glide_ecoul>
-4.42913103103638

> <r_i_glide_erotb>
0.457854669987475

> <r_i_glide_esite>
-0.0142804142602958

> <r_i_glide_emodel>
-57.9100728594467

> <r_i_glide_energy>
-41.9971661567688

> <r_i_glide_einternal>
5.12384986877441

> <i_i_glide_confnum>
42

> <i_i_glide_posenum>
101

> <r_i_glide_eff_state_penalty>
0

> <s_user_duplicate_titles>
CHEMBL1966_lig577

> <i_f3d_flags>
0

> <s_m_subgroup_title>
dock_pv

> <s_m_subgroupid>
dock_pv

> <b_m_subgroup_collapsed>
1

$$$$
CHEMBL1966_lig482
                    3D
 Schrodinger Suite 2021-1.
 38 41  0  0  1  0            999 V2000
   46.4009   40.8100   -5.6249 O   0  0  0  0  0  0
   47.7181   40.6865   -5.2990 C   0  0  0  0  0  0
   48.6384   40.8101   -6.0990 O   0  0  0  0  0  0
   47.9820   40.4100   -3.8552 C   0  0  0  0  0  0
   47.2651   39.4513   -3.1237 C   0  0  0  0  0  0
   47.4945   39.2384   -1.7634 C   0  0  0  0  0  0
   48.4230   40.0100   -1.0598 C   0  0  0  0  0  0
   49.1861   40.9541   -1.7706 C   0  0  0  0  0  0
   50.0593   41.8952   -1.2986 N   0  0  0  0  0  0
   50.3563   42.6336   -2.3430 C   0  0  0  0  0  0
   49.7660   42.1839   -3.4959 N   0  0  0  0  0  0
   48.9475   41.1355   -3.1532 C   0  0  0  0  0  0
   51.2230   43.8368   -2.3007 C   0  0  0  0  0  0
   52.1919   44.0100   -3.2990 C   0  0  0  0  0  0
   53.1522   45.0177   -3.1791 C   0  0  0  0  0  0
   53.1565   45.8796   -2.0787 C   0  0  0  0  0  0
   52.1349   45.7571   -1.1291 C   0  0  0  0  0  0
   51.1840   44.7406   -1.2295 C   0  0  0  0  0  0
   50.2637   44.6020   -0.2487 F   0  0  0  0  0  0
   54.2734   46.8433   -1.8998 C   0  0  0  0  0  0
   54.6328   47.7145   -2.9375 C   0  0  0  0  0  0
   55.7285   48.5685   -2.8049 C   0  0  0  0  0  0
   56.4793   48.5641   -1.6314 C   0  0  0  0  0  0
   56.1326   47.7031   -0.5931 C   0  0  0  0  0  0
   55.0357   46.8528   -0.7198 C   0  0  0  0  0  0
   54.7429   46.0133    0.3010 F   0  0  0  0  0  0
   45.8456   40.8598   -4.8433 H   0  0  0  0  0  0
   46.5117   38.8493   -3.6122 H   0  0  0  0  0  0
   46.9176   38.4915   -1.2364 H   0  0  0  0  0  0
   48.5581   39.8727    0.0035 H   0  0  0  0  0  0
   49.8638   42.6382   -4.3924 H   0  0  0  0  0  0
   52.2577   43.3194   -4.1275 H   0  0  0  0  0  0
   53.9320   45.1050   -3.9185 H   0  0  0  0  0  0
   52.1114   46.4129   -0.2710 H   0  0  0  0  0  0
   54.0663   47.7229   -3.8584 H   0  0  0  0  0  0
   56.0001   49.2302   -3.6148 H   0  0  0  0  0  0
   57.3341   49.2174   -1.5276 H   0  0  0  0  0  0
   56.7275   47.6808    0.3068 H   0  0  0  0  0  0
  1  2  1  0  0  0
  1 27  1  0  0  0
  2  3  2  0  0  0
  2  4  1  0  0  0
  4  5  2  0  0  0
  4 12  1  0  0  0
  5  6  1  0  0  0
  5 28  1  0  0  0
  6  7  2  0  0  0
  6 29  1  0  0  0
  7  8  1  0  0  0
  7 30  1  0  0  0
  8  9  1  0  0  0
  8 12  2  0  0  0
  9 10  2  0  0  0
 10 11  1  0  0  0
 10 13  1  0  0  0
 11 12  1  0  0  0
 11 31  1  0  0  0
 13 14  2  0  0  0
 13 18  1  0  0  0
 14 15  1  0  0  0
 14 32  1  0  0  0
 15 16  2  0  0  0
 15 33  1  0  0  0
 16 17  1  0  0  0
 16 20  1  0  0  0
 17 18  2  0  0  0
 17 34  1  0  0  0
 18 19  1  0  0  0
 20 21  2  0  0  0
 20 25  1  0  0  0
 21 22  1  0  0  0
 21 35  1  0  0  0
 22 23  2  0  0  0
 22 36  1  0  0  0
 23 24  1  0  0  0
 23 37  1  0  0  0
 24 25  2  0  0  0
 24 38  1  0  0  0
 25 26  1  0  0  0
M  END
> <s_m_entry_id>
25402

> <s_m_entry_name>
dock_pv.54

> <s_m_Source_Path>
/home/csk/Desktop/cluster/DUD-E-result/pyrd

> <s_m_Source_File>
dock_pv.maegz

> <i_m_Source_File_Index>
54

> <chembl_id>
CHEMBL3677739

> <chembl_pref_name>
None

> <i_lp_mmshare_version>
53161

> <r_lp_tautomer_probability>
1

> <s_lp_Force_Field>
OPLS_2005

> <r_lp_Energy>
26.157408

> <b_lp_Chiralities_Consistent>
1

> <s_lp_Variant>
CHEMBL1966_lig482-1

> <s_i_glide_gridfile>
glide-grid_1d3g

> <i_i_glide_lignum>
532

> <i_i_glide_rotatable_bonds>
4

> <r_i_docking_score>
-10.8684690364109

> <r_i_glide_ligand_efficiency>
-0.418018039861958

> <r_i_glide_ligand_efficiency_sa>
-1.23837679826949

> <r_i_glide_ligand_efficiency_ln>
-2.55242429084544

> <r_i_glide_gscore>
-10.8684690364109

> <r_i_glide_lipo>
-5.08653491249829

> <r_i_glide_hbond>
-0.16

> <r_i_glide_metal>
0

> <r_i_glide_rewards>
-3.11074025308004

> <r_i_glide_evdw>
-41.3525657653809

> <r_i_glide_ecoul>
-6.06319141387939

> <r_i_glide_erotb>
0.465913129518358

> <r_i_glide_esite>
0

> <r_i_glide_emodel>
-70.1497860621735

> <r_i_glide_energy>
-47.4157571792603

> <r_i_glide_einternal>
4.86203193664551

> <i_i_glide_confnum>
33

> <i_i_glide_posenum>
166

> <r_i_glide_eff_state_penalty>
0

> <s_user_duplicate_titles>
CHEMBL1966_lig482

> <i_f3d_flags>
0

> <s_m_subgroup_title>
dock_pv

> <s_m_subgroupid>
dock_pv

> <b_m_subgroup_collapsed>
1

$$$$
CHEMBL1966_lig548
                    3D
 Schrodinger Suite 2021-1.
 44 47  0  0  1  0            999 V2000
   45.6883   40.4392   -5.7818 C   0  0  0  0  0  0
   46.9053   40.4156   -4.8876 C   0  0  0  0  0  0
   46.8746   39.6828   -3.6990 C   0  0  0  0  0  0
   47.8042   39.8587   -2.6608 C   0  0  0  0  0  0
   47.6228   39.0085   -1.4196 C   0  0  0  0  0  0
   47.2230   37.8524   -1.4730 O   0  0  0  0  0  0
   47.8349   39.6107   -0.2292 O   0  0  0  0  0  0
   48.7698   40.8843   -2.8791 C   0  0  0  0  0  0
   48.8502   41.5465   -4.1428 C   0  0  0  0  0  0
   47.9654   41.2606   -5.1799 C   0  0  0  0  0  0
   49.7812   42.5335   -4.1567 N   0  0  0  0  0  0
   50.2129   42.6053   -2.9294 C   0  0  0  0  0  0
   51.1406   43.7133   -2.5123 C   0  0  0  0  0  0
   52.2715   43.9686   -3.3017 C   0  0  0  0  0  0
   52.5320   43.2108   -4.3943 F   0  0  0  0  0  0
   53.1820   44.9599   -2.9449 C   0  0  0  0  0  0
   54.3049   45.1171   -3.6841 F   0  0  0  0  0  0
   52.9833   45.7369   -1.8005 C   0  0  0  0  0  0
   51.8179   45.5403   -1.0441 C   0  0  0  0  0  0
   51.5910   46.2954    0.0571 F   0  0  0  0  0  0
   50.9015   44.5391   -1.3978 C   0  0  0  0  0  0
   49.7811   44.3824   -0.6544 F   0  0  0  0  0  0
   54.0608   46.6673   -1.3828 C   0  0  0  0  0  0
   54.5158   47.6615   -2.2571 C   0  0  0  0  0  0
   55.6413   48.4148   -1.9394 C   0  0  0  0  0  0
   56.3124   48.1723   -0.7444 C   0  0  0  0  0  0
   55.8485   47.2096    0.1505 C   0  0  0  0  0  0
   54.7174   46.4660   -0.1645 C   0  0  0  0  0  0
   49.7185   41.5841   -2.1232 N   0  0  0  0  0  0
   50.0091   41.4500   -0.7055 C   0  0  0  0  0  0
   45.6242   41.3815   -6.3293 H   0  0  0  0  0  0
   45.6237   39.6056   -6.4737 H   0  0  0  0  0  0
   44.8115   40.4183   -5.1504 H   0  0  0  0  0  0
   46.0442   39.0042   -3.5486 H   0  0  0  0  0  0
   47.6276   39.0199    0.5061 H   0  0  0  0  0  0
   47.9833   41.8537   -6.0827 H   0  0  0  0  0  0
   54.0209   47.8219   -3.2046 H   0  0  0  0  0  0
   56.0046   49.1668   -2.6254 H   0  0  0  0  0  0
   57.1990   48.7421   -0.5039 H   0  0  0  0  0  0
   56.3718   47.0357    1.0798 H   0  0  0  0  0  0
   54.3844   45.6974    0.5177 H   0  0  0  0  0  0
   50.9893   41.8719   -0.4934 H   0  0  0  0  0  0
   49.2446   41.9614   -0.1198 H   0  0  0  0  0  0
   50.0215   40.4048   -0.4256 H   0  0  0  0  0  0
  1  2  1  0  0  0
  1 31  1  0  0  0
  1 32  1  0  0  0
  1 33  1  0  0  0
  2  3  2  0  0  0
  2 10  1  0  0  0
  3  4  1  0  0  0
  3 34  1  0  0  0
  4  5  1  0  0  0
  4  8  2  0  0  0
  5  6  2  0  0  0
  5  7  1  0  0  0
  7 35  1  0  0  0
  8  9  1  0  0  0
  8 29  1  0  0  0
  9 10  2  0  0  0
  9 11  1  0  0  0
 10 36  1  0  0  0
 11 12  2  0  0  0
 12 13  1  0  0  0
 12 29  1  0  0  0
 13 14  2  0  0  0
 13 21  1  0  0  0
 14 15  1  0  0  0
 14 16  1  0  0  0
 16 17  1  0  0  0
 16 18  2  0  0  0
 18 19  1  0  0  0
 18 23  1  0  0  0
 19 20  1  0  0  0
 19 21  2  0  0  0
 21 22  1  0  0  0
 23 24  2  0  0  0
 23 28  1  0  0  0
 24 25  1  0  0  0
 24 37  1  0  0  0
 25 26  2  0  0  0
 25 38  1  0  0  0
 26 27  1  0  0  0
 26 39  1  0  0  0
 27 28  2  0  0  0
 27 40  1  0  0  0
 28 41  1  0  0  0
 29 30  1  0  0  0
 30 42  1  0  0  0
 30 43  1  0  0  0
 30 44  1  0  0  0
M  END
> <s_m_entry_id>
25403

> <s_m_entry_name>
dock_pv.55

> <s_m_Source_Path>
/home/csk/Desktop/cluster/DUD-E-result/pyrd

> <s_m_Source_File>
dock_pv.maegz

> <i_m_Source_File_Index>
55

> <chembl_id>
CHEMBL3677808

> <chembl_pref_name>
None

> <i_lp_mmshare_version>
53161

> <r_lp_tautomer_probability>
1

> <s_lp_Force_Field>
OPLS_2005

> <r_lp_Energy>
28.450792

> <b_lp_Chiralities_Consistent>
1

> <s_lp_Variant>
CHEMBL1966_lig548-1

> <s_i_glide_gridfile>
glide-grid_1d3g

> <i_i_glide_lignum>
602

> <i_i_glide_rotatable_bonds>
4

> <r_i_docking_score>
-10.8659768220928

> <r_i_glide_ligand_efficiency>
-0.362199227403093

> <r_i_glide_ligand_efficiency_sa>
-1.12543721174232

> <r_i_glide_ligand_efficiency_ln>
-2.4688683282796

> <r_i_glide_gscore>
-10.8659768220928

> <r_i_glide_lipo>
-5.21024236308055

> <r_i_glide_hbond>
0

> <r_i_glide_metal>
0

> <r_i_glide_rewards>
-3.15837051081817

> <r_i_glide_evdw>
-46.2597923278809

> <r_i_glide_ecoul>
-3.52830266952515

> <r_i_glide_erotb>
0.344871068628757

> <r_i_glide_esite>
0

> <r_i_glide_emodel>
-61.9859445221797

> <r_i_glide_energy>
-49.788094997406

> <r_i_glide_einternal>
2.21871852874756

> <i_i_glide_confnum>
61

> <i_i_glide_posenum>
144

> <r_i_glide_eff_state_penalty>
0

> <s_user_duplicate_titles>
CHEMBL1966_lig548

> <i_f3d_flags>
0

> <s_m_subgroup_title>
dock_pv

> <s_m_subgroupid>
dock_pv

> <b_m_subgroup_collapsed>
1

$$$$
CHEMBL1966_lig662
                    3D
 Schrodinger Suite 2021-1.
 43 46  0  0  1  0            999 V2000
   46.9729   38.8144   -1.5215 C   0  0  0  0  0  0
   46.4317   38.8034   -2.7985 C   0  0  0  0  0  0
   46.9669   39.6094   -3.7919 C   0  0  0  0  0  0
   48.0232   39.6789   -1.2378 C   0  0  0  0  0  0
   48.5979   40.4948   -2.2389 C   0  0  0  0  0  0
   48.0845   40.4099   -3.5486 C   0  0  0  0  0  0
   48.6474   41.2017   -4.6830 C   0  0  0  0  0  0
   49.6357   42.2141   -4.2600 C   0  0  0  0  0  0
   50.1429   42.3911   -2.9906 C   0  0  0  0  0  0
   49.6578   41.5129   -1.8681 C   0  0  0  0  0  0
   50.0270   41.6063   -0.6953 O   0  0  0  0  0  0
   48.2663   41.0292   -5.8486 O   0  0  0  0  0  0
   51.0921   43.4007   -2.6681 N   0  0  0  0  0  0
   50.8221   44.3694   -1.5749 C   0  0  0  0  0  0
   51.7883   45.5805   -1.3990 C   0  0  0  0  0  0
   53.1244   45.5116   -1.9866 N   0  0  0  0  0  0
   53.2170   44.7552   -3.2354 C   0  0  0  0  0  0
   52.0352   43.8723   -3.6966 C   0  0  0  0  0  0
   54.1420   46.3737   -1.5982 C   0  0  0  0  0  0
   54.8138   47.1741   -2.5344 C   0  0  0  0  0  0
   55.8744   47.9842   -2.1400 C   0  0  0  0  0  0
   56.2766   47.9917   -0.8078 C   0  0  0  0  0  0
   55.6153   47.2098    0.1326 C   0  0  0  0  0  0
   54.5408   46.4150   -0.2577 C   0  0  0  0  0  0
   49.9471   42.9987   -5.3337 O   0  0  0  0  0  0
   46.5659   38.1822   -0.7472 H   0  0  0  0  0  0
   45.6242   38.1355   -3.0356 H   0  0  0  0  0  0
   46.5145   39.5781   -4.7736 H   0  0  0  0  0  0
   48.3932   39.7078   -0.2214 H   0  0  0  0  0  0
   49.8014   44.7433   -1.6311 H   0  0  0  0  0  0
   50.9048   43.8089   -0.6470 H   0  0  0  0  0  0
   51.3532   46.3809   -1.9942 H   0  0  0  0  0  0
   51.7735   45.9656   -0.3784 H   0  0  0  0  0  0
   53.9666   44.0319   -2.9081 H   0  0  0  0  0  0
   53.6326   45.2998   -4.0864 H   0  0  0  0  0  0
   52.4497   43.0093   -4.2202 H   0  0  0  0  0  0
   51.4754   44.4350   -4.4256 H   0  0  0  0  0  0
   54.5186   47.1781   -3.5729 H   0  0  0  0  0  0
   56.3887   48.5971   -2.8657 H   0  0  0  0  0  0
   57.1114   48.6083   -0.5051 H   0  0  0  0  0  0
   55.9383   47.2113    1.1612 H   0  0  0  0  0  0
   54.0429   45.8016    0.4778 H   0  0  0  0  0  0
   49.3727   42.7684   -6.0706 H   0  0  0  0  0  0
  1  2  2  0  0  0
  1  4  1  0  0  0
  1 26  1  0  0  0
  2  3  1  0  0  0
  2 27  1  0  0  0
  3  6  2  0  0  0
  3 28  1  0  0  0
  4  5  2  0  0  0
  4 29  1  0  0  0
  5 10  1  0  0  0
  5  6  1  0  0  0
  6  7  1  0  0  0
  7 12  2  0  0  0
  7  8  1  0  0  0
  8  9  2  0  0  0
  8 25  1  0  0  0
  9 13  1  0  0  0
  9 10  1  0  0  0
 10 11  2  0  0  0
 13 14  1  0  0  0
 13 18  1  0  0  0
 14 15  1  0  0  0
 14 30  1  0  0  0
 14 31  1  0  0  0
 15 16  1  0  0  0
 15 32  1  0  0  0
 15 33  1  0  0  0
 16 17  1  0  0  0
 16 19  1  0  0  0
 17 18  1  0  0  0
 17 34  1  0  0  0
 17 35  1  0  0  0
 18 36  1  0  0  0
 18 37  1  0  0  0
 19 20  2  0  0  0
 19 24  1  0  0  0
 20 21  1  0  0  0
 20 38  1  0  0  0
 21 22  2  0  0  0
 21 39  1  0  0  0
 22 23  1  0  0  0
 22 40  1  0  0  0
 23 24  2  0  0  0
 23 41  1  0  0  0
 24 42  1  0  0  0
 25 43  1  0  0  0
M  END
> <s_m_entry_id>
25404

> <s_m_entry_name>
dock_pv.56

> <s_m_Source_Path>
/home/csk/Desktop/cluster/DUD-E-result/pyrd

> <s_m_Source_File>
dock_pv.maegz

> <i_m_Source_File_Index>
56

> <chembl_id>
CHEMBL2041119

> <chembl_pref_name>
None

> <i_lp_mmshare_version>
53161

> <r_lp_tautomer_probability>
0.0909090909090909

> <s_lp_Force_Field>
OPLS_2005

> <r_lp_Energy>
34.891457

> <b_lp_Chiralities_Consistent>
1

> <s_lp_Variant>
CHEMBL1966_lig662-3

> <s_i_glide_gridfile>
glide-grid_1d3g

> <i_i_glide_lignum>
721

> <i_i_glide_rotatable_bonds>
3

> <r_i_docking_score>
-10.8632262561422

> <r_i_glide_ligand_efficiency>
-0.434529050245688

> <r_i_glide_ligand_efficiency_sa>
-1.27057064932391

> <r_i_glide_ligand_efficiency_ln>
-2.57491016732676

> <r_i_glide_gscore>
-10.8632262561422

> <r_i_glide_lipo>
-5.19517847225691

> <r_i_glide_hbond>
-0.0937964368445931

> <r_i_glide_metal>
0

> <r_i_glide_rewards>
-3.32316072295852

> <r_i_glide_evdw>
-44.2160682678223

> <r_i_glide_ecoul>
-2.51774525642395

> <r_i_glide_erotb>
0.337374577772525

> <r_i_glide_esite>
0

> <r_i_glide_emodel>
-62.2941600957564

> <r_i_glide_energy>
-46.7338135242462

> <r_i_glide_einternal>
6.3376407623291

> <i_i_glide_confnum>
96

> <i_i_glide_posenum>
166

> <r_i_glide_eff_state_penalty>
0

> <s_user_duplicate_titles>
CHEMBL1966_lig662,CHEMBL1966_lig662

> <i_f3d_flags>
0

> <s_m_subgroup_title>
dock_pv

> <s_m_subgroupid>
dock_pv

> <b_m_subgroup_collapsed>
1

$$$$
CHEMBL1966_lig92
                    3D
 Schrodinger Suite 2021-1.
 42 45  0  0  1  0            999 V2000
   47.3234   38.9909   -1.7700 C   0  0  0  0  0  0
   47.9248   39.3864   -0.5903 C   0  0  0  0  0  0
   48.8636   40.4101   -0.5627 C   0  0  0  0  0  0
   47.6582   39.6100   -2.9645 C   0  0  0  0  0  0
   48.5990   40.6895   -2.9939 C   0  0  0  0  0  0
   49.2230   41.0607   -1.7621 C   0  0  0  0  0  0
   50.0999   42.0853   -1.6624 N   0  0  0  0  0  0
   50.3764   42.8300   -2.7555 C   0  0  0  0  0  0
   49.8066   42.5639   -4.0115 C   0  0  0  0  0  0
   48.9307   41.4635   -4.1574 C   0  0  0  0  0  0
   51.3107   43.9612   -2.4844 C   0  0  0  0  0  0
   52.4229   44.1539   -3.3107 C   0  0  0  0  0  0
   53.3306   45.1708   -3.0538 C   0  0  0  0  0  0
   53.1799   45.9806   -1.9304 C   0  0  0  0  0  0
   52.0676   45.8072   -1.1001 C   0  0  0  0  0  0
   51.1353   44.8097   -1.3790 C   0  0  0  0  0  0
   48.3209   41.1344   -5.4975 C   0  0  0  0  0  0
   49.2288   41.2091   -6.4990 O   0  0  0  0  0  0
   47.1499   40.8109   -5.6773 O   0  0  0  0  0  0
   50.0737   43.4310   -5.0829 N   0  0  0  0  0  0
   46.3964   38.0100   -1.7451 F   0  0  0  0  0  0
   54.2595   46.9310   -1.5961 C   0  0  0  0  0  0
   54.6892   47.8807   -2.5301 C   0  0  0  0  0  0
   55.7778   48.7001   -2.2449 C   0  0  0  0  0  0
   56.4445   48.5557   -1.0324 C   0  0  0  0  0  0
   56.0250   47.6102   -0.0999 C   0  0  0  0  0  0
   54.9216   46.8137   -0.3715 C   0  0  0  0  0  0
   47.6533   38.8618    0.3009 H   0  0  0  0  0  0
   49.3251   40.7018    0.3699 H   0  0  0  0  0  0
   47.1637   39.2696   -3.8585 H   0  0  0  0  0  0
   52.6048   43.4916   -4.1447 H   0  0  0  0  0  0
   54.1916   45.2827   -3.6976 H   0  0  0  0  0  0
   51.9385   46.4269   -0.2245 H   0  0  0  0  0  0
   50.2865   44.6819   -0.7220 H   0  0  0  0  0  0
   50.0243   41.6435   -6.1709 H   0  0  0  0  0  0
   49.2799   43.6115   -5.6878 H   0  0  0  0  0  0
   50.6343   44.2372   -4.8442 H   0  0  0  0  0  0
   54.1876   47.9742   -3.4828 H   0  0  0  0  0  0
   56.1144   49.4319   -2.9645 H   0  0  0  0  0  0
   57.3004   49.1778   -0.8159 H   0  0  0  0  0  0
   56.5624   47.4942    0.8287 H   0  0  0  0  0  0
   54.6121   46.0712    0.3507 H   0  0  0  0  0  0
  1  2  2  0  0  0
  1  4  1  0  0  0
  1 21  1  0  0  0
  2  3  1  0  0  0
  2 28  1  0  0  0
  3  6  2  0  0  0
  3 29  1  0  0  0
  4  5  2  0  0  0
  4 30  1  0  0  0
  5 10  1  0  0  0
  5  6  1  0  0  0
  6  7  1  0  0  0
  7  8  2  0  0  0
  8  9  1  0  0  0
  8 11  1  0  0  0
  9 20  1  0  0  0
  9 10  2  0  0  0
 10 17  1  0  0  0
 11 16  1  0  0  0
 11 12  2  0  0  0
 12 13  1  0  0  0
 12 31  1  0  0  0
 13 14  2  0  0  0
 13 32  1  0  0  0
 14 15  1  0  0  0
 14 22  1  0  0  0
 15 16  2  0  0  0
 15 33  1  0  0  0
 16 34  1  0  0  0
 17 18  1  0  0  0
 17 19  2  0  0  0
 18 35  1  0  0  0
 20 36  1  0  0  0
 20 37  1  0  0  0
 22 23  2  0  0  0
 22 27  1  0  0  0
 23 24  1  0  0  0
 23 38  1  0  0  0
 24 25  2  0  0  0
 24 39  1  0  0  0
 25 26  1  0  0  0
 25 40  1  0  0  0
 26 27  2  0  0  0
 26 41  1  0  0  0
 27 42  1  0  0  0
M  END
> <s_m_entry_id>
25405

> <s_m_entry_name>
dock_pv.57

> <s_m_Source_Path>
/home/csk/Desktop/cluster/DUD-E-result/pyrd

> <s_m_Source_File>
dock_pv.maegz

> <i_m_Source_File_Index>
57

> <chembl_id>
CHEMBL218249

> <chembl_pref_name>
None

> <i_lp_mmshare_version>
53161

> <r_lp_tautomer_probability>
1

> <s_lp_Force_Field>
OPLS_2005

> <r_lp_Energy>
37.232908

> <b_lp_Chiralities_Consistent>
1

> <s_lp_Variant>
CHEMBL1966_lig92-1

> <s_i_glide_gridfile>
glide-grid_1d3g

> <i_i_glide_lignum>
101

> <i_i_glide_rotatable_bonds>
4

> <r_i_docking_score>
-10.8610455922622

> <r_i_glide_ligand_efficiency>
-0.402260947861564

> <r_i_glide_ligand_efficiency_sa>
-1.20678284225891

> <r_i_glide_ligand_efficiency_ln>
-2.52827235554789

> <r_i_glide_gscore>
-10.8610455922622

> <r_i_glide_lipo>
-6.0778391530215

> <r_i_glide_hbond>
-0.114255149203723

> <r_i_glide_metal>
0

> <r_i_glide_rewards>
-2.24316870233273

> <r_i_glide_evdw>
-40.4870071411133

> <r_i_glide_ecoul>
-5.65925312042236

> <r_i_glide_erotb>
0.447455737414731

> <r_i_glide_esite>
0

> <r_i_glide_emodel>
-68.0827269359879

> <r_i_glide_energy>
-46.1462602615356

> <r_i_glide_einternal>
4.56080865859985

> <i_i_glide_confnum>
64

> <i_i_glide_posenum>
12

> <r_i_glide_eff_state_penalty>
0

> <s_user_duplicate_titles>
CHEMBL1966_lig92,365645

> <i_f3d_flags>
0

> <s_m_subgroup_title>
dock_pv

> <s_m_subgroupid>
dock_pv

> <b_m_subgroup_collapsed>
1

$$$$
CHEMBL1966_lig768
                    3D
 Schrodinger Suite 2021-1.
 43 46  0  0  1  0            999 V2000
   50.2874   42.1954   -1.7560 N   0  0  0  0  0  0
   49.0949   41.5538   -4.2257 C   0  0  0  0  0  0
   50.5784   42.9160   -2.8661 C   0  0  0  0  0  0
   50.0061   42.6286   -4.1241 C   0  0  0  0  0  0
   48.7492   40.8100   -3.0479 C   0  0  0  0  0  0
   49.3904   41.1821   -1.8277 C   0  0  0  0  0  0
   48.5053   41.1743   -5.5604 C   0  0  0  0  0  0
   51.5670   44.0099   -2.6122 C   0  0  0  0  0  0
   47.7653   39.7721   -2.9997 C   0  0  0  0  0  0
   53.4935   46.0195   -2.1578 C   0  0  0  0  0  0
   49.2230   40.8102   -6.4854 O   0  0  0  0  0  0
   49.0450   40.5254   -0.6206 C   0  0  0  0  0  0
   51.4394   44.8915   -1.5255 C   0  0  0  0  0  0
   52.6801   44.1408   -3.4433 C   0  0  0  0  0  0
   53.6212   45.1403   -3.2297 C   0  0  0  0  0  0
   52.3962   45.8868   -1.2989 C   0  0  0  0  0  0
   54.5505   47.0430   -1.9526 C   0  0  0  0  0  0
   47.3951   39.2018   -1.7872 C   0  0  0  0  0  0
   47.1489   41.2783   -5.6630 O   0  0  0  0  0  0
   50.3045   43.4897   -5.3616 C   0  0  0  0  0  0
   48.0231   39.5828   -0.6148 C   0  0  0  0  0  0
   46.1505   38.0100   -1.7127 Cl  0  0  0  0  0  0
   54.9152   47.8949   -3.0044 C   0  0  0  0  0  0
   55.2517   47.1105   -0.7445 C   0  0  0  0  0  0
   55.9717   48.7908   -2.8570 C   0  0  0  0  0  0
   56.3245   47.9885   -0.6078 C   0  0  0  0  0  0
   56.6760   48.8294   -1.6586 C   0  0  0  0  0  0
   47.2617   39.4455   -3.8960 H   0  0  0  0  0  0
   49.5354   40.8052    0.3012 H   0  0  0  0  0  0
   50.5952   44.8078   -0.8558 H   0  0  0  0  0  0
   52.8233   43.4455   -4.2573 H   0  0  0  0  0  0
   54.4782   45.2144   -3.8823 H   0  0  0  0  0  0
   52.2812   46.5550   -0.4579 H   0  0  0  0  0  0
   46.7476   41.7003   -4.8995 H   0  0  0  0  0  0
   49.3740   43.7919   -5.8433 H   0  0  0  0  0  0
   50.8321   44.4099   -5.1468 H   0  0  0  0  0  0
   50.8770   42.9294   -6.1002 H   0  0  0  0  0  0
   47.7329   39.1051    0.3010 H   0  0  0  0  0  0
   54.3854   47.8522   -3.9460 H   0  0  0  0  0  0
   54.9990   46.4487    0.0718 H   0  0  0  0  0  0
   56.2507   49.4423   -3.6725 H   0  0  0  0  0  0
   56.9040   48.0098    0.3010 H   0  0  0  0  0  0
   57.5087   49.5078   -1.5423 H   0  0  0  0  0  0
  1  3  2  0  0  0
  1  6  1  0  0  0
  2  5  1  0  0  0
  2  7  1  0  0  0
  2  4  2  0  0  0
  3  4  1  0  0  0
  3  8  1  0  0  0
  4 20  1  0  0  0
  5  6  1  0  0  0
  5  9  2  0  0  0
  6 12  2  0  0  0
  7 11  2  0  0  0
  7 19  1  0  0  0
  8 13  2  0  0  0
  8 14  1  0  0  0
  9 18  1  0  0  0
  9 28  1  0  0  0
 10 15  1  0  0  0
 10 17  1  0  0  0
 10 16  2  0  0  0
 12 21  1  0  0  0
 12 29  1  0  0  0
 13 16  1  0  0  0
 13 30  1  0  0  0
 14 15  2  0  0  0
 14 31  1  0  0  0
 15 32  1  0  0  0
 16 33  1  0  0  0
 17 23  1  0  0  0
 17 24  2  0  0  0
 18 21  2  0  0  0
 18 22  1  0  0  0
 19 34  1  0  0  0
 20 35  1  0  0  0
 20 36  1  0  0  0
 20 37  1  0  0  0
 21 38  1  0  0  0
 23 25  2  0  0  0
 23 39  1  0  0  0
 24 26  1  0  0  0
 24 40  1  0  0  0
 25 27  1  0  0  0
 25 41  1  0  0  0
 26 27  2  0  0  0
 26 42  1  0  0  0
 27 43  1  0  0  0
M  END
> <s_m_entry_id>
25406

> <s_m_entry_name>
dock_pv.58

> <s_m_Source_Path>
/home/csk/Desktop/cluster/DUD-E-result/pyrd

> <s_m_Source_File>
dock_pv.maegz

> <i_m_Source_File_Index>
58

> <chembl_id>
CHEMBL38986

> <chembl_pref_name>
None

> <i_lp_mmshare_version>
53161

> <r_lp_tautomer_probability>
1

> <s_lp_Force_Field>
OPLS_2005

> <r_lp_Energy>
32.497728

> <b_lp_Chiralities_Consistent>
1

> <s_lp_Variant>
CHEMBL1966_lig768-1

> <s_i_glide_gridfile>
glide-grid_1d3g

> <i_i_glide_lignum>
839

> <i_i_glide_rotatable_bonds>
4

> <r_i_docking_score>
-10.8483883753859

> <r_i_glide_ligand_efficiency>
-0.401792162051328

> <r_i_glide_ligand_efficiency_sa>
-1.20537648482974

> <r_i_glide_ligand_efficiency_ln>
-2.5253259641296

> <r_i_glide_gscore>
-10.8483883753859

> <r_i_glide_lipo>
-6.32929133530832

> <r_i_glide_hbond>
-0.16

> <r_i_glide_metal>
0

> <r_i_glide_rewards>
-1.82237214064121

> <r_i_glide_evdw>
-36.4052085876465

> <r_i_glide_ecoul>
-7.54271268844604

> <r_i_glide_erotb>
0.414942433212914

> <r_i_glide_esite>
0

> <r_i_glide_emodel>
-65.3304272964032

> <r_i_glide_energy>
-43.9479212760925

> <r_i_glide_einternal>
4.86461067199707

> <i_i_glide_confnum>
12

> <i_i_glide_posenum>
101

> <r_i_glide_eff_state_penalty>
0

> <s_user_duplicate_titles>
CHEMBL1966_lig768,56890

> <i_f3d_flags>
0

> <s_m_subgroup_title>
dock_pv

> <s_m_subgroupid>
dock_pv

> <b_m_subgroup_collapsed>
1

$$$$
CHEMBL1966_lig565
                    3D
 Schrodinger Suite 2021-1.
 41 44  0  0  1  0            999 V2000
   46.6288   38.2824   -1.1274 C   0  0  0  0  0  0
   47.5173   39.2913   -1.8216 C   0  0  0  0  0  0
   47.3503   39.5371   -3.1839 C   0  0  0  0  0  0
   48.1187   40.4799   -3.8816 C   0  0  0  0  0  0
   47.7538   40.8101   -5.2984 C   0  0  0  0  0  0
   46.5971   40.7241   -5.6995 O   0  0  0  0  0  0
   48.8027   41.2059   -6.0749 O   0  0  0  0  0  0
   49.0788   41.1910   -3.1370 C   0  0  0  0  0  0
   49.8807   42.2285   -3.5424 N   0  0  0  0  0  0
   50.4149   42.6918   -2.4433 C   0  0  0  0  0  0
   50.0966   41.9318   -1.3406 N   0  0  0  0  0  0
   49.2229   40.9536   -1.7465 C   0  0  0  0  0  0
   48.4401   40.0100   -1.0628 C   0  0  0  0  0  0
   51.2745   43.9041   -2.3714 C   0  0  0  0  0  0
   51.1322   44.8093   -1.3025 C   0  0  0  0  0  0
   50.1229   44.6633   -0.4104 F   0  0  0  0  0  0
   52.0490   45.8490   -1.1268 C   0  0  0  0  0  0
   51.9026   46.6938   -0.0778 F   0  0  0  0  0  0
   53.1368   45.9890   -1.9985 C   0  0  0  0  0  0
   53.2475   45.1118   -3.0829 C   0  0  0  0  0  0
   54.3340   45.2109   -3.8764 F   0  0  0  0  0  0
   52.3188   44.0853   -3.2989 C   0  0  0  0  0  0
   52.4955   43.2170   -4.3247 F   0  0  0  0  0  0
   54.2286   46.9716   -1.7551 C   0  0  0  0  0  0
   54.5403   47.9426   -2.7184 C   0  0  0  0  0  0
   55.6436   48.7824   -2.5546 C   0  0  0  0  0  0
   56.4450   48.6667   -1.4227 C   0  0  0  0  0  0
   56.1428   47.7080   -0.4604 C   0  0  0  0  0  0
   55.0405   46.8700   -0.6154 C   0  0  0  0  0  0
   54.7956   45.9279    0.3259 F   0  0  0  0  0  0
   47.2250   37.6263   -0.4911 H   0  0  0  0  0  0
   45.9124   38.8101   -0.4977 H   0  0  0  0  0  0
   46.0817   37.6553   -1.8313 H   0  0  0  0  0  0
   46.5688   38.9976   -3.6994 H   0  0  0  0  0  0
   49.5690   41.4048   -5.5288 H   0  0  0  0  0  0
   50.4123   42.1519   -0.4082 H   0  0  0  0  0  0
   48.5266   39.8565    0.0034 H   0  0  0  0  0  0
   53.9445   48.0244   -3.6168 H   0  0  0  0  0  0
   55.8957   49.5090   -3.3136 H   0  0  0  0  0  0
   57.3070   49.3064   -1.2950 H   0  0  0  0  0  0
   56.7772   47.6099    0.4067 H   0  0  0  0  0  0
  1  2  1  0  0  0
  1 31  1  0  0  0
  1 32  1  0  0  0
  1 33  1  0  0  0
  2  3  2  0  0  0
  2 13  1  0  0  0
  3  4  1  0  0  0
  3 34  1  0  0  0
  4  5  1  0  0  0
  4  8  2  0  0  0
  5  6  2  0  0  0
  5  7  1  0  0  0
  7 35  1  0  0  0
  8  9  1  0  0  0
  8 12  1  0  0  0
  9 10  2  0  0  0
 10 11  1  0  0  0
 10 14  1  0  0  0
 11 12  1  0  0  0
 11 36  1  0  0  0
 12 13  2  0  0  0
 13 37  1  0  0  0
 14 15  2  0  0  0
 14 22  1  0  0  0
 15 16  1  0  0  0
 15 17  1  0  0  0
 17 18  1  0  0  0
 17 19  2  0  0  0
 19 20  1  0  0  0
 19 24  1  0  0  0
 20 21  1  0  0  0
 20 22  2  0  0  0
 22 23  1  0  0  0
 24 25  2  0  0  0
 24 29  1  0  0  0
 25 26  1  0  0  0
 25 38  1  0  0  0
 26 27  2  0  0  0
 26 39  1  0  0  0
 27 28  1  0  0  0
 27 40  1  0  0  0
 28 29  2  0  0  0
 28 41  1  0  0  0
 29 30  1  0  0  0
M  END
> <s_m_entry_id>
25407

> <s_m_entry_name>
dock_pv.59

> <s_m_Source_Path>
/home/csk/Desktop/cluster/DUD-E-result/pyrd

> <s_m_Source_File>
dock_pv.maegz

> <i_m_Source_File_Index>
59

> <chembl_id>
CHEMBL3639766

> <chembl_pref_name>
None

> <i_lp_mmshare_version>
53161

> <r_lp_tautomer_probability>
1

> <s_lp_Force_Field>
OPLS_2005

> <r_lp_Energy>
28.425507

> <b_lp_Chiralities_Consistent>
1

> <s_lp_Variant>
CHEMBL1966_lig565-1

> <s_i_glide_gridfile>
glide-grid_1d3g

> <i_i_glide_lignum>
619

> <i_i_glide_rotatable_bonds>
4

> <r_i_docking_score>
-10.8431472464494

> <r_i_glide_ligand_efficiency>
-0.361438241548314

> <r_i_glide_ligand_efficiency_sa>
-1.12307265176046

> <r_i_glide_ligand_efficiency_ln>
-2.46368119994527

> <r_i_glide_gscore>
-10.8431472464494

> <r_i_glide_lipo>
-5.39809916431354

> <r_i_glide_hbond>
-0.141856045054182

> <r_i_glide_metal>
0

> <r_i_glide_rewards>
-3.256934625

> <r_i_glide_evdw>
-43.6580772399902

> <r_i_glide_ecoul>
-1.34896159172058

> <r_i_glide_erotb>
0.3389906886759

> <r_i_glide_esite>
0

> <r_i_glide_emodel>
-62.6308615136687

> <r_i_glide_energy>
-45.0070388317108

> <r_i_glide_einternal>
4.35878896713257

> <i_i_glide_confnum>
26

> <i_i_glide_posenum>
60

> <r_i_glide_eff_state_penalty>
0

> <s_user_duplicate_titles>
CHEMBL1966_lig565

> <i_f3d_flags>
0

> <s_m_subgroup_title>
dock_pv

> <s_m_subgroupid>
dock_pv

> <b_m_subgroup_collapsed>
1

$$$$
CHEMBL1966_lig740
                    3D
 Schrodinger Suite 2021-1.
 43 46  0  0  1  0            999 V2000
   50.2757   42.2115   -1.7401 N   0  0  0  0  0  0
   49.1014   41.5583   -4.2170 C   0  0  0  0  0  0
   50.5810   42.9252   -2.8531 C   0  0  0  0  0  0
   50.0135   42.6321   -4.1125 C   0  0  0  0  0  0
   48.7583   40.8112   -3.0431 C   0  0  0  0  0  0
   49.3849   41.1900   -1.8168 C   0  0  0  0  0  0
   48.5105   41.1786   -5.5549 C   0  0  0  0  0  0
   51.5914   44.0100   -2.6124 C   0  0  0  0  0  0
   47.7934   39.7577   -3.0050 C   0  0  0  0  0  0
   47.1510   41.2432   -5.6447 O   0  0  0  0  0  0
   53.5174   46.0475   -2.2572 C   0  0  0  0  0  0
   54.5426   47.1212   -2.1643 C   0  0  0  0  0  0
   49.2229   40.8469   -6.4990 O   0  0  0  0  0  0
   49.0282   40.5303   -0.6118 C   0  0  0  0  0  0
   52.6996   44.1100   -3.4564 C   0  0  0  0  0  0
   51.4930   44.9133   -1.5413 C   0  0  0  0  0  0
   52.4490   45.9220   -1.3606 C   0  0  0  0  0  0
   53.6350   45.1222   -3.2917 C   0  0  0  0  0  0
   54.8533   47.8740   -3.3049 C   0  0  0  0  0  0
   55.2698   47.3408   -0.9879 C   0  0  0  0  0  0
   47.4230   39.1726   -1.8012 C   0  0  0  0  0  0
   56.6130   48.9998   -2.1200 C   0  0  0  0  0  0
   50.3120   43.4904   -5.3498 C   0  0  0  0  0  0
   48.0234   39.5660   -0.6171 C   0  0  0  0  0  0
   55.8843   48.8085   -3.2857 C   0  0  0  0  0  0
   56.3149   48.2658   -0.9760 C   0  0  0  0  0  0
   46.4627   38.2243   -1.7788 F   0  0  0  0  0  0
   58.0294   50.2693   -2.0986 Br  0  0  0  0  0  0
   47.3033   39.4193   -3.9029 H   0  0  0  0  0  0
   49.5012   40.8192    0.3147 H   0  0  0  0  0  0
   52.8345   43.3924   -4.2531 H   0  0  0  0  0  0
   50.6606   44.8494   -0.8547 H   0  0  0  0  0  0
   52.3443   46.6187   -0.5421 H   0  0  0  0  0  0
   54.4752   45.1975   -3.9668 H   0  0  0  0  0  0
   54.3013   47.7218   -4.2223 H   0  0  0  0  0  0
   55.0590   46.7609   -0.1007 H   0  0  0  0  0  0
   49.3813   43.7912   -5.8308 H   0  0  0  0  0  0
   50.8367   44.4099   -5.1310 H   0  0  0  0  0  0
   50.8882   42.9319   -6.0851 H   0  0  0  0  0  0
   47.7274   39.0899    0.2987 H   0  0  0  0  0  0
   56.1193   49.3802   -4.1702 H   0  0  0  0  0  0
   56.9197   48.4118   -0.0986 H   0  0  0  0  0  0
   46.7431   41.6465   -4.8745 H   0  0  0  0  0  0
  1  3  2  0  0  0
  1  6  1  0  0  0
  2  5  1  0  0  0
  2  7  1  0  0  0
  2  4  2  0  0  0
  3  4  1  0  0  0
  3  8  1  0  0  0
  4 23  1  0  0  0
  5  6  1  0  0  0
  5  9  2  0  0  0
  6 14  2  0  0  0
  7 10  1  0  0  0
  7 13  2  0  0  0
  8 15  2  0  0  0
  8 16  1  0  0  0
  9 21  1  0  0  0
  9 29  1  0  0  0
 10 43  1  0  0  0
 11 17  1  0  0  0
 11 12  1  0  0  0
 11 18  2  0  0  0
 12 19  1  0  0  0
 12 20  2  0  0  0
 14 24  1  0  0  0
 14 30  1  0  0  0
 15 18  1  0  0  0
 15 31  1  0  0  0
 16 17  2  0  0  0
 16 32  1  0  0  0
 17 33  1  0  0  0
 18 34  1  0  0  0
 19 25  2  0  0  0
 19 35  1  0  0  0
 20 26  1  0  0  0
 20 36  1  0  0  0
 21 24  2  0  0  0
 21 27  1  0  0  0
 22 26  2  0  0  0
 22 28  1  0  0  0
 22 25  1  0  0  0
 23 37  1  0  0  0
 23 38  1  0  0  0
 23 39  1  0  0  0
 24 40  1  0  0  0
 25 41  1  0  0  0
 26 42  1  0  0  0
M  END
> <s_m_entry_id>
25408

> <s_m_entry_name>
dock_pv.60

> <s_m_Source_Path>
/home/csk/Desktop/cluster/DUD-E-result/pyrd

> <s_m_Source_File>
dock_pv.maegz

> <i_m_Source_File_Index>
60

> <chembl_id>
CHEMBL38242

> <chembl_pref_name>
None

> <i_lp_mmshare_version>
53161

> <r_lp_tautomer_probability>
1

> <s_lp_Force_Field>
OPLS_2005

> <r_lp_Energy>
32.803793

> <b_lp_Chiralities_Consistent>
1

> <s_lp_Variant>
CHEMBL1966_lig740-1

> <s_i_glide_gridfile>
glide-grid_1d3g

> <i_i_glide_lignum>
811

> <i_i_glide_rotatable_bonds>
4

> <r_i_docking_score>
-10.8403598072936

> <r_i_glide_ligand_efficiency>
-0.387155707403343

> <r_i_glide_ligand_efficiency_sa>
-1.17563275019389

> <r_i_glide_ligand_efficiency_ln>
-2.50227333031773

> <r_i_glide_gscore>
-10.8403598072936

> <r_i_glide_lipo>
-6.09740304115467

> <r_i_glide_hbond>
-0.16

> <r_i_glide_metal>
0

> <r_i_glide_rewards>
-1.93055094680576

> <r_i_glide_evdw>
-38.6466598510742

> <r_i_glide_ecoul>
-6.89484691619873

> <r_i_glide_erotb>
0.314154210650357

> <r_i_glide_esite>
0

> <r_i_glide_emodel>
-67.2482713655161

> <r_i_glide_energy>
-45.5415067672729

> <r_i_glide_einternal>
4.39853143692017

> <i_i_glide_confnum>
46

> <i_i_glide_posenum>
325

> <r_i_glide_eff_state_penalty>
0

> <s_user_duplicate_titles>
CHEMBL1966_lig740,56877

> <i_f3d_flags>
0

> <s_m_subgroup_title>
dock_pv

> <s_m_subgroupid>
dock_pv

> <b_m_subgroup_collapsed>
1

$$$$
CHEMBL1966_lig551
                    3D
 Schrodinger Suite 2021-1.
 41 44  0  0  1  0            999 V2000
   47.2233   38.5402   -0.9396 C   0  0  0  0  0  0
   47.9761   39.6068   -1.7147 C   0  0  0  0  0  0
   47.7565   39.7654   -3.0853 C   0  0  0  0  0  0
   48.4230   40.7412   -3.8409 C   0  0  0  0  0  0
   48.1495   40.9305   -5.2998 C   0  0  0  0  0  0
   49.0387   41.2087   -6.0990 O   0  0  0  0  0  0
   46.8380   40.8100   -5.6523 O   0  0  0  0  0  0
   49.3261   41.5526   -3.1444 C   0  0  0  0  0  0
   50.0962   42.6373   -3.4935 N   0  0  0  0  0  0
   50.7050   43.0993   -2.3504 C   0  0  0  0  0  0
   50.4231   42.3674   -1.2990 N   0  0  0  0  0  0
   49.5730   41.4011   -1.7579 C   0  0  0  0  0  0
   48.8901   40.4100   -1.0348 C   0  0  0  0  0  0
   51.6230   44.2728   -2.3114 C   0  0  0  0  0  0
   52.6111   44.4100   -3.2990 C   0  0  0  0  0  0
   52.6616   43.5360   -4.3310 F   0  0  0  0  0  0
   53.5951   45.3953   -3.1687 C   0  0  0  0  0  0
   54.5780   45.4906   -4.0943 F   0  0  0  0  0  0
   53.6195   46.2491   -2.0593 C   0  0  0  0  0  0
   52.6071   46.1305   -1.0968 C   0  0  0  0  0  0
   52.6074   46.9242    0.0001 F   0  0  0  0  0  0
   51.6082   45.1668   -1.2305 C   0  0  0  0  0  0
   50.6631   45.0618   -0.2667 F   0  0  0  0  0  0
   54.7503   47.2014   -1.8963 C   0  0  0  0  0  0
   55.5071   47.2095   -0.7184 C   0  0  0  0  0  0
   56.6342   48.0202   -0.6077 C   0  0  0  0  0  0
   57.0166   48.8404   -1.6676 C   0  0  0  0  0  0
   56.2694   48.8472   -2.8416 C   0  0  0  0  0  0
   56.6497   49.6200   -3.8829 F   0  0  0  0  0  0
   55.1363   48.0438   -2.9486 C   0  0  0  0  0  0
   46.6902   38.9934   -0.1030 H   0  0  0  0  0  0
   46.4972   38.0098   -1.5563 H   0  0  0  0  0  0
   47.9218   37.8140   -0.5218 H   0  0  0  0  0  0
   47.0509   39.1055   -3.5696 H   0  0  0  0  0  0
   46.2691   40.7576   -4.8814 H   0  0  0  0  0  0
   50.2005   43.0696   -4.4008 H   0  0  0  0  0  0
   49.0512   40.2904    0.0268 H   0  0  0  0  0  0
   55.2425   46.5626    0.1060 H   0  0  0  0  0  0
   57.2230   48.0099    0.2982 H   0  0  0  0  0  0
   57.8964   49.4612   -1.5806 H   0  0  0  0  0  0
   54.5763   48.0547   -3.8727 H   0  0  0  0  0  0
  1  2  1  0  0  0
  1 31  1  0  0  0
  1 32  1  0  0  0
  1 33  1  0  0  0
  2  3  2  0  0  0
  2 13  1  0  0  0
  3  4  1  0  0  0
  3 34  1  0  0  0
  4  5  1  0  0  0
  4  8  2  0  0  0
  5  6  2  0  0  0
  5  7  1  0  0  0
  7 35  1  0  0  0
  8  9  1  0  0  0
  8 12  1  0  0  0
  9 10  1  0  0  0
  9 36  1  0  0  0
 10 11  2  0  0  0
 10 14  1  0  0  0
 11 12  1  0  0  0
 12 13  2  0  0  0
 13 37  1  0  0  0
 14 15  2  0  0  0
 14 22  1  0  0  0
 15 16  1  0  0  0
 15 17  1  0  0  0
 17 18  1  0  0  0
 17 19  2  0  0  0
 19 20  1  0  0  0
 19 24  1  0  0  0
 20 21  1  0  0  0
 20 22  2  0  0  0
 22 23  1  0  0  0
 24 25  2  0  0  0
 24 30  1  0  0  0
 25 26  1  0  0  0
 25 38  1  0  0  0
 26 27  2  0  0  0
 26 39  1  0  0  0
 27 28  1  0  0  0
 27 40  1  0  0  0
 28 29  1  0  0  0
 28 30  2  0  0  0
 30 41  1  0  0  0
M  END
> <s_m_entry_id>
25409

> <s_m_entry_name>
dock_pv.61

> <s_m_Source_Path>
/home/csk/Desktop/cluster/DUD-E-result/pyrd

> <s_m_Source_File>
dock_pv.maegz

> <i_m_Source_File_Index>
61

> <chembl_id>
CHEMBL3677811

> <chembl_pref_name>
None

> <i_lp_mmshare_version>
53161

> <r_lp_tautomer_probability>
1

> <s_lp_Force_Field>
OPLS_2005

> <r_lp_Energy>
25.673863

> <b_lp_Chiralities_Consistent>
1

> <s_lp_Variant>
CHEMBL1966_lig551-1

> <s_i_glide_gridfile>
glide-grid_1d3g

> <i_i_glide_lignum>
605

> <i_i_glide_rotatable_bonds>
4

> <r_i_docking_score>
-10.8312665900894

> <r_i_glide_ligand_efficiency>
-0.361042219669646

> <r_i_glide_ligand_efficiency_sa>
-1.12184211970739

> <r_i_glide_ligand_efficiency_ln>
-2.46098178537015

> <r_i_glide_gscore>
-10.8312665900894

> <r_i_glide_lipo>
-5.2380396386124

> <r_i_glide_hbond>
-0.138269759979767

> <r_i_glide_metal>
0

> <r_i_glide_rewards>
-3.1275905775074

> <r_i_glide_evdw>
-40.1632919311523

> <r_i_glide_ecoul>
-4.38795137405396

> <r_i_glide_erotb>
0.3389906886759

> <r_i_glide_esite>
0

> <r_i_glide_emodel>
-60.8217459622516

> <r_i_glide_energy>
-44.5512433052063

> <r_i_glide_einternal>
4.55641412734985

> <i_i_glide_confnum>
14

> <i_i_glide_posenum>
240

> <r_i_glide_eff_state_penalty>
0

> <s_user_duplicate_titles>
CHEMBL1966_lig551

> <i_f3d_flags>
0

> <s_m_subgroup_title>
dock_pv

> <s_m_subgroupid>
dock_pv

> <b_m_subgroup_collapsed>
1

$$$$
CHEMBL1966_lig101
                    3D
 Schrodinger Suite 2021-1.
 41 44  0  0  1  0            999 V2000
   47.3581   38.9662   -1.7964 C   0  0  0  0  0  0
   47.9315   39.3715   -0.6014 C   0  0  0  0  0  0
   48.8558   40.4100   -0.5654 C   0  0  0  0  0  0
   47.6877   39.6101   -2.9822 C   0  0  0  0  0  0
   48.6139   40.6993   -2.9976 C   0  0  0  0  0  0
   49.2231   41.0706   -1.7593 C   0  0  0  0  0  0
   50.0983   42.0989   -1.6543 N   0  0  0  0  0  0
   50.3754   42.8489   -2.7464 C   0  0  0  0  0  0
   49.8009   42.5906   -3.9980 C   0  0  0  0  0  0
   48.9473   41.4807   -4.1553 C   0  0  0  0  0  0
   51.3200   43.9725   -2.4891 C   0  0  0  0  0  0
   51.1704   44.8099   -1.3713 C   0  0  0  0  0  0
   52.1148   45.7982   -1.0959 C   0  0  0  0  0  0
   53.2210   45.9660   -1.9354 C   0  0  0  0  0  0
   53.3516   45.1590   -3.0631 C   0  0  0  0  0  0
   52.4229   44.1613   -3.3286 C   0  0  0  0  0  0
   48.3665   41.1549   -5.5066 C   0  0  0  0  0  0
   49.2908   41.2100   -6.4990 O   0  0  0  0  0  0
   47.1944   40.8427   -5.6989 O   0  0  0  0  0  0
   54.3065   46.9178   -1.6169 C   0  0  0  0  0  0
   54.7272   47.8597   -2.5633 C   0  0  0  0  0  0
   55.8206   48.6793   -2.2995 C   0  0  0  0  0  0
   56.5032   48.5432   -1.0947 C   0  0  0  0  0  0
   56.0899   47.6100   -0.1465 C   0  0  0  0  0  0
   54.9815   46.8118   -0.3981 C   0  0  0  0  0  0
   50.0231   43.4627   -5.0406 O   0  0  0  0  0  0
   46.6532   38.1475   -1.8036 H   0  0  0  0  0  0
   47.6695   38.8511    0.3010 H   0  0  0  0  0  0
   49.3045   40.7052    0.3720 H   0  0  0  0  0  0
   47.2142   39.2688   -3.8879 H   0  0  0  0  0  0
   50.3294   44.6840   -0.7044 H   0  0  0  0  0  0
   51.9989   46.4147   -0.2162 H   0  0  0  0  0  0
   54.2145   45.2633   -3.7031 H   0  0  0  0  0  0
   52.5754   43.5120   -4.1782 H   0  0  0  0  0  0
   50.0944   41.6317   -6.1785 H   0  0  0  0  0  0
   54.2144   47.9456   -3.5110 H   0  0  0  0  0  0
   56.1484   49.4034   -3.0313 H   0  0  0  0  0  0
   57.3669   49.1620   -0.8978 H   0  0  0  0  0  0
   56.6374   47.4995    0.7769 H   0  0  0  0  0  0
   54.6789   46.0765    0.3341 H   0  0  0  0  0  0
   49.1998   43.8700   -5.3421 H   0  0  0  0  0  0
  1  2  2  0  0  0
  1  4  1  0  0  0
  1 27  1  0  0  0
  2  3  1  0  0  0
  2 28  1  0  0  0
  3  6  2  0  0  0
  3 29  1  0  0  0
  4  5  2  0  0  0
  4 30  1  0  0  0
  5  6  1  0  0  0
  5 10  1  0  0  0
  6  7  1  0  0  0
  7  8  2  0  0  0
  8  9  1  0  0  0
  8 11  1  0  0  0
  9 10  2  0  0  0
  9 26  1  0  0  0
 10 17  1  0  0  0
 11 16  1  0  0  0
 11 12  2  0  0  0
 12 13  1  0  0  0
 12 31  1  0  0  0
 13 14  2  0  0  0
 13 32  1  0  0  0
 14 15  1  0  0  0
 14 20  1  0  0  0
 15 16  2  0  0  0
 15 33  1  0  0  0
 16 34  1  0  0  0
 17 18  1  0  0  0
 17 19  2  0  0  0
 18 35  1  0  0  0
 20 21  2  0  0  0
 20 25  1  0  0  0
 21 22  1  0  0  0
 21 36  1  0  0  0
 22 23  2  0  0  0
 22 37  1  0  0  0
 23 24  1  0  0  0
 23 38  1  0  0  0
 24 25  2  0  0  0
 24 39  1  0  0  0
 25 40  1  0  0  0
 26 41  1  0  0  0
M  END
> <s_m_entry_id>
25410

> <s_m_entry_name>
dock_pv.62

> <s_m_Source_Path>
/home/csk/Desktop/cluster/DUD-E-result/pyrd

> <s_m_Source_File>
dock_pv.maegz

> <i_m_Source_File_Index>
62

> <chembl_id>
CHEMBL219648

> <chembl_pref_name>
None

> <i_lp_mmshare_version>
53161

> <r_lp_tautomer_probability>
1

> <s_lp_Force_Field>
OPLS_2005

> <r_lp_Energy>
34.611971

> <b_lp_Chiralities_Consistent>
1

> <s_lp_Variant>
CHEMBL1966_lig101-1

> <s_i_glide_gridfile>
glide-grid_1d3g

> <i_i_glide_lignum>
110

> <i_i_glide_rotatable_bonds>
5

> <r_i_docking_score>
-10.8203612476797

> <r_i_glide_ligand_efficiency>
-0.416167740295372

> <r_i_glide_ligand_efficiency_sa>
-1.23289529308406

> <r_i_glide_ligand_efficiency_ln>
-2.54112633451644

> <r_i_glide_gscore>
-10.8203612476797

> <r_i_glide_lipo>
-6.05816169344233

> <r_i_glide_hbond>
-0.104036302222043

> <r_i_glide_metal>
0

> <r_i_glide_rewards>
-2.15755000320491

> <r_i_glide_evdw>
-39.6764488220215

> <r_i_glide_ecoul>
-6.69758129119873

> <r_i_glide_erotb>
0.48784638597049

> <r_i_glide_esite>
0

> <r_i_glide_emodel>
-69.7376751766981

> <r_i_glide_energy>
-46.3740301132202

> <r_i_glide_einternal>
4.70601320266724

> <i_i_glide_confnum>
50

> <i_i_glide_posenum>
226

> <r_i_glide_eff_state_penalty>
0

> <s_user_duplicate_titles>
CHEMBL1966_lig101,365552

> <i_f3d_flags>
0

> <s_m_subgroup_title>
dock_pv

> <s_m_subgroupid>
dock_pv

> <b_m_subgroup_collapsed>
1

$$$$
CHEMBL1966_lig554
                    3D
 Schrodinger Suite 2021-1.
 38 41  0  0  1  0            999 V2000
   48.4126   39.6686   -0.2112 O   0  0  0  0  0  0
   47.6230   39.2100   -1.2208 C   0  0  0  0  0  0
   46.8217   38.2954   -1.0500 O   0  0  0  0  0  0
   47.8109   39.8932   -2.5606 C   0  0  0  0  0  0
   46.8618   39.6102   -3.5578 C   0  0  0  0  0  0
   46.8803   40.2129   -4.8125 C   0  0  0  0  0  0
   47.9012   41.0704   -5.2011 C   0  0  0  0  0  0
   48.8201   41.4133   -4.2167 C   0  0  0  0  0  0
   49.7702   42.3860   -4.1876 N   0  0  0  0  0  0
   50.2066   42.4835   -2.8961 C   0  0  0  0  0  0
   49.7113   41.5453   -2.1175 N   0  0  0  0  0  0
   48.7925   40.8720   -2.8970 C   0  0  0  0  0  0
   51.0909   43.6107   -2.4926 C   0  0  0  0  0  0
   52.1814   43.9194   -3.3144 C   0  0  0  0  0  0
   52.4254   43.2098   -4.4427 F   0  0  0  0  0  0
   53.0696   44.9248   -2.9571 C   0  0  0  0  0  0
   54.1849   45.1099   -3.6990 F   0  0  0  0  0  0
   52.8654   45.6883   -1.8066 C   0  0  0  0  0  0
   51.7336   45.4347   -1.0145 C   0  0  0  0  0  0
   51.5176   46.1620    0.1066 F   0  0  0  0  0  0
   50.8553   44.3925   -1.3482 C   0  0  0  0  0  0
   49.7857   44.1423   -0.5554 F   0  0  0  0  0  0
   53.9365   46.6367   -1.4200 C   0  0  0  0  0  0
   54.3906   47.6169   -2.3144 C   0  0  0  0  0  0
   55.5659   48.3210   -2.0598 C   0  0  0  0  0  0
   56.0286   49.2119   -2.9623 F   0  0  0  0  0  0
   56.2898   48.0662   -0.8997 C   0  0  0  0  0  0
   55.8228   47.1179    0.0085 C   0  0  0  0  0  0
   56.5394   46.8102    1.1044 F   0  0  0  0  0  0
   54.6436   46.4264   -0.2356 C   0  0  0  0  0  0
   48.1875   39.2036    0.6026 H   0  0  0  0  0  0
   46.0450   38.9321   -3.3476 H   0  0  0  0  0  0
   46.0702   40.0093   -5.4980 H   0  0  0  0  0  0
   47.8842   41.5749   -6.1480 H   0  0  0  0  0  0
   50.0352   43.0367   -4.9127 H   0  0  0  0  0  0
   53.8752   47.7838   -3.2488 H   0  0  0  0  0  0
   57.2197   48.5833   -0.7164 H   0  0  0  0  0  0
   54.3378   45.6623    0.4637 H   0  0  0  0  0  0
  1  2  1  0  0  0
  1 31  1  0  0  0
  2  3  2  0  0  0
  2  4  1  0  0  0
  4  5  2  0  0  0
  4 12  1  0  0  0
  5  6  1  0  0  0
  5 32  1  0  0  0
  6  7  2  0  0  0
  6 33  1  0  0  0
  7  8  1  0  0  0
  7 34  1  0  0  0
  8  9  1  0  0  0
  8 12  2  0  0  0
  9 10  1  0  0  0
  9 35  1  0  0  0
 10 11  2  0  0  0
 10 13  1  0  0  0
 11 12  1  0  0  0
 13 14  2  0  0  0
 13 21  1  0  0  0
 14 15  1  0  0  0
 14 16  1  0  0  0
 16 17  1  0  0  0
 16 18  2  0  0  0
 18 19  1  0  0  0
 18 23  1  0  0  0
 19 20  1  0  0  0
 19 21  2  0  0  0
 21 22  1  0  0  0
 23 24  2  0  0  0
 23 30  1  0  0  0
 24 25  1  0  0  0
 24 36  1  0  0  0
 25 26  1  0  0  0
 25 27  2  0  0  0
 27 28  1  0  0  0
 27 37  1  0  0  0
 28 29  1  0  0  0
 28 30  2  0  0  0
 30 38  1  0  0  0
M  END
> <s_m_entry_id>
25411

> <s_m_entry_name>
dock_pv.63

> <s_m_Source_Path>
/home/csk/Desktop/cluster/DUD-E-result/pyrd

> <s_m_Source_File>
dock_pv.maegz

> <i_m_Source_File_Index>
63

> <chembl_id>
CHEMBL3677814

> <chembl_pref_name>
None

> <i_lp_mmshare_version>
53161

> <r_lp_tautomer_probability>
1

> <s_lp_Force_Field>
OPLS_2005

> <r_lp_Energy>
26.352795

> <b_lp_Chiralities_Consistent>
1

> <s_lp_Variant>
CHEMBL1966_lig554-1

> <s_i_glide_gridfile>
glide-grid_1d3g

> <i_i_glide_lignum>
608

> <i_i_glide_rotatable_bonds>
4

> <r_i_docking_score>
-10.8128770299389

> <r_i_glide_ligand_efficiency>
-0.360429234331296

> <r_i_glide_ligand_efficiency_sa>
-1.11993743174055

> <r_i_glide_ligand_efficiency_ln>
-2.45680347693365

> <r_i_glide_gscore>
-10.8128770299389

> <r_i_glide_lipo>
-5.01214375611948

> <r_i_glide_hbond>
0

> <r_i_glide_metal>
0

> <r_i_glide_rewards>
-3.22990815

> <r_i_glide_evdw>
-45.7927131652832

> <r_i_glide_ecoul>
-4.09632968902588

> <r_i_glide_erotb>
0.333259987798642

> <r_i_glide_esite>
0

> <r_i_glide_emodel>
-62.2591274528819

> <r_i_glide_energy>
-49.8890428543091

> <r_i_glide_einternal>
3.03731679916382

> <i_i_glide_confnum>
28

> <i_i_glide_posenum>
304

> <r_i_glide_eff_state_penalty>
0

> <s_user_duplicate_titles>
CHEMBL1966_lig554

> <i_f3d_flags>
0

> <s_m_subgroup_title>
dock_pv

> <s_m_subgroupid>
dock_pv

> <b_m_subgroup_collapsed>
1

$$$$
CHEMBL1966_lig748
                    3D
 Schrodinger Suite 2021-1.
 40 43  0  0  1  0            999 V2000
   49.0271   41.4614   -4.1381 C   0  0  0  0  0  0
   50.0831   42.1166   -1.6018 N   0  0  0  0  0  0
   48.6483   40.6913   -2.9869 C   0  0  0  0  0  0
   50.4305   42.8206   -2.7055 C   0  0  0  0  0  0
   49.9394   42.5067   -3.9714 C   0  0  0  0  0  0
   49.2230   41.0722   -1.7311 C   0  0  0  0  0  0
   48.4860   41.2141   -5.5188 C   0  0  0  0  0  0
   51.3800   43.9485   -2.4990 C   0  0  0  0  0  0
   47.7105   39.6121   -2.9947 C   0  0  0  0  0  0
   53.2787   45.9964   -2.1293 C   0  0  0  0  0  0
   49.2230   41.2099   -6.4989 O   0  0  0  0  0  0
   48.8234   40.4099   -0.5469 C   0  0  0  0  0  0
   51.2910   44.8100   -1.3928 C   0  0  0  0  0  0
   52.4229   44.1326   -3.4132 C   0  0  0  0  0  0
   53.3492   45.1509   -3.2354 C   0  0  0  0  0  0
   52.2366   45.8233   -1.2094 C   0  0  0  0  0  0
   54.3468   47.0136   -1.9457 C   0  0  0  0  0  0
   47.3267   38.9955   -1.8085 C   0  0  0  0  0  0
   47.1320   41.0761   -5.6086 O   0  0  0  0  0  0
   47.8759   39.3947   -0.6010 C   0  0  0  0  0  0
   46.4038   38.0100   -1.8209 F   0  0  0  0  0  0
   54.7344   47.8310   -3.0165 C   0  0  0  0  0  0
   55.0396   47.1055   -0.7339 C   0  0  0  0  0  0
   55.8056   48.7108   -2.8865 C   0  0  0  0  0  0
   56.1237   47.9706   -0.6123 C   0  0  0  0  0  0
   56.4995   48.7744   -1.6834 C   0  0  0  0  0  0
   50.2363   43.1075   -4.8210 H   0  0  0  0  0  0
   47.2743   39.2643   -3.9169 H   0  0  0  0  0  0
   49.2466   40.7070    0.4017 H   0  0  0  0  0  0
   50.4965   44.6899   -0.6703 H   0  0  0  0  0  0
   52.5332   43.4691   -4.2585 H   0  0  0  0  0  0
   54.1580   45.2585   -3.9420 H   0  0  0  0  0  0
   52.1632   46.4668   -0.3448 H   0  0  0  0  0  0
   46.6871   41.2757   -4.7818 H   0  0  0  0  0  0
   47.5632   38.8983    0.3010 H   0  0  0  0  0  0
   54.2113   47.7750   -3.9607 H   0  0  0  0  0  0
   54.7715   46.4712    0.0990 H   0  0  0  0  0  0
   56.1018   49.3340   -3.7172 H   0  0  0  0  0  0
   56.6929   48.0085    0.3010 H   0  0  0  0  0  0
   57.3420   49.4434   -1.5811 H   0  0  0  0  0  0
  1  3  1  0  0  0
  1  5  2  0  0  0
  1  7  1  0  0  0
  2  4  2  0  0  0
  2  6  1  0  0  0
  3  6  1  0  0  0
  3  9  2  0  0  0
  4  5  1  0  0  0
  4  8  1  0  0  0
  5 27  1  0  0  0
  6 12  2  0  0  0
  7 11  2  0  0  0
  7 19  1  0  0  0
  8 13  2  0  0  0
  8 14  1  0  0  0
  9 18  1  0  0  0
  9 28  1  0  0  0
 10 15  1  0  0  0
 10 17  1  0  0  0
 10 16  2  0  0  0
 12 20  1  0  0  0
 12 29  1  0  0  0
 13 16  1  0  0  0
 13 30  1  0  0  0
 14 15  2  0  0  0
 14 31  1  0  0  0
 15 32  1  0  0  0
 16 33  1  0  0  0
 17 22  1  0  0  0
 17 23  2  0  0  0
 18 20  2  0  0  0
 18 21  1  0  0  0
 19 34  1  0  0  0
 20 35  1  0  0  0
 22 24  2  0  0  0
 22 36  1  0  0  0
 23 25  1  0  0  0
 23 37  1  0  0  0
 24 26  1  0  0  0
 24 38  1  0  0  0
 25 26  2  0  0  0
 25 39  1  0  0  0
 26 40  1  0  0  0
M  END
> <s_m_entry_id>
25412

> <s_m_entry_name>
dock_pv.64

> <s_m_Source_Path>
/home/csk/Desktop/cluster/DUD-E-result/pyrd

> <s_m_Source_File>
dock_pv.maegz

> <i_m_Source_File_Index>
64

> <chembl_id>
CHEMBL39162

> <chembl_pref_name>
None

> <i_lp_mmshare_version>
53161

> <r_lp_tautomer_probability>
1

> <s_lp_Force_Field>
OPLS_2005

> <r_lp_Energy>
28.627531

> <b_lp_Chiralities_Consistent>
1

> <s_lp_Variant>
CHEMBL1966_lig748-1

> <s_i_glide_gridfile>
glide-grid_1d3g

> <i_i_glide_lignum>
819

> <i_i_glide_rotatable_bonds>
4

> <r_i_docking_score>
-10.7924267458449

> <r_i_glide_ligand_efficiency>
-0.415093336378648

> <r_i_glide_ligand_efficiency_sa>
-1.22971237570834

> <r_i_glide_ligand_efficiency_ln>
-2.53456600842111

> <r_i_glide_gscore>
-10.7924267458449

> <r_i_glide_lipo>
-5.99200056855307

> <r_i_glide_hbond>
-0.16

> <r_i_glide_metal>
0

> <r_i_glide_rewards>
-2.43099845144222

> <r_i_glide_evdw>
-37.3168258666992

> <r_i_glide_ecoul>
-5.5095043182373

> <r_i_glide_erotb>
0.482839215220999

> <r_i_glide_esite>
0

> <r_i_glide_emodel>
-63.3735323546212

> <r_i_glide_energy>
-42.8263301849365

> <r_i_glide_einternal>
7.02872943878174

> <i_i_glide_confnum>
29

> <i_i_glide_posenum>
388

> <r_i_glide_eff_state_penalty>
0

> <s_user_duplicate_titles>
CHEMBL1966_lig748,56339

> <i_f3d_flags>
0

> <s_m_subgroup_title>
dock_pv

> <s_m_subgroupid>
dock_pv

> <b_m_subgroup_collapsed>
1

$$$$
CHEMBL1966_lig758
                    3D
 Schrodinger Suite 2021-1.
 44 47  0  0  1  0            999 V2000
   50.0879   42.0935   -1.5894 N   0  0  0  0  0  0
   50.4162   42.8537   -2.6599 C   0  0  0  0  0  0
   49.0465   41.4827   -4.1251 C   0  0  0  0  0  0
   49.9388   42.5721   -3.9574 C   0  0  0  0  0  0
   48.6589   40.7013   -2.9824 C   0  0  0  0  0  0
   49.2230   41.0663   -1.7261 C   0  0  0  0  0  0
   48.4878   41.1431   -5.4829 C   0  0  0  0  0  0
   51.2230   44.0477   -2.2597 C   0  0  0  0  0  0
   47.7151   39.6236   -2.9945 C   0  0  0  0  0  0
   52.4230   44.4100   -2.9023 C   0  0  0  0  0  0
   49.2230   40.8316   -6.4102 O   0  0  0  0  0  0
   53.2146   45.4781   -2.4635 C   0  0  0  0  0  0
   48.8230   40.4100   -0.5424 C   0  0  0  0  0  0
   54.4307   45.6708   -3.0899 O   0  0  0  0  0  0
   47.3271   39.0018   -1.8114 C   0  0  0  0  0  0
   47.1301   41.2100   -5.6019 O   0  0  0  0  0  0
   50.2962   43.4680   -5.1530 C   0  0  0  0  0  0
   47.8739   39.3962   -0.6002 C   0  0  0  0  0  0
   55.2548   46.7204   -2.7526 C   0  0  0  0  0  0
   46.4020   38.0183   -1.8303 F   0  0  0  0  0  0
   50.8118   44.8453   -1.1794 C   0  0  0  0  0  0
   51.5589   45.9433   -0.7585 C   0  0  0  0  0  0
   52.7516   46.2596   -1.3964 C   0  0  0  0  0  0
   55.8928   46.7932   -1.5093 C   0  0  0  0  0  0
   55.4560   47.7188   -3.6990 C   0  0  0  0  0  0
   56.2698   48.8100   -3.4049 C   0  0  0  0  0  0
   56.6946   47.8929   -1.2061 C   0  0  0  0  0  0
   56.8786   48.8962   -2.1548 C   0  0  0  0  0  0
   47.2709   39.2885   -3.9182 H   0  0  0  0  0  0
   52.7920   43.7992   -3.7133 H   0  0  0  0  0  0
   49.2475   40.7047    0.4065 H   0  0  0  0  0  0
   46.7015   41.5738   -4.8238 H   0  0  0  0  0  0
   50.8982   42.9209   -5.8768 H   0  0  0  0  0  0
   49.3904   43.7792   -5.6748 H   0  0  0  0  0  0
   50.8230   44.3814   -4.8977 H   0  0  0  0  0  0
   47.5587   38.8992    0.3010 H   0  0  0  0  0  0
   49.8925   44.6182   -0.6583 H   0  0  0  0  0  0
   51.2230   46.5449    0.0727 H   0  0  0  0  0  0
   53.3144   47.1067   -1.0367 H   0  0  0  0  0  0
   55.7487   46.0102   -0.7798 H   0  0  0  0  0  0
   54.9697   47.6275   -4.6580 H   0  0  0  0  0  0
   56.4226   49.5889   -4.1379 H   0  0  0  0  0  0
   57.1789   47.9714   -0.2431 H   0  0  0  0  0  0
   57.5048   49.7448   -1.9195 H   0  0  0  0  0  0
  1  2  2  0  0  0
  1  6  1  0  0  0
  2  4  1  0  0  0
  2  8  1  0  0  0
  3  5  1  0  0  0
  3  7  1  0  0  0
  3  4  2  0  0  0
  4 17  1  0  0  0
  5  6  1  0  0  0
  5  9  2  0  0  0
  6 13  2  0  0  0
  7 11  2  0  0  0
  7 16  1  0  0  0
  8 10  1  0  0  0
  8 21  2  0  0  0
  9 15  1  0  0  0
  9 29  1  0  0  0
 10 12  2  0  0  0
 10 30  1  0  0  0
 12 14  1  0  0  0
 12 23  1  0  0  0
 13 18  1  0  0  0
 13 31  1  0  0  0
 14 19  1  0  0  0
 15 18  2  0  0  0
 15 20  1  0  0  0
 16 32  1  0  0  0
 17 33  1  0  0  0
 17 34  1  0  0  0
 17 35  1  0  0  0
 18 36  1  0  0  0
 19 24  2  0  0  0
 19 25  1  0  0  0
 21 22  1  0  0  0
 21 37  1  0  0  0
 22 23  2  0  0  0
 22 38  1  0  0  0
 23 39  1  0  0  0
 24 27  1  0  0  0
 24 40  1  0  0  0
 25 26  2  0  0  0
 25 41  1  0  0  0
 26 28  1  0  0  0
 26 42  1  0  0  0
 27 28  2  0  0  0
 27 43  1  0  0  0
 28 44  1  0  0  0
M  END
> <s_m_entry_id>
25414

> <s_m_entry_name>
dock_pv.66

> <s_m_Source_Path>
/home/csk/Desktop/cluster/DUD-E-result/pyrd

> <s_m_Source_File>
dock_pv.maegz

> <i_m_Source_File_Index>
66

> <chembl_id>
CHEMBL290674

> <chembl_pref_name>
None

> <i_lp_mmshare_version>
53161

> <r_lp_tautomer_probability>
1

> <s_lp_Force_Field>
OPLS_2005

> <r_lp_Energy>
31.401939

> <b_lp_Chiralities_Consistent>
1

> <s_lp_Variant>
CHEMBL1966_lig758-1

> <s_i_glide_gridfile>
glide-grid_1d3g

> <i_i_glide_lignum>
829

> <i_i_glide_rotatable_bonds>
5

> <r_i_docking_score>
-10.7862465856521

> <r_i_glide_ligand_efficiency>
-0.385223092344717

> <r_i_glide_ligand_efficiency_sa>
-1.16976419262651

> <r_i_glide_ligand_efficiency_ln>
-2.48978240992964

> <r_i_glide_gscore>
-10.7862465856521

> <r_i_glide_lipo>
-6.13283512833096

> <r_i_glide_hbond>
-0.16

> <r_i_glide_metal>
0

> <r_i_glide_rewards>
-2.08639453788466

> <r_i_glide_evdw>
-39.2615737915039

> <r_i_glide_ecoul>
-6.65600776672363

> <r_i_glide_erotb>
0.554462935147278

> <r_i_glide_esite>
0

> <r_i_glide_emodel>
-69.786903700882

> <r_i_glide_energy>
-45.9175815582275

> <r_i_glide_einternal>
7.14242219924927

> <i_i_glide_confnum>
27

> <i_i_glide_posenum>
35

> <r_i_glide_eff_state_penalty>
0

> <s_user_duplicate_titles>
CHEMBL1966_lig758,56678

> <i_f3d_flags>
0

> <s_m_subgroup_title>
dock_pv

> <s_m_subgroupid>
dock_pv

> <b_m_subgroup_collapsed>
1

$$$$
CHEMBL1966_lig472
                    3D
 Schrodinger Suite 2021-1.
 41 44  0  0  1  0            999 V2000
   50.0280   43.2513   -4.8332 C   0  0  0  0  0  0
   50.0225   42.6501   -3.5009 N   0  0  0  0  0  0
   50.6829   43.1130   -2.3677 C   0  0  0  0  0  0
   50.4262   42.3968   -1.3011 N   0  0  0  0  0  0
   49.5928   41.4044   -1.7274 C   0  0  0  0  0  0
   48.9630   40.4101   -0.9573 C   0  0  0  0  0  0
   48.0229   39.5955   -1.5781 C   0  0  0  0  0  0
   47.7538   39.7082   -2.9380 C   0  0  0  0  0  0
   48.3745   40.6689   -3.7512 C   0  0  0  0  0  0
   47.9921   40.7760   -5.1991 C   0  0  0  0  0  0
   48.8232   40.8100   -6.0989 O   0  0  0  0  0  0
   46.6473   40.8105   -5.4214 O   0  0  0  0  0  0
   49.2919   41.5324   -3.1122 C   0  0  0  0  0  0
   51.6229   44.2781   -2.3184 C   0  0  0  0  0  0
   51.6238   45.1961   -1.2588 C   0  0  0  0  0  0
   52.6192   46.1731   -1.1809 C   0  0  0  0  0  0
   53.6036   46.2670   -2.1736 C   0  0  0  0  0  0
   53.5808   45.3606   -3.2321 C   0  0  0  0  0  0
   52.6133   44.3716   -3.2991 C   0  0  0  0  0  0
   54.6976   47.2724   -2.1304 C   0  0  0  0  0  0
   55.4341   47.4896   -0.9601 C   0  0  0  0  0  0
   56.5325   48.3464   -0.9762 C   0  0  0  0  0  0
   56.8844   49.0085   -2.1469 C   0  0  0  0  0  0
   56.1504   48.8157   -3.3110 C   0  0  0  0  0  0
   55.0582   47.9568   -3.2989 C   0  0  0  0  0  0
   50.5686   44.1902   -4.8550 H   0  0  0  0  0  0
   50.4790   42.5703   -5.5470 H   0  0  0  0  0  0
   49.0060   43.4412   -5.1512 H   0  0  0  0  0  0
   49.1663   40.3137    0.0993 H   0  0  0  0  0  0
   47.5131   38.8388   -0.9975 H   0  0  0  0  0  0
   47.0340   39.0217   -3.3619 H   0  0  0  0  0  0
   46.1537   40.8952   -4.6020 H   0  0  0  0  0  0
   50.8802   45.1238   -0.4777 H   0  0  0  0  0  0
   52.6250   46.8514   -0.3412 H   0  0  0  0  0  0
   54.3463   45.3991   -3.9921 H   0  0  0  0  0  0
   52.6688   43.6449   -4.0966 H   0  0  0  0  0  0
   55.1870   46.9606   -0.0507 H   0  0  0  0  0  0
   57.1390   48.4848   -0.0984 H   0  0  0  0  0  0
   57.7385   49.6698   -2.1519 H   0  0  0  0  0  0
   56.4260   49.3334   -4.2182 H   0  0  0  0  0  0
   54.4992   47.8090   -4.2119 H   0  0  0  0  0  0
  1  2  1  0  0  0
  1 26  1  0  0  0
  1 27  1  0  0  0
  1 28  1  0  0  0
  2  3  1  0  0  0
  2 13  1  0  0  0
  3  4  2  0  0  0
  3 14  1  0  0  0
  4  5  1  0  0  0
  5  6  2  0  0  0
  5 13  1  0  0  0
  6  7  1  0  0  0
  6 29  1  0  0  0
  7  8  2  0  0  0
  7 30  1  0  0  0
  8  9  1  0  0  0
  8 31  1  0  0  0
  9 10  1  0  0  0
  9 13  2  0  0  0
 10 11  2  0  0  0
 10 12  1  0  0  0
 12 32  1  0  0  0
 14 15  2  0  0  0
 14 19  1  0  0  0
 15 16  1  0  0  0
 15 33  1  0  0  0
 16 17  2  0  0  0
 16 34  1  0  0  0
 17 18  1  0  0  0
 17 20  1  0  0  0
 18 19  2  0  0  0
 18 35  1  0  0  0
 19 36  1  0  0  0
 20 21  2  0  0  0
 20 25  1  0  0  0
 21 22  1  0  0  0
 21 37  1  0  0  0
 22 23  2  0  0  0
 22 38  1  0  0  0
 23 24  1  0  0  0
 23 39  1  0  0  0
 24 25  2  0  0  0
 24 40  1  0  0  0
 25 41  1  0  0  0
M  END
> <s_m_entry_id>
25415

> <s_m_entry_name>
dock_pv.67

> <s_m_Source_Path>
/home/csk/Desktop/cluster/DUD-E-result/pyrd

> <s_m_Source_File>
dock_pv.maegz

> <i_m_Source_File_Index>
67

> <chembl_id>
CHEMBL3677729

> <chembl_pref_name>
None

> <i_lp_mmshare_version>
53161

> <r_lp_tautomer_probability>
1

> <s_lp_Force_Field>
OPLS_2005

> <r_lp_Energy>
27.859583

> <b_lp_Chiralities_Consistent>
1

> <s_lp_Variant>
CHEMBL1966_lig472-1

> <s_i_glide_gridfile>
glide-grid_1d3g

> <i_i_glide_lignum>
522

> <i_i_glide_rotatable_bonds>
4

> <r_i_docking_score>
-10.7817771463196

> <r_i_glide_ligand_efficiency>
-0.431271085852783

> <r_i_glide_ligand_efficiency_sa>
-1.26104430365881

> <r_i_glide_ligand_efficiency_ln>
-2.55560428746594

> <r_i_glide_gscore>
-10.7817771463196

> <r_i_glide_lipo>
-5.35077108253398

> <r_i_glide_hbond>
-0.16

> <r_i_glide_metal>
0

> <r_i_glide_rewards>
-3.01519414933236

> <r_i_glide_evdw>
-38.4611358642578

> <r_i_glide_ecoul>
-5.70196294784546

> <r_i_glide_erotb>
0.522539320936458

> <r_i_glide_esite>
0

> <r_i_glide_emodel>
-66.4228600552114

> <r_i_glide_energy>
-44.1630988121033

> <r_i_glide_einternal>
4.09106969833374

> <i_i_glide_confnum>
49

> <i_i_glide_posenum>
340

> <r_i_glide_eff_state_penalty>
0

> <s_user_duplicate_titles>
CHEMBL1966_lig472

> <i_f3d_flags>
0

> <s_m_subgroup_title>
dock_pv

> <s_m_subgroupid>
dock_pv

> <b_m_subgroup_collapsed>
1

$$$$
CHEMBL1966_lig614
                    3D
 Schrodinger Suite 2021-1.
 42 45  0  0  1  0            999 V2000
   48.9551   41.4571   -4.1971 C   0  0  0  0  0  0
   49.8336   42.5506   -4.0532 C   0  0  0  0  0  0
   50.3646   42.8239   -2.7781 C   0  0  0  0  0  0
   50.0765   42.0746   -1.6859 N   0  0  0  0  0  0
   51.3021   43.9434   -2.4924 C   0  0  0  0  0  0
   51.1225   44.7940   -1.3892 C   0  0  0  0  0  0
   52.0595   45.7870   -1.1033 C   0  0  0  0  0  0
   53.1829   45.9509   -1.9217 C   0  0  0  0  0  0
   53.3434   45.1287   -3.0344 C   0  0  0  0  0  0
   52.4283   44.1199   -3.2996 C   0  0  0  0  0  0
   54.2609   46.9075   -1.5920 C   0  0  0  0  0  0
   54.6962   47.8435   -2.5385 C   0  0  0  0  0  0
   55.7864   48.6641   -2.2640 C   0  0  0  0  0  0
   56.4487   48.5382   -1.0470 C   0  0  0  0  0  0
   56.0228   47.6100   -0.1005 C   0  0  0  0  0  0
   54.9190   46.8084   -0.3637 C   0  0  0  0  0  0
   48.4249   41.0971   -5.5552 C   0  0  0  0  0  0
   47.0697   41.1680   -5.6989 O   0  0  0  0  0  0
   49.1972   40.8104   -6.4648 O   0  0  0  0  0  0
   48.6087   40.6805   -3.0433 C   0  0  0  0  0  0
   49.2237   41.0323   -1.8047 C   0  0  0  0  0  0
   48.9320   40.4101   -0.6295 N   0  0  0  0  0  0
   48.0188   39.4131   -0.6482 C   0  0  0  0  0  0
   47.3720   38.9819   -1.8015 C   0  0  0  0  0  0
   47.6666   39.6080   -3.0106 C   0  0  0  0  0  0
   50.1472   43.4514   -5.2603 C   0  0  0  0  0  0
   50.2646   44.6757   -0.7425 H   0  0  0  0  0  0
   51.9223   46.4133   -0.2334 H   0  0  0  0  0  0
   54.2171   45.2253   -3.6625 H   0  0  0  0  0  0
   52.6175   43.4517   -4.1267 H   0  0  0  0  0  0
   54.1979   47.9230   -3.4947 H   0  0  0  0  0  0
   56.1293   49.3815   -2.9954 H   0  0  0  0  0  0
   57.3073   49.1602   -0.8388 H   0  0  0  0  0  0
   56.5584   47.5024    0.8303 H   0  0  0  0  0  0
   54.6088   46.0758    0.3680 H   0  0  0  0  0  0
   46.6365   41.5419   -4.9269 H   0  0  0  0  0  0
   47.8249   38.9370    0.2999 H   0  0  0  0  0  0
   46.6614   38.1690   -1.7586 H   0  0  0  0  0  0
   47.1728   39.2775   -3.9118 H   0  0  0  0  0  0
   49.2339   43.6916   -5.8063 H   0  0  0  0  0  0
   50.5804   44.4093   -4.9967 H   0  0  0  0  0  0
   50.8196   42.9488   -5.9553 H   0  0  0  0  0  0
  1 20  1  0  0  0
  1  2  2  0  0  0
  1 17  1  0  0  0
  2  3  1  0  0  0
  2 26  1  0  0  0
  3  4  2  0  0  0
  3  5  1  0  0  0
  4 21  1  0  0  0
  5  6  2  0  0  0
  5 10  1  0  0  0
  6  7  1  0  0  0
  6 27  1  0  0  0
  7  8  2  0  0  0
  7 28  1  0  0  0
  8  9  1  0  0  0
  8 11  1  0  0  0
  9 10  2  0  0  0
  9 29  1  0  0  0
 10 30  1  0  0  0
 11 12  2  0  0  0
 11 16  1  0  0  0
 12 13  1  0  0  0
 12 31  1  0  0  0
 13 14  2  0  0  0
 13 32  1  0  0  0
 14 15  1  0  0  0
 14 33  1  0  0  0
 15 16  2  0  0  0
 15 34  1  0  0  0
 16 35  1  0  0  0
 17 18  1  0  0  0
 17 19  2  0  0  0
 18 36  1  0  0  0
 20 21  1  0  0  0
 20 25  2  0  0  0
 21 22  2  0  0  0
 22 23  1  0  0  0
 23 24  2  0  0  0
 23 37  1  0  0  0
 24 25  1  0  0  0
 24 38  1  0  0  0
 25 39  1  0  0  0
 26 40  1  0  0  0
 26 41  1  0  0  0
 26 42  1  0  0  0
M  END
> <s_m_entry_id>
25416

> <s_m_entry_name>
dock_pv.68

> <s_m_Source_Path>
/home/csk/Desktop/cluster/DUD-E-result/pyrd

> <s_m_Source_File>
dock_pv.maegz

> <i_m_Source_File_Index>
68

> <chembl_id>
CHEMBL4228193

> <chembl_pref_name>
None

> <i_lp_mmshare_version>
53161

> <r_lp_tautomer_probability>
1

> <s_lp_Force_Field>
OPLS_2005

> <r_lp_Energy>
30.685793

> <b_lp_Chiralities_Consistent>
1

> <s_lp_Variant>
CHEMBL1966_lig614-1

> <s_i_glide_gridfile>
glide-grid_1d3g

> <i_i_glide_lignum>
668

> <i_i_glide_rotatable_bonds>
4

> <r_i_docking_score>
-10.7450327214424

> <r_i_glide_ligand_efficiency>
-0.413270489286246

> <r_i_glide_ligand_efficiency_sa>
-1.22431219836965

> <r_i_glide_ligand_efficiency_ln>
-2.52343567730267

> <r_i_glide_gscore>
-10.7450327214424

> <r_i_glide_lipo>
-5.71155143187533

> <r_i_glide_hbond>
-0.16

> <r_i_glide_metal>
0

> <r_i_glide_rewards>
-2.25594480273713

> <r_i_glide_evdw>
-38.0519866943359

> <r_i_glide_ecoul>
-8.03526020050049

> <r_i_glide_erotb>
0.490351877961912

> <r_i_glide_esite>
0

> <r_i_glide_emodel>
-68.6631156510351

> <r_i_glide_energy>
-46.0872468948364

> <r_i_glide_einternal>
4.68014049530029

> <i_i_glide_confnum>
41

> <i_i_glide_posenum>
360

> <r_i_glide_eff_state_penalty>
0

> <s_user_duplicate_titles>
CHEMBL1966_lig614

> <i_f3d_flags>
0

> <s_m_subgroup_title>
dock_pv

> <s_m_subgroupid>
dock_pv

> <b_m_subgroup_collapsed>
1

$$$$
CHEMBL1966_lig94
                    3D
 Schrodinger Suite 2021-1.
 42 45  0  0  1  0            999 V2000
   47.3356   38.9962   -1.7891 C   0  0  0  0  0  0
   47.9182   39.3869   -0.5964 C   0  0  0  0  0  0
   48.8567   40.4100   -0.5572 C   0  0  0  0  0  0
   47.6856   39.6231   -2.9781 C   0  0  0  0  0  0
   48.6230   40.7061   -2.9913 C   0  0  0  0  0  0
   49.2231   41.0768   -1.7482 C   0  0  0  0  0  0
   50.0979   42.1060   -1.6346 N   0  0  0  0  0  0
   50.3926   42.8555   -2.7229 C   0  0  0  0  0  0
   49.8380   42.5881   -3.9834 C   0  0  0  0  0  0
   48.9758   41.4838   -4.1481 C   0  0  0  0  0  0
   51.3305   43.9879   -2.4516 C   0  0  0  0  0  0
   52.4230   44.2070   -3.2990 C   0  0  0  0  0  0
   53.3461   45.2100   -3.0297 C   0  0  0  0  0  0
   53.2179   45.9955   -1.8838 C   0  0  0  0  0  0
   52.1179   45.8098   -1.0436 C   0  0  0  0  0  0
   51.1842   44.8100   -1.3213 C   0  0  0  0  0  0
   48.3987   41.1636   -5.5042 C   0  0  0  0  0  0
   49.3233   41.2100   -6.4990 O   0  0  0  0  0  0
   47.2233   40.8651   -5.6990 O   0  0  0  0  0  0
   50.0941   43.4444   -5.0313 O   0  0  0  0  0  0
   54.4418   47.2100   -1.4362 S   0  0  0  0  0  0
   55.7539   47.0511   -2.6225 C   0  0  0  0  0  0
   56.4703   45.8562   -2.7336 C   0  0  0  0  0  0
   57.4738   45.7354   -3.6920 C   0  0  0  0  0  0
   57.7837   46.8230   -4.5051 C   0  0  0  0  0  0
   57.0975   48.0281   -4.3716 C   0  0  0  0  0  0
   56.0756   48.1410   -3.4315 C   0  0  0  0  0  0
   46.4135   38.0100   -1.7832 F   0  0  0  0  0  0
   47.6391   38.8694    0.3009 H   0  0  0  0  0  0
   49.3065   40.6993    0.3818 H   0  0  0  0  0  0
   47.2068   39.2874   -3.8828 H   0  0  0  0  0  0
   52.5706   43.5804   -4.1661 H   0  0  0  0  0  0
   54.1622   45.3423   -3.7184 H   0  0  0  0  0  0
   52.0006   46.4180   -0.1585 H   0  0  0  0  0  0
   50.3505   44.6675   -0.6487 H   0  0  0  0  0  0
   50.1391   41.6076   -6.1793 H   0  0  0  0  0  0
   49.2864   43.8230   -5.3988 H   0  0  0  0  0  0
   56.2365   45.0163   -2.0990 H   0  0  0  0  0  0
   58.0229   44.8100   -3.7896 H   0  0  0  0  0  0
   58.5729   46.7338   -5.2373 H   0  0  0  0  0  0
   57.3498   48.8692   -5.0003 H   0  0  0  0  0  0
   55.5383   49.0722   -3.3359 H   0  0  0  0  0  0
  1  2  2  0  0  0
  1  4  1  0  0  0
  1 28  1  0  0  0
  2  3  1  0  0  0
  2 29  1  0  0  0
  3  6  2  0  0  0
  3 30  1  0  0  0
  4  5  2  0  0  0
  4 31  1  0  0  0
  5 10  1  0  0  0
  5  6  1  0  0  0
  6  7  1  0  0  0
  7  8  2  0  0  0
  8  9  1  0  0  0
  8 11  1  0  0  0
  9 20  1  0  0  0
  9 10  2  0  0  0
 10 17  1  0  0  0
 11 16  1  0  0  0
 11 12  2  0  0  0
 12 13  1  0  0  0
 12 32  1  0  0  0
 13 14  2  0  0  0
 13 33  1  0  0  0
 14 15  1  0  0  0
 14 21  1  0  0  0
 15 16  2  0  0  0
 15 34  1  0  0  0
 16 35  1  0  0  0
 17 18  1  0  0  0
 17 19  2  0  0  0
 18 36  1  0  0  0
 20 37  1  0  0  0
 21 22  1  0  0  0
 22 23  2  0  0  0
 22 27  1  0  0  0
 23 24  1  0  0  0
 23 38  1  0  0  0
 24 25  2  0  0  0
 24 39  1  0  0  0
 25 26  1  0  0  0
 25 40  1  0  0  0
 26 27  2  0  0  0
 26 41  1  0  0  0
 27 42  1  0  0  0
M  END
> <s_m_entry_id>
25417

> <s_m_entry_name>
dock_pv.69

> <s_m_Source_Path>
/home/csk/Desktop/cluster/DUD-E-result/pyrd

> <s_m_Source_File>
dock_pv.maegz

> <i_m_Source_File_Index>
69

> <chembl_id>
CHEMBL218085

> <chembl_pref_name>
None

> <i_lp_mmshare_version>
53161

> <r_lp_tautomer_probability>
1

> <s_lp_Force_Field>
OPLS_2005

> <r_lp_Energy>
29.884279

> <b_lp_Chiralities_Consistent>
1

> <s_lp_Variant>
CHEMBL1966_lig94-1

> <s_i_glide_gridfile>
glide-grid_1d3g

> <i_i_glide_lignum>
103

> <i_i_glide_rotatable_bonds>
6

> <r_i_docking_score>
-10.7445365041432

> <r_i_glide_ligand_efficiency>
-0.383733446576544

> <r_i_glide_ligand_efficiency_sa>
-1.1652407507199

> <r_i_glide_ligand_efficiency_ln>
-2.48015449845619

> <r_i_glide_gscore>
-10.7445365041432

> <r_i_glide_lipo>
-6.07696622873203

> <r_i_glide_hbond>
-0.100753325716646

> <r_i_glide_metal>
0

> <r_i_glide_rewards>
-2.06753652280331

> <r_i_glide_evdw>
-42.3491516113281

> <r_i_glide_ecoul>
-5.94210767745972

> <r_i_glide_erotb>
0.509493305294133

> <r_i_glide_esite>
0

> <r_i_glide_emodel>
-78.3118920356394

> <r_i_glide_energy>
-48.2912592887878

> <r_i_glide_einternal>
2.9008526802063

> <i_i_glide_confnum>
98

> <i_i_glide_posenum>
227

> <r_i_glide_eff_state_penalty>
0

> <s_user_duplicate_titles>
CHEMBL1966_lig94,365584

> <i_f3d_flags>
0

> <s_m_subgroup_title>
dock_pv

> <s_m_subgroupid>
dock_pv

> <b_m_subgroup_collapsed>
1

$$$$
CHEMBL1966_lig491
                    3D
 Schrodinger Suite 2021-1.
 41 44  0  0  1  0            999 V2000
   46.7817   38.3130   -1.0345 C   0  0  0  0  0  0
   47.6227   39.3430   -1.7565 C   0  0  0  0  0  0
   47.4552   39.5524   -3.1264 C   0  0  0  0  0  0
   48.1900   40.5166   -3.8313 C   0  0  0  0  0  0
   47.9161   40.7322   -5.2834 C   0  0  0  0  0  0
   48.8237   40.8326   -6.0985 O   0  0  0  0  0  0
   46.5913   40.8103   -5.5964 O   0  0  0  0  0  0
   49.1180   41.2819   -3.0996 C   0  0  0  0  0  0
   49.9091   42.3280   -3.5177 N   0  0  0  0  0  0
   50.4518   42.8094   -2.4280 C   0  0  0  0  0  0
   50.1170   42.0686   -1.3139 N   0  0  0  0  0  0
   49.2420   41.0814   -1.7037 C   0  0  0  0  0  0
   48.5125   40.1090   -1.0076 C   0  0  0  0  0  0
   51.3564   44.0063   -2.3726 C   0  0  0  0  0  0
   51.2389   44.9193   -1.3049 C   0  0  0  0  0  0
   50.2326   44.8011   -0.4059 F   0  0  0  0  0  0
   52.1764   45.9459   -1.1458 C   0  0  0  0  0  0
   52.0488   46.8086   -0.1078 F   0  0  0  0  0  0
   53.2605   46.0617   -2.0265 C   0  0  0  0  0  0
   53.3665   45.1572   -3.0888 C   0  0  0  0  0  0
   54.4682   45.2111   -3.8680 F   0  0  0  0  0  0
   52.4130   44.1542   -3.2989 C   0  0  0  0  0  0
   52.5749   43.2645   -4.3077 F   0  0  0  0  0  0
   54.3425   47.0668   -1.8350 C   0  0  0  0  0  0
   55.1250   47.0536   -0.6754 C   0  0  0  0  0  0
   56.2277   47.8969   -0.5665 C   0  0  0  0  0  0
   56.5401   48.7732   -1.6000 C   0  0  0  0  0  0
   55.7601   48.8089   -2.7504 C   0  0  0  0  0  0
   54.6599   47.9631   -2.8636 C   0  0  0  0  0  0
   46.2383   38.8101   -0.2282 H   0  0  0  0  0  0
   46.0565   37.8301   -1.6909 H   0  0  0  0  0  0
   47.4192   37.5499   -0.5855 H   0  0  0  0  0  0
   46.7302   38.9443   -3.6495 H   0  0  0  0  0  0
   46.0448   40.8835   -4.8097 H   0  0  0  0  0  0
   50.4414   42.2934   -0.3862 H   0  0  0  0  0  0
   48.6135   39.9677    0.0591 H   0  0  0  0  0  0
   54.9079   46.3569    0.1220 H   0  0  0  0  0  0
   56.8650   47.8580    0.3006 H   0  0  0  0  0  0
   57.4030   49.4174   -1.5106 H   0  0  0  0  0  0
   56.0138   49.4839   -3.5553 H   0  0  0  0  0  0
   54.0717   47.9764   -3.7703 H   0  0  0  0  0  0
  1  2  1  0  0  0
  1 30  1  0  0  0
  1 31  1  0  0  0
  1 32  1  0  0  0
  2  3  2  0  0  0
  2 13  1  0  0  0
  3  4  1  0  0  0
  3 33  1  0  0  0
  4  5  1  0  0  0
  4  8  2  0  0  0
  5  6  2  0  0  0
  5  7  1  0  0  0
  7 34  1  0  0  0
  8  9  1  0  0  0
  8 12  1  0  0  0
  9 10  2  0  0  0
 10 11  1  0  0  0
 10 14  1  0  0  0
 11 12  1  0  0  0
 11 35  1  0  0  0
 12 13  2  0  0  0
 13 36  1  0  0  0
 14 15  2  0  0  0
 14 22  1  0  0  0
 15 16  1  0  0  0
 15 17  1  0  0  0
 17 18  1  0  0  0
 17 19  2  0  0  0
 19 20  1  0  0  0
 19 24  1  0  0  0
 20 21  1  0  0  0
 20 22  2  0  0  0
 22 23  1  0  0  0
 24 25  2  0  0  0
 24 29  1  0  0  0
 25 26  1  0  0  0
 25 37  1  0  0  0
 26 27  2  0  0  0
 26 38  1  0  0  0
 27 28  1  0  0  0
 27 39  1  0  0  0
 28 29  2  0  0  0
 28 40  1  0  0  0
 29 41  1  0  0  0
M  END
> <s_m_entry_id>
25418

> <s_m_entry_name>
dock_pv.70

> <s_m_Source_Path>
/home/csk/Desktop/cluster/DUD-E-result/pyrd

> <s_m_Source_File>
dock_pv.maegz

> <i_m_Source_File_Index>
70

> <chembl_id>
CHEMBL3677748

> <chembl_pref_name>
None

> <i_lp_mmshare_version>
53161

> <r_lp_tautomer_probability>
1

> <s_lp_Force_Field>
OPLS_2005

> <r_lp_Energy>
28.801071

> <b_lp_Chiralities_Consistent>
1

> <s_lp_Variant>
CHEMBL1966_lig491-1

> <s_i_glide_gridfile>
glide-grid_1d3g

> <i_i_glide_lignum>
541

> <i_i_glide_rotatable_bonds>
4

> <r_i_docking_score>
-10.7406497265283

> <r_i_glide_ligand_efficiency>
-0.370367231949253

> <r_i_glide_ligand_efficiency_sa>
-1.13788547712318

> <r_i_glide_ligand_efficiency_ln>
-2.45933642799773

> <r_i_glide_gscore>
-10.7406497265283

> <r_i_glide_lipo>
-5.39119518153482

> <r_i_glide_hbond>
-0.16

> <r_i_glide_metal>
0

> <r_i_glide_rewards>
-3.01841328561581

> <r_i_glide_evdw>
-40.1432151794434

> <r_i_glide_ecoul>
-3.53894877433777

> <r_i_glide_erotb>
0.366961815745142

> <r_i_glide_esite>
0

> <r_i_glide_emodel>
-58.8791721671869

> <r_i_glide_energy>
-43.6821639537811

> <r_i_glide_einternal>
4.44429445266724

> <i_i_glide_confnum>
3

> <i_i_glide_posenum>
377

> <r_i_glide_eff_state_penalty>
0

> <s_user_duplicate_titles>
CHEMBL1966_lig491

> <i_f3d_flags>
0

> <s_m_subgroup_title>
dock_pv

> <s_m_subgroupid>
dock_pv

> <b_m_subgroup_collapsed>
1

$$$$
CHEMBL1966_lig727
                    3D
 Schrodinger Suite 2021-1.
 39 42  0  0  1  0            999 V2000
   50.3974   42.1948   -1.7530 N   0  0  0  0  0  0
   50.7293   42.9702   -2.8230 C   0  0  0  0  0  0
   49.2230   41.7268   -4.2488 C   0  0  0  0  0  0
   50.1891   42.7448   -4.1000 C   0  0  0  0  0  0
   48.8334   40.9328   -3.1257 C   0  0  0  0  0  0
   49.4703   41.2100   -1.8813 C   0  0  0  0  0  0
   51.6230   44.1184   -2.4651 C   0  0  0  0  0  0
   48.5817   41.5057   -5.5830 C   0  0  0  0  0  0
   52.8123   44.4100   -3.1583 C   0  0  0  0  0  0
   47.8217   39.9256   -3.1601 C   0  0  0  0  0  0
   53.7163   45.3972   -2.6719 C   0  0  0  0  0  0
   51.2802   44.9151   -1.3604 C   0  0  0  0  0  0
   49.2231   41.0162   -6.4957 O   0  0  0  0  0  0
   49.0660   40.5058   -0.7161 C   0  0  0  0  0  0
   53.3588   46.1612   -1.5199 C   0  0  0  0  0  0
   52.1097   45.9322   -0.9006 C   0  0  0  0  0  0
   47.4249   39.2760   -1.9980 C   0  0  0  0  0  0
   47.3195   42.0088   -5.6981 O   0  0  0  0  0  0
   50.5741   43.6086   -5.3097 C   0  0  0  0  0  0
   48.0234   39.5830   -0.7837 C   0  0  0  0  0  0
   46.4220   38.3740   -2.0428 F   0  0  0  0  0  0
   54.9898   45.6117   -3.2577 C   0  0  0  0  0  0
   54.2785   47.1069   -1.0021 C   0  0  0  0  0  0
   55.8675   46.5551   -2.7308 C   0  0  0  0  0  0
   55.5144   47.2986   -1.6109 C   0  0  0  0  0  0
   53.1118   43.7956   -3.9948 H   0  0  0  0  0  0
   47.3202   39.6843   -4.0845 H   0  0  0  0  0  0
   50.3548   44.7308   -0.8324 H   0  0  0  0  0  0
   49.5333   40.7302    0.2331 H   0  0  0  0  0  0
   51.8255   46.5123   -0.0336 H   0  0  0  0  0  0
   47.1332   42.5144   -6.4995 H   0  0  0  0  0  0
   49.6736   44.0106   -5.7722 H   0  0  0  0  0  0
   51.2217   44.4411   -5.0856 H   0  0  0  0  0  0
   51.0691   43.0079   -6.0719 H   0  0  0  0  0  0
   47.6938   39.0776    0.1118 H   0  0  0  0  0  0
   55.2959   45.0157   -4.0990 H   0  0  0  0  0  0
   54.0230   47.6596   -0.1116 H   0  0  0  0  0  0
   56.8372   46.7008   -3.1845 H   0  0  0  0  0  0
   56.2094   48.0187   -1.2019 H   0  0  0  0  0  0
  1  2  2  0  0  0
  1  6  1  0  0  0
  2  4  1  0  0  0
  2  7  1  0  0  0
  3  5  1  0  0  0
  3  8  1  0  0  0
  3  4  2  0  0  0
  4 19  1  0  0  0
  5  6  1  0  0  0
  5 10  2  0  0  0
  6 14  2  0  0  0
  7  9  1  0  0  0
  7 12  2  0  0  0
  8 13  2  0  0  0
  8 18  1  0  0  0
  9 11  2  0  0  0
  9 26  1  0  0  0
 10 17  1  0  0  0
 10 27  1  0  0  0
 11 22  1  0  0  0
 11 15  1  0  0  0
 12 16  1  0  0  0
 12 28  1  0  0  0
 14 20  1  0  0  0
 14 29  1  0  0  0
 15 16  2  0  0  0
 15 23  1  0  0  0
 16 30  1  0  0  0
 17 20  2  0  0  0
 17 21  1  0  0  0
 18 31  1  0  0  0
 19 32  1  0  0  0
 19 33  1  0  0  0
 19 34  1  0  0  0
 20 35  1  0  0  0
 22 24  2  0  0  0
 22 36  1  0  0  0
 23 25  2  0  0  0
 23 37  1  0  0  0
 24 25  1  0  0  0
 24 38  1  0  0  0
 25 39  1  0  0  0
M  END
> <s_m_entry_id>
25419

> <s_m_entry_name>
dock_pv.71

> <s_m_Source_Path>
/home/csk/Desktop/cluster/DUD-E-result/pyrd

> <s_m_Source_File>
dock_pv.maegz

> <i_m_Source_File_Index>
71

> <chembl_id>
CHEMBL289555

> <chembl_pref_name>
None

> <i_lp_mmshare_version>
53161

> <r_lp_tautomer_probability>
1

> <s_lp_Force_Field>
OPLS_2005

> <r_lp_Energy>
28.775498

> <b_lp_Chiralities_Consistent>
1

> <s_lp_Variant>
CHEMBL1966_lig727-1

> <s_i_glide_gridfile>
glide-grid_1d3g

> <i_i_glide_lignum>
798

> <i_i_glide_rotatable_bonds>
3

> <r_i_docking_score>
-10.7299094341201

> <r_i_glide_ligand_efficiency>
-0.429196377364804

> <r_i_glide_ligand_efficiency_sa>
-1.25497781924485

> <r_i_glide_ligand_efficiency_ln>
-2.54331008532476

> <r_i_glide_gscore>
-10.7299094341201

> <r_i_glide_lipo>
-5.76699164995924

> <r_i_glide_hbond>
-0.16

> <r_i_glide_metal>
0

> <r_i_glide_rewards>
-2.31871558915432

> <r_i_glide_evdw>
-30.7007961273193

> <r_i_glide_ecoul>
-8.61340999603271

> <r_i_glide_erotb>
0.342849110764347

> <r_i_glide_esite>
0

> <r_i_glide_emodel>
-52.6281635751624

> <r_i_glide_energy>
-39.3142061233521

> <r_i_glide_einternal>
5.85702753067017

> <i_i_glide_confnum>
9

> <i_i_glide_posenum>
142

> <r_i_glide_eff_state_penalty>
0

> <s_user_duplicate_titles>
CHEMBL1966_lig727,57367

> <i_f3d_flags>
0

> <s_m_subgroup_title>
dock_pv

> <s_m_subgroupid>
dock_pv

> <b_m_subgroup_collapsed>
1

$$$$
CHEMBL1966_lig570
                    3D
 Schrodinger Suite 2021-1.
 41 44  0  0  1  0            999 V2000
   47.1762   38.5121   -1.2865 C   0  0  0  0  0  0
   47.9748   39.6278   -1.9361 C   0  0  0  0  0  0
   47.8149   39.8848   -3.3025 C   0  0  0  0  0  0
   48.5291   40.8970   -3.9563 C   0  0  0  0  0  0
   48.2956   41.1935   -5.4039 C   0  0  0  0  0  0
   49.2228   41.2100   -6.2056 O   0  0  0  0  0  0
   47.0306   41.6100   -5.6988 O   0  0  0  0  0  0
   49.3976   41.6712   -3.1684 C   0  0  0  0  0  0
   50.1356   42.7665   -3.5269 N   0  0  0  0  0  0
   50.6883   43.1826   -2.4176 C   0  0  0  0  0  0
   50.3810   42.3966   -1.3375 N   0  0  0  0  0  0
   49.5362   41.4154   -1.7848 C   0  0  0  0  0  0
   48.8230   40.4100   -1.1412 C   0  0  0  0  0  0
   51.6231   44.3246   -2.3370 C   0  0  0  0  0  0
   52.6437   44.4100   -3.2990 C   0  0  0  0  0  0
   52.7372   43.4853   -4.2834 F   0  0  0  0  0  0
   53.6230   45.3971   -3.1967 C   0  0  0  0  0  0
   54.6315   45.4368   -4.0989 F   0  0  0  0  0  0
   53.6172   46.3141   -2.1425 C   0  0  0  0  0  0
   52.6192   46.2034   -1.1620 C   0  0  0  0  0  0
   52.6268   47.0227   -0.0843 F   0  0  0  0  0  0
   51.6229   45.2271   -1.2657 C   0  0  0  0  0  0
   50.6851   45.1302   -0.2945 F   0  0  0  0  0  0
   54.7016   47.3303   -2.0825 C   0  0  0  0  0  0
   55.4976   47.4670   -0.9424 C   0  0  0  0  0  0
   56.5919   48.3278   -0.9553 C   0  0  0  0  0  0
   56.9075   49.0713   -2.0866 C   0  0  0  0  0  0
   57.9820   49.8931   -2.0835 F   0  0  0  0  0  0
   56.1170   48.9521   -3.2226 C   0  0  0  0  0  0
   56.4230   49.6588   -4.3326 F   0  0  0  0  0  0
   55.0137   48.1000   -3.2135 C   0  0  0  0  0  0
   46.9681   38.7360   -0.2390 H   0  0  0  0  0  0
   46.2096   38.3847   -1.7754 H   0  0  0  0  0  0
   47.7234   37.5705   -1.3420 H   0  0  0  0  0  0
   47.1112   39.2845   -3.8586 H   0  0  0  0  0  0
   47.0124   42.2667   -6.4043 H   0  0  0  0  0  0
   50.7152   42.5781   -0.4039 H   0  0  0  0  0  0
   48.9176   40.2309   -0.0817 H   0  0  0  0  0  0
   55.2981   46.8772   -0.0587 H   0  0  0  0  0  0
   57.2230   48.3995   -0.0990 H   0  0  0  0  0  0
   54.4177   48.0100   -4.1082 H   0  0  0  0  0  0
  1  2  1  0  0  0
  1 32  1  0  0  0
  1 33  1  0  0  0
  1 34  1  0  0  0
  2  3  2  0  0  0
  2 13  1  0  0  0
  3  4  1  0  0  0
  3 35  1  0  0  0
  4  5  1  0  0  0
  4  8  2  0  0  0
  5  6  2  0  0  0
  5  7  1  0  0  0
  7 36  1  0  0  0
  8  9  1  0  0  0
  8 12  1  0  0  0
  9 10  2  0  0  0
 10 11  1  0  0  0
 10 14  1  0  0  0
 11 12  1  0  0  0
 11 37  1  0  0  0
 12 13  2  0  0  0
 13 38  1  0  0  0
 14 15  2  0  0  0
 14 22  1  0  0  0
 15 16  1  0  0  0
 15 17  1  0  0  0
 17 18  1  0  0  0
 17 19  2  0  0  0
 19 20  1  0  0  0
 19 24  1  0  0  0
 20 21  1  0  0  0
 20 22  2  0  0  0
 22 23  1  0  0  0
 24 25  2  0  0  0
 24 31  1  0  0  0
 25 26  1  0  0  0
 25 39  1  0  0  0
 26 27  2  0  0  0
 26 40  1  0  0  0
 27 28  1  0  0  0
 27 29  1  0  0  0
 29 30  1  0  0  0
 29 31  2  0  0  0
 31 41  1  0  0  0
M  END
> <s_m_entry_id>
25420

> <s_m_entry_name>
dock_pv.72

> <s_m_Source_Path>
/home/csk/Desktop/cluster/DUD-E-result/pyrd

> <s_m_Source_File>
dock_pv.maegz

> <i_m_Source_File_Index>
72

> <chembl_id>
CHEMBL3677829

> <chembl_pref_name>
None

> <i_lp_mmshare_version>
53161

> <r_lp_tautomer_probability>
1

> <s_lp_Force_Field>
OPLS_2005

> <r_lp_Energy>
28.388547

> <b_lp_Chiralities_Consistent>
1

> <s_lp_Variant>
CHEMBL1966_lig570-1

> <s_i_glide_gridfile>
glide-grid_1d3g

> <i_i_glide_lignum>
624

> <i_i_glide_rotatable_bonds>
4

> <r_i_docking_score>
-10.7264871055575

> <r_i_glide_ligand_efficiency>
-0.3460157130825

> <r_i_glide_ligand_efficiency_sa>
-1.08696706525657

> <r_i_glide_ligand_efficiency_ln>
-2.41915156965434

> <r_i_glide_gscore>
-10.7264871055575

> <r_i_glide_lipo>
-5.3960452446706

> <r_i_glide_hbond>
-0.154242982555821

> <r_i_glide_metal>
0

> <r_i_glide_rewards>
-2.96858430606718

> <r_i_glide_evdw>
-38.6693077087402

> <r_i_glide_ecoul>
-3.88942098617554

> <r_i_glide_erotb>
0.314110317564149

> <r_i_glide_esite>
-0.00484635646470946

> <r_i_glide_emodel>
-55.4509352622171

> <r_i_glide_energy>
-42.5587286949158

> <r_i_glide_einternal>
9.52461814880371

> <i_i_glide_confnum>
14

> <i_i_glide_posenum>
72

> <r_i_glide_eff_state_penalty>
0

> <s_user_duplicate_titles>
CHEMBL1966_lig570

> <i_f3d_flags>
0

> <s_m_subgroup_title>
dock_pv

> <s_m_subgroupid>
dock_pv

> <b_m_subgroup_collapsed>
1

$$$$
CHEMBL1966_lig731
                    3D
 Schrodinger Suite 2021-1.
 49 52  0  0  1  0            999 V2000
   50.0916   42.1109   -1.6685 N   0  0  0  0  0  0
   48.9608   41.4762   -4.1675 C   0  0  0  0  0  0
   50.3900   42.8439   -2.7655 C   0  0  0  0  0  0
   49.8462   42.5674   -4.0348 C   0  0  0  0  0  0
   48.6140   40.7044   -3.0095 C   0  0  0  0  0  0
   49.2230   41.0770   -1.7720 C   0  0  0  0  0  0
   48.4251   41.1115   -5.5225 C   0  0  0  0  0  0
   51.3534   43.9461   -2.4994 C   0  0  0  0  0  0
   47.6717   39.6271   -2.9922 C   0  0  0  0  0  0
   53.2162   46.0135   -2.0788 C   0  0  0  0  0  0
   49.1917   40.8105   -6.4306 O   0  0  0  0  0  0
   48.8666   40.4099   -0.5780 C   0  0  0  0  0  0
   52.4923   44.0580   -3.2997 C   0  0  0  0  0  0
   51.1753   44.8583   -1.4499 C   0  0  0  0  0  0
   52.0909   45.8933   -1.2517 C   0  0  0  0  0  0
   53.4163   45.0714   -3.0874 C   0  0  0  0  0  0
   47.3337   38.9976   -1.7980 C   0  0  0  0  0  0
   54.2344   47.1342   -1.8355 C   0  0  0  0  0  0
   47.0712   41.1903   -5.6703 O   0  0  0  0  0  0
   50.1547   43.4658   -5.2442 C   0  0  0  0  0  0
   47.9281   39.3861   -0.6077 C   0  0  0  0  0  0
   46.4121   38.0105   -1.7855 F   0  0  0  0  0  0
   55.1691   46.7718   -0.6617 C   0  0  0  0  0  0
   55.0375   47.5880   -3.0941 C   0  0  0  0  0  0
   56.0992   48.6652   -2.7811 C   0  0  0  0  0  0
   56.1814   47.8916   -0.3842 C   0  0  0  0  0  0
   57.0160   48.2422   -1.6243 C   0  0  0  0  0  0
   47.1885   39.3013   -3.8997 H   0  0  0  0  0  0
   49.3240   40.7013    0.3566 H   0  0  0  0  0  0
   52.6843   43.3359   -4.0814 H   0  0  0  0  0  0
   50.3101   44.7880   -0.8077 H   0  0  0  0  0  0
   51.9248   46.5985   -0.4513 H   0  0  0  0  0  0
   54.2990   45.0940   -3.7038 H   0  0  0  0  0  0
   53.6260   47.9896   -1.5405 H   0  0  0  0  0  0
   46.6330   41.5580   -4.8993 H   0  0  0  0  0  0
   49.2315   43.7294   -5.7653 H   0  0  0  0  0  0
   50.6257   44.4083   -4.9861 H   0  0  0  0  0  0
   50.7974   42.9488   -5.9568 H   0  0  0  0  0  0
   47.6625   38.8754    0.3009 H   0  0  0  0  0  0
   54.5891   46.6191    0.2496 H   0  0  0  0  0  0
   55.7094   45.8501   -0.8766 H   0  0  0  0  0  0
   55.5749   46.7534   -3.5389 H   0  0  0  0  0  0
   54.3556   47.9921   -3.8439 H   0  0  0  0  0  0
   55.6228   49.6086   -2.5172 H   0  0  0  0  0  0
   56.6935   48.8716   -3.6718 H   0  0  0  0  0  0
   55.6265   48.7829   -0.0891 H   0  0  0  0  0  0
   56.8265   47.6096    0.4476 H   0  0  0  0  0  0
   57.7148   49.0442   -1.3857 H   0  0  0  0  0  0
   57.6227   47.3843   -1.9188 H   0  0  0  0  0  0
  1  3  2  0  0  0
  1  6  1  0  0  0
  2  5  1  0  0  0
  2  7  1  0  0  0
  2  4  2  0  0  0
  3  4  1  0  0  0
  3  8  1  0  0  0
  4 20  1  0  0  0
  5  6  1  0  0  0
  5  9  2  0  0  0
  6 12  2  0  0  0
  7 11  2  0  0  0
  7 19  1  0  0  0
  8 13  2  0  0  0
  8 14  1  0  0  0
  9 17  1  0  0  0
  9 28  1  0  0  0
 10 15  1  0  0  0
 10 18  1  0  0  0
 10 16  2  0  0  0
 12 21  1  0  0  0
 12 29  1  0  0  0
 13 16  1  0  0  0
 13 30  1  0  0  0
 14 15  2  0  0  0
 14 31  1  0  0  0
 15 32  1  0  0  0
 16 33  1  0  0  0
 17 21  2  0  0  0
 17 22  1  0  0  0
 18 23  1  0  0  0
 18 24  1  0  0  0
 18 34  1  0  0  0
 19 35  1  0  0  0
 20 36  1  0  0  0
 20 37  1  0  0  0
 20 38  1  0  0  0
 21 39  1  0  0  0
 23 26  1  0  0  0
 23 40  1  0  0  0
 23 41  1  0  0  0
 24 25  1  0  0  0
 24 42  1  0  0  0
 24 43  1  0  0  0
 25 27  1  0  0  0
 25 44  1  0  0  0
 25 45  1  0  0  0
 26 27  1  0  0  0
 26 46  1  0  0  0
 26 47  1  0  0  0
 27 48  1  0  0  0
 27 49  1  0  0  0
M  END
> <s_m_entry_id>
25421

> <s_m_entry_name>
dock_pv.73

> <s_m_Source_Path>
/home/csk/Desktop/cluster/DUD-E-result/pyrd

> <s_m_Source_File>
dock_pv.maegz

> <i_m_Source_File_Index>
73

> <chembl_id>
CHEMBL39396

> <chembl_pref_name>
None

> <i_lp_mmshare_version>
53161

> <r_lp_tautomer_probability>
1

> <s_lp_Force_Field>
OPLS_2005

> <r_lp_Energy>
32.478997

> <b_lp_Chiralities_Consistent>
1

> <s_lp_Variant>
CHEMBL1966_lig731-1

> <s_i_glide_gridfile>
glide-grid_1d3g

> <i_i_glide_lignum>
802

> <i_i_glide_rotatable_bonds>
4

> <r_i_docking_score>
-10.7109648334691

> <r_i_glide_ligand_efficiency>
-0.396702401239596

> <r_i_glide_ligand_efficiency_sa>
-1.19010720241132

> <r_i_glide_ligand_efficiency_ln>
-2.49333602917553

> <r_i_glide_gscore>
-10.7109648334691

> <r_i_glide_lipo>
-6.17527817898137

> <r_i_glide_hbond>
-0.16

> <r_i_glide_metal>
0

> <r_i_glide_rewards>
-2.06670761109968

> <r_i_glide_evdw>
-34.0190544128418

> <r_i_glide_ecoul>
-6.96290254592896

> <r_i_glide_erotb>
0.43640905914338

> <r_i_glide_esite>
0

> <r_i_glide_emodel>
-63.6500262413699

> <r_i_glide_energy>
-40.9819569587708

> <r_i_glide_einternal>
4.19749593734741

> <i_i_glide_confnum>
89

> <i_i_glide_posenum>
342

> <r_i_glide_eff_state_penalty>
0

> <s_user_duplicate_titles>
CHEMBL1966_lig731,56795

> <i_f3d_flags>
0

> <s_m_subgroup_title>
dock_pv

> <s_m_subgroupid>
dock_pv

> <b_m_subgroup_collapsed>
1

$$$$
CHEMBL1966_lig556
                    3D
 Schrodinger Suite 2021-1.
 38 41  0  0  1  0            999 V2000
   47.0649   38.7177   -0.5291 O   0  0  0  0  0  0
   48.0227   39.6100   -0.9016 C   0  0  0  0  0  0
   48.8232   40.0567   -0.0988 O   0  0  0  0  0  0
   48.0450   40.0467   -2.3437 C   0  0  0  0  0  0
   47.0936   39.5652   -3.2515 C   0  0  0  0  0  0
   47.0305   40.0178   -4.5667 C   0  0  0  0  0  0
   47.9246   40.9611   -5.0797 C   0  0  0  0  0  0
   48.8430   41.4904   -4.1739 C   0  0  0  0  0  0
   49.7551   42.5211   -4.2423 N   0  0  0  0  0  0
   50.2889   42.6872   -2.9836 C   0  0  0  0  0  0
   49.8594   41.7854   -2.1431 N   0  0  0  0  0  0
   48.9244   41.0458   -2.8289 C   0  0  0  0  0  0
   51.2230   43.7884   -2.6011 C   0  0  0  0  0  0
   51.0008   44.5983   -1.4733 C   0  0  0  0  0  0
   49.8990   44.4139   -0.7074 F   0  0  0  0  0  0
   51.9115   45.6101   -1.1320 C   0  0  0  0  0  0
   51.6735   46.3827   -0.0453 F   0  0  0  0  0  0
   53.0744   45.8049   -1.8933 C   0  0  0  0  0  0
   53.2872   44.9919   -3.0099 C   0  0  0  0  0  0
   54.4447   45.1083   -3.6990 F   0  0  0  0  0  0
   52.3668   44.0097   -3.3749 C   0  0  0  0  0  0
   52.6259   43.2116   -4.4403 F   0  0  0  0  0  0
   54.1395   46.7732   -1.5156 C   0  0  0  0  0  0
   54.5029   47.8017   -2.3981 C   0  0  0  0  0  0
   55.6061   48.6136   -2.1297 C   0  0  0  0  0  0
   56.3623   48.4051   -0.9791 C   0  0  0  0  0  0
   56.0061   47.3900   -0.0950 C   0  0  0  0  0  0
   54.8912   46.5927   -0.3460 C   0  0  0  0  0  0
   54.5792   45.6101    0.5305 F   0  0  0  0  0  0
   47.1577   38.5714    0.4212 H   0  0  0  0  0  0
   46.3636   38.8336   -2.9348 H   0  0  0  0  0  0
   46.2511   39.6280   -5.2056 H   0  0  0  0  0  0
   47.8403   41.3393   -6.0864 H   0  0  0  0  0  0
   49.9612   43.1334   -5.0174 H   0  0  0  0  0  0
   53.9489   47.9491   -3.3151 H   0  0  0  0  0  0
   55.8902   49.3937   -2.8218 H   0  0  0  0  0  0
   57.2242   49.0238   -0.7735 H   0  0  0  0  0  0
   56.5919   47.2157    0.7961 H   0  0  0  0  0  0
  1  2  1  0  0  0
  1 30  1  0  0  0
  2  3  2  0  0  0
  2  4  1  0  0  0
  4  5  2  0  0  0
  4 12  1  0  0  0
  5  6  1  0  0  0
  5 31  1  0  0  0
  6  7  2  0  0  0
  6 32  1  0  0  0
  7  8  1  0  0  0
  7 33  1  0  0  0
  8  9  1  0  0  0
  8 12  2  0  0  0
  9 10  1  0  0  0
  9 34  1  0  0  0
 10 11  2  0  0  0
 10 13  1  0  0  0
 11 12  1  0  0  0
 13 14  2  0  0  0
 13 21  1  0  0  0
 14 15  1  0  0  0
 14 16  1  0  0  0
 16 17  1  0  0  0
 16 18  2  0  0  0
 18 19  1  0  0  0
 18 23  1  0  0  0
 19 20  1  0  0  0
 19 21  2  0  0  0
 21 22  1  0  0  0
 23 24  2  0  0  0
 23 28  1  0  0  0
 24 25  1  0  0  0
 24 35  1  0  0  0
 25 26  2  0  0  0
 25 36  1  0  0  0
 26 27  1  0  0  0
 26 37  1  0  0  0
 27 28  2  0  0  0
 27 38  1  0  0  0
 28 29  1  0  0  0
M  END
> <s_m_entry_id>
25422

> <s_m_entry_name>
dock_pv.74

> <s_m_Source_Path>
/home/csk/Desktop/cluster/DUD-E-result/pyrd

> <s_m_Source_File>
dock_pv.maegz

> <i_m_Source_File_Index>
74

> <chembl_id>
CHEMBL3677816

> <chembl_pref_name>
None

> <i_lp_mmshare_version>
53161

> <r_lp_tautomer_probability>
1

> <s_lp_Force_Field>
OPLS_2005

> <r_lp_Energy>
28.881766

> <b_lp_Chiralities_Consistent>
1

> <s_lp_Variant>
CHEMBL1966_lig556-1

> <s_i_glide_gridfile>
glide-grid_1d3g

> <i_i_glide_lignum>
610

> <i_i_glide_rotatable_bonds>
4

> <r_i_docking_score>
-10.7107326024256

> <r_i_glide_ligand_efficiency>
-0.369335606980194

> <r_i_glide_ligand_efficiency_sa>
-1.1347159983765

> <r_i_glide_ligand_efficiency_ln>
-2.45248616521102

> <r_i_glide_gscore>
-10.7107326024256

> <r_i_glide_lipo>
-4.99775688850948

> <r_i_glide_hbond>
0

> <r_i_glide_metal>
0

> <r_i_glide_rewards>
-3.32361083305757

> <r_i_glide_evdw>
-41.5822677612305

> <r_i_glide_ecoul>
-4.47172832489014

> <r_i_glide_erotb>
0.360507755936473

> <r_i_glide_esite>
0

> <r_i_glide_emodel>
-66.2552681670743

> <r_i_glide_energy>
-46.0539960861206

> <r_i_glide_einternal>
1.27198874950409

> <i_i_glide_confnum>
26

> <i_i_glide_posenum>
383

> <r_i_glide_eff_state_penalty>
0

> <s_user_duplicate_titles>
CHEMBL1966_lig556

> <i_f3d_flags>
0

> <s_m_subgroup_title>
dock_pv

> <s_m_subgroupid>
dock_pv

> <b_m_subgroup_collapsed>
1

$$$$
CHEMBL1966_lig528
                    3D
 Schrodinger Suite 2021-1.
 42 45  0  0  1  0            999 V2000
   57.2320   48.6565   -3.8622 C   0  0  0  0  0  0
   56.1590   47.8357   -3.1703 C   0  0  0  0  0  0
   56.1748   47.7267   -1.7768 C   0  0  0  0  0  0
   55.2111   46.9878   -1.0726 C   0  0  0  0  0  0
   55.3329   46.8535    0.4158 C   0  0  0  0  0  0
   56.4230   46.8100    0.9742 O   0  0  0  0  0  0
   54.1951   46.7834    1.1010 N   0  0  0  0  0  0
   54.2095   46.3622   -1.8380 C   0  0  0  0  0  0
   53.1420   45.6100   -1.4211 N   0  0  0  0  0  0
   52.6173   45.0834   -2.4990 C   0  0  0  0  0  0
   53.2230   45.5922   -3.6270 N   0  0  0  0  0  0
   54.2468   46.4245   -3.2451 C   0  0  0  0  0  0
   55.2004   47.1696   -3.9395 C   0  0  0  0  0  0
   51.5329   44.0100   -2.4990 C   0  0  0  0  0  0
   51.2342   43.2418   -3.6348 C   0  0  0  0  0  0
   51.8494   43.4891   -4.8127 F   0  0  0  0  0  0
   50.2971   42.2067   -3.5847 C   0  0  0  0  0  0
   50.0230   41.5525   -4.7360 F   0  0  0  0  0  0
   49.6551   41.8509   -2.3851 C   0  0  0  0  0  0
   49.9468   42.6464   -1.2565 C   0  0  0  0  0  0
   49.3318   42.4341   -0.0687 F   0  0  0  0  0  0
   50.8230   43.7239   -1.3221 C   0  0  0  0  0  0
   51.0030   44.4625   -0.2000 F   0  0  0  0  0  0
   48.6521   40.7197   -2.3209 C   0  0  0  0  0  0
   47.8218   40.4100   -3.4120 C   0  0  0  0  0  0
   46.8010   39.4695   -3.3014 C   0  0  0  0  0  0
   46.6119   38.7837   -2.1101 C   0  0  0  0  0  0
   47.4296   39.0426   -1.0216 C   0  0  0  0  0  0
   48.4230   40.0100   -1.1262 C   0  0  0  0  0  0
   57.3607   48.3565   -4.9029 H   0  0  0  0  0  0
   56.9837   49.7178   -3.8244 H   0  0  0  0  0  0
   58.1965   48.5145   -3.3727 H   0  0  0  0  0  0
   56.9635   48.2268   -1.2286 H   0  0  0  0  0  0
   54.2462   46.6792    2.1061 H   0  0  0  0  0  0
   53.3108   46.7167    0.6191 H   0  0  0  0  0  0
   52.9519   45.3233   -4.5610 H   0  0  0  0  0  0
   55.2123   47.2100   -5.0171 H   0  0  0  0  0  0
   47.8916   40.9436   -4.3457 H   0  0  0  0  0  0
   46.1520   39.2740   -4.1420 H   0  0  0  0  0  0
   45.8304   38.0436   -2.0292 H   0  0  0  0  0  0
   47.2913   38.5008   -0.0990 H   0  0  0  0  0  0
   49.0391   40.1739   -0.2559 H   0  0  0  0  0  0
  1  2  1  0  0  0
  1 30  1  0  0  0
  1 31  1  0  0  0
  1 32  1  0  0  0
  2  3  2  0  0  0
  2 13  1  0  0  0
  3  4  1  0  0  0
  3 33  1  0  0  0
  4  5  1  0  0  0
  4  8  2  0  0  0
  5  6  2  0  0  0
  5  7  1  0  0  0
  7 34  1  0  0  0
  7 35  1  0  0  0
  8  9  1  0  0  0
  8 12  1  0  0  0
  9 10  2  0  0  0
 10 11  1  0  0  0
 10 14  1  0  0  0
 11 12  1  0  0  0
 11 36  1  0  0  0
 12 13  2  0  0  0
 13 37  1  0  0  0
 14 15  2  0  0  0
 14 22  1  0  0  0
 15 16  1  0  0  0
 15 17  1  0  0  0
 17 18  1  0  0  0
 17 19  2  0  0  0
 19 20  1  0  0  0
 19 24  1  0  0  0
 20 21  1  0  0  0
 20 22  2  0  0  0
 22 23  1  0  0  0
 24 25  2  0  0  0
 24 29  1  0  0  0
 25 26  1  0  0  0
 25 38  1  0  0  0
 26 27  2  0  0  0
 26 39  1  0  0  0
 27 28  1  0  0  0
 27 40  1  0  0  0
 28 29  2  0  0  0
 28 41  1  0  0  0
 29 42  1  0  0  0
M  END
> <s_m_entry_id>
25423

> <s_m_entry_name>
dock_pv.75

> <s_m_Source_Path>
/home/csk/Desktop/cluster/DUD-E-result/pyrd

> <s_m_Source_File>
dock_pv.maegz

> <i_m_Source_File_Index>
75

> <chembl_id>
CHEMBL3677787

> <chembl_pref_name>
None

> <i_lp_mmshare_version>
53161

> <r_lp_tautomer_probability>
1

> <s_lp_Force_Field>
OPLS_2005

> <r_lp_Energy>
29.016361

> <b_lp_Chiralities_Consistent>
1

> <s_lp_Variant>
CHEMBL1966_lig528-1

> <s_i_glide_gridfile>
glide-grid_1d3g

> <i_i_glide_lignum>
581

> <i_i_glide_rotatable_bonds>
3

> <r_i_docking_score>
-10.7036905014088

> <r_i_glide_ligand_efficiency>
-0.369092775910648

> <r_i_glide_ligand_efficiency_sa>
-1.13396994439658

> <r_i_glide_ligand_efficiency_ln>
-2.45087370265045

> <r_i_glide_gscore>
-10.7036905014088

> <r_i_glide_lipo>
-5.58716878614465

> <r_i_glide_hbond>
-0.244296301153794

> <r_i_glide_metal>
0

> <r_i_glide_rewards>
-3.11574757217085

> <r_i_glide_evdw>
-33.3755378723145

> <r_i_glide_ecoul>
-2.22286057472229

> <r_i_glide_erotb>
0.245728137884555

> <r_i_glide_esite>
0

> <r_i_glide_emodel>
-41.5701614509258

> <r_i_glide_energy>
-35.5983984470367

> <r_i_glide_einternal>
4.78099489212036

> <i_i_glide_confnum>
4

> <i_i_glide_posenum>
320

> <r_i_glide_eff_state_penalty>
0

> <s_user_duplicate_titles>
CHEMBL1966_lig528

> <i_f3d_flags>
0

> <s_m_subgroup_title>
dock_pv

> <s_m_subgroupid>
dock_pv

> <b_m_subgroup_collapsed>
1

$$$$
CHEMBL1966_lig599
                    3D
 Schrodinger Suite 2021-1.
 42 45  0  0  1  0            999 V2000
   47.6230   39.1409   -0.6196 C   0  0  0  0  0  0
   47.0416   38.8108   -1.8366 C   0  0  0  0  0  0
   47.4266   39.4716   -3.0008 C   0  0  0  0  0  0
   48.6216   40.1117   -0.5484 C   0  0  0  0  0  0
   49.0356   40.8100   -1.7158 C   0  0  0  0  0  0
   48.4249   40.4874   -2.9723 C   0  0  0  0  0  0
   48.8507   41.2434   -4.1141 C   0  0  0  0  0  0
   49.7803   42.2629   -3.9382 C   0  0  0  0  0  0
   50.2868   42.5437   -2.6773 C   0  0  0  0  0  0
   49.9461   41.8176   -1.5820 N   0  0  0  0  0  0
   51.2230   43.6838   -2.4928 C   0  0  0  0  0  0
   52.2488   43.8946   -3.4222 C   0  0  0  0  0  0
   53.1800   44.9077   -3.2278 C   0  0  0  0  0  0
   53.0893   45.7599   -2.1253 C   0  0  0  0  0  0
   52.0194   45.6073   -1.2365 C   0  0  0  0  0  0
   51.1088   44.5627   -1.4047 C   0  0  0  0  0  0
   48.3811   40.9915   -5.5095 C   0  0  0  0  0  0
   47.0326   41.0389   -5.6959 O   0  0  0  0  0  0
   49.1917   40.8187   -6.4133 O   0  0  0  0  0  0
   54.1325   46.8047   -1.9398 C   0  0  0  0  0  0
   54.8225   47.0128   -0.7258 C   0  0  0  0  0  0
   55.7854   47.9605   -0.5883 N   0  0  0  0  0  0
   56.1071   48.7193   -1.6650 C   0  0  0  0  0  0
   55.5082   48.5537   -2.9109 C   0  0  0  0  0  0
   54.5030   47.6002   -3.0350 C   0  0  0  0  0  0
   54.5297   46.0298    0.6680 Cl  0  0  0  0  0  0
   57.1433   49.7950   -1.4345 C   0  0  0  0  0  0
   47.3210   38.6299    0.2860 H   0  0  0  0  0  0
   46.2806   38.0451   -1.8754 H   0  0  0  0  0  0
   46.9508   39.2110   -3.9322 H   0  0  0  0  0  0
   49.0836   40.3473    0.3974 H   0  0  0  0  0  0
   50.0914   42.8635   -4.7835 H   0  0  0  0  0  0
   52.3677   43.2323   -4.2673 H   0  0  0  0  0  0
   53.9958   45.0236   -3.9217 H   0  0  0  0  0  0
   51.9101   46.2712   -0.3912 H   0  0  0  0  0  0
   50.3079   44.4390   -0.6874 H   0  0  0  0  0  0
   46.5697   41.3273   -4.9044 H   0  0  0  0  0  0
   55.7904   49.1675   -3.7541 H   0  0  0  0  0  0
   54.0163   47.4787   -3.9926 H   0  0  0  0  0  0
   57.1968   50.4929   -2.2715 H   0  0  0  0  0  0
   56.8841   50.3591   -0.5404 H   0  0  0  0  0  0
   58.1274   49.3476   -1.3001 H   0  0  0  0  0  0
  1  2  2  0  0  0
  1  4  1  0  0  0
  1 28  1  0  0  0
  2  3  1  0  0  0
  2 29  1  0  0  0
  3  6  2  0  0  0
  3 30  1  0  0  0
  4  5  2  0  0  0
  4 31  1  0  0  0
  5  6  1  0  0  0
  5 10  1  0  0  0
  6  7  1  0  0  0
  7  8  2  0  0  0
  7 17  1  0  0  0
  8  9  1  0  0  0
  8 32  1  0  0  0
  9 10  2  0  0  0
  9 11  1  0  0  0
 11 12  2  0  0  0
 11 16  1  0  0  0
 12 13  1  0  0  0
 12 33  1  0  0  0
 13 14  2  0  0  0
 13 34  1  0  0  0
 14 15  1  0  0  0
 14 20  1  0  0  0
 15 16  2  0  0  0
 15 35  1  0  0  0
 16 36  1  0  0  0
 17 18  1  0  0  0
 17 19  2  0  0  0
 18 37  1  0  0  0
 20 21  2  0  0  0
 20 25  1  0  0  0
 21 22  1  0  0  0
 21 26  1  0  0  0
 22 23  2  0  0  0
 23 24  1  0  0  0
 23 27  1  0  0  0
 24 25  2  0  0  0
 24 38  1  0  0  0
 25 39  1  0  0  0
 27 40  1  0  0  0
 27 41  1  0  0  0
 27 42  1  0  0  0
M  END
> <s_m_entry_id>
25424

> <s_m_entry_name>
dock_pv.76

> <s_m_Source_Path>
/home/csk/Desktop/cluster/DUD-E-result/pyrd

> <s_m_Source_File>
dock_pv.maegz

> <i_m_Source_File_Index>
76

> <chembl_id>
CHEMBL4225816

> <chembl_pref_name>
None

> <i_lp_mmshare_version>
53161

> <r_lp_tautomer_probability>
1

> <s_lp_Force_Field>
OPLS_2005

> <r_lp_Energy>
31.861509

> <b_lp_Chiralities_Consistent>
1

> <s_lp_Variant>
CHEMBL1966_lig599-1

> <s_i_glide_gridfile>
glide-grid_1d3g

> <i_i_glide_lignum>
653

> <i_i_glide_rotatable_bonds>
4

> <r_i_docking_score>
-10.7026379290599

> <r_i_glide_ligand_efficiency>
-0.396393997372587

> <r_i_glide_ligand_efficiency_sa>
-1.18918199081131

> <r_i_glide_ligand_efficiency_ln>
-2.49139766310881

> <r_i_glide_gscore>
-10.7026379290599

> <r_i_glide_lipo>
-6.39456075184093

> <r_i_glide_hbond>
-0.16

> <r_i_glide_metal>
0

> <r_i_glide_rewards>
-1.63001193650833

> <r_i_glide_evdw>
-38.4397850036621

> <r_i_glide_ecoul>
-6.72708940505981

> <r_i_glide_erotb>
0.412987420231485

> <r_i_glide_esite>
0

> <r_i_glide_emodel>
-67.9896924299881

> <r_i_glide_energy>
-45.1668744087219

> <r_i_glide_einternal>
4.80776453018188

> <i_i_glide_confnum>
6

> <i_i_glide_posenum>
254

> <r_i_glide_eff_state_penalty>
0

> <s_user_duplicate_titles>
CHEMBL1966_lig599

> <i_f3d_flags>
0

> <s_m_subgroup_title>
dock_pv

> <s_m_subgroupid>
dock_pv

> <b_m_subgroup_collapsed>
1

$$$$
CHEMBL1966_lig425
                    3D
 Schrodinger Suite 2021-1.
 50 54  0  0  1  0            999 V2000
   47.9439   40.8100   -5.6709 O   0  0  0  0  0  0
   48.9374   41.5276   -5.0704 C   0  0  0  0  0  0
   49.6230   42.3268   -5.7018 O   0  0  0  0  0  0
   49.1152   41.2615   -3.5809 C   0  0  0  0  0  0
   48.3557   40.2451   -2.9673 C   0  0  0  0  0  0
   48.3790   40.0387   -1.5859 C   0  0  0  0  0  0
   49.2230   40.8100   -0.7978 C   0  0  0  0  0  0
   50.0230   41.7799   -1.3836 C   0  0  0  0  0  0
   49.9878   42.0260   -2.7622 C   0  0  0  0  0  0
   50.8600   42.9903   -3.3020 N   0  0  0  0  0  0
   51.6200   44.0100   -2.7077 C   0  0  0  0  0  0
   51.2095   44.6989   -1.5580 C   0  0  0  0  0  0
   51.9474   45.6721   -0.9672 N   0  0  0  0  0  0
   53.1473   45.9930   -1.5202 C   0  0  0  0  0  0
   53.9979   46.9568   -0.6970 C   0  0  0  0  0  0
   54.2169   46.7536    0.7867 C   0  0  0  0  0  0
   55.3734   46.6022   -0.1688 C   0  0  0  0  0  0
   53.6214   45.4038   -2.7065 C   0  0  0  0  0  0
   52.8230   44.4100   -3.2990 C   0  0  0  0  0  0
   54.9501   45.7578   -3.2679 C   0  0  0  0  0  0
   55.9654   44.7979   -3.3337 C   0  0  0  0  0  0
   57.2294   45.1469   -3.8002 C   0  0  0  0  0  0
   57.4826   46.4564   -4.1985 C   0  0  0  0  0  0
   56.4804   47.4205   -4.1382 C   0  0  0  0  0  0
   55.2141   47.0688   -3.6801 C   0  0  0  0  0  0
   47.4474   39.0578   -0.8990 C   0  0  0  0  0  0
   46.1996   38.4989   -1.5426 C   0  0  0  0  0  0
   47.3962   37.6100   -1.2754 C   0  0  0  0  0  0
   47.4196   40.3607   -5.0079 H   0  0  0  0  0  0
   47.7052   39.6088   -3.5448 H   0  0  0  0  0  0
   49.2674   40.6572    0.2709 H   0  0  0  0  0  0
   50.7045   42.3134   -0.7416 H   0  0  0  0  0  0
   51.0144   42.8700   -4.2945 H   0  0  0  0  0  0
   50.2558   44.4954   -1.0953 H   0  0  0  0  0  0
   53.9014   47.9882   -1.0347 H   0  0  0  0  0  0
   54.2075   47.6100    1.4585 H   0  0  0  0  0  0
   53.8017   45.8627    1.2595 H   0  0  0  0  0  0
   55.7758   45.6100   -0.3619 H   0  0  0  0  0  0
   56.1483   47.3693   -0.1952 H   0  0  0  0  0  0
   53.1835   43.8656   -4.1493 H   0  0  0  0  0  0
   55.7786   43.7843   -3.0083 H   0  0  0  0  0  0
   58.0174   44.4100   -3.8424 H   0  0  0  0  0  0
   58.4676   46.7262   -4.5508 H   0  0  0  0  0  0
   56.6839   48.4356   -4.4462 H   0  0  0  0  0  0
   54.4381   47.8191   -3.6314 H   0  0  0  0  0  0
   47.3560   39.2481    0.1705 H   0  0  0  0  0  0
   45.9451   38.7602   -2.5688 H   0  0  0  0  0  0
   45.3106   38.4100   -0.9182 H   0  0  0  0  0  0
   47.3472   36.8715   -0.4756 H   0  0  0  0  0  0
   48.0230   37.2739   -2.0990 H   0  0  0  0  0  0
  1  2  1  0  0  0
  1 29  1  0  0  0
  2  3  2  0  0  0
  2  4  1  0  0  0
  4  5  2  0  0  0
  4  9  1  0  0  0
  5  6  1  0  0  0
  5 30  1  0  0  0
  6  7  2  0  0  0
  6 26  1  0  0  0
  7  8  1  0  0  0
  7 31  1  0  0  0
  8  9  2  0  0  0
  8 32  1  0  0  0
  9 10  1  0  0  0
 10 11  1  0  0  0
 10 33  1  0  0  0
 11 12  2  0  0  0
 11 19  1  0  0  0
 12 13  1  0  0  0
 12 34  1  0  0  0
 13 14  2  0  0  0
 14 15  1  0  0  0
 14 18  1  0  0  0
 15 16  1  0  0  0
 15 17  1  0  0  0
 15 35  1  0  0  0
 16 17  1  0  0  0
 16 36  1  0  0  0
 16 37  1  0  0  0
 17 38  1  0  0  0
 17 39  1  0  0  0
 18 19  2  0  0  0
 18 20  1  0  0  0
 19 40  1  0  0  0
 20 21  2  0  0  0
 20 25  1  0  0  0
 21 22  1  0  0  0
 21 41  1  0  0  0
 22 23  2  0  0  0
 22 42  1  0  0  0
 23 24  1  0  0  0
 23 43  1  0  0  0
 24 25  2  0  0  0
 24 44  1  0  0  0
 25 45  1  0  0  0
 26 27  1  0  0  0
 26 28  1  0  0  0
 26 46  1  0  0  0
 27 28  1  0  0  0
 27 47  1  0  0  0
 27 48  1  0  0  0
 28 49  1  0  0  0
 28 50  1  0  0  0
M  END
> <s_m_entry_id>
25425

> <s_m_entry_name>
dock_pv.77

> <s_m_Source_Path>
/home/csk/Desktop/cluster/DUD-E-result/pyrd

> <s_m_Source_File>
dock_pv.maegz

> <i_m_Source_File_Index>
77

> <chembl_id>
CHEMBL3674635

> <chembl_pref_name>
None

> <i_lp_mmshare_version>
53161

> <r_lp_tautomer_probability>
0.999999999999999

> <s_lp_Force_Field>
OPLS_2005

> <r_lp_Energy>
42.775505

> <b_lp_Chiralities_Consistent>
1

> <s_lp_Variant>
CHEMBL1966_lig425-1

> <s_i_glide_gridfile>
glide-grid_1d3g

> <i_i_glide_lignum>
475

> <i_i_glide_rotatable_bonds>
7

> <r_i_docking_score>
-10.6797248551422

> <r_i_glide_ligand_efficiency>
-0.381418744826508

> <r_i_glide_ligand_efficiency_sa>
-1.15821195292037

> <r_i_glide_ligand_efficiency_ln>
-2.46519406691406

> <r_i_glide_gscore>
-10.6797248551422

> <r_i_glide_lipo>
-6.7380825841289

> <r_i_glide_hbond>
0

> <r_i_glide_metal>
0

> <r_i_glide_rewards>
-2.17161766049704

> <r_i_glide_evdw>
-49.2729721069336

> <r_i_glide_ecoul>
-0.999204695224762

> <r_i_glide_erotb>
0.843504699114105

> <r_i_glide_esite>
0

> <r_i_glide_emodel>
-70.8826329260964

> <r_i_glide_energy>
-50.2721768021584

> <r_i_glide_einternal>
14.6790142059326

> <i_i_glide_confnum>
126

> <i_i_glide_posenum>
156

> <r_i_glide_eff_state_penalty>
0

> <s_user_duplicate_titles>
CHEMBL1966_lig425

> <i_f3d_flags>
0

> <s_m_subgroup_title>
dock_pv

> <s_m_subgroupid>
dock_pv

> <b_m_subgroup_collapsed>
1

$$$$
CHEMBL1966_lig508
                    3D
 Schrodinger Suite 2021-1.
 41 44  0  0  1  0            999 V2000
   47.2233   38.5486   -0.9412 C   0  0  0  0  0  0
   47.9815   39.6100   -1.7185 C   0  0  0  0  0  0
   47.7499   39.7800   -3.0859 C   0  0  0  0  0  0
   48.4237   40.7435   -3.8497 C   0  0  0  0  0  0
   48.0940   40.9359   -5.2990 C   0  0  0  0  0  0
   46.9512   40.8100   -5.7267 O   0  0  0  0  0  0
   49.1706   41.2100   -6.0874 O   0  0  0  0  0  0
   49.3155   41.5704   -3.1491 C   0  0  0  0  0  0
   50.0655   42.6756   -3.4856 N   0  0  0  0  0  0
   50.6878   43.1185   -2.3417 C   0  0  0  0  0  0
   50.4222   42.3771   -1.2966 N   0  0  0  0  0  0
   49.5742   41.4102   -1.7627 C   0  0  0  0  0  0
   48.9023   40.4100   -1.0424 C   0  0  0  0  0  0
   51.6230   44.2681   -2.3112 C   0  0  0  0  0  0
   52.6051   44.3188   -3.2991 C   0  0  0  0  0  0
   53.6219   45.2544   -3.2132 C   0  0  0  0  0  0
   53.6575   46.1843   -2.1733 C   0  0  0  0  0  0
   52.6430   46.1596   -1.2076 C   0  0  0  0  0  0
   51.6231   45.2099   -1.2766 C   0  0  0  0  0  0
   54.7727   47.1719   -2.1326 C   0  0  0  0  0  0
   55.5279   47.3898   -0.9689 C   0  0  0  0  0  0
   55.2562   46.7121    0.1715 F   0  0  0  0  0  0
   56.5981   48.2853   -0.9805 C   0  0  0  0  0  0
   56.9203   48.9910   -2.1358 C   0  0  0  0  0  0
   56.1829   48.7824   -3.2967 C   0  0  0  0  0  0
   55.1271   47.8720   -3.2978 C   0  0  0  0  0  0
   54.4541   47.6527   -4.4509 F   0  0  0  0  0  0
   46.6834   39.0073   -0.1118 H   0  0  0  0  0  0
   46.5043   38.0118   -1.5609 H   0  0  0  0  0  0
   47.9193   37.8260   -0.5129 H   0  0  0  0  0  0
   47.0201   39.1452   -3.5694 H   0  0  0  0  0  0
   49.9812   41.2067   -5.5758 H   0  0  0  0  0  0
   50.1334   43.1596   -4.3690 H   0  0  0  0  0  0
   49.0702   40.2856    0.0175 H   0  0  0  0  0  0
   52.6330   43.5853   -4.0920 H   0  0  0  0  0  0
   54.4053   45.2441   -3.9548 H   0  0  0  0  0  0
   52.6536   46.8617   -0.3875 H   0  0  0  0  0  0
   50.8674   45.1734   -0.5050 H   0  0  0  0  0  0
   57.2015   48.4223   -0.0987 H   0  0  0  0  0  0
   57.7497   49.6836   -2.1338 H   0  0  0  0  0  0
   56.4357   49.3162   -4.2011 H   0  0  0  0  0  0
  1  2  1  0  0  0
  1 28  1  0  0  0
  1 29  1  0  0  0
  1 30  1  0  0  0
  2  3  2  0  0  0
  2 13  1  0  0  0
  3  4  1  0  0  0
  3 31  1  0  0  0
  4  5  1  0  0  0
  4  8  2  0  0  0
  5  6  2  0  0  0
  5  7  1  0  0  0
  7 32  1  0  0  0
  8  9  1  0  0  0
  8 12  1  0  0  0
  9 10  1  0  0  0
  9 33  1  0  0  0
 10 11  2  0  0  0
 10 14  1  0  0  0
 11 12  1  0  0  0
 12 13  2  0  0  0
 13 34  1  0  0  0
 14 15  2  0  0  0
 14 19  1  0  0  0
 15 16  1  0  0  0
 15 35  1  0  0  0
 16 17  2  0  0  0
 16 36  1  0  0  0
 17 18  1  0  0  0
 17 20  1  0  0  0
 18 19  2  0  0  0
 18 37  1  0  0  0
 19 38  1  0  0  0
 20 21  2  0  0  0
 20 26  1  0  0  0
 21 22  1  0  0  0
 21 23  1  0  0  0
 23 24  2  0  0  0
 23 39  1  0  0  0
 24 25  1  0  0  0
 24 40  1  0  0  0
 25 26  2  0  0  0
 25 41  1  0  0  0
 26 27  1  0  0  0
M  END
> <s_m_entry_id>
25426

> <s_m_entry_name>
dock_pv.78

> <s_m_Source_Path>
/home/csk/Desktop/cluster/DUD-E-result/pyrd

> <s_m_Source_File>
dock_pv.maegz

> <i_m_Source_File_Index>
78

> <chembl_id>
CHEMBL3677766

> <chembl_pref_name>
None

> <i_lp_mmshare_version>
53161

> <r_lp_tautomer_probability>
1

> <s_lp_Force_Field>
OPLS_2005

> <r_lp_Energy>
23.16237

> <b_lp_Chiralities_Consistent>
1

> <s_lp_Variant>
CHEMBL1966_lig508-1

> <s_i_glide_gridfile>
glide-grid_1d3g

> <i_i_glide_lignum>
558

> <i_i_glide_rotatable_bonds>
4

> <r_i_docking_score>
-10.6620829520037

> <r_i_glide_ligand_efficiency>
-0.394891961185321

> <r_i_glide_ligand_efficiency_sa>
-1.18467588225446

> <r_i_glide_ligand_efficiency_ln>
-2.48195713305118

> <r_i_glide_gscore>
-10.6620829520037

> <r_i_glide_lipo>
-5.35352651223359

> <r_i_glide_hbond>
-0.138498191717332

> <r_i_glide_metal>
0

> <r_i_glide_rewards>
-3.08094304196816

> <r_i_glide_evdw>
-41.0266151428223

> <r_i_glide_ecoul>
-3.14819121360779

> <r_i_glide_erotb>
0.434444233097681

> <r_i_glide_esite>
0

> <r_i_glide_emodel>
-64.7111744828201

> <r_i_glide_energy>
-44.1748063564301

> <r_i_glide_einternal>
5.33515930175781

> <i_i_glide_confnum>
9

> <i_i_glide_posenum>
14

> <r_i_glide_eff_state_penalty>
0

> <s_user_duplicate_titles>
CHEMBL1966_lig508

> <i_f3d_flags>
0

> <s_m_subgroup_title>
dock_pv

> <s_m_subgroupid>
dock_pv

> <b_m_subgroup_collapsed>
1

$$$$
CHEMBL1966_lig484
                    3D
 Schrodinger Suite 2021-1.
 41 44  0  0  1  0            999 V2000
   47.2823   38.5198   -0.9597 C   0  0  0  0  0  0
   48.0189   39.6098   -1.7180 C   0  0  0  0  0  0
   47.7841   39.7836   -3.0838 C   0  0  0  0  0  0
   48.4482   40.7549   -3.8461 C   0  0  0  0  0  0
   48.1153   40.9415   -5.2961 C   0  0  0  0  0  0
   46.9706   40.8100   -5.7166 O   0  0  0  0  0  0
   49.1890   41.2100   -6.0904 O   0  0  0  0  0  0
   49.3352   41.5868   -3.1434 C   0  0  0  0  0  0
   50.0821   42.6964   -3.4760 N   0  0  0  0  0  0
   50.6980   43.1425   -2.3286 C   0  0  0  0  0  0
   50.4231   42.4025   -1.2843 N   0  0  0  0  0  0
   49.5937   41.4242   -1.7566 C   0  0  0  0  0  0
   48.9375   40.4100   -1.0404 C   0  0  0  0  0  0
   51.6229   44.3041   -2.2883 C   0  0  0  0  0  0
   51.6317   45.2105   -1.2241 C   0  0  0  0  0  0
   52.6306   46.1825   -1.1523 C   0  0  0  0  0  0
   53.6109   46.2707   -2.1496 C   0  0  0  0  0  0
   53.5631   45.3850   -3.2262 C   0  0  0  0  0  0
   52.5800   44.4096   -3.2989 C   0  0  0  0  0  0
   54.7185   47.2613   -2.0930 C   0  0  0  0  0  0
   55.0299   48.0129   -3.2353 C   0  0  0  0  0  0
   56.1102   48.8936   -3.2433 C   0  0  0  0  0  0
   56.8921   49.0448   -2.1025 C   0  0  0  0  0  0
   56.5948   48.3063   -0.9607 C   0  0  0  0  0  0
   55.5162   47.4209   -0.9478 C   0  0  0  0  0  0
   55.2774   46.6976    0.1719 F   0  0  0  0  0  0
   47.8635   38.1696   -0.1049 H   0  0  0  0  0  0
   46.3188   38.8850   -0.6039 H   0  0  0  0  0  0
   47.1140   37.6501   -1.5955 H   0  0  0  0  0  0
   47.0599   39.1418   -3.5667 H   0  0  0  0  0  0
   50.0014   41.2098   -5.5818 H   0  0  0  0  0  0
   50.1520   43.1800   -4.3594 H   0  0  0  0  0  0
   49.1105   40.2821    0.0184 H   0  0  0  0  0  0
   50.9007   45.1315   -0.4320 H   0  0  0  0  0  0
   52.6536   46.8524   -0.3058 H   0  0  0  0  0  0
   54.3168   45.4328   -3.9976 H   0  0  0  0  0  0
   52.6029   43.6989   -4.1114 H   0  0  0  0  0  0
   54.4335   47.9108   -4.1311 H   0  0  0  0  0  0
   56.3371   49.4639   -4.1323 H   0  0  0  0  0  0
   57.7318   49.7247   -2.1036 H   0  0  0  0  0  0
   57.2224   48.4099   -0.0919 H   0  0  0  0  0  0
  1  2  1  0  0  0
  1 27  1  0  0  0
  1 28  1  0  0  0
  1 29  1  0  0  0
  2  3  2  0  0  0
  2 13  1  0  0  0
  3  4  1  0  0  0
  3 30  1  0  0  0
  4  5  1  0  0  0
  4  8  2  0  0  0
  5  6  2  0  0  0
  5  7  1  0  0  0
  7 31  1  0  0  0
  8  9  1  0  0  0
  8 12  1  0  0  0
  9 10  1  0  0  0
  9 32  1  0  0  0
 10 11  2  0  0  0
 10 14  1  0  0  0
 11 12  1  0  0  0
 12 13  2  0  0  0
 13 33  1  0  0  0
 14 15  2  0  0  0
 14 19  1  0  0  0
 15 16  1  0  0  0
 15 34  1  0  0  0
 16 17  2  0  0  0
 16 35  1  0  0  0
 17 18  1  0  0  0
 17 20  1  0  0  0
 18 19  2  0  0  0
 18 36  1  0  0  0
 19 37  1  0  0  0
 20 21  2  0  0  0
 20 25  1  0  0  0
 21 22  1  0  0  0
 21 38  1  0  0  0
 22 23  2  0  0  0
 22 39  1  0  0  0
 23 24  1  0  0  0
 23 40  1  0  0  0
 24 25  2  0  0  0
 24 41  1  0  0  0
 25 26  1  0  0  0
M  END
> <s_m_entry_id>
25427

> <s_m_entry_name>
dock_pv.79

> <s_m_Source_Path>
/home/csk/Desktop/cluster/DUD-E-result/pyrd

> <s_m_Source_File>
dock_pv.maegz

> <i_m_Source_File_Index>
79

> <chembl_id>
CHEMBL3677741

> <chembl_pref_name>
None

> <i_lp_mmshare_version>
53161

> <r_lp_tautomer_probability>
1

> <s_lp_Force_Field>
OPLS_2005

> <r_lp_Energy>
22.902041

> <b_lp_Chiralities_Consistent>
1

> <s_lp_Variant>
CHEMBL1966_lig484-1

> <s_i_glide_gridfile>
glide-grid_1d3g

> <i_i_glide_lignum>
534

> <i_i_glide_rotatable_bonds>
4

> <r_i_docking_score>
-10.6533316036883

> <r_i_glide_ligand_efficiency>
-0.40974352321878

> <r_i_glide_ligand_efficiency_sa>
-1.21386357527272

> <r_i_glide_ligand_efficiency_ln>
-2.50189997069403

> <r_i_glide_gscore>
-10.6533316036883

> <r_i_glide_lipo>
-5.32777226356824

> <r_i_glide_hbond>
-0.132967032443644

> <r_i_glide_metal>
0

> <r_i_glide_rewards>
-3.07590792159561

> <r_i_glide_evdw>
-41.9846115112305

> <r_i_glide_ecoul>
-3.28589367866516

> <r_i_glide_erotb>
0.475430241280521

> <r_i_glide_esite>
0

> <r_i_glide_emodel>
-67.9016973490626

> <r_i_glide_energy>
-45.2705051898956

> <r_i_glide_einternal>
5.52252340316772

> <i_i_glide_confnum>
2

> <i_i_glide_posenum>
284

> <r_i_glide_eff_state_penalty>
0

> <s_user_duplicate_titles>
CHEMBL1966_lig484

> <i_f3d_flags>
0

> <s_m_subgroup_title>
dock_pv

> <s_m_subgroupid>
dock_pv

> <b_m_subgroup_collapsed>
1

$$$$
CHEMBL1966_lig576
                    3D
 Schrodinger Suite 2021-1.
 40 43  0  0  1  0            999 V2000
   48.2159   40.1159   -2.2607 C   0  0  0  0  0  0
   48.0231   39.6104   -0.9611 C   0  0  0  0  0  0
   46.9605   38.7650   -0.7028 C   0  0  0  0  0  0
   46.0722   38.4072   -1.7010 C   0  0  0  0  0  0
   46.2748   38.8539   -3.0046 C   0  0  0  0  0  0
   47.3424   39.6750   -3.2621 N   0  0  0  0  0  0
   47.6451   40.2134   -4.4599 N   0  0  0  0  0  0
   48.6440   41.0390   -4.2346 C   0  0  0  0  0  0
   49.0416   41.0908   -2.8789 C   0  0  0  0  0  0
   49.9759   41.9761   -2.2306 C   0  0  0  0  0  0
   50.1887   41.8831   -1.0221 O   0  0  0  0  0  0
   50.4853   42.9347   -3.0146 N   0  0  0  0  0  0
   53.2218   45.9441   -1.9379 C   0  0  0  0  0  0
   52.0405   45.8025   -1.1938 C   0  0  0  0  0  0
   51.1106   44.8102   -1.5209 C   0  0  0  0  0  0
   51.3620   43.9456   -2.6044 C   0  0  0  0  0  0
   52.5345   44.0882   -3.3464 C   0  0  0  0  0  0
   53.4553   45.0801   -3.0117 C   0  0  0  0  0  0
   54.2697   46.9270   -1.5800 C   0  0  0  0  0  0
   54.9591   46.7898   -0.3741 C   0  0  0  0  0  0
   56.0444   47.6099   -0.0990 C   0  0  0  0  0  0
   56.4236   48.5934   -1.0090 C   0  0  0  0  0  0
   55.7231   48.7619   -2.1991 C   0  0  0  0  0  0
   54.6484   47.9243   -2.4869 C   0  0  0  0  0  0
   54.6186   45.1613   -3.6987 F   0  0  0  0  0  0
   52.8207   43.2231   -4.3523 F   0  0  0  0  0  0
   49.9659   44.7169   -0.8031 F   0  0  0  0  0  0
   51.7939   46.6250   -0.1457 F   0  0  0  0  0  0
   49.1176   41.8117   -5.2594 O   0  0  0  0  0  0
   48.6743   39.9184   -0.1557 H   0  0  0  0  0  0
   46.8229   38.4053    0.3009 H   0  0  0  0  0  0
   45.2499   37.7563   -1.4450 H   0  0  0  0  0  0
   45.6240   38.6067   -3.8316 H   0  0  0  0  0  0
   50.3393   42.8226   -4.0073 H   0  0  0  0  0  0
   54.6856   46.0150    0.3282 H   0  0  0  0  0  0
   56.6011   47.4756    0.8150 H   0  0  0  0  0  0
   57.2682   49.2285   -0.7884 H   0  0  0  0  0  0
   56.0257   49.5247   -2.9028 H   0  0  0  0  0  0
   54.1268   48.0321   -3.4277 H   0  0  0  0  0  0
   48.5772   42.6056   -5.3254 H   0  0  0  0  0  0
  1  2  1  0  0  0
  1  6  1  0  0  0
  1  9  2  0  0  0
  2  3  2  0  0  0
  2 30  1  0  0  0
  3  4  1  0  0  0
  3 31  1  0  0  0
  4  5  2  0  0  0
  4 32  1  0  0  0
  5  6  1  0  0  0
  5 33  1  0  0  0
  6  7  1  0  0  0
  7  8  2  0  0  0
  8  9  1  0  0  0
  8 29  1  0  0  0
  9 10  1  0  0  0
 10 11  2  0  0  0
 10 12  1  0  0  0
 12 16  1  0  0  0
 12 34  1  0  0  0
 13 14  1  0  0  0
 13 18  2  0  0  0
 13 19  1  0  0  0
 14 15  2  0  0  0
 14 28  1  0  0  0
 15 16  1  0  0  0
 15 27  1  0  0  0
 16 17  2  0  0  0
 17 18  1  0  0  0
 17 26  1  0  0  0
 18 25  1  0  0  0
 19 20  1  0  0  0
 19 24  2  0  0  0
 20 21  2  0  0  0
 20 35  1  0  0  0
 21 22  1  0  0  0
 21 36  1  0  0  0
 22 23  2  0  0  0
 22 37  1  0  0  0
 23 24  1  0  0  0
 23 38  1  0  0  0
 24 39  1  0  0  0
 29 40  1  0  0  0
M  END
> <s_m_entry_id>
25428

> <s_m_entry_name>
dock_pv.80

> <s_m_Source_Path>
/home/csk/Desktop/cluster/DUD-E-result/pyrd

> <s_m_Source_File>
dock_pv.maegz

> <i_m_Source_File_Index>
80

> <chembl_id>
CHEMBL4173846

> <chembl_pref_name>
None

> <i_lp_mmshare_version>
53161

> <r_lp_tautomer_probability>
1

> <s_lp_Force_Field>
OPLS_2005

> <r_lp_Energy>
29.0469

> <b_lp_Chiralities_Consistent>
1

> <s_lp_Variant>
CHEMBL1966_lig576-1

> <s_i_glide_gridfile>
glide-grid_1d3g

> <i_i_glide_lignum>
630

> <i_i_glide_rotatable_bonds>
5

> <r_i_docking_score>
-10.6487780762288

> <r_i_glide_ligand_efficiency>
-0.36719924400789

> <r_i_glide_ligand_efficiency_sa>
-1.12815241447829

> <r_i_glide_ligand_efficiency_ln>
-2.43830014974319

> <r_i_glide_gscore>
-10.6487780762288

> <r_i_glide_lipo>
-5.316445731465

> <r_i_glide_hbond>
0

> <r_i_glide_metal>
0

> <r_i_glide_rewards>
-3.10100721946893

> <r_i_glide_evdw>
-42.0853805541992

> <r_i_glide_ecoul>
-3.97620344161987

> <r_i_glide_erotb>
0.487115804354233

> <r_i_glide_esite>
-0.0177413856961879

> <r_i_glide_emodel>
-67.4249589370919

> <r_i_glide_energy>
-46.0615839958191

> <r_i_glide_einternal>
5.32213449478149

> <i_i_glide_confnum>
44

> <i_i_glide_posenum>
61

> <r_i_glide_eff_state_penalty>
0

> <s_user_duplicate_titles>
CHEMBL1966_lig576

> <i_f3d_flags>
0

> <s_m_subgroup_title>
dock_pv

> <s_m_subgroupid>
dock_pv

> <b_m_subgroup_collapsed>
1

$$$$
CHEMBL1966_lig503
                    3D
 Schrodinger Suite 2021-1.
 38 41  0  0  1  0            999 V2000
   46.4666   40.8101   -5.6290 O   0  0  0  0  0  0
   47.7830   40.6866   -5.2987 C   0  0  0  0  0  0
   48.7051   40.8125   -6.0989 O   0  0  0  0  0  0
   48.0367   40.4100   -3.8514 C   0  0  0  0  0  0
   47.3242   39.4415   -3.1295 C   0  0  0  0  0  0
   47.5400   39.2290   -1.7677 C   0  0  0  0  0  0
   48.4484   40.0102   -1.0508 C   0  0  0  0  0  0
   49.2089   40.9781   -1.7480 C   0  0  0  0  0  0
   50.0555   41.9494   -1.2702 N   0  0  0  0  0  0
   50.3677   42.6784   -2.3209 C   0  0  0  0  0  0
   49.7959   42.2061   -3.4749 N   0  0  0  0  0  0
   48.9840   41.1508   -3.1362 C   0  0  0  0  0  0
   51.2476   43.8808   -2.3031 C   0  0  0  0  0  0
   52.2212   44.0099   -3.3017 C   0  0  0  0  0  0
   53.2100   44.9860   -3.1960 C   0  0  0  0  0  0
   53.2225   45.8880   -2.1289 C   0  0  0  0  0  0
   52.1857   45.8180   -1.1859 C   0  0  0  0  0  0
   51.2174   44.8131   -1.2602 C   0  0  0  0  0  0
   54.3619   46.8506   -1.9885 C   0  0  0  0  0  0
   55.0147   47.0210   -0.7539 C   0  0  0  0  0  0
   54.6166   46.3366    0.3442 F   0  0  0  0  0  0
   56.1135   47.8722   -0.6401 C   0  0  0  0  0  0
   56.5801   48.5808   -1.7407 C   0  0  0  0  0  0
   55.9527   48.4225   -2.9705 C   0  0  0  0  0  0
   54.8639   47.5615   -3.0972 C   0  0  0  0  0  0
   54.3213   47.4132   -4.3249 F   0  0  0  0  0  0
   45.9088   40.8537   -4.8488 H   0  0  0  0  0  0
   46.5873   38.8261   -3.6272 H   0  0  0  0  0  0
   46.9680   38.4719   -1.2499 H   0  0  0  0  0  0
   48.5691   39.8719    0.0139 H   0  0  0  0  0  0
   49.9057   42.6488   -4.3760 H   0  0  0  0  0  0
   52.2801   43.2934   -4.1084 H   0  0  0  0  0  0
   54.0005   45.0181   -3.9264 H   0  0  0  0  0  0
   52.1597   46.5073   -0.3544 H   0  0  0  0  0  0
   50.4695   44.7342   -0.4840 H   0  0  0  0  0  0
   56.6253   47.9764    0.3010 H   0  0  0  0  0  0
   57.4341   49.2356   -1.6415 H   0  0  0  0  0  0
   56.3182   48.9575   -3.8349 H   0  0  0  0  0  0
  1  2  1  0  0  0
  1 27  1  0  0  0
  2  3  2  0  0  0
  2  4  1  0  0  0
  4  5  2  0  0  0
  4 12  1  0  0  0
  5  6  1  0  0  0
  5 28  1  0  0  0
  6  7  2  0  0  0
  6 29  1  0  0  0
  7  8  1  0  0  0
  7 30  1  0  0  0
  8  9  1  0  0  0
  8 12  2  0  0  0
  9 10  2  0  0  0
 10 11  1  0  0  0
 10 13  1  0  0  0
 11 12  1  0  0  0
 11 31  1  0  0  0
 13 14  2  0  0  0
 13 18  1  0  0  0
 14 15  1  0  0  0
 14 32  1  0  0  0
 15 16  2  0  0  0
 15 33  1  0  0  0
 16 17  1  0  0  0
 16 19  1  0  0  0
 17 18  2  0  0  0
 17 34  1  0  0  0
 18 35  1  0  0  0
 19 20  2  0  0  0
 19 25  1  0  0  0
 20 21  1  0  0  0
 20 22  1  0  0  0
 22 23  2  0  0  0
 22 36  1  0  0  0
 23 24  1  0  0  0
 23 37  1  0  0  0
 24 25  2  0  0  0
 24 38  1  0  0  0
 25 26  1  0  0  0
M  END
> <s_m_entry_id>
25429

> <s_m_entry_name>
dock_pv.81

> <s_m_Source_Path>
/home/csk/Desktop/cluster/DUD-E-result/pyrd

> <s_m_Source_File>
dock_pv.maegz

> <i_m_Source_File_Index>
81

> <chembl_id>
CHEMBL3677761

> <chembl_pref_name>
None

> <i_lp_mmshare_version>
53161

> <r_lp_tautomer_probability>
1

> <s_lp_Force_Field>
OPLS_2005

> <r_lp_Energy>
23.403585

> <b_lp_Chiralities_Consistent>
1

> <s_lp_Variant>
CHEMBL1966_lig503-1

> <s_i_glide_gridfile>
glide-grid_1d3g

> <i_i_glide_lignum>
553

> <i_i_glide_rotatable_bonds>
4

> <r_i_docking_score>
-10.6323896137596

> <r_i_glide_ligand_efficiency>
-0.408938062067676

> <r_i_glide_ligand_efficiency_sa>
-1.21147739978192

> <r_i_glide_ligand_efficiency_ln>
-2.49698181307554

> <r_i_glide_gscore>
-10.6323896137596

> <r_i_glide_lipo>
-5.06979844221723

> <r_i_glide_hbond>
-0.16

> <r_i_glide_metal>
0

> <r_i_glide_rewards>
-3.02812689875509

> <r_i_glide_evdw>
-40.0076370239258

> <r_i_glide_ecoul>
-5.59997034072876

> <r_i_glide_erotb>
0.465913129518358

> <r_i_glide_esite>
0

> <r_i_glide_emodel>
-64.4285108671384

> <r_i_glide_energy>
-45.6076073646545

> <r_i_glide_einternal>
6.64404582977295

> <i_i_glide_confnum>
13

> <i_i_glide_posenum>
364

> <r_i_glide_eff_state_penalty>
0

> <s_user_duplicate_titles>
CHEMBL1966_lig503

> <i_f3d_flags>
0

> <s_m_subgroup_title>
dock_pv

> <s_m_subgroupid>
dock_pv

> <b_m_subgroup_collapsed>
1

$$$$
CHEMBL1966_lig205
                    3D
 Schrodinger Suite 2021-1.
 41 44  0  0  1  0            999 V2000
   47.5427   39.2473   -2.0894 C   0  0  0  0  0  0
   48.0017   39.4359   -0.7949 C   0  0  0  0  0  0
   48.9524   40.4101   -0.5156 C   0  0  0  0  0  0
   48.0427   40.0100   -3.1364 C   0  0  0  0  0  0
   48.9870   41.0522   -2.8996 C   0  0  0  0  0  0
   49.4313   41.2568   -1.5502 C   0  0  0  0  0  0
   50.1904   42.3340   -1.1871 N   0  0  0  0  0  0
   50.5570   43.2324   -2.1371 C   0  0  0  0  0  0
   50.2375   43.0489   -3.4774 C   0  0  0  0  0  0
   49.4485   41.9764   -3.8986 C   0  0  0  0  0  0
   46.5606   38.3556   -2.3274 F   0  0  0  0  0  0
   49.1251   41.8630   -5.3703 C   0  0  0  0  0  0
   49.2231   43.0407   -6.0469 O   0  0  0  0  0  0
   48.8230   40.8100   -5.9285 O   0  0  0  0  0  0
   51.3800   44.4100   -1.7208 C   0  0  0  0  0  0
   51.2230   45.0839   -0.5010 C   0  0  0  0  0  0
   52.1302   46.0843   -0.1270 C   0  0  0  0  0  0
   53.2151   46.4095   -0.9519 C   0  0  0  0  0  0
   53.3552   45.7418   -2.1682 C   0  0  0  0  0  0
   52.4231   44.8100   -2.5630 C   0  0  0  0  0  0
   54.1438   47.3373   -0.5126 O   0  0  0  0  0  0
   55.0898   47.8974   -1.3567 C   0  0  0  0  0  0
   56.3854   48.0736   -0.8732 C   0  0  0  0  0  0
   57.3660   48.6389   -1.6850 C   0  0  0  0  0  0
   57.0713   48.9834   -2.9971 C   0  0  0  0  0  0
   55.7853   48.8100   -3.4897 C   0  0  0  0  0  0
   54.7833   48.3244   -2.6567 C   0  0  0  0  0  0
   47.6008   38.8254   -0.0007 H   0  0  0  0  0  0
   49.2730   40.5704    0.5033 H   0  0  0  0  0  0
   47.6363   39.8358   -4.1188 H   0  0  0  0  0  0
   50.5944   43.7757   -4.1925 H   0  0  0  0  0  0
   49.0107   43.8047   -5.5009 H   0  0  0  0  0  0
   50.4229   44.8102    0.1716 H   0  0  0  0  0  0
   52.0140   46.5842    0.8236 H   0  0  0  0  0  0
   54.1991   45.9031   -2.8196 H   0  0  0  0  0  0
   52.6038   44.2996   -3.4980 H   0  0  0  0  0  0
   56.6281   47.7773    0.1364 H   0  0  0  0  0  0
   58.3592   48.8099   -1.2995 H   0  0  0  0  0  0
   57.8394   49.4056   -3.6287 H   0  0  0  0  0  0
   55.5561   49.1130   -4.4982 H   0  0  0  0  0  0
   53.7749   48.2473   -3.0364 H   0  0  0  0  0  0
  1  2  2  0  0  0
  1  4  1  0  0  0
  1 11  1  0  0  0
  2  3  1  0  0  0
  2 28  1  0  0  0
  3  6  2  0  0  0
  3 29  1  0  0  0
  4  5  2  0  0  0
  4 30  1  0  0  0
  5  6  1  0  0  0
  5 10  1  0  0  0
  6  7  1  0  0  0
  7  8  2  0  0  0
  8  9  1  0  0  0
  8 15  1  0  0  0
  9 10  2  0  0  0
  9 31  1  0  0  0
 10 12  1  0  0  0
 12 13  1  0  0  0
 12 14  2  0  0  0
 13 32  1  0  0  0
 15 16  2  0  0  0
 15 20  1  0  0  0
 16 17  1  0  0  0
 16 33  1  0  0  0
 17 18  2  0  0  0
 17 34  1  0  0  0
 18 19  1  0  0  0
 18 21  1  0  0  0
 19 20  2  0  0  0
 19 35  1  0  0  0
 20 36  1  0  0  0
 21 22  1  0  0  0
 22 23  2  0  0  0
 22 27  1  0  0  0
 23 24  1  0  0  0
 23 37  1  0  0  0
 24 25  2  0  0  0
 24 38  1  0  0  0
 25 26  1  0  0  0
 25 39  1  0  0  0
 26 27  2  0  0  0
 26 40  1  0  0  0
 27 41  1  0  0  0
M  END
> <s_m_entry_id>
25430

> <s_m_entry_name>
dock_pv.82

> <s_m_Source_Path>
/home/csk/Desktop/cluster/DUD-E-result/pyrd

> <s_m_Source_File>
dock_pv.maegz

> <i_m_Source_File_Index>
82

> <chembl_id>
CHEMBL2385515

> <chembl_pref_name>
None

> <i_lp_mmshare_version>
53161

> <r_lp_tautomer_probability>
1

> <s_lp_Force_Field>
OPLS_2005

> <r_lp_Energy>
27.145629

> <b_lp_Chiralities_Consistent>
1

> <s_lp_Variant>
CHEMBL1966_lig205-1

> <s_i_glide_gridfile>
glide-grid_1d3g

> <i_i_glide_lignum>
250

> <i_i_glide_rotatable_bonds>
5

> <r_i_docking_score>
-10.6001737702104

> <r_i_glide_ligand_efficiency>
-0.392599028526311

> <r_i_glide_ligand_efficiency_sa>
-1.17779708428499

> <r_i_glide_ligand_efficiency_ln>
-2.46754569618234

> <r_i_glide_gscore>
-10.6001737702104

> <r_i_glide_lipo>
-5.80983316347937

> <r_i_glide_hbond>
-0.16

> <r_i_glide_metal>
0

> <r_i_glide_rewards>
-2.3581726717849

> <r_i_glide_evdw>
-35.133903503418

> <r_i_glide_ecoul>
-7.39446640014648

> <r_i_glide_erotb>
0.593697200246734

> <r_i_glide_esite>
0

> <r_i_glide_emodel>
-60.6223348727913

> <r_i_glide_energy>
-42.5283699035645

> <r_i_glide_einternal>
5.98507070541382

> <i_i_glide_confnum>
21

> <i_i_glide_posenum>
171

> <r_i_glide_eff_state_penalty>
0

> <s_user_duplicate_titles>
CHEMBL1966_lig205

> <i_f3d_flags>
0

> <s_m_subgroup_title>
dock_pv

> <s_m_subgroupid>
dock_pv

> <b_m_subgroup_collapsed>
1

$$$$
CHEMBL1966_lig595
                    3D
 Schrodinger Suite 2021-1.
 42 45  0  0  1  0            999 V2000
   47.8836   39.3836   -0.6135 C   0  0  0  0  0  0
   47.3407   38.9794   -1.8256 C   0  0  0  0  0  0
   47.7102   39.6106   -3.0103 C   0  0  0  0  0  0
   48.8230   40.4100   -0.5611 C   0  0  0  0  0  0
   49.2230   41.0694   -1.7449 C   0  0  0  0  0  0
   48.6457   40.6904   -2.9999 C   0  0  0  0  0  0
   49.0195   41.4602   -4.1506 C   0  0  0  0  0  0
   49.9323   42.5034   -3.9882 C   0  0  0  0  0  0
   50.4298   42.8123   -2.7242 C   0  0  0  0  0  0
   50.0849   42.1127   -1.6186 N   0  0  0  0  0  0
   51.3867   43.9315   -2.5278 C   0  0  0  0  0  0
   51.3019   44.8104   -1.4388 C   0  0  0  0  0  0
   52.2405   45.8366   -1.2877 C   0  0  0  0  0  0
   53.2936   45.9817   -2.1986 C   0  0  0  0  0  0
   53.3608   45.1122   -3.2882 C   0  0  0  0  0  0
   52.4230   44.0995   -3.4505 C   0  0  0  0  0  0
   48.4775   41.2102   -5.5290 C   0  0  0  0  0  0
   47.1168   41.1721   -5.6275 O   0  0  0  0  0  0
   49.2230   41.1198   -6.4978 O   0  0  0  0  0  0
   54.3587   47.0149   -2.0449 C   0  0  0  0  0  0
   54.6498   47.8595   -3.1272 C   0  0  0  0  0  0
   55.6601   48.7644   -3.1351 N   0  0  0  0  0  0
   56.4302   48.8555   -2.0264 C   0  0  0  0  0  0
   56.2207   48.0680   -0.8989 C   0  0  0  0  0  0
   55.1667   47.1465   -0.8930 C   0  0  0  0  0  0
   54.9815   46.2793    0.3445 C   0  0  0  0  0  0
   47.5865   38.8877    0.2967 H   0  0  0  0  0  0
   46.6266   38.1679   -1.8469 H   0  0  0  0  0  0
   47.2741   39.2707   -3.9354 H   0  0  0  0  0  0
   49.2457   40.7084    0.3874 H   0  0  0  0  0  0
   50.2268   43.1038   -4.8400 H   0  0  0  0  0  0
   50.5066   44.7093   -0.7146 H   0  0  0  0  0  0
   52.1600   46.5024   -0.4417 H   0  0  0  0  0  0
   54.1681   45.2101   -3.9967 H   0  0  0  0  0  0
   52.5274   43.4215   -4.2855 H   0  0  0  0  0  0
   46.6806   41.4199   -4.8090 H   0  0  0  0  0  0
   54.0728   47.8028   -4.0400 H   0  0  0  0  0  0
   57.2378   49.5716   -2.0566 H   0  0  0  0  0  0
   56.8876   48.1629   -0.0570 H   0  0  0  0  0  0
   55.9245   46.1521    0.8780 H   0  0  0  0  0  0
   54.2547   46.7276    1.0230 H   0  0  0  0  0  0
   54.6449   45.2773    0.0841 H   0  0  0  0  0  0
  1  2  2  0  0  0
  1  4  1  0  0  0
  1 27  1  0  0  0
  2  3  1  0  0  0
  2 28  1  0  0  0
  3  6  2  0  0  0
  3 29  1  0  0  0
  4  5  2  0  0  0
  4 30  1  0  0  0
  5  6  1  0  0  0
  5 10  1  0  0  0
  6  7  1  0  0  0
  7  8  2  0  0  0
  7 17  1  0  0  0
  8  9  1  0  0  0
  8 31  1  0  0  0
  9 10  2  0  0  0
  9 11  1  0  0  0
 11 12  2  0  0  0
 11 16  1  0  0  0
 12 13  1  0  0  0
 12 32  1  0  0  0
 13 14  2  0  0  0
 13 33  1  0  0  0
 14 15  1  0  0  0
 14 20  1  0  0  0
 15 16  2  0  0  0
 15 34  1  0  0  0
 16 35  1  0  0  0
 17 18  1  0  0  0
 17 19  2  0  0  0
 18 36  1  0  0  0
 20 21  2  0  0  0
 20 25  1  0  0  0
 21 22  1  0  0  0
 21 37  1  0  0  0
 22 23  2  0  0  0
 23 24  1  0  0  0
 23 38  1  0  0  0
 24 25  2  0  0  0
 24 39  1  0  0  0
 25 26  1  0  0  0
 26 40  1  0  0  0
 26 41  1  0  0  0
 26 42  1  0  0  0
M  END
> <s_m_entry_id>
25431

> <s_m_entry_name>
dock_pv.83

> <s_m_Source_Path>
/home/csk/Desktop/cluster/DUD-E-result/pyrd

> <s_m_Source_File>
dock_pv.maegz

> <i_m_Source_File_Index>
83

> <chembl_id>
CHEMBL4227322

> <chembl_pref_name>
None

> <i_lp_mmshare_version>
53161

> <r_lp_tautomer_probability>
1

> <s_lp_Force_Field>
OPLS_2005

> <r_lp_Energy>
32.230683

> <b_lp_Chiralities_Consistent>
1

> <s_lp_Variant>
CHEMBL1966_lig595-1

> <s_i_glide_gridfile>
glide-grid_1d3g

> <i_i_glide_lignum>
649

> <i_i_glide_rotatable_bonds>
4

> <r_i_docking_score>
-10.5963862801676

> <r_i_glide_ligand_efficiency>
-0.407553318467985

> <r_i_glide_ligand_efficiency_sa>
-1.20737510231654

> <r_i_glide_ligand_efficiency_ln>
-2.48852654831805

> <r_i_glide_gscore>
-10.5963862801676

> <r_i_glide_lipo>
-6.06230925607457

> <r_i_glide_hbond>
-0.16

> <r_i_glide_metal>
0

> <r_i_glide_rewards>
-2.08453695812338

> <r_i_glide_evdw>
-38.4080505371094

> <r_i_glide_ecoul>
-5.72992944717407

> <r_i_glide_erotb>
0.490351877961912

> <r_i_glide_esite>
0

> <r_i_glide_emodel>
-67.3458245572915

> <r_i_glide_energy>
-44.1379799842834

> <r_i_glide_einternal>
4.67178249359131

> <i_i_glide_confnum>
10

> <i_i_glide_posenum>
209

> <r_i_glide_eff_state_penalty>
0

> <s_user_duplicate_titles>
CHEMBL1966_lig595

> <i_f3d_flags>
0

> <s_m_subgroup_title>
dock_pv

> <s_m_subgroupid>
dock_pv

> <b_m_subgroup_collapsed>
1

$$$$
CHEMBL1966_lig481
                    3D
 Schrodinger Suite 2021-1.
 38 41  0  0  1  0            999 V2000
   47.0308   38.7443   -0.5866 O   0  0  0  0  0  0
   48.0228   39.6100   -0.9269 C   0  0  0  0  0  0
   48.8231   40.0122   -0.0981 O   0  0  0  0  0  0
   48.0745   40.0738   -2.3615 C   0  0  0  0  0  0
   47.1455   39.6023   -3.2982 C   0  0  0  0  0  0
   47.1073   40.0777   -4.6079 C   0  0  0  0  0  0
   48.0116   41.0261   -5.0902 C   0  0  0  0  0  0
   48.9082   41.5402   -4.1575 C   0  0  0  0  0  0
   49.8177   42.5692   -4.1961 N   0  0  0  0  0  0
   50.3200   42.7209   -2.9242 C   0  0  0  0  0  0
   49.8783   41.8113   -2.0998 N   0  0  0  0  0  0
   48.9615   41.0793   -2.8151 C   0  0  0  0  0  0
   51.2502   43.8119   -2.5311 C   0  0  0  0  0  0
   51.0369   44.6249   -1.4042 C   0  0  0  0  0  0
   49.9396   44.4475   -0.6309 F   0  0  0  0  0  0
   51.9577   45.6293   -1.0736 C   0  0  0  0  0  0
   51.7398   46.3989    0.0190 F   0  0  0  0  0  0
   53.1043   45.8302   -1.8581 C   0  0  0  0  0  0
   53.3132   45.0108   -2.9693 C   0  0  0  0  0  0
   54.4451   45.1427   -3.6989 F   0  0  0  0  0  0
   52.4044   44.0100   -3.2992 C   0  0  0  0  0  0
   52.6605   43.2098   -4.3622 F   0  0  0  0  0  0
   54.1619   46.8076   -1.5057 C   0  0  0  0  0  0
   54.9121   46.6156   -0.3435 C   0  0  0  0  0  0
   56.0230   47.4087   -0.0944 C   0  0  0  0  0  0
   56.3709   48.4226   -0.9823 C   0  0  0  0  0  0
   55.6148   48.6436   -2.1292 C   0  0  0  0  0  0
   54.5115   47.8337   -2.3922 C   0  0  0  0  0  0
   47.1042   38.5798    0.3626 H   0  0  0  0  0  0
   46.4095   38.8633   -3.0102 H   0  0  0  0  0  0
   46.3399   39.6982   -5.2669 H   0  0  0  0  0  0
   47.9489   41.4186   -6.0935 H   0  0  0  0  0  0
   50.0431   43.1903   -4.9602 H   0  0  0  0  0  0
   54.6674   45.8164    0.3418 H   0  0  0  0  0  0
   56.6181   47.2332    0.7902 H   0  0  0  0  0  0
   57.2356   49.0381   -0.7785 H   0  0  0  0  0  0
   55.8968   49.4253   -2.8198 H   0  0  0  0  0  0
   53.9500   47.9812   -3.3044 H   0  0  0  0  0  0
  1  2  1  0  0  0
  1 29  1  0  0  0
  2  3  2  0  0  0
  2  4  1  0  0  0
  4  5  2  0  0  0
  4 12  1  0  0  0
  5  6  1  0  0  0
  5 30  1  0  0  0
  6  7  2  0  0  0
  6 31  1  0  0  0
  7  8  1  0  0  0
  7 32  1  0  0  0
  8  9  1  0  0  0
  8 12  2  0  0  0
  9 10  1  0  0  0
  9 33  1  0  0  0
 10 11  2  0  0  0
 10 13  1  0  0  0
 11 12  1  0  0  0
 13 14  2  0  0  0
 13 21  1  0  0  0
 14 15  1  0  0  0
 14 16  1  0  0  0
 16 17  1  0  0  0
 16 18  2  0  0  0
 18 19  1  0  0  0
 18 23  1  0  0  0
 19 20  1  0  0  0
 19 21  2  0  0  0
 21 22  1  0  0  0
 23 24  2  0  0  0
 23 28  1  0  0  0
 24 25  1  0  0  0
 24 34  1  0  0  0
 25 26  2  0  0  0
 25 35  1  0  0  0
 26 27  1  0  0  0
 26 36  1  0  0  0
 27 28  2  0  0  0
 27 37  1  0  0  0
 28 38  1  0  0  0
M  END
> <s_m_entry_id>
25432

> <s_m_entry_name>
dock_pv.84

> <s_m_Source_Path>
/home/csk/Desktop/cluster/DUD-E-result/pyrd

> <s_m_Source_File>
dock_pv.maegz

> <i_m_Source_File_Index>
84

> <chembl_id>
CHEMBL3677738

> <chembl_pref_name>
None

> <i_lp_mmshare_version>
53161

> <r_lp_tautomer_probability>
1

> <s_lp_Force_Field>
OPLS_2005

> <r_lp_Energy>
29.256907

> <b_lp_Chiralities_Consistent>
1

> <s_lp_Variant>
CHEMBL1966_lig481-1

> <s_i_glide_gridfile>
glide-grid_1d3g

> <i_i_glide_lignum>
531

> <i_i_glide_rotatable_bonds>
4

> <r_i_docking_score>
-10.5949796493191

> <r_i_glide_ligand_efficiency>
-0.378392130332825

> <r_i_glide_ligand_efficiency_sa>
-1.14902136873694

> <r_i_glide_ligand_efficiency_ln>
-2.44563238518271

> <r_i_glide_gscore>
-10.5949796493191

> <r_i_glide_lipo>
-5.00890460582057

> <r_i_glide_hbond>
0

> <r_i_glide_metal>
0

> <r_i_glide_rewards>
-3.37893991498903

> <r_i_glide_evdw>
-41.0009346008301

> <r_i_glide_ecoul>
-3.65562295913696

> <r_i_glide_erotb>
0.391255045402556

> <r_i_glide_esite>
0

> <r_i_glide_emodel>
-64.0496956431995

> <r_i_glide_energy>
-44.656557559967

> <r_i_glide_einternal>
1.92297697067261

> <i_i_glide_confnum>
2

> <i_i_glide_posenum>
100

> <r_i_glide_eff_state_penalty>
0

> <s_user_duplicate_titles>
CHEMBL1966_lig481

> <i_f3d_flags>
0

> <s_m_subgroup_title>
dock_pv

> <s_m_subgroupid>
dock_pv

> <b_m_subgroup_collapsed>
1

$$$$
CHEMBL1966_lig497
                    3D
 Schrodinger Suite 2021-1.
 41 44  0  0  1  0            999 V2000
   46.7090   38.2569   -1.0356 C   0  0  0  0  0  0
   47.5871   39.2530   -1.7577 C   0  0  0  0  0  0
   47.4256   39.4709   -3.1293 C   0  0  0  0  0  0
   48.1684   40.4363   -3.8239 C   0  0  0  0  0  0
   47.8992   40.6966   -5.2767 C   0  0  0  0  0  0
   48.8084   40.8218   -6.0893 O   0  0  0  0  0  0
   46.5784   40.8101   -5.5987 O   0  0  0  0  0  0
   49.0990   41.1800   -3.0745 C   0  0  0  0  0  0
   49.8805   42.2276   -3.4808 N   0  0  0  0  0  0
   50.3802   42.7218   -2.3797 C   0  0  0  0  0  0
   50.0565   41.9821   -1.2668 N   0  0  0  0  0  0
   49.2229   40.9710   -1.6773 C   0  0  0  0  0  0
   48.4697   40.0103   -0.9935 C   0  0  0  0  0  0
   51.2586   43.9110   -2.3392 C   0  0  0  0  0  0
   51.2145   44.8359   -1.2939 C   0  0  0  0  0  0
   52.2085   45.8076   -1.1815 C   0  0  0  0  0  0
   53.2556   45.8580   -2.1096 C   0  0  0  0  0  0
   53.2374   44.9816   -3.1979 C   0  0  0  0  0  0
   52.2499   44.0102   -3.3164 C   0  0  0  0  0  0
   54.4201   46.7683   -1.9211 C   0  0  0  0  0  0
   55.0674   46.8305   -0.6803 C   0  0  0  0  0  0
   56.2102   47.6108   -0.5135 C   0  0  0  0  0  0
   56.7026   48.3751   -1.5673 C   0  0  0  0  0  0
   56.0679   48.3315   -2.8051 C   0  0  0  0  0  0
   56.5571   49.0608   -3.8345 F   0  0  0  0  0  0
   54.9469   47.5177   -2.9857 C   0  0  0  0  0  0
   54.3882   47.4320   -4.2107 F   0  0  0  0  0  0
   47.3190   37.5323   -0.4956 H   0  0  0  0  0  0
   46.1137   38.8101   -0.3045 H   0  0  0  0  0  0
   46.0386   37.7142   -1.7030 H   0  0  0  0  0  0
   46.6907   38.8801   -3.6580 H   0  0  0  0  0  0
   46.0254   40.8647   -4.8160 H   0  0  0  0  0  0
   50.3649   42.2153   -0.3357 H   0  0  0  0  0  0
   48.5433   39.8781    0.0764 H   0  0  0  0  0  0
   50.4436   44.7729   -0.5388 H   0  0  0  0  0  0
   52.1907   46.4869   -0.3412 H   0  0  0  0  0  0
   54.0414   45.0131   -3.9141 H   0  0  0  0  0  0
   52.3047   43.2954   -4.1255 H   0  0  0  0  0  0
   54.7096   46.2390    0.1511 H   0  0  0  0  0  0
   56.7355   47.6095    0.4251 H   0  0  0  0  0  0
   57.5869   48.9820   -1.4296 H   0  0  0  0  0  0
  1  2  1  0  0  0
  1 28  1  0  0  0
  1 29  1  0  0  0
  1 30  1  0  0  0
  2  3  2  0  0  0
  2 13  1  0  0  0
  3  4  1  0  0  0
  3 31  1  0  0  0
  4  5  1  0  0  0
  4  8  2  0  0  0
  5  6  2  0  0  0
  5  7  1  0  0  0
  7 32  1  0  0  0
  8  9  1  0  0  0
  8 12  1  0  0  0
  9 10  2  0  0  0
 10 11  1  0  0  0
 10 14  1  0  0  0
 11 12  1  0  0  0
 11 33  1  0  0  0
 12 13  2  0  0  0
 13 34  1  0  0  0
 14 15  2  0  0  0
 14 19  1  0  0  0
 15 16  1  0  0  0
 15 35  1  0  0  0
 16 17  2  0  0  0
 16 36  1  0  0  0
 17 18  1  0  0  0
 17 20  1  0  0  0
 18 19  2  0  0  0
 18 37  1  0  0  0
 19 38  1  0  0  0
 20 21  2  0  0  0
 20 26  1  0  0  0
 21 22  1  0  0  0
 21 39  1  0  0  0
 22 23  2  0  0  0
 22 40  1  0  0  0
 23 24  1  0  0  0
 23 41  1  0  0  0
 24 25  1  0  0  0
 24 26  2  0  0  0
 26 27  1  0  0  0
M  END
> <s_m_entry_id>
25433

> <s_m_entry_name>
dock_pv.85

> <s_m_Source_Path>
/home/csk/Desktop/cluster/DUD-E-result/pyrd

> <s_m_Source_File>
dock_pv.maegz

> <i_m_Source_File_Index>
85

> <chembl_id>
CHEMBL3677754

> <chembl_pref_name>
None

> <i_lp_mmshare_version>
53161

> <r_lp_tautomer_probability>
1

> <s_lp_Force_Field>
OPLS_2005

> <r_lp_Energy>
24.182896

> <b_lp_Chiralities_Consistent>
1

> <s_lp_Variant>
CHEMBL1966_lig497-1

> <s_i_glide_gridfile>
glide-grid_1d3g

> <i_i_glide_lignum>
547

> <i_i_glide_rotatable_bonds>
4

> <r_i_docking_score>
-10.5790124943128

> <r_i_glide_ligand_efficiency>
-0.391815277567139

> <r_i_glide_ligand_efficiency_sa>
-1.17544583141006

> <r_i_glide_ligand_efficiency_ln>
-2.46261970002426

> <r_i_glide_gscore>
-10.5790124943128

> <r_i_glide_lipo>
-5.34095021805899

> <r_i_glide_hbond>
-0.16

> <r_i_glide_metal>
0

> <r_i_glide_rewards>
-2.84004113726588

> <r_i_glide_evdw>
-42.9612922668457

> <r_i_glide_ecoul>
-3.49600505828857

> <r_i_glide_erotb>
0.434444233097681

> <r_i_glide_esite>
0

> <r_i_glide_emodel>
-63.4811785783532

> <r_i_glide_energy>
-46.4572973251343

> <r_i_glide_einternal>
5.60460186004639

> <i_i_glide_confnum>
14

> <i_i_glide_posenum>
122

> <r_i_glide_eff_state_penalty>
0

> <s_user_duplicate_titles>
CHEMBL1966_lig497

> <i_f3d_flags>
0

> <s_m_subgroup_title>
dock_pv

> <s_m_subgroupid>
dock_pv

> <b_m_subgroup_collapsed>
1

$$$$
CHEMBL1966_lig616
                    3D
 Schrodinger Suite 2021-1.
 42 45  0  0  1  0            999 V2000
   48.9656   41.4475   -4.1236 C   0  0  0  0  0  0
   49.8433   42.5450   -4.0041 C   0  0  0  0  0  0
   50.3894   42.8384   -2.7392 C   0  0  0  0  0  0
   50.0881   42.1190   -1.6287 N   0  0  0  0  0  0
   51.3540   43.9496   -2.4980 C   0  0  0  0  0  0
   51.2229   44.8339   -1.4144 C   0  0  0  0  0  0
   52.1605   45.8535   -1.2120 C   0  0  0  0  0  0
   53.2397   46.0064   -2.0932 C   0  0  0  0  0  0
   53.3679   45.1222   -3.1622 C   0  0  0  0  0  0
   52.4547   44.0947   -3.3456 C   0  0  0  0  0  0
   54.2946   47.0338   -1.9104 C   0  0  0  0  0  0
   55.0062   47.1142   -0.7101 C   0  0  0  0  0  0
   56.0940   47.9778   -0.5994 C   0  0  0  0  0  0
   56.4508   48.7908   -1.6697 C   0  0  0  0  0  0
   55.7381   48.7376   -2.8618 C   0  0  0  0  0  0
   54.6639   47.8607   -2.9804 C   0  0  0  0  0  0
   48.4230   41.0646   -5.4711 C   0  0  0  0  0  0
   47.0629   41.0785   -5.5927 O   0  0  0  0  0  0
   49.1867   40.8100   -6.3956 O   0  0  0  0  0  0
   48.6261   40.6943   -2.9546 C   0  0  0  0  0  0
   49.2231   41.0792   -1.7190 C   0  0  0  0  0  0
   48.8455   40.4100   -0.5280 C   0  0  0  0  0  0
   47.9016   39.3856   -0.6020 C   0  0  0  0  0  0
   47.3370   38.9704   -1.7589 N   0  0  0  0  0  0
   47.7048   39.6098   -2.8925 C   0  0  0  0  0  0
   50.1428   43.4280   -5.2292 C   0  0  0  0  0  0
   50.3884   44.7405   -0.7342 H   0  0  0  0  0  0
   52.0460   46.5248   -0.3740 H   0  0  0  0  0  0
   54.2100   45.2104   -3.8306 H   0  0  0  0  0  0
   52.6154   43.3973   -4.1532 H   0  0  0  0  0  0
   54.7510   46.4727    0.1220 H   0  0  0  0  0  0
   56.6823   48.0099    0.3008 H   0  0  0  0  0  0
   57.2962   49.4569   -1.5759 H   0  0  0  0  0  0
   56.0252   49.3603   -3.6960 H   0  0  0  0  0  0
   54.1286   47.8085   -3.9179 H   0  0  0  0  0  0
   46.6273   41.4505   -4.8229 H   0  0  0  0  0  0
   49.2757   40.7017    0.4187 H   0  0  0  0  0  0
   47.5946   38.8692    0.2959 H   0  0  0  0  0  0
   47.2285   39.2398   -3.7873 H   0  0  0  0  0  0
   49.2273   43.6444   -5.7802 H   0  0  0  0  0  0
   50.5554   44.3992   -4.9794 H   0  0  0  0  0  0
   50.8230   42.9239   -5.9139 H   0  0  0  0  0  0
  1 20  1  0  0  0
  1  2  2  0  0  0
  1 17  1  0  0  0
  2  3  1  0  0  0
  2 26  1  0  0  0
  3  4  2  0  0  0
  3  5  1  0  0  0
  4 21  1  0  0  0
  5  6  2  0  0  0
  5 10  1  0  0  0
  6  7  1  0  0  0
  6 27  1  0  0  0
  7  8  2  0  0  0
  7 28  1  0  0  0
  8  9  1  0  0  0
  8 11  1  0  0  0
  9 10  2  0  0  0
  9 29  1  0  0  0
 10 30  1  0  0  0
 11 12  2  0  0  0
 11 16  1  0  0  0
 12 13  1  0  0  0
 12 31  1  0  0  0
 13 14  2  0  0  0
 13 32  1  0  0  0
 14 15  1  0  0  0
 14 33  1  0  0  0
 15 16  2  0  0  0
 15 34  1  0  0  0
 16 35  1  0  0  0
 17 18  1  0  0  0
 17 19  2  0  0  0
 18 36  1  0  0  0
 20 21  1  0  0  0
 20 25  2  0  0  0
 21 22  2  0  0  0
 22 23  1  0  0  0
 22 37  1  0  0  0
 23 24  2  0  0  0
 23 38  1  0  0  0
 24 25  1  0  0  0
 25 39  1  0  0  0
 26 40  1  0  0  0
 26 41  1  0  0  0
 26 42  1  0  0  0
M  END
> <s_m_entry_id>
25434

> <s_m_entry_name>
dock_pv.86

> <s_m_Source_Path>
/home/csk/Desktop/cluster/DUD-E-result/pyrd

> <s_m_Source_File>
dock_pv.maegz

> <i_m_Source_File_Index>
86

> <chembl_id>
CHEMBL4228065

> <chembl_pref_name>
None

> <i_lp_mmshare_version>
53161

> <r_lp_tautomer_probability>
1

> <s_lp_Force_Field>
OPLS_2005

> <r_lp_Energy>
23.141286

> <b_lp_Chiralities_Consistent>
1

> <s_lp_Variant>
CHEMBL1966_lig616-1

> <s_i_glide_gridfile>
glide-grid_1d3g

> <i_i_glide_lignum>
670

> <i_i_glide_rotatable_bonds>
4

> <r_i_docking_score>
-10.5777268550914

> <r_i_glide_ligand_efficiency>
-0.406835648272745

> <r_i_glide_ligand_efficiency_sa>
-1.20524900718703

> <r_i_glide_ligand_efficiency_ln>
-2.48414444356546

> <r_i_glide_gscore>
-10.5777268550914

> <r_i_glide_lipo>
-5.94949552062231

> <r_i_glide_hbond>
-0.16

> <r_i_glide_metal>
0

> <r_i_glide_rewards>
-2.03689565711787

> <r_i_glide_evdw>
-36.4710655212402

> <r_i_glide_ecoul>
-7.32089519500732

> <r_i_glide_erotb>
0.490351877961912

> <r_i_glide_esite>
0

> <r_i_glide_emodel>
-66.9383899883851

> <r_i_glide_energy>
-43.7919607162476

> <r_i_glide_einternal>
4.19988250732422

> <i_i_glide_confnum>
4

> <i_i_glide_posenum>
260

> <r_i_glide_eff_state_penalty>
0

> <s_user_duplicate_titles>
CHEMBL1966_lig616

> <i_f3d_flags>
0

> <s_m_subgroup_title>
dock_pv

> <s_m_subgroupid>
dock_pv

> <b_m_subgroup_collapsed>
1

$$$$
CHEMBL1966_lig790
                    3D
 Schrodinger Suite 2021-1.
 48 51  0  0  1  0            999 V2000
   50.2915   42.5657   -3.1557 C   0  0  0  0  0  0
   50.1433   41.8845   -2.0007 N   0  0  0  0  0  0
   49.5231   42.2624   -4.3032 C   0  0  0  0  0  0
   48.5759   41.2174   -4.2270 C   0  0  0  0  0  0
   48.4237   40.4943   -3.0051 C   0  0  0  0  0  0
   51.2370   43.6096   -3.0893 N   0  0  0  0  0  0
   49.2160   40.9216   -1.9027 C   0  0  0  0  0  0
   47.6572   40.9045   -5.3699 C   0  0  0  0  0  0
   51.5685   44.4698   -1.9973 C   0  0  0  0  0  0
   52.6743   45.3469   -2.0504 C   0  0  0  0  0  0
   53.0759   46.1112   -0.9576 C   0  0  0  0  0  0
   47.4801   39.4331   -2.7994 C   0  0  0  0  0  0
   46.3297   40.8141   -5.0958 O   0  0  0  0  0  0
   48.1096   40.8116   -6.4850 O   0  0  0  0  0  0
   48.9688   40.4082   -0.6269 C   0  0  0  0  0  0
   54.2999   46.9359   -1.0484 C   0  0  0  0  0  0
   47.2840   38.9089   -1.5389 C   0  0  0  0  0  0
   49.6253   43.0995   -5.5846 C   0  0  0  0  0  0
   48.0293   39.3996   -0.4838 C   0  0  0  0  0  0
   46.4059   37.9057   -1.3289 F   0  0  0  0  0  0
   52.2884   43.4916   -4.1000 C   0  0  0  0  0  0
   50.8111   44.4826   -0.8164 C   0  0  0  0  0  0
   52.3491   46.0214    0.2283 C   0  0  0  0  0  0
   51.2267   45.2100    0.2917 C   0  0  0  0  0  0
   55.2346   46.9159   -0.0087 C   0  0  0  0  0  0
   54.5549   47.7132   -2.1882 C   0  0  0  0  0  0
   55.7324   48.4466   -2.2961 C   0  0  0  0  0  0
   56.4270   47.6217   -0.1247 C   0  0  0  0  0  0
   56.6636   48.3926   -1.2641 C   0  0  0  0  0  0
   53.2925   45.4161   -2.9300 H   0  0  0  0  0  0
   46.9030   39.0147   -3.6044 H   0  0  0  0  0  0
   49.5631   40.7329    0.2183 H   0  0  0  0  0  0
   48.6431   43.3545   -5.9719 H   0  0  0  0  0  0
   50.1307   44.0447   -5.4337 H   0  0  0  0  0  0
   50.1468   42.5382   -6.3641 H   0  0  0  0  0  0
   47.9759   38.9020    0.4437 H   0  0  0  0  0  0
   53.2576   43.2096   -3.6928 H   0  0  0  0  0  0
   52.0787   42.8106   -4.9074 H   0  0  0  0  0  0
   52.3368   44.4983   -4.4987 H   0  0  0  0  0  0
   49.9066   43.9092   -0.7035 H   0  0  0  0  0  0
   52.6430   46.5842    1.1064 H   0  0  0  0  0  0
   50.6787   45.1236    1.2089 H   0  0  0  0  0  0
   55.0538   46.3398    0.8873 H   0  0  0  0  0  0
   53.8392   47.7456   -2.9956 H   0  0  0  0  0  0
   55.9290   49.0388   -3.1755 H   0  0  0  0  0  0
   57.1477   47.6095    0.6731 H   0  0  0  0  0  0
   57.5836   48.9586   -1.3354 H   0  0  0  0  0  0
   46.1172   41.0649   -4.1888 H   0  0  0  0  0  0
  1  2  2  0  0  0
  1  3  1  0  0  0
  1  6  1  0  0  0
  2  7  1  0  0  0
  3  4  2  0  0  0
  3 18  1  0  0  0
  4  5  1  0  0  0
  4  8  1  0  0  0
  5 12  2  0  0  0
  5  7  1  0  0  0
  6  9  1  0  0  0
  6 21  1  0  0  0
  7 15  2  0  0  0
  8 13  1  0  0  0
  8 14  2  0  0  0
  9 10  1  0  0  0
  9 22  2  0  0  0
 10 11  2  0  0  0
 10 30  1  0  0  0
 11 16  1  0  0  0
 11 23  1  0  0  0
 12 17  1  0  0  0
 12 31  1  0  0  0
 13 48  1  0  0  0
 15 19  1  0  0  0
 15 32  1  0  0  0
 16 25  1  0  0  0
 16 26  2  0  0  0
 17 20  1  0  0  0
 17 19  2  0  0  0
 18 33  1  0  0  0
 18 34  1  0  0  0
 18 35  1  0  0  0
 19 36  1  0  0  0
 21 37  1  0  0  0
 21 38  1  0  0  0
 21 39  1  0  0  0
 22 24  1  0  0  0
 22 40  1  0  0  0
 23 24  2  0  0  0
 23 41  1  0  0  0
 24 42  1  0  0  0
 25 28  2  0  0  0
 25 43  1  0  0  0
 26 27  1  0  0  0
 26 44  1  0  0  0
 27 29  2  0  0  0
 27 45  1  0  0  0
 28 29  1  0  0  0
 28 46  1  0  0  0
 29 47  1  0  0  0
M  END
> <s_m_entry_id>
25435

> <s_m_entry_name>
dock_pv.87

> <s_m_Source_Path>
/home/csk/Desktop/cluster/DUD-E-result/pyrd

> <s_m_Source_File>
dock_pv.maegz

> <i_m_Source_File_Index>
87

> <chembl_id>
CHEMBL430760

> <chembl_pref_name>
None

> <i_lp_mmshare_version>
53161

> <r_lp_tautomer_probability>
1

> <s_lp_Force_Field>
OPLS_2005

> <r_lp_Energy>
34.740382

> <b_lp_Chiralities_Consistent>
1

> <s_lp_Variant>
CHEMBL1966_lig790-1

> <s_i_glide_gridfile>
glide-grid_1d3g

> <i_i_glide_lignum>
861

> <i_i_glide_rotatable_bonds>
5

> <r_i_docking_score>
-10.5664581631009

> <r_i_glide_ligand_efficiency>
-0.364360626313825

> <r_i_glide_ligand_efficiency_sa>
-1.11943128158491

> <r_i_glide_ligand_efficiency_ln>
-2.41945097708979

> <r_i_glide_gscore>
-10.5664581631009

> <r_i_glide_lipo>
-6.0708184526406

> <r_i_glide_hbond>
-0.275306980414818

> <r_i_glide_metal>
0

> <r_i_glide_rewards>
-2.05751456643528

> <r_i_glide_evdw>
-29.4460868835449

> <r_i_glide_ecoul>
-8.07932567596436

> <r_i_glide_erotb>
0.521385031961673

> <r_i_glide_esite>
0

> <r_i_glide_emodel>
-47.6234278640568

> <r_i_glide_energy>
-37.5254125595093

> <r_i_glide_einternal>
8.69809436798096

> <i_i_glide_confnum>
123

> <i_i_glide_posenum>
264

> <r_i_glide_eff_state_penalty>
0

> <s_user_duplicate_titles>
CHEMBL1966_lig790,74586

> <i_f3d_flags>
0

> <s_m_subgroup_title>
dock_pv

> <s_m_subgroupid>
dock_pv

> <b_m_subgroup_collapsed>
1

$$$$
CHEMBL1966_lig619
                    3D
 Schrodinger Suite 2021-1.
 44 47  0  0  1  0            999 V2000
   48.9615   41.4361   -4.1115 C   0  0  0  0  0  0
   49.8424   42.5313   -3.9935 C   0  0  0  0  0  0
   50.3801   42.8317   -2.7271 C   0  0  0  0  0  0
   50.0854   42.1193   -1.6134 N   0  0  0  0  0  0
   48.4230   41.0501   -5.4594 C   0  0  0  0  0  0
   47.0637   41.0492   -5.5800 O   0  0  0  0  0  0
   49.1874   40.8112   -6.3881 O   0  0  0  0  0  0
   50.1521   43.4092   -5.2173 C   0  0  0  0  0  0
   51.3501   43.9319   -2.4897 C   0  0  0  0  0  0
   51.1993   44.8562   -1.4427 C   0  0  0  0  0  0
   52.1408   45.8735   -1.2552 C   0  0  0  0  0  0
   53.2604   45.9571   -2.0914 C   0  0  0  0  0  0
   53.4249   45.0071   -3.0964 C   0  0  0  0  0  0
   52.4822   44.0109   -3.2993 C   0  0  0  0  0  0
   48.6162   40.6869   -2.9412 C   0  0  0  0  0  0
   49.2230   41.0809   -1.7108 C   0  0  0  0  0  0
   48.8252   40.4074   -0.5353 C   0  0  0  0  0  0
   47.9256   39.3993   -0.5006 N   0  0  0  0  0  0
   47.3750   39.0129   -1.6740 C   0  0  0  0  0  0
   47.6756   39.6102   -2.8984 C   0  0  0  0  0  0
   54.2939   47.0193   -1.9754 C   0  0  0  0  0  0
   55.0781   47.2358   -0.8247 C   0  0  0  0  0  0
   56.0984   48.1369   -0.7968 N   0  0  0  0  0  0
   56.3677   48.8507   -1.9202 C   0  0  0  0  0  0
   55.6281   48.7096   -3.0908 C   0  0  0  0  0  0
   54.5853   47.7909   -3.1091 C   0  0  0  0  0  0
   54.8254   46.3123    0.6160 Cl  0  0  0  0  0  0
   57.5432   49.8096   -1.8744 C   0  0  0  0  0  0
   46.6212   41.3868   -4.7971 H   0  0  0  0  0  0
   49.2351   43.6277   -5.7651 H   0  0  0  0  0  0
   50.5818   44.3748   -4.9711 H   0  0  0  0  0  0
   50.8215   42.8956   -5.9061 H   0  0  0  0  0  0
   50.3389   44.8031   -0.7909 H   0  0  0  0  0  0
   51.9977   46.5936   -0.4626 H   0  0  0  0  0  0
   54.3112   45.0333   -3.7092 H   0  0  0  0  0  0
   52.6553   43.2773   -4.0741 H   0  0  0  0  0  0
   49.2526   40.6925    0.4142 H   0  0  0  0  0  0
   46.6708   38.1953   -1.6181 H   0  0  0  0  0  0
   47.1994   39.2437   -3.7942 H   0  0  0  0  0  0
   55.8684   49.2836   -3.9740 H   0  0  0  0  0  0
   54.0245   47.6552   -4.0232 H   0  0  0  0  0  0
   58.3016   49.5044   -2.5966 H   0  0  0  0  0  0
   57.2144   50.8143   -2.1325 H   0  0  0  0  0  0
   58.0230   49.8609   -0.8991 H   0  0  0  0  0  0
  1 15  1  0  0  0
  1  2  2  0  0  0
  1  5  1  0  0  0
  2  3  1  0  0  0
  2  8  1  0  0  0
  3  4  2  0  0  0
  3  9  1  0  0  0
  4 16  1  0  0  0
  5  6  1  0  0  0
  5  7  2  0  0  0
  6 29  1  0  0  0
  8 30  1  0  0  0
  8 31  1  0  0  0
  8 32  1  0  0  0
  9 10  2  0  0  0
  9 14  1  0  0  0
 10 11  1  0  0  0
 10 33  1  0  0  0
 11 12  2  0  0  0
 11 34  1  0  0  0
 12 13  1  0  0  0
 12 21  1  0  0  0
 13 14  2  0  0  0
 13 35  1  0  0  0
 14 36  1  0  0  0
 15 16  1  0  0  0
 15 20  2  0  0  0
 16 17  2  0  0  0
 17 18  1  0  0  0
 17 37  1  0  0  0
 18 19  2  0  0  0
 19 20  1  0  0  0
 19 38  1  0  0  0
 20 39  1  0  0  0
 21 22  2  0  0  0
 21 26  1  0  0  0
 22 23  1  0  0  0
 22 27  1  0  0  0
 23 24  2  0  0  0
 24 25  1  0  0  0
 24 28  1  0  0  0
 25 26  2  0  0  0
 25 40  1  0  0  0
 26 41  1  0  0  0
 28 42  1  0  0  0
 28 43  1  0  0  0
 28 44  1  0  0  0
M  END
> <s_m_entry_id>
25436

> <s_m_entry_name>
dock_pv.88

> <s_m_Source_Path>
/home/csk/Desktop/cluster/DUD-E-result/pyrd

> <s_m_Source_File>
dock_pv.maegz

> <i_m_Source_File_Index>
88

> <chembl_id>
CHEMBL4226956

> <chembl_pref_name>
None

> <i_lp_mmshare_version>
53161

> <r_lp_tautomer_probability>
1

> <s_lp_Force_Field>
OPLS_2005

> <r_lp_Energy>
37.037905

> <b_lp_Chiralities_Consistent>
1

> <s_lp_Variant>
CHEMBL1966_lig619-1

> <s_i_glide_gridfile>
glide-grid_1d3g

> <i_i_glide_lignum>
673

> <i_i_glide_rotatable_bonds>
4

> <r_i_docking_score>
-10.5628230605516

> <r_i_glide_ligand_efficiency>
-0.377243680733985

> <r_i_glide_ligand_efficiency_sa>
-1.14553399935422

> <r_i_glide_ligand_efficiency_ln>
-2.4382097003367

> <r_i_glide_gscore>
-10.5628230605516

> <r_i_glide_lipo>
-6.31773161113193

> <r_i_glide_hbond>
-0.16

> <r_i_glide_metal>
0

> <r_i_glide_rewards>
-1.58103847927431

> <r_i_glide_evdw>
-41.5248908996582

> <r_i_glide_ecoul>
-5.41811943054199

> <r_i_glide_erotb>
0.384909489418866

> <r_i_glide_esite>
0

> <r_i_glide_emodel>
-71.8389520979693

> <r_i_glide_energy>
-46.9430103302002

> <r_i_glide_einternal>
1.66186213493347

> <i_i_glide_confnum>
4

> <i_i_glide_posenum>
61

> <r_i_glide_eff_state_penalty>
0

> <s_user_duplicate_titles>
CHEMBL1966_lig619

> <i_f3d_flags>
0

> <s_m_subgroup_title>
dock_pv

> <s_m_subgroupid>
dock_pv

> <b_m_subgroup_collapsed>
1

$$$$
CHEMBL1966_lig549
                    3D
 Schrodinger Suite 2021-1.
 35 38  0  0  1  0            999 V2000
   46.3413   40.8100   -5.6166 O   0  0  0  0  0  0
   47.6605   40.6860   -5.2990 C   0  0  0  0  0  0
   48.5781   40.8114   -6.0990 O   0  0  0  0  0  0
   47.9403   40.4100   -3.8616 C   0  0  0  0  0  0
   47.2301   39.4541   -3.1201 C   0  0  0  0  0  0
   47.4808   39.2404   -1.7642 C   0  0  0  0  0  0
   48.4230   40.0100   -1.0775 C   0  0  0  0  0  0
   49.1807   40.9500   -1.8029 C   0  0  0  0  0  0
   50.0712   41.8862   -1.3530 N   0  0  0  0  0  0
   50.3604   42.6212   -2.4041 C   0  0  0  0  0  0
   49.7524   42.1676   -3.5454 N   0  0  0  0  0  0
   48.9249   41.1297   -3.1812 C   0  0  0  0  0  0
   51.2230   43.8335   -2.3527 C   0  0  0  0  0  0
   51.0556   44.7502   -1.2990 C   0  0  0  0  0  0
   50.0107   44.6325   -0.4446 F   0  0  0  0  0  0
   51.9865   45.7683   -1.0883 C   0  0  0  0  0  0
   51.8251   46.6153   -0.0431 F   0  0  0  0  0  0
   53.1100   45.8695   -1.9128 C   0  0  0  0  0  0
   53.2455   44.9892   -2.9928 C   0  0  0  0  0  0
   54.3935   45.0078   -3.6990 F   0  0  0  0  0  0
   52.2783   44.0100   -3.2655 C   0  0  0  0  0  0
   52.4444   43.1665   -4.3103 F   0  0  0  0  0  0
   54.2208   46.8091   -1.5843 C   0  0  0  0  0  0
   55.0003   46.8579   -0.4314 C   0  0  0  0  0  0
   56.0230   47.8085   -0.4991 C   0  0  0  0  0  0
   56.0091   48.5274   -1.6846 C   0  0  0  0  0  0
   54.7351   48.0099   -2.7392 S   0  0  0  0  0  0
   45.7902   40.8641   -4.8322 H   0  0  0  0  0  0
   46.4668   38.8553   -3.5972 H   0  0  0  0  0  0
   46.9094   38.4964   -1.2272 H   0  0  0  0  0  0
   48.5745   39.8738   -0.0163 H   0  0  0  0  0  0
   49.8494   42.6100   -4.4485 H   0  0  0  0  0  0
   54.8538   46.2024    0.4150 H   0  0  0  0  0  0
   56.7469   47.9662    0.2869 H   0  0  0  0  0  0
   56.6802   49.3186   -1.9863 H   0  0  0  0  0  0
  1  2  1  0  0  0
  1 28  1  0  0  0
  2  3  2  0  0  0
  2  4  1  0  0  0
  4  5  2  0  0  0
  4 12  1  0  0  0
  5  6  1  0  0  0
  5 29  1  0  0  0
  6  7  2  0  0  0
  6 30  1  0  0  0
  7  8  1  0  0  0
  7 31  1  0  0  0
  8  9  1  0  0  0
  8 12  2  0  0  0
  9 10  2  0  0  0
 10 11  1  0  0  0
 10 13  1  0  0  0
 11 12  1  0  0  0
 11 32  1  0  0  0
 13 14  2  0  0  0
 13 21  1  0  0  0
 14 15  1  0  0  0
 14 16  1  0  0  0
 16 17  1  0  0  0
 16 18  2  0  0  0
 18 19  1  0  0  0
 18 23  1  0  0  0
 19 20  1  0  0  0
 19 21  2  0  0  0
 21 22  1  0  0  0
 23 24  2  0  0  0
 23 27  1  0  0  0
 24 25  1  0  0  0
 24 33  1  0  0  0
 25 26  2  0  0  0
 25 34  1  0  0  0
 26 27  1  0  0  0
 26 35  1  0  0  0
M  END
> <s_m_entry_id>
25437

> <s_m_entry_name>
dock_pv.89

> <s_m_Source_Path>
/home/csk/Desktop/cluster/DUD-E-result/pyrd

> <s_m_Source_File>
dock_pv.maegz

> <i_m_Source_File_Index>
89

> <chembl_id>
CHEMBL3677809

> <chembl_pref_name>
None

> <i_lp_mmshare_version>
53161

> <r_lp_tautomer_probability>
1

> <s_lp_Force_Field>
OPLS_2005

> <r_lp_Energy>
23.153046

> <b_lp_Chiralities_Consistent>
1

> <s_lp_Variant>
CHEMBL1966_lig549-1

> <s_i_glide_gridfile>
glide-grid_1d3g

> <i_i_glide_lignum>
603

> <i_i_glide_rotatable_bonds>
4

> <r_i_docking_score>
-10.5601449859722

> <r_i_glide_ligand_efficiency>
-0.391116480961933

> <r_i_glide_ligand_efficiency_sa>
-1.17334944159674

> <r_i_glide_ligand_efficiency_ln>
-2.45822765513777

> <r_i_glide_gscore>
-10.5601449859722

> <r_i_glide_lipo>
-4.8821056532055

> <r_i_glide_hbond>
-0.16

> <r_i_glide_metal>
0

> <r_i_glide_rewards>
-3.04916820289275

> <r_i_glide_evdw>
-40.663688659668

> <r_i_glide_ecoul>
-5.44141387939453

> <r_i_glide_erotb>
0.380525385018638

> <r_i_glide_esite>
0

> <r_i_glide_emodel>
-66.0760809755905

> <r_i_glide_energy>
-46.1051025390625

> <r_i_glide_einternal>
5.02265739440918

> <i_i_glide_confnum>
16

> <i_i_glide_posenum>
348

> <r_i_glide_eff_state_penalty>
0

> <s_user_duplicate_titles>
CHEMBL1966_lig549

> <i_f3d_flags>
0

> <s_m_subgroup_title>
dock_pv

> <s_m_subgroupid>
dock_pv

> <b_m_subgroup_collapsed>
1

$$$$
CHEMBL1966_lig603
                    3D
 Schrodinger Suite 2021-1.
 45 48  0  0  1  0            999 V2000
   47.8745   39.3923   -0.6417 C   0  0  0  0  0  0
   47.3199   38.9851   -1.8479 C   0  0  0  0  0  0
   47.6858   39.6101   -3.0360 C   0  0  0  0  0  0
   48.8230   40.4100   -0.6020 C   0  0  0  0  0  0
   49.2230   41.0555   -1.7941 C   0  0  0  0  0  0
   48.6283   40.6841   -3.0391 C   0  0  0  0  0  0
   48.9836   41.4577   -4.1938 C   0  0  0  0  0  0
   49.8575   42.5529   -4.0485 C   0  0  0  0  0  0
   50.3872   42.8213   -2.7729 C   0  0  0  0  0  0
   50.0886   42.0863   -1.6786 N   0  0  0  0  0  0
   51.3518   43.9118   -2.4991 C   0  0  0  0  0  0
   51.1891   44.8146   -1.4384 C   0  0  0  0  0  0
   52.1257   45.8306   -1.2338 C   0  0  0  0  0  0
   53.2385   45.9369   -2.0763 C   0  0  0  0  0  0
   53.4132   45.0131   -3.0995 C   0  0  0  0  0  0
   52.4832   44.0103   -3.3071 C   0  0  0  0  0  0
   48.4538   41.1045   -5.5541 C   0  0  0  0  0  0
   47.1001   41.1924   -5.6989 O   0  0  0  0  0  0
   49.2229   40.8102   -6.4638 O   0  0  0  0  0  0
   50.1708   43.4590   -5.2524 C   0  0  0  0  0  0
   54.2792   46.9709   -1.8989 C   0  0  0  0  0  0
   54.6599   47.8197   -2.9550 C   0  0  0  0  0  0
   55.6697   48.7167   -2.8488 N   0  0  0  0  0  0
   56.3456   48.7725   -1.6800 C   0  0  0  0  0  0
   56.0501   47.9527   -0.5935 C   0  0  0  0  0  0
   54.9905   47.0570   -0.6983 C   0  0  0  0  0  0
   54.0231   47.7423   -4.1448 F   0  0  0  0  0  0
   57.4544   49.7901   -1.6016 C   0  0  0  0  0  0
   47.5759   38.9054    0.2732 H   0  0  0  0  0  0
   46.5972   38.1822   -1.8609 H   0  0  0  0  0  0
   47.2314   39.2774   -3.9561 H   0  0  0  0  0  0
   49.2540   40.7124    0.3412 H   0  0  0  0  0  0
   50.3269   44.7463   -0.7903 H   0  0  0  0  0  0
   51.9850   46.5311   -0.4234 H   0  0  0  0  0  0
   54.2966   45.0592   -3.7162 H   0  0  0  0  0  0
   52.6599   43.2922   -4.0955 H   0  0  0  0  0  0
   46.6703   41.5464   -4.9156 H   0  0  0  0  0  0
   49.2527   43.7155   -5.7826 H   0  0  0  0  0  0
   50.6264   44.4077   -4.9882 H   0  0  0  0  0  0
   50.8227   42.9504   -5.9620 H   0  0  0  0  0  0
   56.6446   48.0063    0.3010 H   0  0  0  0  0  0
   54.7551   46.4039    0.1303 H   0  0  0  0  0  0
   57.6231   50.0100   -0.5524 H   0  0  0  0  0  0
   58.3748   49.3957   -2.0321 H   0  0  0  0  0  0
   57.1908   50.7193   -2.1081 H   0  0  0  0  0  0
  1  2  2  0  0  0
  1  4  1  0  0  0
  1 29  1  0  0  0
  2  3  1  0  0  0
  2 30  1  0  0  0
  3  6  2  0  0  0
  3 31  1  0  0  0
  4  5  2  0  0  0
  4 32  1  0  0  0
  5  6  1  0  0  0
  5 10  1  0  0  0
  6  7  1  0  0  0
  7  8  2  0  0  0
  7 17  1  0  0  0
  8  9  1  0  0  0
  8 20  1  0  0  0
  9 10  2  0  0  0
  9 11  1  0  0  0
 11 12  2  0  0  0
 11 16  1  0  0  0
 12 13  1  0  0  0
 12 33  1  0  0  0
 13 14  2  0  0  0
 13 34  1  0  0  0
 14 15  1  0  0  0
 14 21  1  0  0  0
 15 16  2  0  0  0
 15 35  1  0  0  0
 16 36  1  0  0  0
 17 18  1  0  0  0
 17 19  2  0  0  0
 18 37  1  0  0  0
 20 38  1  0  0  0
 20 39  1  0  0  0
 20 40  1  0  0  0
 21 22  2  0  0  0
 21 26  1  0  0  0
 22 23  1  0  0  0
 22 27  1  0  0  0
 23 24  2  0  0  0
 24 25  1  0  0  0
 24 28  1  0  0  0
 25 26  2  0  0  0
 25 41  1  0  0  0
 26 42  1  0  0  0
 28 43  1  0  0  0
 28 44  1  0  0  0
 28 45  1  0  0  0
M  END
> <s_m_entry_id>
25438

> <s_m_entry_name>
dock_pv.90

> <s_m_Source_Path>
/home/csk/Desktop/cluster/DUD-E-result/pyrd

> <s_m_Source_File>
dock_pv.maegz

> <i_m_Source_File_Index>
90

> <chembl_id>
CHEMBL4226328

> <chembl_pref_name>
None

> <i_lp_mmshare_version>
53161

> <r_lp_tautomer_probability>
1

> <s_lp_Force_Field>
OPLS_2005

> <r_lp_Energy>
35.841061

> <b_lp_Chiralities_Consistent>
1

> <s_lp_Variant>
CHEMBL1966_lig603-1

> <s_i_glide_gridfile>
glide-grid_1d3g

> <i_i_glide_lignum>
657

> <i_i_glide_rotatable_bonds>
4

> <r_i_docking_score>
-10.5563176085866

> <r_i_glide_ligand_efficiency>
-0.377011343163806

> <r_i_glide_ligand_efficiency_sa>
-1.14482848565164

> <r_i_glide_ligand_efficiency_ln>
-2.4367080510148

> <r_i_glide_gscore>
-10.5563176085866

> <r_i_glide_lipo>
-6.25218319551384

> <r_i_glide_hbond>
-0.16

> <r_i_glide_metal>
0

> <r_i_glide_rewards>
-1.58634393052009

> <r_i_glide_evdw>
-37.7663421630859

> <r_i_glide_ecoul>
-7.24859619140625

> <r_i_glide_erotb>
0.417816054312598

> <r_i_glide_esite>
0

> <r_i_glide_emodel>
-68.3290880213613

> <r_i_glide_energy>
-45.0149383544922

> <r_i_glide_einternal>
2.84795451164246

> <i_i_glide_confnum>
2

> <i_i_glide_posenum>
226

> <r_i_glide_eff_state_penalty>
0

> <s_user_duplicate_titles>
CHEMBL1966_lig603

> <i_f3d_flags>
0

> <s_m_subgroup_title>
dock_pv

> <s_m_subgroupid>
dock_pv

> <b_m_subgroup_collapsed>
1

$$$$
CHEMBL1966_lig615
                    3D
 Schrodinger Suite 2021-1.
 42 45  0  0  1  0            999 V2000
   48.9588   41.4562   -4.1065 C   0  0  0  0  0  0
   49.8371   42.5567   -3.9912 C   0  0  0  0  0  0
   50.3781   42.8626   -2.7252 C   0  0  0  0  0  0
   50.0823   42.1424   -1.6144 N   0  0  0  0  0  0
   51.3239   43.9878   -2.4679 C   0  0  0  0  0  0
   51.1755   44.8454   -1.3648 C   0  0  0  0  0  0
   52.1191   45.8430   -1.1118 C   0  0  0  0  0  0
   53.2219   45.9990   -1.9597 C   0  0  0  0  0  0
   53.3596   45.1597   -3.0606 C   0  0  0  0  0  0
   52.4348   44.1531   -3.3002 C   0  0  0  0  0  0
   54.3003   46.9719   -1.6826 C   0  0  0  0  0  0
   55.0313   46.8712   -0.4971 C   0  0  0  0  0  0
   56.1339   47.6904   -0.2916 C   0  0  0  0  0  0
   56.4838   48.6419   -1.2462 C   0  0  0  0  0  0
   55.7452   48.7728   -2.4175 C   0  0  0  0  0  0
   54.6600   47.9289   -2.6399 C   0  0  0  0  0  0
   48.4066   41.0664   -5.4477 C   0  0  0  0  0  0
   47.0460   41.0668   -5.5540 O   0  0  0  0  0  0
   49.1572   40.8100   -6.3806 O   0  0  0  0  0  0
   48.6214   40.6997   -2.9380 C   0  0  0  0  0  0
   49.2255   41.0983   -1.7095 C   0  0  0  0  0  0
   48.8522   40.4096   -0.5351 C   0  0  0  0  0  0
   47.9713   39.3863   -0.4990 N   0  0  0  0  0  0
   47.4154   38.9995   -1.6699 C   0  0  0  0  0  0
   47.6959   39.6087   -2.8938 C   0  0  0  0  0  0
   50.1373   43.4336   -5.2182 C   0  0  0  0  0  0
   50.3339   44.7321   -0.6971 H   0  0  0  0  0  0
   52.0022   46.4806   -0.2480 H   0  0  0  0  0  0
   54.2263   45.2475   -3.6988 H   0  0  0  0  0  0
   52.6076   43.4747   -4.1225 H   0  0  0  0  0  0
   54.7730   46.1291    0.2451 H   0  0  0  0  0  0
   56.7129   47.6018    0.6158 H   0  0  0  0  0  0
   57.3374   49.2808   -1.0735 H   0  0  0  0  0  0
   56.0253   49.5093   -3.1566 H   0  0  0  0  0  0
   54.1045   48.0075   -3.5641 H   0  0  0  0  0  0
   46.6147   41.4096   -4.7674 H   0  0  0  0  0  0
   49.2835   40.6951    0.4121 H   0  0  0  0  0  0
   46.7235   38.1708   -1.6151 H   0  0  0  0  0  0
   47.2187   39.2394   -3.7878 H   0  0  0  0  0  0
   50.8193   42.9291   -5.9021 H   0  0  0  0  0  0
   49.2204   43.6441   -5.7694 H   0  0  0  0  0  0
   50.5460   44.4063   -4.9720 H   0  0  0  0  0  0
  1 20  1  0  0  0
  1  2  2  0  0  0
  1 17  1  0  0  0
  2  3  1  0  0  0
  2 26  1  0  0  0
  3  4  2  0  0  0
  3  5  1  0  0  0
  4 21  1  0  0  0
  5  6  2  0  0  0
  5 10  1  0  0  0
  6  7  1  0  0  0
  6 27  1  0  0  0
  7  8  2  0  0  0
  7 28  1  0  0  0
  8  9  1  0  0  0
  8 11  1  0  0  0
  9 10  2  0  0  0
  9 29  1  0  0  0
 10 30  1  0  0  0
 11 12  2  0  0  0
 11 16  1  0  0  0
 12 13  1  0  0  0
 12 31  1  0  0  0
 13 14  2  0  0  0
 13 32  1  0  0  0
 14 15  1  0  0  0
 14 33  1  0  0  0
 15 16  2  0  0  0
 15 34  1  0  0  0
 16 35  1  0  0  0
 17 18  1  0  0  0
 17 19  2  0  0  0
 18 36  1  0  0  0
 20 21  1  0  0  0
 20 25  2  0  0  0
 21 22  2  0  0  0
 22 23  1  0  0  0
 22 37  1  0  0  0
 23 24  2  0  0  0
 24 25  1  0  0  0
 24 38  1  0  0  0
 25 39  1  0  0  0
 26 40  1  0  0  0
 26 41  1  0  0  0
 26 42  1  0  0  0
M  END
> <s_m_entry_id>
25439

> <s_m_entry_name>
dock_pv.91

> <s_m_Source_Path>
/home/csk/Desktop/cluster/DUD-E-result/pyrd

> <s_m_Source_File>
dock_pv.maegz

> <i_m_Source_File_Index>
91

> <chembl_id>
CHEMBL4227722

> <chembl_pref_name>
None

> <i_lp_mmshare_version>
53161

> <r_lp_tautomer_probability>
1

> <s_lp_Force_Field>
OPLS_2005

> <r_lp_Energy>
36.336141

> <b_lp_Chiralities_Consistent>
1

> <s_lp_Variant>
CHEMBL1966_lig615-1

> <s_i_glide_gridfile>
glide-grid_1d3g

> <i_i_glide_lignum>
669

> <i_i_glide_rotatable_bonds>
4

> <r_i_docking_score>
-10.5534132050944

> <r_i_glide_ligand_efficiency>
-0.405900507888245

> <r_i_glide_ligand_efficiency_sa>
-1.20247865747755

> <r_i_glide_ligand_efficiency_ln>
-2.47843446264325

> <r_i_glide_gscore>
-10.5534132050944

> <r_i_glide_lipo>
-6.09482345606597

> <r_i_glide_hbond>
-0.16

> <r_i_glide_metal>
0

> <r_i_glide_rewards>
-2.07395341917324

> <r_i_glide_evdw>
-38.5429306030273

> <r_i_glide_ecoul>
-5.25227785110474

> <r_i_glide_erotb>
0.490351877961912

> <r_i_glide_esite>
0

> <r_i_glide_emodel>
-65.6748209286269

> <r_i_glide_energy>
-43.7952084541321

> <r_i_glide_einternal>
4.75556564331055

> <i_i_glide_confnum>
10

> <i_i_glide_posenum>
196

> <r_i_glide_eff_state_penalty>
0

> <s_user_duplicate_titles>
CHEMBL1966_lig615

> <i_f3d_flags>
0

> <s_m_subgroup_title>
dock_pv

> <s_m_subgroupid>
dock_pv

> <b_m_subgroup_collapsed>
1

$$$$
CHEMBL1966_lig596
                    3D
 Schrodinger Suite 2021-1.
 42 45  0  0  1  0            999 V2000
   47.8894   39.3800   -0.6448 C   0  0  0  0  0  0
   47.3543   38.9816   -1.8627 C   0  0  0  0  0  0
   47.7282   39.6237   -3.0395 C   0  0  0  0  0  0
   48.8231   40.4100   -0.5788 C   0  0  0  0  0  0
   49.2232   41.0845   -1.7555 C   0  0  0  0  0  0
   48.6529   40.7130   -3.0148 C   0  0  0  0  0  0
   49.0244   41.4982   -4.1553 C   0  0  0  0  0  0
   49.9336   42.5441   -3.9840 C   0  0  0  0  0  0
   50.4230   42.8461   -2.7159 C   0  0  0  0  0  0
   50.0779   42.1315   -1.6175 N   0  0  0  0  0  0
   51.3584   43.9795   -2.4962 C   0  0  0  0  0  0
   51.2363   44.8362   -1.3897 C   0  0  0  0  0  0
   52.1692   45.8560   -1.1808 C   0  0  0  0  0  0
   53.2535   46.0165   -2.0536 C   0  0  0  0  0  0
   53.3574   45.1715   -3.1577 C   0  0  0  0  0  0
   52.4232   44.1678   -3.3797 C   0  0  0  0  0  0
   48.4800   41.2587   -5.5319 C   0  0  0  0  0  0
   47.1207   41.2053   -5.6322 O   0  0  0  0  0  0
   49.2262   41.1840   -6.4988 O   0  0  0  0  0  0
   54.3213   47.0344   -1.8375 C   0  0  0  0  0  0
   55.0731   47.1343   -0.6485 C   0  0  0  0  0  0
   56.1012   48.0092   -0.4989 N   0  0  0  0  0  0
   56.4217   48.8212   -1.5323 C   0  0  0  0  0  0
   55.7369   48.7961   -2.7426 C   0  0  0  0  0  0
   54.6768   47.8995   -2.8862 C   0  0  0  0  0  0
   54.8432   46.2508    0.5679 C   0  0  0  0  0  0
   47.5888   38.8732    0.2583 H   0  0  0  0  0  0
   46.6458   38.1663   -1.8946 H   0  0  0  0  0  0
   47.3007   39.2897   -3.9718 H   0  0  0  0  0  0
   49.2398   40.7024    0.3740 H   0  0  0  0  0  0
   50.2258   43.1537   -4.8287 H   0  0  0  0  0  0
   50.4199   44.7152   -0.6920 H   0  0  0  0  0  0
   52.0622   46.5047   -0.3237 H   0  0  0  0  0  0
   54.1940   45.2719   -3.8320 H   0  0  0  0  0  0
   52.5558   43.5056   -4.2233 H   0  0  0  0  0  0
   46.6786   41.4373   -4.8121 H   0  0  0  0  0  0
   57.2514   49.4953   -1.3736 H   0  0  0  0  0  0
   56.0225   49.4533   -3.5516 H   0  0  0  0  0  0
   54.1416   47.8646   -3.8249 H   0  0  0  0  0  0
   54.4476   45.2765    0.2932 H   0  0  0  0  0  0
   55.7769   46.0717    1.1010 H   0  0  0  0  0  0
   54.1463   46.7286    1.2554 H   0  0  0  0  0  0
  1  2  2  0  0  0
  1  4  1  0  0  0
  1 27  1  0  0  0
  2  3  1  0  0  0
  2 28  1  0  0  0
  3  6  2  0  0  0
  3 29  1  0  0  0
  4  5  2  0  0  0
  4 30  1  0  0  0
  5  6  1  0  0  0
  5 10  1  0  0  0
  6  7  1  0  0  0
  7  8  2  0  0  0
  7 17  1  0  0  0
  8  9  1  0  0  0
  8 31  1  0  0  0
  9 10  2  0  0  0
  9 11  1  0  0  0
 11 12  2  0  0  0
 11 16  1  0  0  0
 12 13  1  0  0  0
 12 32  1  0  0  0
 13 14  2  0  0  0
 13 33  1  0  0  0
 14 15  1  0  0  0
 14 20  1  0  0  0
 15 16  2  0  0  0
 15 34  1  0  0  0
 16 35  1  0  0  0
 17 18  1  0  0  0
 17 19  2  0  0  0
 18 36  1  0  0  0
 20 21  2  0  0  0
 20 25  1  0  0  0
 21 22  1  0  0  0
 21 26  1  0  0  0
 22 23  2  0  0  0
 23 24  1  0  0  0
 23 37  1  0  0  0
 24 25  2  0  0  0
 24 38  1  0  0  0
 25 39  1  0  0  0
 26 40  1  0  0  0
 26 41  1  0  0  0
 26 42  1  0  0  0
M  END
> <s_m_entry_id>
25440

> <s_m_entry_name>
dock_pv.92

> <s_m_Source_Path>
/home/csk/Desktop/cluster/DUD-E-result/pyrd

> <s_m_Source_File>
dock_pv.maegz

> <i_m_Source_File_Index>
92

> <chembl_id>
CHEMBL4226472

> <chembl_pref_name>
None

> <i_lp_mmshare_version>
53161

> <r_lp_tautomer_probability>
1

> <s_lp_Force_Field>
OPLS_2005

> <r_lp_Energy>
31.666688

> <b_lp_Chiralities_Consistent>
1

> <s_lp_Variant>
CHEMBL1966_lig596-1

> <s_i_glide_gridfile>
glide-grid_1d3g

> <i_i_glide_lignum>
650

> <i_i_glide_rotatable_bonds>
4

> <r_i_docking_score>
-10.5523605010987

> <r_i_glide_ligand_efficiency>
-0.405860019273026

> <r_i_glide_ligand_efficiency_sa>
-1.20235871011428

> <r_i_glide_ligand_efficiency_ln>
-2.47818723856407

> <r_i_glide_gscore>
-10.5523605010987

> <r_i_glide_lipo>
-6.116857708233

> <r_i_glide_hbond>
-0.16

> <r_i_glide_metal>
0

> <r_i_glide_rewards>
-2.00951528770228

> <r_i_glide_evdw>
-40.2006492614746

> <r_i_glide_ecoul>
-4.9753794670105

> <r_i_glide_erotb>
0.490351877961912

> <r_i_glide_esite>
0

> <r_i_glide_emodel>
-70.0726771991791

> <r_i_glide_energy>
-45.1760287284851

> <r_i_glide_einternal>
4.58245992660522

> <i_i_glide_confnum>
9

> <i_i_glide_posenum>
66

> <r_i_glide_eff_state_penalty>
0

> <s_user_duplicate_titles>
CHEMBL1966_lig596

> <i_f3d_flags>
0

> <s_m_subgroup_title>
dock_pv

> <s_m_subgroupid>
dock_pv

> <b_m_subgroup_collapsed>
1

$$$$
CHEMBL1966_lig486
                    3D
 Schrodinger Suite 2021-1.
 41 44  0  0  1  0            999 V2000
   46.8612   38.1037   -1.0588 C   0  0  0  0  0  0
   47.6066   39.2077   -1.7751 C   0  0  0  0  0  0
   47.3704   39.4291   -3.1337 C   0  0  0  0  0  0
   48.0588   40.4114   -3.8531 C   0  0  0  0  0  0
   47.7977   40.6860   -5.2989 C   0  0  0  0  0  0
   48.7186   40.8136   -6.0989 O   0  0  0  0  0  0
   46.4805   40.8100   -5.6256 O   0  0  0  0  0  0
   48.9875   41.1719   -3.1363 C   0  0  0  0  0  0
   49.7732   42.2462   -3.4678 N   0  0  0  0  0  0
   50.3620   42.7001   -2.3148 C   0  0  0  0  0  0
   50.0716   41.9590   -1.2703 N   0  0  0  0  0  0
   49.2229   40.9954   -1.7508 C   0  0  0  0  0  0
   48.4931   40.0110   -1.0555 C   0  0  0  0  0  0
   51.2500   43.8891   -2.2964 C   0  0  0  0  0  0
   52.1877   44.0099   -3.3295 C   0  0  0  0  0  0
   53.1573   45.0122   -3.2977 C   0  0  0  0  0  0
   53.2220   45.9228   -2.2384 C   0  0  0  0  0  0
   52.2574   45.8232   -1.2237 C   0  0  0  0  0  0
   51.2834   44.8168   -1.2458 C   0  0  0  0  0  0
   50.4164   44.7187   -0.2144 F   0  0  0  0  0  0
   54.3177   46.9331   -2.2006 C   0  0  0  0  0  0
   54.7254   47.5796   -3.3760 C   0  0  0  0  0  0
   55.7967   48.4674   -3.3665 C   0  0  0  0  0  0
   56.4709   48.7198   -2.1781 C   0  0  0  0  0  0
   56.0789   48.0910   -1.0024 C   0  0  0  0  0  0
   54.9996   47.2091   -1.0079 C   0  0  0  0  0  0
   46.8231   38.3092    0.0083 H   0  0  0  0  0  0
   45.8318   38.0281   -1.4104 H   0  0  0  0  0  0
   47.3577   37.1459   -1.2140 H   0  0  0  0  0  0
   46.6456   38.8098   -3.6419 H   0  0  0  0  0  0
   45.9232   40.8611   -4.8457 H   0  0  0  0  0  0
   49.8690   42.7012   -4.3643 H   0  0  0  0  0  0
   48.6354   39.8677    0.0061 H   0  0  0  0  0  0
   52.2096   43.2967   -4.1415 H   0  0  0  0  0  0
   53.8850   45.0714   -4.0895 H   0  0  0  0  0  0
   52.2748   46.5112   -0.3915 H   0  0  0  0  0  0
   54.2129   47.3935   -4.3096 H   0  0  0  0  0  0
   56.1069   48.9595   -4.2761 H   0  0  0  0  0  0
   57.3074   49.4041   -2.1682 H   0  0  0  0  0  0
   56.6303   48.2848   -0.0989 H   0  0  0  0  0  0
   54.7202   46.7135   -0.0890 H   0  0  0  0  0  0
  1  2  1  0  0  0
  1 27  1  0  0  0
  1 28  1  0  0  0
  1 29  1  0  0  0
  2  3  2  0  0  0
  2 13  1  0  0  0
  3  4  1  0  0  0
  3 30  1  0  0  0
  4  5  1  0  0  0
  4  8  2  0  0  0
  5  6  2  0  0  0
  5  7  1  0  0  0
  7 31  1  0  0  0
  8  9  1  0  0  0
  8 12  1  0  0  0
  9 10  1  0  0  0
  9 32  1  0  0  0
 10 11  2  0  0  0
 10 14  1  0  0  0
 11 12  1  0  0  0
 12 13  2  0  0  0
 13 33  1  0  0  0
 14 15  2  0  0  0
 14 19  1  0  0  0
 15 16  1  0  0  0
 15 34  1  0  0  0
 16 17  2  0  0  0
 16 35  1  0  0  0
 17 18  1  0  0  0
 17 21  1  0  0  0
 18 19  2  0  0  0
 18 36  1  0  0  0
 19 20  1  0  0  0
 21 22  2  0  0  0
 21 26  1  0  0  0
 22 23  1  0  0  0
 22 37  1  0  0  0
 23 24  2  0  0  0
 23 38  1  0  0  0
 24 25  1  0  0  0
 24 39  1  0  0  0
 25 26  2  0  0  0
 25 40  1  0  0  0
 26 41  1  0  0  0
M  END
> <s_m_entry_id>
25441

> <s_m_entry_name>
dock_pv.93

> <s_m_Source_Path>
/home/csk/Desktop/cluster/DUD-E-result/pyrd

> <s_m_Source_File>
dock_pv.maegz

> <i_m_Source_File_Index>
93

> <chembl_id>
CHEMBL3677743

> <chembl_pref_name>
None

> <i_lp_mmshare_version>
53161

> <r_lp_tautomer_probability>
1

> <s_lp_Force_Field>
OPLS_2005

> <r_lp_Energy>
23.875666

> <b_lp_Chiralities_Consistent>
1

> <s_lp_Variant>
CHEMBL1966_lig486-1

> <s_i_glide_gridfile>
glide-grid_1d3g

> <i_i_glide_lignum>
536

> <i_i_glide_rotatable_bonds>
4

> <r_i_docking_score>
-10.5430957413047

> <r_i_glide_ligand_efficiency>
-0.405503682357872

> <r_i_glide_ligand_efficiency_sa>
-1.20130306340525

> <r_i_glide_ligand_efficiency_ln>
-2.4760114401266

> <r_i_glide_gscore>
-10.5430957413047

> <r_i_glide_lipo>
-5.36087284649778

> <r_i_glide_hbond>
-0.16

> <r_i_glide_metal>
0

> <r_i_glide_rewards>
-2.61450983030891

> <r_i_glide_evdw>
-40.449462890625

> <r_i_glide_ecoul>
-5.73780107498169

> <r_i_glide_erotb>
0.475430241280521

> <r_i_glide_esite>
0

> <r_i_glide_emodel>
-68.5366930618402

> <r_i_glide_energy>
-46.1872639656067

> <r_i_glide_einternal>
5.44391918182373

> <i_i_glide_confnum>
2

> <i_i_glide_posenum>
231

> <r_i_glide_eff_state_penalty>
0

> <s_user_duplicate_titles>
CHEMBL1966_lig486

> <i_f3d_flags>
0

> <s_m_subgroup_title>
dock_pv

> <s_m_subgroupid>
dock_pv

> <b_m_subgroup_collapsed>
1

$$$$
CHEMBL1966_lig730
                    3D
 Schrodinger Suite 2021-1.
 41 44  0  0  1  0            999 V2000
   50.1416   42.0100   -2.0211 N   0  0  0  0  0  0
   50.4309   42.7411   -3.1218 C   0  0  0  0  0  0
   49.8443   42.4943   -4.3802 C   0  0  0  0  0  0
   48.5721   40.6923   -3.3235 C   0  0  0  0  0  0
   48.9174   41.4441   -4.4855 C   0  0  0  0  0  0
   49.2227   41.0285   -2.0992 C   0  0  0  0  0  0
   51.4000   43.8240   -2.8173 C   0  0  0  0  0  0
   47.5588   39.6960   -3.2980 C   0  0  0  0  0  0
   53.2904   45.7983   -2.1641 C   0  0  0  0  0  0
   48.8231   40.4099   -0.8926 C   0  0  0  0  0  0
   51.2228   44.6429   -1.6887 C   0  0  0  0  0  0
   52.5288   44.0101   -3.6140 C   0  0  0  0  0  0
   53.4508   45.0040   -3.2989 C   0  0  0  0  0  0
   52.1662   45.6121   -1.3546 C   0  0  0  0  0  0
   54.3462   46.7805   -1.8202 C   0  0  0  0  0  0
   48.2872   41.2100   -5.6853 O   0  0  0  0  0  0
   47.1847   39.1024   -2.0947 C   0  0  0  0  0  0
   47.8077   39.4570   -0.9041 C   0  0  0  0  0  0
   50.1409   43.3583   -5.6119 C   0  0  0  0  0  0
   46.1777   38.2041   -2.0715 F   0  0  0  0  0  0
   54.8128   47.6852   -2.7827 C   0  0  0  0  0  0
   54.9342   46.7623   -0.5515 C   0  0  0  0  0  0
   55.8588   48.5538   -2.4855 C   0  0  0  0  0  0
   55.9965   47.6112   -0.2629 C   0  0  0  0  0  0
   56.4488   48.5085   -1.2266 C   0  0  0  0  0  0
   47.0389   39.4388   -4.2076 H   0  0  0  0  0  0
   49.2985   40.6881    0.0372 H   0  0  0  0  0  0
   50.3570   44.5168   -1.0538 H   0  0  0  0  0  0
   52.7087   43.3685   -4.4644 H   0  0  0  0  0  0
   54.3284   45.1414   -3.9113 H   0  0  0  0  0  0
   52.0206   46.2171   -0.4711 H   0  0  0  0  0  0
   48.3371   41.9989   -6.2304 H   0  0  0  0  0  0
   47.4947   38.9897    0.0166 H   0  0  0  0  0  0
   49.2128   43.7090   -6.0623 H   0  0  0  0  0  0
   50.7212   44.2508   -5.3997 H   0  0  0  0  0  0
   50.6699   42.7864   -6.3733 H   0  0  0  0  0  0
   54.3667   47.7110   -3.7668 H   0  0  0  0  0  0
   54.5960   46.0619    0.1985 H   0  0  0  0  0  0
   56.2174   49.2510   -3.2287 H   0  0  0  0  0  0
   56.4704   47.5914    0.7057 H   0  0  0  0  0  0
   57.2688   49.1721   -0.9921 H   0  0  0  0  0  0
  1  2  2  0  0  0
  1  6  1  0  0  0
  2  3  1  0  0  0
  2  7  1  0  0  0
  3 19  1  0  0  0
  3  5  2  0  0  0
  4  6  1  0  0  0
  4  5  1  0  0  0
  4  8  2  0  0  0
  5 16  1  0  0  0
  6 10  2  0  0  0
  7 11  2  0  0  0
  7 12  1  0  0  0
  8 17  1  0  0  0
  8 26  1  0  0  0
  9 13  1  0  0  0
  9 15  1  0  0  0
  9 14  2  0  0  0
 10 18  1  0  0  0
 10 27  1  0  0  0
 11 14  1  0  0  0
 11 28  1  0  0  0
 12 13  2  0  0  0
 12 29  1  0  0  0
 13 30  1  0  0  0
 14 31  1  0  0  0
 15 21  1  0  0  0
 15 22  2  0  0  0
 16 32  1  0  0  0
 17 18  2  0  0  0
 17 20  1  0  0  0
 18 33  1  0  0  0
 19 34  1  0  0  0
 19 35  1  0  0  0
 19 36  1  0  0  0
 21 23  2  0  0  0
 21 37  1  0  0  0
 22 24  1  0  0  0
 22 38  1  0  0  0
 23 25  1  0  0  0
 23 39  1  0  0  0
 24 25  2  0  0  0
 24 40  1  0  0  0
 25 41  1  0  0  0
M  END
> <s_m_entry_id>
25442

> <s_m_entry_name>
dock_pv.94

> <s_m_Source_Path>
/home/csk/Desktop/cluster/DUD-E-result/pyrd

> <s_m_Source_File>
dock_pv.maegz

> <i_m_Source_File_Index>
94

> <chembl_id>
CHEMBL39191

> <chembl_pref_name>
None

> <i_lp_mmshare_version>
53161

> <r_lp_tautomer_probability>
1

> <s_lp_Force_Field>
OPLS_2005

> <r_lp_Energy>
25.481911

> <b_lp_Chiralities_Consistent>
1

> <s_lp_Variant>
CHEMBL1966_lig730-1

> <s_i_glide_gridfile>
glide-grid_1d3g

> <i_i_glide_lignum>
801

> <i_i_glide_rotatable_bonds>
3

> <r_i_docking_score>
-10.5402650767671

> <r_i_glide_ligand_efficiency>
-0.421610603070684

> <r_i_glide_ligand_efficiency_sa>
-1.23279688067456

> <r_i_glide_ligand_efficiency_ln>
-2.49835868944931

> <r_i_glide_gscore>
-10.5402650767671

> <r_i_glide_lipo>
-6.21891067554139

> <r_i_glide_hbond>
-0.00408263462685227

> <r_i_glide_metal>
0

> <r_i_glide_rewards>
-2.25150352578648

> <r_i_glide_evdw>
-39.9293632507324

> <r_i_glide_ecoul>
-2.77191662788391

> <r_i_glide_erotb>
0.346487415906827

> <r_i_glide_esite>
0

> <r_i_glide_emodel>
-62.9395758923515

> <r_i_glide_energy>
-42.7012798786163

> <r_i_glide_einternal>
3.70602440834045

> <i_i_glide_confnum>
3

> <i_i_glide_posenum>
119

> <r_i_glide_eff_state_penalty>
0

> <s_user_duplicate_titles>
CHEMBL1966_lig730

> <i_f3d_flags>
0

> <s_m_subgroup_title>
dock_pv

> <s_m_subgroupid>
dock_pv

> <b_m_subgroup_collapsed>
1

$$$$
CHEMBL1966_lig598
                    3D
 Schrodinger Suite 2021-1.
 39 42  0  0  1  0            999 V2000
   47.8868   39.3815   -0.6400 C   0  0  0  0  0  0
   47.3547   38.9787   -1.8583 C   0  0  0  0  0  0
   47.7311   39.6151   -3.0364 C   0  0  0  0  0  0
   48.8230   40.4099   -0.5759 C   0  0  0  0  0  0
   49.2230   41.0799   -1.7544 C   0  0  0  0  0  0
   48.6552   40.7039   -3.0140 C   0  0  0  0  0  0
   49.0277   41.4864   -4.1561 C   0  0  0  0  0  0
   49.9369   42.5321   -3.9872 C   0  0  0  0  0  0
   50.4225   42.8375   -2.7184 C   0  0  0  0  0  0
   50.0758   42.1273   -1.6182 N   0  0  0  0  0  0
   51.3552   43.9704   -2.4962 C   0  0  0  0  0  0
   51.2251   44.8300   -1.3947 C   0  0  0  0  0  0
   52.1547   45.8520   -1.1859 C   0  0  0  0  0  0
   53.2426   46.0106   -2.0548 C   0  0  0  0  0  0
   53.3531   45.1637   -3.1571 C   0  0  0  0  0  0
   52.4230   44.1561   -3.3767 C   0  0  0  0  0  0
   48.4792   41.2439   -5.5314 C   0  0  0  0  0  0
   47.1183   41.2056   -5.6275 O   0  0  0  0  0  0
   49.2231   41.1478   -6.4990 O   0  0  0  0  0  0
   54.3101   47.0260   -1.8333 C   0  0  0  0  0  0
   55.0638   47.1058   -0.6455 C   0  0  0  0  0  0
   56.1023   47.9680   -0.4989 N   0  0  0  0  0  0
   56.4242   48.7888   -1.5253 C   0  0  0  0  0  0
   55.7331   48.7826   -2.7318 C   0  0  0  0  0  0
   54.6652   47.8965   -2.8775 C   0  0  0  0  0  0
   54.7524   46.0615    0.7004 Cl  0  0  0  0  0  0
   47.5791   38.8821    0.2648 H   0  0  0  0  0  0
   46.6449   38.1648   -1.8880 H   0  0  0  0  0  0
   47.3063   39.2771   -3.9698 H   0  0  0  0  0  0
   49.2267   40.7126    0.3787 H   0  0  0  0  0  0
   50.2311   43.1396   -4.8325 H   0  0  0  0  0  0
   50.4063   44.7109   -0.6991 H   0  0  0  0  0  0
   52.0451   46.5006   -0.3288 H   0  0  0  0  0  0
   54.1916   45.2626   -3.8294 H   0  0  0  0  0  0
   52.5592   43.4905   -4.2167 H   0  0  0  0  0  0
   46.6806   41.4524   -4.8087 H   0  0  0  0  0  0
   57.2648   49.4488   -1.3673 H   0  0  0  0  0  0
   56.0229   49.4423   -3.5364 H   0  0  0  0  0  0
   54.1247   47.8706   -3.8136 H   0  0  0  0  0  0
  1  2  2  0  0  0
  1  4  1  0  0  0
  1 27  1  0  0  0
  2  3  1  0  0  0
  2 28  1  0  0  0
  3  6  2  0  0  0
  3 29  1  0  0  0
  4  5  2  0  0  0
  4 30  1  0  0  0
  5  6  1  0  0  0
  5 10  1  0  0  0
  6  7  1  0  0  0
  7  8  2  0  0  0
  7 17  1  0  0  0
  8  9  1  0  0  0
  8 31  1  0  0  0
  9 10  2  0  0  0
  9 11  1  0  0  0
 11 12  2  0  0  0
 11 16  1  0  0  0
 12 13  1  0  0  0
 12 32  1  0  0  0
 13 14  2  0  0  0
 13 33  1  0  0  0
 14 15  1  0  0  0
 14 20  1  0  0  0
 15 16  2  0  0  0
 15 34  1  0  0  0
 16 35  1  0  0  0
 17 18  1  0  0  0
 17 19  2  0  0  0
 18 36  1  0  0  0
 20 21  2  0  0  0
 20 25  1  0  0  0
 21 22  1  0  0  0
 21 26  1  0  0  0
 22 23  2  0  0  0
 23 24  1  0  0  0
 23 37  1  0  0  0
 24 25  2  0  0  0
 24 38  1  0  0  0
 25 39  1  0  0  0
M  END
> <s_m_entry_id>
25443

> <s_m_entry_name>
dock_pv.95

> <s_m_Source_Path>
/home/csk/Desktop/cluster/DUD-E-result/pyrd

> <s_m_Source_File>
dock_pv.maegz

> <i_m_Source_File_Index>
95

> <chembl_id>
CHEMBL4224965

> <chembl_pref_name>
None

> <i_lp_mmshare_version>
53161

> <r_lp_tautomer_probability>
1

> <s_lp_Force_Field>
OPLS_2005

> <r_lp_Energy>
32.078606

> <b_lp_Chiralities_Consistent>
1

> <s_lp_Variant>
CHEMBL1966_lig598-1

> <s_i_glide_gridfile>
glide-grid_1d3g

> <i_i_glide_lignum>
652

> <i_i_glide_rotatable_bonds>
4

> <r_i_docking_score>
-10.5228266093471

> <r_i_glide_ligand_efficiency>
-0.404724100359504

> <r_i_glide_ligand_efficiency_sa>
-1.19899355480259

> <r_i_glide_ligand_efficiency_ln>
-2.47125130099481

> <r_i_glide_gscore>
-10.5228266093471

> <r_i_glide_lipo>
-6.11290728284033

> <r_i_glide_hbond>
-0.16

> <r_i_glide_metal>
0

> <r_i_glide_rewards>
-1.86382797717709

> <r_i_glide_evdw>
-40.3479423522949

> <r_i_glide_ecoul>
-5.4053168296814

> <r_i_glide_erotb>
0.442103292737285

> <r_i_glide_esite>
0

> <r_i_glide_emodel>
-70.8117621577951

> <r_i_glide_energy>
-45.7532591819763

> <r_i_glide_einternal>
4.59190273284912

> <i_i_glide_confnum>
39

> <i_i_glide_posenum>
112

> <r_i_glide_eff_state_penalty>
0

> <s_user_duplicate_titles>
CHEMBL1966_lig598

> <i_f3d_flags>
0

> <s_m_subgroup_title>
dock_pv

> <s_m_subgroupid>
dock_pv

> <b_m_subgroup_collapsed>
1

$$$$
CHEMBL1966_lig487
                    3D
 Schrodinger Suite 2021-1.
 38 41  0  0  1  0            999 V2000
   46.5682   40.8111   -5.6398 O   0  0  0  0  0  0
   47.8840   40.6937   -5.2989 C   0  0  0  0  0  0
   48.8064   40.8102   -6.0990 O   0  0  0  0  0  0
   48.1349   40.4353   -3.8449 C   0  0  0  0  0  0
   47.3796   39.4766   -3.1543 C   0  0  0  0  0  0
   47.5389   39.2519   -1.7876 C   0  0  0  0  0  0
   46.7862   38.3060   -1.1852 F   0  0  0  0  0  0
   48.4230   40.0100   -1.0185 C   0  0  0  0  0  0
   49.2105   40.9461   -1.7021 C   0  0  0  0  0  0
   50.0713   41.9342   -1.2957 N   0  0  0  0  0  0
   50.4039   42.6705   -2.4083 C   0  0  0  0  0  0
   49.8844   42.1919   -3.5066 N   0  0  0  0  0  0
   49.0798   41.1620   -3.0972 C   0  0  0  0  0  0
   51.2794   43.8637   -2.3659 C   0  0  0  0  0  0
   52.2503   44.0100   -3.3648 C   0  0  0  0  0  0
   53.2022   45.0297   -3.2790 C   0  0  0  0  0  0
   53.2199   45.9051   -2.1860 C   0  0  0  0  0  0
   52.2086   45.7870   -1.2210 C   0  0  0  0  0  0
   51.2456   44.7789   -1.3036 C   0  0  0  0  0  0
   50.3306   44.6543   -0.3162 F   0  0  0  0  0  0
   54.3261   46.8889   -2.0318 C   0  0  0  0  0  0
   54.7991   47.6179   -3.1311 C   0  0  0  0  0  0
   55.8778   48.4878   -2.9923 C   0  0  0  0  0  0
   56.4944   48.6298   -1.7524 C   0  0  0  0  0  0
   56.0370   47.9118   -0.6520 C   0  0  0  0  0  0
   54.9502   47.0541   -0.7886 C   0  0  0  0  0  0
   46.0013   40.8717   -4.8671 H   0  0  0  0  0  0
   46.6479   38.8775   -3.6771 H   0  0  0  0  0  0
   48.4929   39.8571    0.0484 H   0  0  0  0  0  0
   50.3770   42.1726   -0.3646 H   0  0  0  0  0  0
   52.3000   43.3097   -4.1870 H   0  0  0  0  0  0
   53.9654   45.1164   -4.0349 H   0  0  0  0  0  0
   52.1878   46.4561   -0.3733 H   0  0  0  0  0  0
   54.3312   47.5108   -4.0995 H   0  0  0  0  0  0
   56.2376   49.0469   -3.8437 H   0  0  0  0  0  0
   57.3390   49.2950   -1.6424 H   0  0  0  0  0  0
   56.5345   48.0098    0.3007 H   0  0  0  0  0  0
   54.6180   46.4899    0.0710 H   0  0  0  0  0  0
  1  2  1  0  0  0
  1 27  1  0  0  0
  2  3  2  0  0  0
  2  4  1  0  0  0
  4  5  2  0  0  0
  4 13  1  0  0  0
  5  6  1  0  0  0
  5 28  1  0  0  0
  6  7  1  0  0  0
  6  8  2  0  0  0
  8  9  1  0  0  0
  8 29  1  0  0  0
  9 10  1  0  0  0
  9 13  2  0  0  0
 10 11  1  0  0  0
 10 30  1  0  0  0
 11 12  2  0  0  0
 11 14  1  0  0  0
 12 13  1  0  0  0
 14 15  2  0  0  0
 14 19  1  0  0  0
 15 16  1  0  0  0
 15 31  1  0  0  0
 16 17  2  0  0  0
 16 32  1  0  0  0
 17 18  1  0  0  0
 17 21  1  0  0  0
 18 19  2  0  0  0
 18 33  1  0  0  0
 19 20  1  0  0  0
 21 22  2  0  0  0
 21 26  1  0  0  0
 22 23  1  0  0  0
 22 34  1  0  0  0
 23 24  2  0  0  0
 23 35  1  0  0  0
 24 25  1  0  0  0
 24 36  1  0  0  0
 25 26  2  0  0  0
 25 37  1  0  0  0
 26 38  1  0  0  0
M  END
> <s_m_entry_id>
25444

> <s_m_entry_name>
dock_pv.96

> <s_m_Source_Path>
/home/csk/Desktop/cluster/DUD-E-result/pyrd

> <s_m_Source_File>
dock_pv.maegz

> <i_m_Source_File_Index>
96

> <chembl_id>
CHEMBL3677744

> <chembl_pref_name>
None

> <i_lp_mmshare_version>
53161

> <r_lp_tautomer_probability>
1

> <s_lp_Force_Field>
OPLS_2005

> <r_lp_Energy>
23.888905

> <b_lp_Chiralities_Consistent>
1

> <s_lp_Variant>
CHEMBL1966_lig487-1

> <s_i_glide_gridfile>
glide-grid_1d3g

> <i_i_glide_lignum>
537

> <i_i_glide_rotatable_bonds>
4

> <r_i_docking_score>
-10.4909316952738

> <r_i_glide_ligand_efficiency>
-0.403497372895147

> <r_i_glide_ligand_efficiency_sa>
-1.19535937951638

> <r_i_glide_ligand_efficiency_ln>
-2.46376088508046

> <r_i_glide_gscore>
-10.4909316952738

> <r_i_glide_lipo>
-5.03969859347018

> <r_i_glide_hbond>
-0.16

> <r_i_glide_metal>
0

> <r_i_glide_rewards>
-3.12393982806655

> <r_i_glide_evdw>
-40.9608955383301

> <r_i_glide_ecoul>
-3.90107750892639

> <r_i_glide_erotb>
0.465913129518357

> <r_i_glide_esite>
0

> <r_i_glide_emodel>
-65.509145969715

> <r_i_glide_energy>
-44.8619730472565

> <r_i_glide_einternal>
5.8014965057373

> <i_i_glide_confnum>
10

> <i_i_glide_posenum>
139

> <r_i_glide_eff_state_penalty>
0

> <s_user_duplicate_titles>
CHEMBL1966_lig487

> <i_f3d_flags>
0

> <s_m_subgroup_title>
dock_pv

> <s_m_subgroupid>
dock_pv

> <b_m_subgroup_collapsed>
1

$$$$
CHEMBL1966_lig767
                    3D
 Schrodinger Suite 2021-1.
 44 47  0  0  1  0            999 V2000
   50.0949   42.0815   -1.7037 N   0  0  0  0  0  0
   48.9788   41.4450   -4.2015 C   0  0  0  0  0  0
   50.3874   42.8260   -2.7967 C   0  0  0  0  0  0
   49.8552   42.5444   -4.0678 C   0  0  0  0  0  0
   48.6186   40.6782   -3.0402 C   0  0  0  0  0  0
   49.2230   41.0535   -1.8034 C   0  0  0  0  0  0
   48.4500   41.0816   -5.5586 C   0  0  0  0  0  0
   51.3031   43.9621   -2.4936 C   0  0  0  0  0  0
   47.6651   39.6100   -3.0165 C   0  0  0  0  0  0
   49.2229   40.8100   -6.4725 O   0  0  0  0  0  0
   48.8429   40.4100   -0.6025 C   0  0  0  0  0  0
   54.0734   46.8790   -1.3332 O   0  0  0  0  0  0
   52.4230   44.2026   -3.2990 C   0  0  0  0  0  0
   51.1003   44.7657   -1.3583 C   0  0  0  0  0  0
   47.3024   39.0040   -1.8156 C   0  0  0  0  0  0
   53.1561   45.9561   -1.7942 C   0  0  0  0  0  0
   47.0942   41.1421   -5.6989 O   0  0  0  0  0  0
   50.1547   43.4485   -5.2754 C   0  0  0  0  0  0
   47.8825   39.4063   -0.6215 C   0  0  0  0  0  0
   52.0230   45.7476   -1.0107 C   0  0  0  0  0  0
   53.3203   45.2100   -2.9702 C   0  0  0  0  0  0
   55.1974   47.1911   -2.0601 C   0  0  0  0  0  0
   46.3669   38.0300   -1.8004 F   0  0  0  0  0  0
   55.3355   48.5005   -2.4991 C   0  0  0  0  0  0
   56.1767   46.2416   -2.3667 C   0  0  0  0  0  0
   57.2462   46.5960   -3.1809 C   0  0  0  0  0  0
   56.4230   48.8692   -3.2860 C   0  0  0  0  0  0
   57.3693   47.9084   -3.6340 C   0  0  0  0  0  0
   47.1897   39.2753   -3.9248 H   0  0  0  0  0  0
   49.2912   40.7141    0.3323 H   0  0  0  0  0  0
   52.6213   43.5852   -4.1624 H   0  0  0  0  0  0
   50.2401   44.6076   -0.7235 H   0  0  0  0  0  0
   46.6595   41.4884   -4.9150 H   0  0  0  0  0  0
   49.2350   43.6823   -5.8131 H   0  0  0  0  0  0
   50.5814   44.4100   -5.0134 H   0  0  0  0  0  0
   50.8230   42.9519   -5.9779 H   0  0  0  0  0  0
   47.5876   38.9307    0.3009 H   0  0  0  0  0  0
   51.8750   46.3300   -0.1131 H   0  0  0  0  0  0
   54.1617   45.3601   -3.6269 H   0  0  0  0  0  0
   54.5725   49.2100   -2.2310 H   0  0  0  0  0  0
   56.0843   45.2256   -2.0148 H   0  0  0  0  0  0
   57.9936   45.8608   -3.4430 H   0  0  0  0  0  0
   56.5236   49.8880   -3.6322 H   0  0  0  0  0  0
   58.2113   48.1835   -4.2523 H   0  0  0  0  0  0
  1  3  2  0  0  0
  1  6  1  0  0  0
  2  5  1  0  0  0
  2  7  1  0  0  0
  2  4  2  0  0  0
  3  4  1  0  0  0
  3  8  1  0  0  0
  4 18  1  0  0  0
  5  6  1  0  0  0
  5  9  2  0  0  0
  6 11  2  0  0  0
  7 10  2  0  0  0
  7 17  1  0  0  0
  8 13  1  0  0  0
  8 14  2  0  0  0
  9 15  1  0  0  0
  9 29  1  0  0  0
 11 19  1  0  0  0
 11 30  1  0  0  0
 12 16  1  0  0  0
 12 22  1  0  0  0
 13 21  2  0  0  0
 13 31  1  0  0  0
 14 20  1  0  0  0
 14 32  1  0  0  0
 15 19  2  0  0  0
 15 23  1  0  0  0
 16 20  2  0  0  0
 16 21  1  0  0  0
 17 33  1  0  0  0
 18 34  1  0  0  0
 18 35  1  0  0  0
 18 36  1  0  0  0
 19 37  1  0  0  0
 20 38  1  0  0  0
 21 39  1  0  0  0
 22 24  2  0  0  0
 22 25  1  0  0  0
 24 27  1  0  0  0
 24 40  1  0  0  0
 25 26  2  0  0  0
 25 41  1  0  0  0
 26 28  1  0  0  0
 26 42  1  0  0  0
 27 28  2  0  0  0
 27 43  1  0  0  0
 28 44  1  0  0  0
M  END
> <s_m_entry_id>
25445

> <s_m_entry_name>
dock_pv.97

> <s_m_Source_Path>
/home/csk/Desktop/cluster/DUD-E-result/pyrd

> <s_m_Source_File>
dock_pv.maegz

> <i_m_Source_File_Index>
97

> <chembl_id>
CHEMBL38614

> <chembl_pref_name>
None

> <i_lp_mmshare_version>
53161

> <r_lp_tautomer_probability>
1

> <s_lp_Force_Field>
OPLS_2005

> <r_lp_Energy>
32.362389

> <b_lp_Chiralities_Consistent>
1

> <s_lp_Variant>
CHEMBL1966_lig767-1

> <s_i_glide_gridfile>
glide-grid_1d3g

> <i_i_glide_lignum>
838

> <i_i_glide_rotatable_bonds>
5

> <r_i_docking_score>
-10.4900550231979

> <r_i_glide_ligand_efficiency>
-0.374644822257069

> <r_i_glide_ligand_efficiency_sa>
-1.13764233437251

> <r_i_glide_ligand_efficiency_ln>
-2.42141270075306

> <r_i_glide_gscore>
-10.4900550231979

> <r_i_glide_lipo>
-6.00456161864568

> <r_i_glide_hbond>
-0.16

> <r_i_glide_metal>
0

> <r_i_glide_rewards>
-1.9284811962669

> <r_i_glide_evdw>
-37.7094917297363

> <r_i_glide_ecoul>
-7.10667037963867

> <r_i_glide_erotb>
0.554462935147278

> <r_i_glide_esite>
0

> <r_i_glide_emodel>
-69.5551490833746

> <r_i_glide_energy>
-44.816162109375

> <r_i_glide_einternal>
3.51179885864258

> <i_i_glide_confnum>
53

> <i_i_glide_posenum>
211

> <r_i_glide_eff_state_penalty>
0

> <s_user_duplicate_titles>
CHEMBL1966_lig767,56641

> <i_f3d_flags>
0

> <s_m_subgroup_title>
dock_pv

> <s_m_subgroupid>
dock_pv

> <b_m_subgroup_collapsed>
1

$$$$
CHEMBL1966_lig476
                    3D
 Schrodinger Suite 2021-1.
 38 41  0  0  1  0            999 V2000
   47.1052   38.6864   -0.4990 O   0  0  0  0  0  0
   48.0230   39.6100   -0.8911 C   0  0  0  0  0  0
   48.8230   40.0892   -0.0990 O   0  0  0  0  0  0
   48.0230   40.0100   -2.3450 C   0  0  0  0  0  0
   47.0156   39.5600   -3.2098 C   0  0  0  0  0  0
   46.9150   40.0100   -4.5248 C   0  0  0  0  0  0
   47.8421   40.8846   -5.0930 C   0  0  0  0  0  0
   48.8230   41.3775   -4.2351 C   0  0  0  0  0  0
   49.7690   42.3665   -4.3619 N   0  0  0  0  0  0
   50.3279   42.5481   -3.1200 C   0  0  0  0  0  0
   49.8971   41.6852   -2.2412 N   0  0  0  0  0  0
   48.9232   40.9612   -2.8814 C   0  0  0  0  0  0
   51.2563   43.6523   -2.7860 C   0  0  0  0  0  0
   52.3251   43.9392   -3.6340 C   0  0  0  0  0  0
   53.2230   44.9488   -3.2990 C   0  0  0  0  0  0
   53.0678   45.6986   -2.1288 C   0  0  0  0  0  0
   51.9696   45.4357   -1.2990 C   0  0  0  0  0  0
   51.0768   44.4100   -1.6205 C   0  0  0  0  0  0
   54.1059   46.7133   -1.7889 C   0  0  0  0  0  0
   54.5926   47.5768   -2.7835 C   0  0  0  0  0  0
   55.6620   48.4353   -2.5310 C   0  0  0  0  0  0
   56.2672   48.4413   -1.2770 C   0  0  0  0  0  0
   55.7780   47.6100   -0.2722 C   0  0  0  0  0  0
   54.6907   46.7747   -0.5128 C   0  0  0  0  0  0
   54.2364   46.0100    0.5041 F   0  0  0  0  0  0
   47.2230   38.5448    0.4496 H   0  0  0  0  0  0
   46.2613   38.8718   -2.8535 H   0  0  0  0  0  0
   46.0899   39.6534   -5.1251 H   0  0  0  0  0  0
   47.7337   41.2552   -6.0990 H   0  0  0  0  0  0
   49.9608   42.9663   -5.1506 H   0  0  0  0  0  0
   52.4851   43.3502   -4.5238 H   0  0  0  0  0  0
   54.0696   45.1419   -3.9394 H   0  0  0  0  0  0
   51.8202   46.0037   -0.3921 H   0  0  0  0  0  0
   50.2463   44.2033   -0.9604 H   0  0  0  0  0  0
   54.1554   47.5668   -3.7722 H   0  0  0  0  0  0
   56.0322   49.0833   -3.3124 H   0  0  0  0  0  0
   57.1093   49.0897   -1.0796 H   0  0  0  0  0  0
   56.2426   47.6100    0.7010 H   0  0  0  0  0  0
  1  2  1  0  0  0
  1 26  1  0  0  0
  2  3  2  0  0  0
  2  4  1  0  0  0
  4  5  2  0  0  0
  4 12  1  0  0  0
  5  6  1  0  0  0
  5 27  1  0  0  0
  6  7  2  0  0  0
  6 28  1  0  0  0
  7  8  1  0  0  0
  7 29  1  0  0  0
  8  9  1  0  0  0
  8 12  2  0  0  0
  9 10  1  0  0  0
  9 30  1  0  0  0
 10 11  2  0  0  0
 10 13  1  0  0  0
 11 12  1  0  0  0
 13 14  2  0  0  0
 13 18  1  0  0  0
 14 15  1  0  0  0
 14 31  1  0  0  0
 15 16  2  0  0  0
 15 32  1  0  0  0
 16 17  1  0  0  0
 16 19  1  0  0  0
 17 18  2  0  0  0
 17 33  1  0  0  0
 18 34  1  0  0  0
 19 20  2  0  0  0
 19 24  1  0  0  0
 20 21  1  0  0  0
 20 35  1  0  0  0
 21 22  2  0  0  0
 21 36  1  0  0  0
 22 23  1  0  0  0
 22 37  1  0  0  0
 23 24  2  0  0  0
 23 38  1  0  0  0
 24 25  1  0  0  0
M  END
> <s_m_entry_id>
25446

> <s_m_entry_name>
dock_pv.98

> <s_m_Source_Path>
/home/csk/Desktop/cluster/DUD-E-result/pyrd

> <s_m_Source_File>
dock_pv.maegz

> <i_m_Source_File_Index>
98

> <chembl_id>
CHEMBL3677733

> <chembl_pref_name>
None

> <i_lp_mmshare_version>
53161

> <r_lp_tautomer_probability>
1

> <s_lp_Force_Field>
OPLS_2005

> <r_lp_Energy>
25.358272

> <b_lp_Chiralities_Consistent>
1

> <s_lp_Variant>
CHEMBL1966_lig476-1

> <s_i_glide_gridfile>
glide-grid_1d3g

> <i_i_glide_lignum>
526

> <i_i_glide_rotatable_bonds>
4

> <r_i_docking_score>
-10.4819070440189

> <r_i_glide_ligand_efficiency>
-0.419276281760754

> <r_i_glide_ligand_efficiency_sa>
-1.22597128376497

> <r_i_glide_ligand_efficiency_ln>
-2.48452608683886

> <r_i_glide_gscore>
-10.4819070440189

> <r_i_glide_lipo>
-5.04043017449933

> <r_i_glide_hbond>
0

> <r_i_glide_metal>
0

> <r_i_glide_rewards>
-3.17988144560863

> <r_i_glide_evdw>
-41.6318206787109

> <r_i_glide_ecoul>
-4.61051464080811

> <r_i_glide_erotb>
0.511572806145865

> <r_i_glide_esite>
0

> <r_i_glide_emodel>
-67.4371239331097

> <r_i_glide_energy>
-46.242335319519

> <r_i_glide_einternal>
3.1769597530365

> <i_i_glide_confnum>
14

> <i_i_glide_posenum>
118

> <r_i_glide_eff_state_penalty>
0

> <s_user_duplicate_titles>
CHEMBL1966_lig476

> <i_f3d_flags>
0

> <s_m_subgroup_title>
dock_pv

> <s_m_subgroupid>
dock_pv

> <b_m_subgroup_collapsed>
1

$$$$
CHEMBL1966_lig509
                    3D
 Schrodinger Suite 2021-1.
 45 48  0  0  1  0            999 V2000
   47.2626   38.5290   -0.9559 C   0  0  0  0  0  0
   48.0042   39.6099   -1.7225 C   0  0  0  0  0  0
   47.7620   39.7977   -3.0851 C   0  0  0  0  0  0
   48.4234   40.7783   -3.8388 C   0  0  0  0  0  0
   48.1584   40.9502   -5.3013 C   0  0  0  0  0  0
   49.0541   41.2101   -6.0989 O   0  0  0  0  0  0
   46.8511   40.8100   -5.6626 O   0  0  0  0  0  0
   49.3319   41.5866   -3.1409 C   0  0  0  0  0  0
   50.1062   42.6761   -3.4784 N   0  0  0  0  0  0
   50.7048   43.1307   -2.3246 C   0  0  0  0  0  0
   50.4232   42.3850   -1.2848 N   0  0  0  0  0  0
   49.5853   41.4179   -1.7571 C   0  0  0  0  0  0
   48.9202   40.4100   -1.0422 C   0  0  0  0  0  0
   51.6175   44.3063   -2.2446 C   0  0  0  0  0  0
   52.6816   44.4101   -3.1494 C   0  0  0  0  0  0
   52.8226   43.4971   -4.1361 F   0  0  0  0  0  0
   53.6876   45.3486   -2.9328 C   0  0  0  0  0  0
   54.8018   45.3104   -3.6989 F   0  0  0  0  0  0
   53.5938   46.2540   -1.8709 C   0  0  0  0  0  0
   52.5003   46.1880   -0.9961 C   0  0  0  0  0  0
   52.4081   47.0220    0.0667 F   0  0  0  0  0  0
   51.5180   45.2158   -1.1838 C   0  0  0  0  0  0
   50.4946   45.1287   -0.3025 F   0  0  0  0  0  0
   54.6498   47.1652   -1.6581 N   0  0  0  0  0  0
   55.0899   48.1310   -2.5579 C   0  0  0  0  0  0
   54.4068   48.4095   -3.8764 C   0  0  0  0  0  0
   56.1914   48.7532   -2.0052 C   0  0  0  0  0  0
   56.4285   48.1617   -0.7761 C   0  0  0  0  0  0
   55.4736   47.1959   -0.5432 C   0  0  0  0  0  0
   55.3094   46.2938    0.6624 C   0  0  0  0  0  0
   46.7466   38.9650   -0.0989 H   0  0  0  0  0  0
   46.5228   38.0138   -1.5698 H   0  0  0  0  0  0
   47.9667   37.7918   -0.5689 H   0  0  0  0  0  0
   47.0409   39.1562   -3.5668 H   0  0  0  0  0  0
   46.2749   40.7694   -4.8964 H   0  0  0  0  0  0
   50.2108   43.1198   -4.3800 H   0  0  0  0  0  0
   49.0958   40.2792    0.0150 H   0  0  0  0  0  0
   54.9554   49.1315   -4.4837 H   0  0  0  0  0  0
   54.2886   47.5279   -4.5025 H   0  0  0  0  0  0
   53.4118   48.8110   -3.6990 H   0  0  0  0  0  0
   56.7656   49.5523   -2.4521 H   0  0  0  0  0  0
   57.2230   48.4100   -0.0991 H   0  0  0  0  0  0
   56.2770   46.0508    1.1011 H   0  0  0  0  0  0
   54.7177   46.7807    1.4389 H   0  0  0  0  0  0
   54.8238   45.3466    0.4305 H   0  0  0  0  0  0
  1  2  1  0  0  0
  1 31  1  0  0  0
  1 32  1  0  0  0
  1 33  1  0  0  0
  2  3  2  0  0  0
  2 13  1  0  0  0
  3  4  1  0  0  0
  3 34  1  0  0  0
  4  5  1  0  0  0
  4  8  2  0  0  0
  5  6  2  0  0  0
  5  7  1  0  0  0
  7 35  1  0  0  0
  8  9  1  0  0  0
  8 12  1  0  0  0
  9 10  1  0  0  0
  9 36  1  0  0  0
 10 11  2  0  0  0
 10 14  1  0  0  0
 11 12  1  0  0  0
 12 13  2  0  0  0
 13 37  1  0  0  0
 14 15  2  0  0  0
 14 22  1  0  0  0
 15 16  1  0  0  0
 15 17  1  0  0  0
 17 18  1  0  0  0
 17 19  2  0  0  0
 19 20  1  0  0  0
 19 24  1  0  0  0
 20 21  1  0  0  0
 20 22  2  0  0  0
 22 23  1  0  0  0
 24 25  1  0  0  0
 24 29  1  0  0  0
 25 26  1  0  0  0
 25 27  2  0  0  0
 26 38  1  0  0  0
 26 39  1  0  0  0
 26 40  1  0  0  0
 27 28  1  0  0  0
 27 41  1  0  0  0
 28 29  2  0  0  0
 28 42  1  0  0  0
 29 30  1  0  0  0
 30 43  1  0  0  0
 30 44  1  0  0  0
 30 45  1  0  0  0
M  END
> <s_m_entry_id>
25447

> <s_m_entry_name>
dock_pv.99

> <s_m_Source_Path>
/home/csk/Desktop/cluster/DUD-E-result/pyrd

> <s_m_Source_File>
dock_pv.maegz

> <i_m_Source_File_Index>
99

> <chembl_id>
CHEMBL3677767

> <chembl_pref_name>
None

> <i_lp_mmshare_version>
53161

> <r_lp_tautomer_probability>
1

> <s_lp_Force_Field>
OPLS_2005

> <r_lp_Energy>
19.718095

> <b_lp_Chiralities_Consistent>
1

> <s_lp_Variant>
CHEMBL1966_lig509-1

> <s_i_glide_gridfile>
glide-grid_1d3g

> <i_i_glide_lignum>
559

> <i_i_glide_rotatable_bonds>
4

> <r_i_docking_score>
-10.4735538366241

> <r_i_glide_ligand_efficiency>
-0.349118461220805

> <r_i_glide_ligand_efficiency_sa>
-1.08479222990401

> <r_i_glide_ligand_efficiency_ln>
-2.37970555019023

> <r_i_glide_gscore>
-10.4735538366241

> <r_i_glide_lipo>
-5.24855794311139

> <r_i_glide_hbond>
-0.136727323206278

> <r_i_glide_metal>
0

> <r_i_glide_rewards>
-2.6579569126123

> <r_i_glide_evdw>
-41.6680526733398

> <r_i_glide_ecoul>
-4.51407384872437

> <r_i_glide_erotb>
0.340400822642414

> <r_i_glide_esite>
-0.0101987693609328

> <r_i_glide_emodel>
-59.9647387332771

> <r_i_glide_energy>
-46.1821265220642

> <r_i_glide_einternal>
3.24611520767212

> <i_i_glide_confnum>
7

> <i_i_glide_posenum>
33

> <r_i_glide_eff_state_penalty>
0

> <s_user_duplicate_titles>
CHEMBL1966_lig509

> <i_f3d_flags>
0

> <s_m_subgroup_title>
dock_pv

> <s_m_subgroupid>
dock_pv

> <b_m_subgroup_collapsed>
1

$$$$
CHEMBL1966_lig529
                    3D
 Schrodinger Suite 2021-1.
 43 47  0  0  1  0            999 V2000
   45.6230   40.7681   -6.0374 C   0  0  0  0  0  0
   46.9332   40.8125   -5.3206 C   0  0  0  0  0  0
   47.0623   40.0101   -4.2086 C   0  0  0  0  0  0
   48.0853   40.2234   -3.2944 C   0  0  0  0  0  0
   48.0027   39.4862   -2.0414 C   0  0  0  0  0  0
   48.3612   40.0100   -0.8972 N   0  0  0  0  0  0
   48.0229   39.0113   -0.0990 N   0  0  3  0  0  0
   47.4884   37.9408   -0.6709 N   0  0  0  0  0  0
   47.4680   38.2795   -1.9870 N   0  0  0  0  0  0
   49.0044   41.2558   -3.5333 C   0  0  0  0  0  0
   49.9702   41.7799   -2.7121 N   0  0  0  0  0  0
   50.3928   42.8389   -3.3443 C   0  0  0  0  0  0
   49.8510   42.9706   -4.6023 N   0  0  0  0  0  0
   48.8959   41.9976   -4.7324 C   0  0  0  0  0  0
   47.8950   41.7547   -5.6707 C   0  0  0  0  0  0
   51.3405   43.8272   -2.7869 C   0  0  0  0  0  0
   52.5327   44.0101   -3.4775 C   0  0  0  0  0  0
   52.8229   43.2100   -4.5242 F   0  0  0  0  0  0
   53.4520   44.9705   -3.0613 C   0  0  0  0  0  0
   54.6406   45.0771   -3.6990 F   0  0  0  0  0  0
   53.1876   45.7807   -1.9542 C   0  0  0  0  0  0
   51.9922   45.5887   -1.2431 C   0  0  0  0  0  0
   51.7197   46.3453   -0.1532 F   0  0  0  0  0  0
   51.0800   44.6010   -1.6458 C   0  0  0  0  0  0
   49.9366   44.4184   -0.9435 F   0  0  0  0  0  0
   54.2229   46.7557   -1.5375 C   0  0  0  0  0  0
   54.6020   47.7915   -2.4008 C   0  0  0  0  0  0
   55.6786   48.6139   -2.0808 C   0  0  0  0  0  0
   56.3792   48.3950   -0.8989 C   0  0  0  0  0  0
   56.0008   47.3741   -0.0300 C   0  0  0  0  0  0
   54.9129   46.5668   -0.3384 C   0  0  0  0  0  0
   45.5027   41.6100   -6.7203 H   0  0  0  0  0  0
   45.4947   39.7920   -6.4991 H   0  0  0  0  0  0
   44.8228   40.8696   -5.3001 H   0  0  0  0  0  0
   46.2751   39.3015   -3.9892 H   0  0  0  0  0  0
   48.0897   39.0681    0.9152 H   0  0  0  0  0  0
   50.0562   43.7408   -5.2216 H   0  0  0  0  0  0
   47.7310   42.4100   -6.4990 H   0  0  0  0  0  0
   54.0826   47.9372   -3.3374 H   0  0  0  0  0  0
   55.9827   49.4040   -2.7520 H   0  0  0  0  0  0
   57.2230   49.0223   -0.6503 H   0  0  0  0  0  0
   56.5514   47.2099    0.8854 H   0  0  0  0  0  0
   54.6399   45.7631    0.3306 H   0  0  0  0  0  0
  1  2  1  0  0  0
  1 32  1  0  0  0
  1 33  1  0  0  0
  1 34  1  0  0  0
  2  3  2  0  0  0
  2 15  1  0  0  0
  3  4  1  0  0  0
  3 35  1  0  0  0
  4 10  2  0  0  0
  4  5  1  0  0  0
  5  6  2  0  0  0
  5  9  1  0  0  0
  6  7  1  0  0  0
  7 36  1  0  0  0
  7  8  1  0  0  0
  8  9  2  0  0  0
 10 11  1  0  0  0
 10 14  1  0  0  0
 11 12  2  0  0  0
 12 13  1  0  0  0
 12 16  1  0  0  0
 13 14  1  0  0  0
 13 37  1  0  0  0
 14 15  2  0  0  0
 15 38  1  0  0  0
 16 17  2  0  0  0
 16 24  1  0  0  0
 17 18  1  0  0  0
 17 19  1  0  0  0
 19 20  1  0  0  0
 19 21  2  0  0  0
 21 22  1  0  0  0
 21 26  1  0  0  0
 22 23  1  0  0  0
 22 24  2  0  0  0
 24 25  1  0  0  0
 26 27  2  0  0  0
 26 31  1  0  0  0
 27 28  1  0  0  0
 27 39  1  0  0  0
 28 29  2  0  0  0
 28 40  1  0  0  0
 29 30  1  0  0  0
 29 41  1  0  0  0
 30 31  2  0  0  0
 30 42  1  0  0  0
 31 43  1  0  0  0
M  END
> <s_m_entry_id>
25448

> <s_m_entry_name>
dock_pv.100

> <s_m_Source_Path>
/home/csk/Desktop/cluster/DUD-E-result/pyrd

> <s_m_Source_File>
dock_pv.maegz

> <i_m_Source_File_Index>
100

> <chembl_id>
CHEMBL3677788

> <chembl_pref_name>
None

> <i_lp_mmshare_version>
53161

> <r_lp_tautomer_probability>
0.2

> <s_lp_Force_Field>
OPLS_2005

> <r_lp_Energy>
32.129233

> <b_lp_Chiralities_Consistent>
1

> <s_lp_Variant>
CHEMBL1966_lig529-2

> <s_i_glide_gridfile>
glide-grid_1d3g

> <i_i_glide_lignum>
583

> <i_i_glide_rotatable_bonds>
3

> <r_i_docking_score>
-10.4496115280013

> <r_i_glide_ligand_efficiency>
-0.337084242838752

> <r_i_glide_ligand_efficiency_sa>
-1.05890991746756

> <r_i_glide_ligand_efficiency_ln>
-2.35670764169801

> <r_i_glide_gscore>
-10.4496115280013

> <r_i_glide_lipo>
-4.56060903597932

> <r_i_glide_hbond>
-0.275143683829657

> <r_i_glide_metal>
0

> <r_i_glide_rewards>
-3.10495011551998

> <r_i_glide_evdw>
-35.3163833618164

> <r_i_glide_ecoul>
-7.05631494522095

> <r_i_glide_erotb>
0.330319976264724

> <r_i_glide_esite>
-0.0149622590631286

> <r_i_glide_emodel>
-44.8177056326692

> <r_i_glide_energy>
-42.3726983070374

> <r_i_glide_einternal>
2.74849057197571

> <i_i_glide_confnum>
13

> <i_i_glide_posenum>
80

> <r_i_glide_eff_state_penalty>
0

> <s_user_duplicate_titles>
CHEMBL1966_lig529,CHEMBL1966_lig529

> <i_f3d_flags>
0

> <s_m_subgroup_title>
dock_pv

> <s_m_subgroupid>
dock_pv

> <b_m_subgroup_collapsed>
1

$$$$
CHEMBL1966_lig618
                    3D
 Schrodinger Suite 2021-1.
 41 44  0  0  1  0            999 V2000
   48.9616   41.4504   -4.1168 C   0  0  0  0  0  0
   49.8431   42.5481   -4.0002 C   0  0  0  0  0  0
   50.3843   42.8497   -2.7343 C   0  0  0  0  0  0
   50.0849   42.1349   -1.6234 N   0  0  0  0  0  0
   48.4231   41.0626   -5.4639 C   0  0  0  0  0  0
   47.0631   41.0662   -5.5852 O   0  0  0  0  0  0
   49.1871   40.8102   -6.3890 O   0  0  0  0  0  0
   50.1467   43.4282   -5.2228 C   0  0  0  0  0  0
   51.3483   43.9597   -2.4935 C   0  0  0  0  0  0
   51.1902   44.8673   -1.4324 C   0  0  0  0  0  0
   52.1286   45.8807   -1.2194 C   0  0  0  0  0  0
   53.2571   45.9847   -2.0429 C   0  0  0  0  0  0
   53.4186   45.0716   -3.0811 C   0  0  0  0  0  0
   52.4825   44.0696   -3.2997 C   0  0  0  0  0  0
   48.6203   40.6959   -2.9476 C   0  0  0  0  0  0
   49.2235   41.0935   -1.7178 C   0  0  0  0  0  0
   48.8405   40.4099   -0.5420 C   0  0  0  0  0  0
   47.9499   39.3946   -0.5052 N   0  0  0  0  0  0
   47.3992   39.0068   -1.6777 C   0  0  0  0  0  0
   47.6907   39.6095   -2.9028 C   0  0  0  0  0  0
   54.3190   47.0047   -1.8343 C   0  0  0  0  0  0
   55.0640   47.1040   -0.6428 C   0  0  0  0  0  0
   56.0966   47.9747   -0.4985 N   0  0  0  0  0  0
   56.4219   48.7828   -1.5335 C   0  0  0  0  0  0
   55.7366   48.7564   -2.7448 C   0  0  0  0  0  0
   54.6768   47.8603   -2.8883 C   0  0  0  0  0  0
   54.7457   46.0631    0.7006 Cl  0  0  0  0  0  0
   46.6192   41.4132   -4.8092 H   0  0  0  0  0  0
   49.2263   43.6542   -5.7656 H   0  0  0  0  0  0
   50.5770   44.3916   -4.9713 H   0  0  0  0  0  0
   50.8216   42.9201   -5.9123 H   0  0  0  0  0  0
   50.3289   44.7951   -0.7840 H   0  0  0  0  0  0
   51.9858   46.5723   -0.4020 H   0  0  0  0  0  0
   54.3009   45.1160   -3.6990 H   0  0  0  0  0  0
   52.6604   43.3555   -4.0896 H   0  0  0  0  0  0
   49.2699   40.6991    0.4062 H   0  0  0  0  0  0
   46.6996   38.1857   -1.6218 H   0  0  0  0  0  0
   47.2140   39.2447   -3.7996 H   0  0  0  0  0  0
   57.2542   49.4552   -1.3764 H   0  0  0  0  0  0
   56.0231   49.4116   -3.5550 H   0  0  0  0  0  0
   54.1437   47.8170   -3.8276 H   0  0  0  0  0  0
  1 15  1  0  0  0
  1  2  2  0  0  0
  1  5  1  0  0  0
  2  3  1  0  0  0
  2  8  1  0  0  0
  3  4  2  0  0  0
  3  9  1  0  0  0
  4 16  1  0  0  0
  5  6  1  0  0  0
  5  7  2  0  0  0
  6 28  1  0  0  0
  8 29  1  0  0  0
  8 30  1  0  0  0
  8 31  1  0  0  0
  9 10  2  0  0  0
  9 14  1  0  0  0
 10 11  1  0  0  0
 10 32  1  0  0  0
 11 12  2  0  0  0
 11 33  1  0  0  0
 12 13  1  0  0  0
 12 21  1  0  0  0
 13 14  2  0  0  0
 13 34  1  0  0  0
 14 35  1  0  0  0
 15 16  1  0  0  0
 15 20  2  0  0  0
 16 17  2  0  0  0
 17 18  1  0  0  0
 17 36  1  0  0  0
 18 19  2  0  0  0
 19 20  1  0  0  0
 19 37  1  0  0  0
 20 38  1  0  0  0
 21 22  2  0  0  0
 21 26  1  0  0  0
 22 23  1  0  0  0
 22 27  1  0  0  0
 23 24  2  0  0  0
 24 25  1  0  0  0
 24 39  1  0  0  0
 25 26  2  0  0  0
 25 40  1  0  0  0
 26 41  1  0  0  0
M  END
> <s_m_entry_id>
25449

> <s_m_entry_name>
dock_pv.101

> <s_m_Source_Path>
/home/csk/Desktop/cluster/DUD-E-result/pyrd

> <s_m_Source_File>
dock_pv.maegz

> <i_m_Source_File_Index>
101

> <chembl_id>
CHEMBL4227801

> <chembl_pref_name>
None

> <i_lp_mmshare_version>
53161

> <r_lp_tautomer_probability>
1

> <s_lp_Force_Field>
OPLS_2005

> <r_lp_Energy>
37.314886

> <b_lp_Chiralities_Consistent>
1

> <s_lp_Variant>
CHEMBL1966_lig618-1

> <s_i_glide_gridfile>
glide-grid_1d3g

> <i_i_glide_lignum>
672

> <i_i_glide_rotatable_bonds>
4

> <r_i_docking_score>
-10.443841323403

> <r_i_glide_ligand_efficiency>
-0.386808937903814

> <r_i_glide_ligand_efficiency_sa>
-1.16042681243658

> <r_i_glide_ligand_efficiency_ln>
-2.43115407990739

> <r_i_glide_gscore>
-10.443841323403

> <r_i_glide_lipo>
-6.12699886229312

> <r_i_glide_hbond>
-0.16

> <r_i_glide_metal>
0

> <r_i_glide_rewards>
-1.73749735639865

> <r_i_glide_evdw>
-41.0672225952148

> <r_i_glide_ecoul>
-5.18020153045654

> <r_i_glide_erotb>
0.411046254618009

> <r_i_glide_esite>
0

> <r_i_glide_emodel>
-73.0019282687513

> <r_i_glide_energy>
-46.2474241256714

> <r_i_glide_einternal>
1.68991696834564

> <i_i_glide_confnum>
8

> <i_i_glide_posenum>
1

> <r_i_glide_eff_state_penalty>
0

> <s_user_duplicate_titles>
CHEMBL1966_lig618

> <i_f3d_flags>
0

> <s_m_subgroup_title>
dock_pv

> <s_m_subgroupid>
dock_pv

> <b_m_subgroup_collapsed>
1

$$$$
CHEMBL1966_lig23
                    3D
 Schrodinger Suite 2021-1.
 40 42  0  0  1  0            999 V2000
   48.2170   40.3107   -2.9087 C   0  0  0  0  0  0
   49.2752   41.1407   -2.3243 C   0  0  0  0  0  0
   47.6162   40.4103   -4.1378 C   0  0  0  0  0  0
   49.7182   42.1985   -3.0333 N   0  0  0  0  0  0
   48.0230   41.2357   -5.2630 C   0  0  0  0  0  0
   50.6420   43.1807   -2.6364 C   0  0  0  0  0  0
   50.5393   43.9963   -1.4842 C   0  0  0  0  0  0
   52.5524   45.2101   -2.1505 C   0  0  0  0  0  0
   51.4943   44.9948   -1.2581 C   0  0  0  0  0  0
   49.6230   40.9466   -1.1595 O   0  0  0  0  0  0
   53.5828   46.2621   -1.9230 C   0  0  0  0  0  0
   49.1586   41.3009   -5.7243 O   0  0  0  0  0  0
   51.6648   43.4251   -3.5501 C   0  0  0  0  0  0
   52.6144   44.4103   -3.2994 C   0  0  0  0  0  0
   54.1271   46.4862   -0.6515 C   0  0  0  0  0  0
   54.0411   47.0327   -2.9993 C   0  0  0  0  0  0
   49.2412   43.8829   -0.3420 Cl  0  0  0  0  0  0
   46.9856   42.0029   -5.6991 O   0  0  0  0  0  0
   55.5389   48.2237   -1.5470 C   0  0  0  0  0  0
   47.4518   39.3316   -2.0229 C   0  0  0  0  0  0
   46.2297   39.8026   -4.1005 C   0  0  0  0  0  0
   55.0101   48.0113   -2.8147 C   0  0  0  0  0  0
   55.1122   47.4552   -0.4651 C   0  0  0  0  0  0
   56.8223   49.6048   -1.2995 Br  0  0  0  0  0  0
   46.1626   39.0684   -2.7766 C   0  0  0  0  0  0
   49.5813   42.1252   -4.0313 H   0  0  0  0  0  0
   51.3997   45.6175   -0.3804 H   0  0  0  0  0  0
   51.7476   42.8363   -4.4523 H   0  0  0  0  0  0
   53.4056   44.5551   -4.0154 H   0  0  0  0  0  0
   53.8006   45.8997    0.1946 H   0  0  0  0  0  0
   53.6329   46.8873   -3.9891 H   0  0  0  0  0  0
   47.1971   42.7295   -6.2997 H   0  0  0  0  0  0
   47.2316   39.7432   -1.0368 H   0  0  0  0  0  0
   48.0221   38.4151   -1.8736 H   0  0  0  0  0  0
   46.0124   39.1707   -4.9523 H   0  0  0  0  0  0
   45.5049   40.6152   -4.1314 H   0  0  0  0  0  0
   55.3439   48.6089   -3.6502 H   0  0  0  0  0  0
   55.5289   47.6195    0.5176 H   0  0  0  0  0  0
   45.2998   39.3927   -2.1915 H   0  0  0  0  0  0
   46.0269   38.0083   -2.9453 H   0  0  0  0  0  0
  1  2  1  0  0  0
  1  3  2  0  0  0
  1 20  1  0  0  0
  2  4  1  0  0  0
  2 10  2  0  0  0
  3  5  1  0  0  0
  3 21  1  0  0  0
  4  6  1  0  0  0
  4 26  1  0  0  0
  5 12  2  0  0  0
  5 18  1  0  0  0
  6  7  2  0  0  0
  6 13  1  0  0  0
  7  9  1  0  0  0
  7 17  1  0  0  0
  8 14  1  0  0  0
  8 11  1  0  0  0
  8  9  2  0  0  0
  9 27  1  0  0  0
 11 15  1  0  0  0
 11 16  2  0  0  0
 13 14  2  0  0  0
 13 28  1  0  0  0
 14 29  1  0  0  0
 15 23  2  0  0  0
 15 30  1  0  0  0
 16 22  1  0  0  0
 16 31  1  0  0  0
 18 32  1  0  0  0
 19 22  2  0  0  0
 19 24  1  0  0  0
 19 23  1  0  0  0
 20 25  1  0  0  0
 20 33  1  0  0  0
 20 34  1  0  0  0
 21 25  1  0  0  0
 21 35  1  0  0  0
 21 36  1  0  0  0
 22 37  1  0  0  0
 23 38  1  0  0  0
 25 39  1  0  0  0
 25 40  1  0  0  0
M  END
> <s_m_entry_id>
25451

> <s_m_entry_name>
dock_pv.103

> <s_m_Source_Path>
/home/csk/Desktop/cluster/DUD-E-result/pyrd

> <s_m_Source_File>
dock_pv.maegz

> <i_m_Source_File_Index>
103

> <chembl_id>
CHEMBL154908

> <chembl_pref_name>
None

> <i_lp_mmshare_version>
53161

> <r_lp_tautomer_probability>
1

> <s_lp_Force_Field>
OPLS_2005

> <r_lp_Energy>
41.67457

> <b_lp_Chiralities_Consistent>
1

> <s_lp_Variant>
CHEMBL1966_lig23-1

> <s_i_glide_gridfile>
glide-grid_1d3g

> <i_i_glide_lignum>
27

> <i_i_glide_rotatable_bonds>
6

> <r_i_docking_score>
-10.4314694962684

> <r_i_glide_ligand_efficiency>
-0.417258779850736

> <r_i_glide_ligand_efficiency_sa>
-1.22007207239952

> <r_i_glide_ligand_efficiency_ln>
-2.47257087653066

> <r_i_glide_gscore>
-10.4314694962684

> <r_i_glide_lipo>
-5.76424587221326

> <r_i_glide_hbond>
0

> <r_i_glide_metal>
0

> <r_i_glide_rewards>
-2.01049950557653

> <r_i_glide_evdw>
-44.1105461120605

> <r_i_glide_ecoul>
-6.7363109588623

> <r_i_glide_erotb>
0.559249830953759

> <r_i_glide_esite>
0

> <r_i_glide_emodel>
-71.4747896675987

> <r_i_glide_energy>
-50.8468570709229

> <r_i_glide_einternal>
10.1451644897461

> <i_i_glide_confnum>
52

> <i_i_glide_posenum>
231

> <r_i_glide_eff_state_penalty>
0

> <s_user_duplicate_titles>
CHEMBL1966_lig23

> <i_f3d_flags>
0

> <s_m_subgroup_title>
dock_pv

> <s_m_subgroupid>
dock_pv

> <b_m_subgroup_collapsed>
1

$$$$
CHEMBL1966_lig651
                    3D
 Schrodinger Suite 2021-1.
 45 48  0  0  1  0            999 V2000
   48.3518   39.8761   -0.8756 C   0  0  0  0  0  0
   47.2837   38.9914   -0.9718 C   0  0  0  0  0  0
   46.6546   38.8056   -2.1931 C   0  0  0  0  0  0
   47.1142   39.4765   -3.3200 C   0  0  0  0  0  0
   48.2017   40.3595   -3.2537 C   0  0  0  0  0  0
   48.8239   40.5802   -2.0020 C   0  0  0  0  0  0
   49.8979   41.6101   -1.8038 C   0  0  0  0  0  0
   50.1555   42.4441   -3.0030 C   0  0  0  0  0  0
   49.5755   42.1770   -4.2117 C   0  0  0  0  0  0
   48.6348   41.0782   -4.4987 C   0  0  0  0  0  0
   51.0218   43.7108   -2.8062 C   0  0  1  0  0  0
   51.0968   44.3950   -1.3912 C   0  0  0  0  0  0
   51.9053   45.7241   -1.3238 C   0  0  0  0  0  0
   53.2978   45.5615   -1.9862 C   0  0  1  0  0  0
   53.2212   44.9530   -3.3980 C   0  0  0  0  0  0
   52.3716   43.6664   -3.5583 C   0  0  0  0  0  0
   54.2405   46.7720   -1.8855 C   0  0  0  0  0  0
   54.4777   47.6116   -2.9840 C   0  0  0  0  0  0
   55.4766   48.5795   -2.9326 C   0  0  0  0  0  0
   56.2422   48.7265   -1.7827 C   0  0  0  0  0  0
   56.0198   47.8988   -0.6892 C   0  0  0  0  0  0
   55.0151   46.9349   -0.7297 C   0  0  0  0  0  0
   57.4709   49.9380   -1.7021 Cl  0  0  0  0  0  0
   49.7698   42.9667   -5.3081 O   0  0  0  0  0  0
   48.1788   40.8170   -5.6194 O   0  0  0  0  0  0
   50.4229   41.7325   -0.6977 O   0  0  0  0  0  0
   48.8017   40.0111    0.0993 H   0  0  0  0  0  0
   46.9378   38.4628   -0.0968 H   0  0  0  0  0  0
   45.8176   38.1288   -2.2694 H   0  0  0  0  0  0
   46.5974   39.3096   -4.2540 H   0  0  0  0  0  0
   50.4398   44.4098   -3.3696 H   0  0  0  0  0  0
   50.0958   44.5455   -0.9828 H   0  0  0  0  0  0
   51.6224   43.7463   -0.7034 H   0  0  0  0  0  0
   51.3473   46.5371   -1.7878 H   0  0  0  0  0  0
   52.0266   45.9781   -0.2700 H   0  0  0  0  0  0
   53.8215   44.8211   -1.3845 H   0  0  0  0  0  0
   54.2384   44.7018   -3.6984 H   0  0  0  0  0  0
   52.8231   45.6869   -4.0962 H   0  0  0  0  0  0
   52.9744   42.8111   -3.2985 H   0  0  0  0  0  0
   52.1882   43.5054   -4.6194 H   0  0  0  0  0  0
   53.9152   47.5130   -3.8984 H   0  0  0  0  0  0
   55.6543   49.2134   -3.7867 H   0  0  0  0  0  0
   56.6544   47.9960    0.1726 H   0  0  0  0  0  0
   54.8750   46.2829    0.1206 H   0  0  0  0  0  0
   49.1510   42.7100   -5.9977 H   0  0  0  0  0  0
  1  2  2  0  0  0
  1  6  1  0  0  0
  1 27  1  0  0  0
  2  3  1  0  0  0
  2 28  1  0  0  0
  3  4  2  0  0  0
  3 29  1  0  0  0
  4  5  1  0  0  0
  4 30  1  0  0  0
  5 10  1  0  0  0
  5  6  2  0  0  0
  6  7  1  0  0  0
  7  8  1  0  0  0
  7 26  2  0  0  0
  8  9  2  0  0  0
  8 11  1  0  0  0
  9 10  1  0  0  0
  9 24  1  0  0  0
 10 25  2  0  0  0
 11 12  1  0  0  0
 11 16  1  0  0  0
 11 31  1  0  0  0
 12 13  1  0  0  0
 12 32  1  0  0  0
 12 33  1  0  0  0
 13 14  1  0  0  0
 13 34  1  0  0  0
 13 35  1  0  0  0
 14 15  1  0  0  0
 14 17  1  0  0  0
 14 36  1  0  0  0
 15 16  1  0  0  0
 15 37  1  0  0  0
 15 38  1  0  0  0
 16 39  1  0  0  0
 16 40  1  0  0  0
 17 18  2  0  0  0
 17 22  1  0  0  0
 18 19  1  0  0  0
 18 41  1  0  0  0
 19 20  2  0  0  0
 19 42  1  0  0  0
 20 21  1  0  0  0
 20 23  1  0  0  0
 21 22  2  0  0  0
 21 43  1  0  0  0
 22 44  1  0  0  0
 24 45  1  0  0  0
M  END
> <s_m_entry_id>
25452

> <s_m_entry_name>
dock_pv.104

> <s_m_Source_Path>
/home/csk/Desktop/cluster/DUD-E-result/pyrd

> <s_m_Source_File>
dock_pv.maegz

> <i_m_Source_File_Index>
104

> <chembl_id>
CHEMBL1450

> <chembl_pref_name>
ATOVAQUONE

> <i_lp_mmshare_version>
53161

> <r_lp_tautomer_probability>
0.0909090909090909

> <s_lp_Force_Field>
OPLS_2005

> <r_lp_Energy>
18.298786

> <b_lp_Chiralities_Consistent>
1

> <s_lp_Variant>
CHEMBL1966_lig651-3

> <s_i_glide_gridfile>
glide-grid_1d3g

> <i_i_glide_lignum>
707

> <i_i_glide_rotatable_bonds>
3

> <r_i_docking_score>
-10.4223628363685

> <r_i_glide_ligand_efficiency>
-0.400860109091096

> <r_i_glide_ligand_efficiency_sa>
-1.18754649587401

> <r_i_glide_ligand_efficiency_ln>
-2.44765771355931

> <r_i_glide_gscore>
-10.4223628363685

> <r_i_glide_lipo>
-5.94899441173438

> <r_i_glide_hbond>
-0.0391285300260547

> <r_i_glide_metal>
0

> <r_i_glide_rewards>
-2.48299353034405

> <r_i_glide_evdw>
-38.5773010253906

> <r_i_glide_ecoul>
-2.05671548843384

> <r_i_glide_erotb>
0.286126010270603

> <r_i_glide_esite>
0

> <r_i_glide_emodel>
-48.7364241446272

> <r_i_glide_energy>
-40.6340165138245

> <r_i_glide_einternal>
16.859167098999

> <i_i_glide_confnum>
1

> <i_i_glide_posenum>
54

> <r_i_glide_eff_state_penalty>
0

> <s_user_duplicate_titles>
CHEMBL1966_lig651,CHEMBL1966_lig651

> <i_f3d_flags>
0

> <s_m_subgroup_title>
dock_pv

> <s_m_subgroupid>
dock_pv

> <b_m_subgroup_collapsed>
1

$$$$
CHEMBL1966_lig495
                    3D
 Schrodinger Suite 2021-1.
 41 44  0  0  1  0            999 V2000
   46.7873   38.1575   -1.1064 C   0  0  0  0  0  0
   47.5935   39.2390   -1.7919 C   0  0  0  0  0  0
   47.4183   39.4803   -3.1568 C   0  0  0  0  0  0
   48.1498   40.4605   -3.8418 C   0  0  0  0  0  0
   47.8970   40.7060   -5.2980 C   0  0  0  0  0  0
   48.8180   40.8100   -6.0990 O   0  0  0  0  0  0
   46.5802   40.8101   -5.6385 O   0  0  0  0  0  0
   49.0783   41.2049   -3.0897 C   0  0  0  0  0  0
   49.8577   42.2590   -3.4888 N   0  0  0  0  0  0
   50.4011   42.7183   -2.3924 C   0  0  0  0  0  0
   50.0813   41.9645   -1.2879 N   0  0  0  0  0  0
   49.2230   40.9745   -1.6988 C   0  0  0  0  0  0
   48.4644   40.0102   -1.0211 C   0  0  0  0  0  0
   51.2876   43.9093   -2.3376 C   0  0  0  0  0  0
   52.2940   44.0676   -3.2993 C   0  0  0  0  0  0
   52.4071   43.2100   -4.3356 F   0  0  0  0  0  0
   53.2230   45.1006   -3.1825 C   0  0  0  0  0  0
   53.1981   45.9820   -2.1010 C   0  0  0  0  0  0
   52.1701   45.8456   -1.1601 C   0  0  0  0  0  0
   51.2232   44.8233   -1.2779 C   0  0  0  0  0  0
   50.2838   44.6886   -0.3161 F   0  0  0  0  0  0
   54.2900   46.9789   -1.9499 C   0  0  0  0  0  0
   54.7114   47.7449   -3.0452 C   0  0  0  0  0  0
   55.7990   48.6065   -2.9303 C   0  0  0  0  0  0
   56.4759   48.7024   -1.7187 C   0  0  0  0  0  0
   56.0676   47.9481   -0.6237 C   0  0  0  0  0  0
   54.9683   47.1016   -0.7322 C   0  0  0  0  0  0
   46.5219   38.4874   -0.1017 H   0  0  0  0  0  0
   45.8541   37.9516   -1.6316 H   0  0  0  0  0  0
   47.3683   37.2378   -1.0245 H   0  0  0  0  0  0
   46.7014   38.8748   -3.6937 H   0  0  0  0  0  0
   46.0176   40.8728   -4.8628 H   0  0  0  0  0  0
   50.4025   42.1836   -0.3576 H   0  0  0  0  0  0
   48.5590   39.8526    0.0438 H   0  0  0  0  0  0
   54.0072   45.1893   -3.9178 H   0  0  0  0  0  0
   52.1198   46.5123   -0.3117 H   0  0  0  0  0  0
   54.2008   47.6656   -3.9949 H   0  0  0  0  0  0
   56.1206   49.1921   -3.7796 H   0  0  0  0  0  0
   57.3300   49.3583   -1.6274 H   0  0  0  0  0  0
   56.6174   48.0083    0.3011 H   0  0  0  0  0  0
   54.6756   46.5061    0.1209 H   0  0  0  0  0  0
  1  2  1  0  0  0
  1 28  1  0  0  0
  1 29  1  0  0  0
  1 30  1  0  0  0
  2  3  2  0  0  0
  2 13  1  0  0  0
  3  4  1  0  0  0
  3 31  1  0  0  0
  4  5  1  0  0  0
  4  8  2  0  0  0
  5  6  2  0  0  0
  5  7  1  0  0  0
  7 32  1  0  0  0
  8  9  1  0  0  0
  8 12  1  0  0  0
  9 10  2  0  0  0
 10 11  1  0  0  0
 10 14  1  0  0  0
 11 12  1  0  0  0
 11 33  1  0  0  0
 12 13  2  0  0  0
 13 34  1  0  0  0
 14 15  2  0  0  0
 14 20  1  0  0  0
 15 16  1  0  0  0
 15 17  1  0  0  0
 17 18  2  0  0  0
 17 35  1  0  0  0
 18 19  1  0  0  0
 18 22  1  0  0  0
 19 20  2  0  0  0
 19 36  1  0  0  0
 20 21  1  0  0  0
 22 23  2  0  0  0
 22 27  1  0  0  0
 23 24  1  0  0  0
 23 37  1  0  0  0
 24 25  2  0  0  0
 24 38  1  0  0  0
 25 26  1  0  0  0
 25 39  1  0  0  0
 26 27  2  0  0  0
 26 40  1  0  0  0
 27 41  1  0  0  0
M  END
> <s_m_entry_id>
25453

> <s_m_entry_name>
dock_pv.105

> <s_m_Source_Path>
/home/csk/Desktop/cluster/DUD-E-result/pyrd

> <s_m_Source_File>
dock_pv.maegz

> <i_m_Source_File_Index>
105

> <chembl_id>
CHEMBL3677752

> <chembl_pref_name>
None

> <i_lp_mmshare_version>
53161

> <r_lp_tautomer_probability>
1

> <s_lp_Force_Field>
OPLS_2005

> <r_lp_Energy>
26.320667

> <b_lp_Chiralities_Consistent>
1

> <s_lp_Variant>
CHEMBL1966_lig495-1

> <s_i_glide_gridfile>
glide-grid_1d3g

> <i_i_glide_lignum>
545

> <i_i_glide_rotatable_bonds>
4

> <r_i_docking_score>
-10.4213230496112

> <r_i_glide_ligand_efficiency>
-0.385974927763376

> <r_i_glide_ligand_efficiency_sa>
-1.15792478201802

> <r_i_glide_ligand_efficiency_ln>
-2.42591219701141

> <r_i_glide_gscore>
-10.4213230496112

> <r_i_glide_lipo>
-5.37934534729253

> <r_i_glide_hbond>
-0.16

> <r_i_glide_metal>
0

> <r_i_glide_rewards>
-2.72483424887762

> <r_i_glide_evdw>
-41.2731742858887

> <r_i_glide_ecoul>
-3.51952648162842

> <r_i_glide_erotb>
0.434444233097681

> <r_i_glide_esite>
0

> <r_i_glide_emodel>
-64.3483237484938

> <r_i_glide_energy>
-44.7927007675171

> <r_i_glide_einternal>
5.19627571105957

> <i_i_glide_confnum>
2

> <i_i_glide_posenum>
158

> <r_i_glide_eff_state_penalty>
0

> <s_user_duplicate_titles>
CHEMBL1966_lig495

> <i_f3d_flags>
0

> <s_m_subgroup_title>
dock_pv

> <s_m_subgroupid>
dock_pv

> <b_m_subgroup_collapsed>
1

$$$$
CHEMBL1966_lig564
                    3D
 Schrodinger Suite 2021-1.
 38 41  0  0  1  0            999 V2000
   46.8619   38.1017   -1.1264 C   0  0  0  0  0  0
   47.6191   39.2238   -1.8013 C   0  0  0  0  0  0
   47.4290   39.4703   -3.1625 C   0  0  0  0  0  0
   48.1475   40.4601   -3.8471 C   0  0  0  0  0  0
   47.8922   40.7052   -5.2990 C   0  0  0  0  0  0
   48.8149   40.8100   -6.0990 O   0  0  0  0  0  0
   46.5754   40.8100   -5.6391 O   0  0  0  0  0  0
   49.0769   41.2096   -3.1042 C   0  0  0  0  0  0
   49.8590   42.2601   -3.5148 N   0  0  0  0  0  0
   50.4040   42.7248   -2.4228 C   0  0  0  0  0  0
   50.0848   41.9743   -1.3135 N   0  0  0  0  0  0
   49.2230   40.9827   -1.7143 C   0  0  0  0  0  0
   48.4781   40.0100   -1.0323 C   0  0  0  0  0  0
   51.2797   43.9261   -2.3653 C   0  0  0  0  0  0
   51.1512   44.8343   -1.2990 C   0  0  0  0  0  0
   50.1476   44.6977   -0.3991 F   0  0  0  0  0  0
   52.0753   45.8686   -1.1295 C   0  0  0  0  0  0
   51.9474   46.7147   -0.0793 F   0  0  0  0  0  0
   53.1488   46.0007   -2.0156 C   0  0  0  0  0  0
   53.2565   45.1183   -3.0958 C   0  0  0  0  0  0
   54.3352   45.2104   -3.9006 F   0  0  0  0  0  0
   52.3215   44.0951   -3.2990 C   0  0  0  0  0  0
   52.4862   43.2226   -4.3225 F   0  0  0  0  0  0
   54.2391   46.9996   -1.8197 C   0  0  0  0  0  0
   55.0413   47.0987   -0.6705 C   0  0  0  0  0  0
   56.0811   48.0100   -0.8053 C   0  0  0  0  0  0
   56.0576   48.8100   -2.3353 S   0  0  0  0  0  0
   54.6528   47.9084   -2.7928 C   0  0  0  0  0  0
   46.8230   38.2735   -0.0538 H   0  0  0  0  0  0
   45.8355   38.0415   -1.4892 H   0  0  0  0  0  0
   47.3567   37.1464   -1.2990 H   0  0  0  0  0  0
   46.7208   38.8541   -3.6990 H   0  0  0  0  0  0
   46.0118   40.8719   -4.8642 H   0  0  0  0  0  0
   50.4087   42.1957   -0.3845 H   0  0  0  0  0  0
   48.5868   39.8502    0.0311 H   0  0  0  0  0  0
   54.8986   46.4890    0.2101 H   0  0  0  0  0  0
   56.8644   48.2410   -0.0990 H   0  0  0  0  0  0
   54.2258   48.0474   -3.7758 H   0  0  0  0  0  0
  1  2  1  0  0  0
  1 29  1  0  0  0
  1 30  1  0  0  0
  1 31  1  0  0  0
  2  3  2  0  0  0
  2 13  1  0  0  0
  3  4  1  0  0  0
  3 32  1  0  0  0
  4  5  1  0  0  0
  4  8  2  0  0  0
  5  6  2  0  0  0
  5  7  1  0  0  0
  7 33  1  0  0  0
  8  9  1  0  0  0
  8 12  1  0  0  0
  9 10  2  0  0  0
 10 11  1  0  0  0
 10 14  1  0  0  0
 11 12  1  0  0  0
 11 34  1  0  0  0
 12 13  2  0  0  0
 13 35  1  0  0  0
 14 15  2  0  0  0
 14 22  1  0  0  0
 15 16  1  0  0  0
 15 17  1  0  0  0
 17 18  1  0  0  0
 17 19  2  0  0  0
 19 20  1  0  0  0
 19 24  1  0  0  0
 20 21  1  0  0  0
 20 22  2  0  0  0
 22 23  1  0  0  0
 24 25  1  0  0  0
 24 28  2  0  0  0
 25 26  2  0  0  0
 25 36  1  0  0  0
 26 27  1  0  0  0
 26 37  1  0  0  0
 27 28  1  0  0  0
 28 38  1  0  0  0
M  END
> <s_m_entry_id>
25454

> <s_m_entry_name>
dock_pv.106

> <s_m_Source_Path>
/home/csk/Desktop/cluster/DUD-E-result/pyrd

> <s_m_Source_File>
dock_pv.maegz

> <i_m_Source_File_Index>
106

> <chembl_id>
CHEMBL3677824

> <chembl_pref_name>
None

> <i_lp_mmshare_version>
53161

> <r_lp_tautomer_probability>
1

> <s_lp_Force_Field>
OPLS_2005

> <r_lp_Energy>
25.941087

> <b_lp_Chiralities_Consistent>
1

> <s_lp_Variant>
CHEMBL1966_lig564-1

> <s_i_glide_gridfile>
glide-grid_1d3g

> <i_i_glide_lignum>
618

> <i_i_glide_rotatable_bonds>
4

> <r_i_docking_score>
-10.4205594767565

> <r_i_glide_ligand_efficiency>
-0.372162838455588

> <r_i_glide_ligand_efficiency_sa>
-1.13010556974094

> <r_i_glide_ligand_efficiency_ln>
-2.40537108815646

> <r_i_glide_gscore>
-10.4205594767565

> <r_i_glide_lipo>
-5.15411642407406

> <r_i_glide_hbond>
-0.16

> <r_i_glide_metal>
0

> <r_i_glide_rewards>
-2.84040526520751

> <r_i_glide_evdw>
-41.2100219726562

> <r_i_glide_ecoul>
-3.75166630744934

> <r_i_glide_erotb>
0.357213257275304

> <r_i_glide_esite>
0

> <r_i_glide_emodel>
-62.0901625650156

> <r_i_glide_energy>
-44.9616882801056

> <r_i_glide_einternal>
4.65919494628906

> <i_i_glide_confnum>
1

> <i_i_glide_posenum>
357

> <r_i_glide_eff_state_penalty>
0

> <s_user_duplicate_titles>
CHEMBL1966_lig564

> <i_f3d_flags>
0

> <s_m_subgroup_title>
dock_pv

> <s_m_subgroupid>
dock_pv

> <b_m_subgroup_collapsed>
1

$$$$
CHEMBL1966_lig587
                    3D
 Schrodinger Suite 2021-1.
 40 43  0  0  1  0            999 V2000
   49.9409   42.5199   -3.9665 C   0  0  0  0  0  0
   50.4364   42.8299   -2.7012 C   0  0  0  0  0  0
   50.0845   42.1262   -1.5978 N   0  0  0  0  0  0
   49.0277   41.4754   -4.1334 C   0  0  0  0  0  0
   48.6539   40.7009   -2.9852 C   0  0  0  0  0  0
   49.2230   41.0803   -1.7277 C   0  0  0  0  0  0
   48.8232   40.4099   -0.5468 C   0  0  0  0  0  0
   47.8910   39.3789   -0.6068 C   0  0  0  0  0  0
   47.3582   38.9734   -1.8224 C   0  0  0  0  0  0
   47.7305   39.6105   -3.0018 C   0  0  0  0  0  0
   48.4849   41.2255   -5.5113 C   0  0  0  0  0  0
   47.1300   41.0925   -5.6012 O   0  0  0  0  0  0
   49.2231   41.2095   -6.4891 O   0  0  0  0  0  0
   51.3916   43.9561   -2.4991 C   0  0  0  0  0  0
   52.4230   44.1487   -3.4263 C   0  0  0  0  0  0
   53.3469   45.1717   -3.2602 C   0  0  0  0  0  0
   53.2907   46.0081   -2.1445 C   0  0  0  0  0  0
   52.2610   45.8257   -1.2124 C   0  0  0  0  0  0
   51.3161   44.8100   -1.3881 C   0  0  0  0  0  0
   54.3622   47.0228   -1.9569 C   0  0  0  0  0  0
   54.7492   47.8506   -3.0195 C   0  0  0  0  0  0
   55.8192   48.7321   -2.8813 C   0  0  0  0  0  0
   56.5143   48.7825   -1.6777 C   0  0  0  0  0  0
   56.1416   47.9668   -0.6146 C   0  0  0  0  0  0
   55.0582   47.1020   -0.7457 C   0  0  0  0  0  0
   50.2354   43.1211   -4.8166 H   0  0  0  0  0  0
   49.2418   40.7072    0.4035 H   0  0  0  0  0  0
   47.5912   38.8760    0.2989 H   0  0  0  0  0  0
   46.6529   38.1554   -1.8499 H   0  0  0  0  0  0
   47.3084   39.2607   -3.9303 H   0  0  0  0  0  0
   46.6863   41.2919   -4.7729 H   0  0  0  0  0  0
   52.5222   43.4902   -4.2772 H   0  0  0  0  0  0
   54.1442   45.2887   -3.9783 H   0  0  0  0  0  0
   52.1964   46.4629   -0.3419 H   0  0  0  0  0  0
   50.5329   44.6815   -0.6541 H   0  0  0  0  0  0
   54.2263   47.8021   -3.9643 H   0  0  0  0  0  0
   56.1143   49.3645   -3.7059 H   0  0  0  0  0  0
   57.3574   49.4503   -1.5678 H   0  0  0  0  0  0
   56.7091   47.9956    0.3010 H   0  0  0  0  0  0
   54.7927   46.4580    0.0814 H   0  0  0  0  0  0
  1  2  2  0  0  0
  1  4  1  0  0  0
  1 26  1  0  0  0
  2  3  1  0  0  0
  2 14  1  0  0  0
  3  6  2  0  0  0
  4  5  2  0  0  0
  4 11  1  0  0  0
  5  6  1  0  0  0
  5 10  1  0  0  0
  6  7  1  0  0  0
  7  8  2  0  0  0
  7 27  1  0  0  0
  8  9  1  0  0  0
  8 28  1  0  0  0
  9 10  2  0  0  0
  9 29  1  0  0  0
 10 30  1  0  0  0
 11 12  1  0  0  0
 11 13  2  0  0  0
 12 31  1  0  0  0
 14 15  2  0  0  0
 14 19  1  0  0  0
 15 16  1  0  0  0
 15 32  1  0  0  0
 16 17  2  0  0  0
 16 33  1  0  0  0
 17 18  1  0  0  0
 17 20  1  0  0  0
 18 19  2  0  0  0
 18 34  1  0  0  0
 19 35  1  0  0  0
 20 21  2  0  0  0
 20 25  1  0  0  0
 21 22  1  0  0  0
 21 36  1  0  0  0
 22 23  2  0  0  0
 22 37  1  0  0  0
 23 24  1  0  0  0
 23 38  1  0  0  0
 24 25  2  0  0  0
 24 39  1  0  0  0
 25 40  1  0  0  0
M  END
> <s_m_entry_id>
25455

> <s_m_entry_name>
dock_pv.107

> <s_m_Source_Path>
/home/csk/Desktop/cluster/DUD-E-result/pyrd

> <s_m_Source_File>
dock_pv.maegz

> <i_m_Source_File_Index>
107

> <chembl_id>
CHEMBL3600460

> <chembl_pref_name>
None

> <i_lp_mmshare_version>
53161

> <r_lp_tautomer_probability>
1

> <s_lp_Force_Field>
OPLS_2005

> <r_lp_Energy>
29.907795

> <b_lp_Chiralities_Consistent>
1

> <s_lp_Variant>
CHEMBL1966_lig587-1

> <s_i_glide_gridfile>
glide-grid_1d3g

> <i_i_glide_lignum>
641

> <i_i_glide_rotatable_bonds>
4

> <r_i_docking_score>
-10.4197264142141

> <r_i_glide_ligand_efficiency>
-0.416789056568563

> <r_i_glide_ligand_efficiency_sa>
-1.21869859319187

> <r_i_glide_ligand_efficiency_ln>
-2.46978741417202

> <r_i_glide_gscore>
-10.4197264142141

> <r_i_glide_lipo>
-5.98124958753116

> <r_i_glide_hbond>
-0.16

> <r_i_glide_metal>
0

> <r_i_glide_rewards>
-2.21750252614463

> <r_i_glide_evdw>
-36.5739402770996

> <r_i_glide_ecoul>
-5.08910226821899

> <r_i_glide_erotb>
0.531088053549537

> <r_i_glide_esite>
0

> <r_i_glide_emodel>
-61.3586888348087

> <r_i_glide_energy>
-41.6630425453186

> <r_i_glide_einternal>
6.54690837860107

> <i_i_glide_confnum>
15

> <i_i_glide_posenum>
7

> <r_i_glide_eff_state_penalty>
0

> <s_user_duplicate_titles>
CHEMBL1966_lig587

> <i_f3d_flags>
0

> <s_m_subgroup_title>
dock_pv

> <s_m_subgroupid>
dock_pv

> <b_m_subgroup_collapsed>
1

$$$$
CHEMBL1966_lig553
                    3D
 Schrodinger Suite 2021-1.
 38 41  0  0  1  0            999 V2000
   48.3926   39.7364   -0.4198 O   0  0  0  0  0  0
   47.6230   39.2852   -1.4460 C   0  0  0  0  0  0
   46.8124   38.3719   -1.3000 O   0  0  0  0  0  0
   47.8218   40.0096   -2.7622 C   0  0  0  0  0  0
   46.8687   39.7656   -3.7641 C   0  0  0  0  0  0
   46.8836   40.4100   -4.9972 C   0  0  0  0  0  0
   47.8907   41.2949   -5.3522 C   0  0  0  0  0  0
   48.8233   41.5909   -4.3656 C   0  0  0  0  0  0
   49.8045   42.5363   -4.3145 N   0  0  0  0  0  0
   50.2824   42.5550   -3.0330 C   0  0  0  0  0  0
   49.7730   41.5996   -2.2846 N   0  0  0  0  0  0
   48.8184   40.9868   -3.0712 C   0  0  0  0  0  0
   51.2061   43.6373   -2.5928 C   0  0  0  0  0  0
   52.3272   43.9348   -3.3781 C   0  0  0  0  0  0
   52.5881   43.2104   -4.4961 F   0  0  0  0  0  0
   53.2216   44.9295   -2.9836 C   0  0  0  0  0  0
   54.3552   45.1146   -3.6990 F   0  0  0  0  0  0
   53.0007   45.6741   -1.8179 C   0  0  0  0  0  0
   51.8354   45.4298   -1.0730 C   0  0  0  0  0  0
   51.5890   46.1452    0.0502 F   0  0  0  0  0  0
   50.9507   44.4100   -1.4486 C   0  0  0  0  0  0
   49.8493   44.1753   -0.6955 F   0  0  0  0  0  0
   54.0658   46.6002   -1.3429 C   0  0  0  0  0  0
   54.6551   46.3815   -0.0909 C   0  0  0  0  0  0
   55.7848   47.0938    0.3003 C   0  0  0  0  0  0
   56.3309   48.0510   -0.5500 C   0  0  0  0  0  0
   55.7227   48.3267   -1.7719 C   0  0  0  0  0  0
   56.2456   49.2766   -2.5796 F   0  0  0  0  0  0
   54.5907   47.6105   -2.1670 C   0  0  0  0  0  0
   54.0216   47.8846   -3.3652 F   0  0  0  0  0  0
   48.1799   39.2476    0.3829 H   0  0  0  0  0  0
   46.0554   39.0753   -3.5819 H   0  0  0  0  0  0
   46.0864   40.1989   -5.6952 H   0  0  0  0  0  0
   47.8695   41.8279   -6.2871 H   0  0  0  0  0  0
   50.0710   43.2118   -5.0161 H   0  0  0  0  0  0
   54.2737   45.6107    0.5639 H   0  0  0  0  0  0
   56.2507   46.8886    1.2535 H   0  0  0  0  0  0
   57.2203   48.5905   -0.2558 H   0  0  0  0  0  0
  1  2  1  0  0  0
  1 31  1  0  0  0
  2  3  2  0  0  0
  2  4  1  0  0  0
  4  5  2  0  0  0
  4 12  1  0  0  0
  5  6  1  0  0  0
  5 32  1  0  0  0
  6  7  2  0  0  0
  6 33  1  0  0  0
  7  8  1  0  0  0
  7 34  1  0  0  0
  8  9  1  0  0  0
  8 12  2  0  0  0
  9 10  1  0  0  0
  9 35  1  0  0  0
 10 11  2  0  0  0
 10 13  1  0  0  0
 11 12  1  0  0  0
 13 14  2  0  0  0
 13 21  1  0  0  0
 14 15  1  0  0  0
 14 16  1  0  0  0
 16 17  1  0  0  0
 16 18  2  0  0  0
 18 19  1  0  0  0
 18 23  1  0  0  0
 19 20  1  0  0  0
 19 21  2  0  0  0
 21 22  1  0  0  0
 23 24  2  0  0  0
 23 29  1  0  0  0
 24 25  1  0  0  0
 24 36  1  0  0  0
 25 26  2  0  0  0
 25 37  1  0  0  0
 26 27  1  0  0  0
 26 38  1  0  0  0
 27 28  1  0  0  0
 27 29  2  0  0  0
 29 30  1  0  0  0
M  END
> <s_m_entry_id>
25456

> <s_m_entry_name>
dock_pv.108

> <s_m_Source_Path>
/home/csk/Desktop/cluster/DUD-E-result/pyrd

> <s_m_Source_File>
dock_pv.maegz

> <i_m_Source_File_Index>
108

> <chembl_id>
CHEMBL3677813

> <chembl_pref_name>
None

> <i_lp_mmshare_version>
53161

> <r_lp_tautomer_probability>
1

> <s_lp_Force_Field>
OPLS_2005

> <r_lp_Energy>
28.401276

> <b_lp_Chiralities_Consistent>
1

> <s_lp_Variant>
CHEMBL1966_lig553-1

> <s_i_glide_gridfile>
glide-grid_1d3g

> <i_i_glide_lignum>
607

> <i_i_glide_rotatable_bonds>
4

> <r_i_docking_score>
-10.4187559164924

> <r_i_glide_ligand_efficiency>
-0.34729186388308

> <r_i_glide_ligand_efficiency_sa>
-1.07911656728738

> <r_i_glide_ligand_efficiency_ln>
-2.36725486566514

> <r_i_glide_gscore>
-10.4187559164924

> <r_i_glide_lipo>
-4.7742740851054

> <r_i_glide_hbond>
0

> <r_i_glide_metal>
0

> <r_i_glide_rewards>
-3.22990815

> <r_i_glide_evdw>
-44.7507057189941

> <r_i_glide_ecoul>
-3.40198922157288

> <r_i_glide_erotb>
0.333259987798643

> <r_i_glide_esite>
0

> <r_i_glide_emodel>
-66.1524208000217

> <r_i_glide_energy>
-48.152694940567

> <r_i_glide_einternal>
2.19258260726929

> <i_i_glide_confnum>
26

> <i_i_glide_posenum>
298

> <r_i_glide_eff_state_penalty>
0

> <s_user_duplicate_titles>
CHEMBL1966_lig553

> <i_f3d_flags>
0

> <s_m_subgroup_title>
dock_pv

> <s_m_subgroupid>
dock_pv

> <b_m_subgroup_collapsed>
1

$$$$
CHEMBL1966_lig760
                    3D
 Schrodinger Suite 2021-1.
 40 43  0  0  1  0            999 V2000
   50.1255   42.1530   -1.6788 N   0  0  0  0  0  0
   49.0060   41.5031   -4.1758 C   0  0  0  0  0  0
   50.4231   42.8901   -2.7784 C   0  0  0  0  0  0
   49.8904   42.5986   -4.0494 C   0  0  0  0  0  0
   48.6619   40.7307   -3.0128 C   0  0  0  0  0  0
   49.2715   41.1068   -1.7797 C   0  0  0  0  0  0
   54.2492   46.9470   -1.6280 N   0  0  0  0  0  0
   48.4631   41.1298   -5.5279 C   0  0  0  0  0  0
   55.8743   48.0125   -0.4991 N   0  0  0  0  0  0
   54.9060   47.1321   -0.4357 C   0  0  0  0  0  0
   51.3743   44.0077   -2.4980 C   0  0  0  0  0  0
   53.2502   46.0084   -1.9245 C   0  0  0  0  0  0
   47.7299   39.6454   -2.9904 C   0  0  0  0  0  0
   54.8693   47.8215   -2.4888 C   0  0  0  0  0  0
   55.8504   48.4546   -1.7424 C   0  0  0  0  0  0
   47.1077   41.2098   -5.6653 O   0  0  0  0  0  0
   49.2223   40.8129   -6.4371 O   0  0  0  0  0  0
   48.9520   40.4104   -0.5890 C   0  0  0  0  0  0
   52.1324   45.8527   -1.0992 C   0  0  0  0  0  0
   53.4295   45.1856   -3.0313 C   0  0  0  0  0  0
   51.2020   44.8538   -1.3880 C   0  0  0  0  0  0
   52.5078   44.1798   -3.2996 C   0  0  0  0  0  0
   47.4119   39.0035   -1.7966 C   0  0  0  0  0  0
   50.2106   43.4719   -5.2735 C   0  0  0  0  0  0
   48.0216   39.3808   -0.6112 C   0  0  0  0  0  0
   46.4967   38.0107   -1.7859 F   0  0  0  0  0  0
   54.6346   46.5422    0.4267 H   0  0  0  0  0  0
   47.2471   39.3184   -3.8982 H   0  0  0  0  0  0
   54.5681   47.8994   -3.5234 H   0  0  0  0  0  0
   56.5407   49.2065   -2.0935 H   0  0  0  0  0  0
   49.4144   40.7015    0.3429 H   0  0  0  0  0  0
   51.9863   46.4865   -0.2347 H   0  0  0  0  0  0
   54.3029   45.2811   -3.6613 H   0  0  0  0  0  0
   50.3426   44.7339   -0.7443 H   0  0  0  0  0  0
   52.6928   43.5093   -4.1249 H   0  0  0  0  0  0
   49.2901   43.7540   -5.7867 H   0  0  0  0  0  0
   50.7144   44.4032   -5.0407 H   0  0  0  0  0  0
   50.8224   42.9235   -5.9880 H   0  0  0  0  0  0
   47.7793   38.8603    0.2997 H   0  0  0  0  0  0
   46.6782   41.5969   -4.8985 H   0  0  0  0  0  0
  1  3  2  0  0  0
  1  6  1  0  0  0
  2  5  1  0  0  0
  2  8  1  0  0  0
  2  4  2  0  0  0
  3  4  1  0  0  0
  3 11  1  0  0  0
  4 24  1  0  0  0
  5  6  1  0  0  0
  5 13  2  0  0  0
  6 18  2  0  0  0
  7 12  1  0  0  0
  7 10  1  0  0  0
  7 14  1  0  0  0
  8 16  1  0  0  0
  8 17  2  0  0  0
  9 10  2  0  0  0
  9 15  1  0  0  0
 10 27  1  0  0  0
 11 21  1  0  0  0
 11 22  2  0  0  0
 12 20  2  0  0  0
 12 19  1  0  0  0
 13 23  1  0  0  0
 13 28  1  0  0  0
 14 15  2  0  0  0
 14 29  1  0  0  0
 15 30  1  0  0  0
 16 40  1  0  0  0
 18 25  1  0  0  0
 18 31  1  0  0  0
 19 21  2  0  0  0
 19 32  1  0  0  0
 20 22  1  0  0  0
 20 33  1  0  0  0
 21 34  1  0  0  0
 22 35  1  0  0  0
 23 25  2  0  0  0
 23 26  1  0  0  0
 24 36  1  0  0  0
 24 37  1  0  0  0
 24 38  1  0  0  0
 25 39  1  0  0  0
M  END
> <s_m_entry_id>
25457

> <s_m_entry_name>
dock_pv.109

> <s_m_Source_Path>
/home/csk/Desktop/cluster/DUD-E-result/pyrd

> <s_m_Source_File>
dock_pv.maegz

> <i_m_Source_File_Index>
109

> <chembl_id>
CHEMBL287730

> <chembl_pref_name>
None

> <i_lp_mmshare_version>
53161

> <r_lp_tautomer_probability>
1

> <s_lp_Force_Field>
OPLS_2005

> <r_lp_Energy>
30.334982

> <b_lp_Chiralities_Consistent>
1

> <s_lp_Variant>
CHEMBL1966_lig760-1

> <s_i_glide_gridfile>
glide-grid_1d3g

> <i_i_glide_lignum>
831

> <i_i_glide_rotatable_bonds>
4

> <r_i_docking_score>
-10.4155053654847

> <r_i_glide_ligand_efficiency>
-0.40059636021095

> <r_i_glide_ligand_efficiency_sa>
-1.18676514085438

> <r_i_glide_ligand_efficiency_ln>
-2.44604725902345

> <r_i_glide_gscore>
-10.4155053654847

> <r_i_glide_lipo>
-5.16396499675574

> <r_i_glide_hbond>
-0.16

> <r_i_glide_metal>
0

> <r_i_glide_rewards>
-2.6771895707381

> <r_i_glide_evdw>
-36.3444862365723

> <r_i_glide_ecoul>
-7.13438129425049

> <r_i_glide_erotb>
0.473030707975331

> <r_i_glide_esite>
0

> <r_i_glide_emodel>
-67.869164623986

> <r_i_glide_energy>
-43.4788675308228

> <r_i_glide_einternal>
2.43610548973083

> <i_i_glide_confnum>
16

> <i_i_glide_posenum>
378

> <r_i_glide_eff_state_penalty>
0

> <s_user_duplicate_titles>
CHEMBL1966_lig760

> <i_f3d_flags>
0

> <s_m_subgroup_title>
dock_pv

> <s_m_subgroupid>
dock_pv

> <b_m_subgroup_collapsed>
1

$$$$
CHEMBL1966_lig555
                    3D
 Schrodinger Suite 2021-1.
 38 41  0  0  1  0            999 V2000
   47.1071   38.6839   -0.4990 O   0  0  0  0  0  0
   48.0230   39.6100   -0.8895 C   0  0  0  0  0  0
   48.8230   40.0899   -0.0990 O   0  0  0  0  0  0
   48.0222   40.0100   -2.3423 C   0  0  0  0  0  0
   47.0057   39.5656   -3.1992 C   0  0  0  0  0  0
   46.9008   40.0100   -4.5145 C   0  0  0  0  0  0
   47.8358   40.8748   -5.0899 C   0  0  0  0  0  0
   48.8230   41.3667   -4.2350 C   0  0  0  0  0  0
   49.7570   42.3680   -4.3514 N   0  0  0  0  0  0
   50.3103   42.5392   -3.1047 C   0  0  0  0  0  0
   49.9081   41.6521   -2.2422 N   0  0  0  0  0  0
   48.9266   40.9468   -2.8837 C   0  0  0  0  0  0
   51.2230   43.6417   -2.7400 C   0  0  0  0  0  0
   50.9619   44.4760   -1.6378 C   0  0  0  0  0  0
   49.8385   44.3082   -0.8990 F   0  0  0  0  0  0
   51.8547   45.5021   -1.2990 C   0  0  0  0  0  0
   51.5798   46.3137   -0.2502 F   0  0  0  0  0  0
   53.0338   45.6789   -2.0382 C   0  0  0  0  0  0
   53.3043   44.8100   -3.0978 C   0  0  0  0  0  0
   54.5137   44.8632   -3.6990 F   0  0  0  0  0  0
   52.3934   43.8289   -3.4769 C   0  0  0  0  0  0
   52.6996   42.9985   -4.4990 F   0  0  0  0  0  0
   54.0447   46.7140   -1.7190 C   0  0  0  0  0  0
   54.6677   46.7507   -0.4683 C   0  0  0  0  0  0
   55.7422   47.6099   -0.2486 C   0  0  0  0  0  0
   56.1881   48.4572   -1.2633 C   0  0  0  0  0  0
   57.2230   49.2967   -1.0458 F   0  0  0  0  0  0
   55.5659   48.4339   -2.5078 C   0  0  0  0  0  0
   56.0230   49.2100   -3.5155 F   0  0  0  0  0  0
   54.4885   47.5822   -2.7259 C   0  0  0  0  0  0
   47.2229   38.5417    0.4498 H   0  0  0  0  0  0
   46.2437   38.8904   -2.8345 H   0  0  0  0  0  0
   46.0512   39.6780   -5.0959 H   0  0  0  0  0  0
   47.7197   41.2493   -6.0943 H   0  0  0  0  0  0
   49.9454   42.9771   -5.1342 H   0  0  0  0  0  0
   54.3584   46.0758    0.3174 H   0  0  0  0  0  0
   56.2468   47.5928    0.7010 H   0  0  0  0  0  0
   54.0343   47.5569   -3.7059 H   0  0  0  0  0  0
  1  2  1  0  0  0
  1 31  1  0  0  0
  2  3  2  0  0  0
  2  4  1  0  0  0
  4  5  2  0  0  0
  4 12  1  0  0  0
  5  6  1  0  0  0
  5 32  1  0  0  0
  6  7  2  0  0  0
  6 33  1  0  0  0
  7  8  1  0  0  0
  7 34  1  0  0  0
  8  9  1  0  0  0
  8 12  2  0  0  0
  9 10  1  0  0  0
  9 35  1  0  0  0
 10 11  2  0  0  0
 10 13  1  0  0  0
 11 12  1  0  0  0
 13 14  2  0  0  0
 13 21  1  0  0  0
 14 15  1  0  0  0
 14 16  1  0  0  0
 16 17  1  0  0  0
 16 18  2  0  0  0
 18 19  1  0  0  0
 18 23  1  0  0  0
 19 20  1  0  0  0
 19 21  2  0  0  0
 21 22  1  0  0  0
 23 24  2  0  0  0
 23 30  1  0  0  0
 24 25  1  0  0  0
 24 36  1  0  0  0
 25 26  2  0  0  0
 25 37  1  0  0  0
 26 27  1  0  0  0
 26 28  1  0  0  0
 28 29  1  0  0  0
 28 30  2  0  0  0
 30 38  1  0  0  0
M  END
> <s_m_entry_id>
25458

> <s_m_entry_name>
dock_pv.110

> <s_m_Source_Path>
/home/csk/Desktop/cluster/DUD-E-result/pyrd

> <s_m_Source_File>
dock_pv.maegz

> <i_m_Source_File_Index>
110

> <chembl_id>
CHEMBL3677815

> <chembl_pref_name>
None

> <i_lp_mmshare_version>
53161

> <r_lp_tautomer_probability>
1

> <s_lp_Force_Field>
OPLS_2005

> <r_lp_Energy>
28.845039

> <b_lp_Chiralities_Consistent>
1

> <s_lp_Variant>
CHEMBL1966_lig555-1

> <s_i_glide_gridfile>
glide-grid_1d3g

> <i_i_glide_lignum>
609

> <i_i_glide_rotatable_bonds>
4

> <r_i_docking_score>
-10.4128174020422

> <r_i_glide_ligand_efficiency>
-0.347093913401406

> <r_i_glide_ligand_efficiency_sa>
-1.07850148911685

> <r_i_glide_ligand_efficiency_ln>
-2.36590557047675

> <r_i_glide_gscore>
-10.4128174020422

> <r_i_glide_lipo>
-5.05128434486185

> <r_i_glide_hbond>
0

> <r_i_glide_metal>
0

> <r_i_glide_rewards>
-3.00699101534569

> <r_i_glide_evdw>
-42.6175384521484

> <r_i_glide_ecoul>
-3.70569205284119

> <r_i_glide_erotb>
0.333259987798643

> <r_i_glide_esite>
-0.00107129909967479

> <r_i_glide_emodel>
-59.5239104860588

> <r_i_glide_energy>
-46.3232305049896

> <r_i_glide_einternal>
1.34519803524017

> <i_i_glide_confnum>
31

> <i_i_glide_posenum>
120

> <r_i_glide_eff_state_penalty>
0

> <s_user_duplicate_titles>
CHEMBL1966_lig555

> <i_f3d_flags>
0

> <s_m_subgroup_title>
dock_pv

> <s_m_subgroupid>
dock_pv

> <b_m_subgroup_collapsed>
1

$$$$
CHEMBL1966_lig416
                    3D
 Schrodinger Suite 2021-1.
 42 44  0  0  1  0            999 V2000
   47.0942   38.5724   -0.8987 C   0  0  0  0  0  0
   47.9228   39.6270   -1.6078 C   0  0  0  0  0  0
   48.8230   40.4089   -0.8829 C   0  0  0  0  0  0
   49.6230   41.3326   -1.5375 C   0  0  0  0  0  0
   49.4926   41.5612   -2.9121 C   0  0  0  0  0  0
   50.3106   42.5243   -3.5260 N   0  0  0  0  0  0
   51.1132   43.5442   -2.9932 C   0  0  0  0  0  0
   50.8263   44.2259   -1.7997 C   0  0  0  0  0  0
   51.7027   45.2104   -1.3331 C   0  0  0  0  0  0
   52.8687   45.4848   -2.0696 C   0  0  0  0  0  0
   53.1295   44.8535   -3.2508 N   0  0  0  0  0  0
   52.2556   43.9163   -3.6984 C   0  0  0  0  0  0
   53.9528   46.3760   -1.5591 C   0  0  0  0  0  0
   54.2177   46.4472   -0.1846 C   0  0  0  0  0  0
   55.2935   47.1846    0.3011 C   0  0  0  0  0  0
   56.1216   47.8736   -0.5795 C   0  0  0  0  0  0
   55.8709   47.8446   -1.9541 C   0  0  0  0  0  0
   54.7846   47.0984   -2.4306 C   0  0  0  0  0  0
   56.7755   48.5982   -2.9280 C   0  0  0  0  0  0
   56.0478   49.2090   -3.8607 F   0  0  0  0  0  0
   57.5171   49.5217   -2.3124 F   0  0  0  0  0  0
   57.5929   47.7321   -3.5255 F   0  0  0  0  0  0
   48.5473   40.8100   -3.6537 C   0  0  0  0  0  0
   47.7839   39.8381   -2.9810 C   0  0  0  0  0  0
   48.3314   41.0064   -5.1405 C   0  0  0  0  0  0
   49.2230   41.3408   -5.9161 O   0  0  0  0  0  0
   47.0462   40.8101   -5.5491 O   0  0  0  0  0  0
   46.5136   39.0329   -0.0980 H   0  0  0  0  0  0
   47.7454   37.8256   -0.4417 H   0  0  0  0  0  0
   46.4018   38.0646   -1.5715 H   0  0  0  0  0  0
   48.9456   40.2497    0.1787 H   0  0  0  0  0  0
   50.3613   41.8539   -0.9509 H   0  0  0  0  0  0
   50.4440   42.3492   -4.5129 H   0  0  0  0  0  0
   49.9270   44.0157   -1.2419 H   0  0  0  0  0  0
   51.4893   45.7224   -0.4066 H   0  0  0  0  0  0
   52.5193   43.4075   -4.6127 H   0  0  0  0  0  0
   53.6129   45.8990    0.5226 H   0  0  0  0  0  0
   55.4924   47.2097    1.3627 H   0  0  0  0  0  0
   56.9662   48.4223   -0.1863 H   0  0  0  0  0  0
   54.6021   47.0577   -3.4955 H   0  0  0  0  0  0
   47.0821   39.2164   -3.5202 H   0  0  0  0  0  0
   46.4643   40.7283   -4.7910 H   0  0  0  0  0  0
  1  2  1  0  0  0
  1 28  1  0  0  0
  1 29  1  0  0  0
  1 30  1  0  0  0
  2  3  2  0  0  0
  2 24  1  0  0  0
  3  4  1  0  0  0
  3 31  1  0  0  0
  4  5  2  0  0  0
  4 32  1  0  0  0
  5  6  1  0  0  0
  5 23  1  0  0  0
  6  7  1  0  0  0
  6 33  1  0  0  0
  7  8  2  0  0  0
  7 12  1  0  0  0
  8  9  1  0  0  0
  8 34  1  0  0  0
  9 10  2  0  0  0
  9 35  1  0  0  0
 10 11  1  0  0  0
 10 13  1  0  0  0
 11 12  2  0  0  0
 12 36  1  0  0  0
 13 14  2  0  0  0
 13 18  1  0  0  0
 14 15  1  0  0  0
 14 37  1  0  0  0
 15 16  2  0  0  0
 15 38  1  0  0  0
 16 17  1  0  0  0
 16 39  1  0  0  0
 17 18  2  0  0  0
 17 19  1  0  0  0
 18 40  1  0  0  0
 19 20  1  0  0  0
 19 21  1  0  0  0
 19 22  1  0  0  0
 23 24  2  0  0  0
 23 25  1  0  0  0
 24 41  1  0  0  0
 25 26  2  0  0  0
 25 27  1  0  0  0
 27 42  1  0  0  0
M  END
> <s_m_entry_id>
25459

> <s_m_entry_name>
dock_pv.111

> <s_m_Source_Path>
/home/csk/Desktop/cluster/DUD-E-result/pyrd

> <s_m_Source_File>
dock_pv.maegz

> <i_m_Source_File_Index>
111

> <chembl_id>
CHEMBL3674626

> <chembl_pref_name>
None

> <i_lp_mmshare_version>
53161

> <r_lp_tautomer_probability>
0.999999999999999

> <s_lp_Force_Field>
OPLS_2005

> <r_lp_Energy>
27.913519

> <b_lp_Chiralities_Consistent>
1

> <s_lp_Variant>
CHEMBL1966_lig416-1

> <s_i_glide_gridfile>
glide-grid_1d3g

> <i_i_glide_lignum>
466

> <i_i_glide_rotatable_bonds>
6

> <r_i_docking_score>
-10.3803998716634

> <r_i_glide_ligand_efficiency>
-0.384459254506053

> <r_i_glide_ligand_efficiency_sa>
-1.15337776225105

> <r_i_glide_ligand_efficiency_ln>
-2.4163859558565

> <r_i_glide_gscore>
-10.3803998716634

> <r_i_glide_lipo>
-5.4747317511236

> <r_i_glide_hbond>
-0.0341203372824655

> <r_i_glide_metal>
0

> <r_i_glide_rewards>
-2.86248324099494

> <r_i_glide_evdw>
-44.3208808898926

> <r_i_glide_ecoul>
-2.33496999740601

> <r_i_glide_erotb>
0.557225001843094

> <r_i_glide_esite>
0

> <r_i_glide_emodel>
-67.5000401215814

> <r_i_glide_energy>
-46.6558508872986

> <r_i_glide_einternal>
13.7221345901489

> <i_i_glide_confnum>
36

> <i_i_glide_posenum>
180

> <r_i_glide_eff_state_penalty>
0

> <s_user_duplicate_titles>
CHEMBL1966_lig416

> <i_f3d_flags>
0

> <s_m_subgroup_title>
dock_pv

> <s_m_subgroupid>
dock_pv

> <b_m_subgroup_collapsed>
1

$$$$
CHEMBL1966_lig563
                    3D
 Schrodinger Suite 2021-1.
 38 41  0  0  1  0            999 V2000
   47.1094   38.6823   -0.4990 O   0  0  0  0  0  0
   48.0230   39.6100   -0.8911 C   0  0  0  0  0  0
   48.8230   40.0935   -0.0990 O   0  0  0  0  0  0
   48.0147   40.0100   -2.3463 C   0  0  0  0  0  0
   46.9776   39.5699   -3.1853 C   0  0  0  0  0  0
   46.8545   40.0100   -4.4994 C   0  0  0  0  0  0
   47.8100   40.8533   -5.0504 C   0  0  0  0  0  0
   48.8065   41.3266   -4.2460 N   0  0  0  0  0  0
   49.7413   42.3002   -4.4577 C   0  0  0  0  0  0
   50.3248   42.5196   -3.2147 C   0  0  0  0  0  0
   49.9258   41.6532   -2.3097 N   0  0  0  0  0  0
   48.9334   40.9395   -2.8990 C   0  0  0  0  0  0
   51.2503   43.6100   -2.8447 C   0  0  0  0  0  0
   51.0451   44.3432   -1.6687 C   0  0  0  0  0  0
   51.9440   45.3413   -1.2990 C   0  0  0  0  0  0
   53.0593   45.6139   -2.0990 C   0  0  0  0  0  0
   53.2230   44.9172   -3.2990 C   0  0  0  0  0  0
   52.3271   43.9188   -3.6749 C   0  0  0  0  0  0
   54.1070   46.5728   -1.6656 C   0  0  0  0  0  0
   54.6388   46.4871   -0.3742 C   0  0  0  0  0  0
   55.7007   47.3004    0.0034 C   0  0  0  0  0  0
   56.2176   48.2272   -0.8990 C   0  0  0  0  0  0
   55.6775   48.3482   -2.1762 C   0  0  0  0  0  0
   54.6282   47.5172   -2.5597 C   0  0  0  0  0  0
   47.2230   38.5414    0.4503 H   0  0  0  0  0  0
   46.2165   38.9003   -2.8075 H   0  0  0  0  0  0
   46.0148   39.6759   -5.0925 H   0  0  0  0  0  0
   47.7540   41.2676   -6.0446 H   0  0  0  0  0  0
   49.8331   42.8397   -5.3886 H   0  0  0  0  0  0
   50.2009   44.1252   -1.0301 H   0  0  0  0  0  0
   51.7900   45.8774   -0.3736 H   0  0  0  0  0  0
   54.0820   45.1290   -3.9165 H   0  0  0  0  0  0
   52.4889   43.3533   -4.5798 H   0  0  0  0  0  0
   54.2600   45.7580    0.3277 H   0  0  0  0  0  0
   56.1252   47.2100    0.9930 H   0  0  0  0  0  0
   57.0446   48.8570   -0.6026 H   0  0  0  0  0  0
   56.0808   49.0713   -2.8701 H   0  0  0  0  0  0
   54.2266   47.5998   -3.5598 H   0  0  0  0  0  0
  1  2  1  0  0  0
  1 25  1  0  0  0
  2  3  2  0  0  0
  2  4  1  0  0  0
  4  5  2  0  0  0
  4 12  1  0  0  0
  5  6  1  0  0  0
  5 26  1  0  0  0
  6  7  2  0  0  0
  6 27  1  0  0  0
  7  8  1  0  0  0
  7 28  1  0  0  0
  8  9  1  0  0  0
  8 12  1  0  0  0
  9 10  2  0  0  0
  9 29  1  0  0  0
 10 11  1  0  0  0
 10 13  1  0  0  0
 11 12  2  0  0  0
 13 14  2  0  0  0
 13 18  1  0  0  0
 14 15  1  0  0  0
 14 30  1  0  0  0
 15 16  2  0  0  0
 15 31  1  0  0  0
 16 17  1  0  0  0
 16 19  1  0  0  0
 17 18  2  0  0  0
 17 32  1  0  0  0
 18 33  1  0  0  0
 19 20  2  0  0  0
 19 24  1  0  0  0
 20 21  1  0  0  0
 20 34  1  0  0  0
 21 22  2  0  0  0
 21 35  1  0  0  0
 22 23  1  0  0  0
 22 36  1  0  0  0
 23 24  2  0  0  0
 23 37  1  0  0  0
 24 38  1  0  0  0
M  END
> <s_m_entry_id>
25460

> <s_m_entry_name>
dock_pv.112

> <s_m_Source_Path>
/home/csk/Desktop/cluster/DUD-E-result/pyrd

> <s_m_Source_File>
dock_pv.maegz

> <i_m_Source_File_Index>
112

> <chembl_id>
CHEMBL3677823

> <chembl_pref_name>
None

> <i_lp_mmshare_version>
53161

> <r_lp_tautomer_probability>
1

> <s_lp_Force_Field>
OPLS_2005

> <r_lp_Energy>
21.556194

> <b_lp_Chiralities_Consistent>
1

> <s_lp_Variant>
CHEMBL1966_lig563-1

> <s_i_glide_gridfile>
glide-grid_1d3g

> <i_i_glide_lignum>
617

> <i_i_glide_rotatable_bonds>
4

> <r_i_docking_score>
-10.3691989864871

> <r_i_glide_ligand_efficiency>
-0.432049957770297

> <r_i_glide_ligand_efficiency_sa>
-1.24624773057088

> <r_i_glide_ligand_efficiency_ln>
-2.48182512900357

> <r_i_glide_gscore>
-10.3691989864871

> <r_i_glide_lipo>
-5.00391125636136

> <r_i_glide_hbond>
0

> <r_i_glide_metal>
0

> <r_i_glide_rewards>
-3.20967055248291

> <r_i_glide_evdw>
-41.7790222167969

> <r_i_glide_ecoul>
-4.20667600631714

> <r_i_glide_erotb>
0.564335334144549

> <r_i_glide_esite>
0

> <r_i_glide_emodel>
-65.3976807563927

> <r_i_glide_energy>
-45.985698223114

> <r_i_glide_einternal>
4.76623868942261

> <i_i_glide_confnum>
12

> <i_i_glide_posenum>
162

> <r_i_glide_eff_state_penalty>
0

> <s_user_duplicate_titles>
CHEMBL1966_lig563

> <i_f3d_flags>
0

> <s_m_subgroup_title>
dock_pv

> <s_m_subgroupid>
dock_pv

> <b_m_subgroup_collapsed>
1

$$$$
CHEMBL1966_lig451
                    3D
 Schrodinger Suite 2021-1.
 46 49  0  0  1  0            999 V2000
   49.5578   42.4374   -5.6997 O   0  0  0  0  0  0
   48.8264   41.4519   -5.1128 C   0  0  0  0  0  0
   48.0034   40.8100   -5.7619 O   0  0  0  0  0  0
   49.0678   41.2132   -3.6266 C   0  0  0  0  0  0
   48.3178   40.2070   -2.9944 C   0  0  0  0  0  0
   48.3643   40.0138   -1.6095 C   0  0  0  0  0  0
   49.2240   40.7981   -0.8428 C   0  0  0  0  0  0
   50.0229   41.7536   -1.4508 C   0  0  0  0  0  0
   49.9438   41.9915   -2.8266 C   0  0  0  0  0  0
   50.7788   42.9605   -3.3969 N   0  0  0  0  0  0
   51.5749   43.9782   -2.8712 C   0  0  0  0  0  0
   52.7039   44.3452   -3.5768 C   0  0  0  0  0  0
   53.5744   45.2882   -3.1485 N   0  0  0  0  0  0
   53.3470   45.8929   -1.9503 C   0  0  0  0  0  0
   54.4351   46.8360   -1.5883 C   0  0  0  0  0  0
   55.2741   46.5798   -0.4996 C   0  0  0  0  0  0
   56.2949   47.4634   -0.1752 C   0  0  0  0  0  0
   56.5260   48.5762   -0.9767 C   0  0  0  0  0  0
   55.7302   48.8216   -2.0895 C   0  0  0  0  0  0
   54.6768   47.9616   -2.3862 C   0  0  0  0  0  0
   52.2000   45.6034   -1.1707 C   0  0  0  0  0  0
   51.2964   44.6563   -1.6873 C   0  0  0  0  0  0
   51.9451   46.1080    0.2562 C   0  0  0  0  0  0
   51.2234   47.2098    0.1903 F   0  0  0  0  0  0
   51.2335   45.2100    0.9373 F   0  0  0  0  0  0
   53.0241   46.3710    0.9833 F   0  0  0  0  0  0
   47.4300   39.0535   -0.8995 C   0  0  0  0  0  0
   46.1948   38.4699   -1.5464 C   0  0  0  0  0  0
   47.3896   37.5943   -1.2312 C   0  0  0  0  0  0
   49.2475   42.6010   -6.5917 H   0  0  0  0  0  0
   47.6463   39.5978   -3.5813 H   0  0  0  0  0  0
   49.2833   40.6566    0.2265 H   0  0  0  0  0  0
   50.7178   42.2912   -0.8280 H   0  0  0  0  0  0
   50.8550   42.8453   -4.3994 H   0  0  0  0  0  0
   52.9162   43.8296   -4.4984 H   0  0  0  0  0  0
   55.1341   45.6955    0.1053 H   0  0  0  0  0  0
   56.9091   47.2788    0.6935 H   0  0  0  0  0  0
   57.3334   49.2525   -0.7373 H   0  0  0  0  0  0
   55.9347   49.6780   -2.7142 H   0  0  0  0  0  0
   54.0564   48.1585   -3.2492 H   0  0  0  0  0  0
   50.3935   44.4201   -1.1441 H   0  0  0  0  0  0
   47.3230   39.2810    0.1609 H   0  0  0  0  0  0
   45.9584   38.6938   -2.5855 H   0  0  0  0  0  0
   45.2933   38.4109   -0.9377 H   0  0  0  0  0  0
   47.3247   36.8802   -0.4107 H   0  0  0  0  0  0
   48.0243   37.2313   -2.0405 H   0  0  0  0  0  0
  1  2  1  0  0  0
  1 30  1  0  0  0
  2  3  2  0  0  0
  2  4  1  0  0  0
  4  5  2  0  0  0
  4  9  1  0  0  0
  5  6  1  0  0  0
  5 31  1  0  0  0
  6  7  2  0  0  0
  6 27  1  0  0  0
  7  8  1  0  0  0
  7 32  1  0  0  0
  8  9  2  0  0  0
  8 33  1  0  0  0
  9 10  1  0  0  0
 10 11  1  0  0  0
 10 34  1  0  0  0
 11 12  2  0  0  0
 11 22  1  0  0  0
 12 13  1  0  0  0
 12 35  1  0  0  0
 13 14  2  0  0  0
 14 15  1  0  0  0
 14 21  1  0  0  0
 15 16  2  0  0  0
 15 20  1  0  0  0
 16 17  1  0  0  0
 16 36  1  0  0  0
 17 18  2  0  0  0
 17 37  1  0  0  0
 18 19  1  0  0  0
 18 38  1  0  0  0
 19 20  2  0  0  0
 19 39  1  0  0  0
 20 40  1  0  0  0
 21 22  2  0  0  0
 21 23  1  0  0  0
 22 41  1  0  0  0
 23 24  1  0  0  0
 23 25  1  0  0  0
 23 26  1  0  0  0
 27 28  1  0  0  0
 27 29  1  0  0  0
 27 42  1  0  0  0
 28 29  1  0  0  0
 28 43  1  0  0  0
 28 44  1  0  0  0
 29 45  1  0  0  0
 29 46  1  0  0  0
M  END
> <s_m_entry_id>
25461

> <s_m_entry_name>
dock_pv.113

> <s_m_Source_Path>
/home/csk/Desktop/cluster/DUD-E-result/pyrd

> <s_m_Source_File>
dock_pv.maegz

> <i_m_Source_File_Index>
113

> <chembl_id>
CHEMBL3674660

> <chembl_pref_name>
None

> <i_lp_mmshare_version>
53161

> <r_lp_tautomer_probability>
0.999999999999999

> <s_lp_Force_Field>
OPLS_2005

> <r_lp_Energy>
36.109538

> <b_lp_Chiralities_Consistent>
1

> <s_lp_Variant>
CHEMBL1966_lig451-1

> <s_i_glide_gridfile>
glide-grid_1d3g

> <i_i_glide_lignum>
501

> <i_i_glide_rotatable_bonds>
7

> <r_i_docking_score>
-10.3606900206108

> <r_i_glide_ligand_efficiency>
-0.357265173124511

> <r_i_glide_ligand_efficiency_sa>
-1.09763180138998

> <r_i_glide_ligand_efficiency_ln>
-2.37233529028944

> <r_i_glide_gscore>
-10.3606900206108

> <r_i_glide_lipo>
-5.86090024537291

> <r_i_glide_hbond>
-0.0758006184374212

> <r_i_glide_metal>
0

> <r_i_glide_rewards>
-2.72730129352024

> <r_i_glide_evdw>
-39.6217994689941

> <r_i_glide_ecoul>
-2.21729207038879

> <r_i_glide_erotb>
0.616995920727782

> <r_i_glide_esite>
0

> <r_i_glide_emodel>
-57.4924690433458

> <r_i_glide_energy>
-41.8390915393829

> <r_i_glide_einternal>
11.1064834594727

> <i_i_glide_confnum>
46

> <i_i_glide_posenum>
234

> <r_i_glide_eff_state_penalty>
0

> <s_user_duplicate_titles>
CHEMBL1966_lig451

> <i_f3d_flags>
0

> <s_m_subgroup_title>
dock_pv

> <s_m_subgroupid>
dock_pv

> <b_m_subgroup_collapsed>
1

$$$$
CHEMBL1966_lig559
                    3D
 Schrodinger Suite 2021-1.
 41 44  0  0  1  0            999 V2000
   47.1869   38.5033   -1.0396 C   0  0  0  0  0  0
   47.9522   39.6100   -1.7410 C   0  0  0  0  0  0
   47.7824   39.7980   -3.1147 C   0  0  0  0  0  0
   48.4646   40.7968   -3.8288 C   0  0  0  0  0  0
   48.2075   40.9550   -5.2990 C   0  0  0  0  0  0
   49.1033   41.2100   -6.0990 O   0  0  0  0  0  0
   46.9007   40.8100   -5.6650 O   0  0  0  0  0  0
   49.3639   41.5978   -3.0930 C   0  0  0  0  0  0
   50.1214   42.6691   -3.4993 N   0  0  0  0  0  0
   50.6964   43.1170   -2.4093 C   0  0  0  0  0  0
   50.4017   42.3606   -1.3050 N   0  0  0  0  0  0
   49.5322   41.3816   -1.7011 C   0  0  0  0  0  0
   48.8230   40.4100   -0.9985 C   0  0  0  0  0  0
   51.6230   44.2762   -2.3370 C   0  0  0  0  0  0
   52.6339   44.4100   -3.2990 C   0  0  0  0  0  0
   52.7269   43.5183   -4.3124 F   0  0  0  0  0  0
   53.5922   45.4189   -3.1741 C   0  0  0  0  0  0
   54.5744   45.5388   -4.0990 F   0  0  0  0  0  0
   53.5857   46.2807   -2.0734 C   0  0  0  0  0  0
   52.5773   46.1420   -1.1105 C   0  0  0  0  0  0
   52.5676   46.9307   -0.0102 F   0  0  0  0  0  0
   51.5893   45.1676   -1.2545 C   0  0  0  0  0  0
   50.6372   45.0474   -0.2992 F   0  0  0  0  0  0
   54.6817   47.2700   -1.9304 C   0  0  0  0  0  0
   55.5149   47.2379   -0.8095 C   0  0  0  0  0  0
   56.6129   48.0866   -0.7351 C   0  0  0  0  0  0
   56.8700   48.9872   -1.7660 C   0  0  0  0  0  0
   57.9331   49.8188   -1.6990 F   0  0  0  0  0  0
   56.0403   49.0346   -2.8785 C   0  0  0  0  0  0
   54.9458   48.1807   -2.9595 C   0  0  0  0  0  0
   47.6614   38.2156   -0.1000 H   0  0  0  0  0  0
   46.1604   38.8123   -0.8413 H   0  0  0  0  0  0
   47.1605   37.6100   -1.6629 H   0  0  0  0  0  0
   47.1022   39.1365   -3.6325 H   0  0  0  0  0  0
   46.3231   40.7770   -4.8989 H   0  0  0  0  0  0
   50.7518   42.5680   -0.3828 H   0  0  0  0  0  0
   48.9454   40.2696    0.0657 H   0  0  0  0  0  0
   55.3353   46.5311   -0.0118 H   0  0  0  0  0  0
   57.2664   48.0342    0.1215 H   0  0  0  0  0  0
   56.2514   49.7316   -3.6763 H   0  0  0  0  0  0
   54.3146   48.2110   -3.8369 H   0  0  0  0  0  0
  1  2  1  0  0  0
  1 31  1  0  0  0
  1 32  1  0  0  0
  1 33  1  0  0  0
  2  3  2  0  0  0
  2 13  1  0  0  0
  3  4  1  0  0  0
  3 34  1  0  0  0
  4  5  1  0  0  0
  4  8  2  0  0  0
  5  6  2  0  0  0
  5  7  1  0  0  0
  7 35  1  0  0  0
  8  9  1  0  0  0
  8 12  1  0  0  0
  9 10  2  0  0  0
 10 11  1  0  0  0
 10 14  1  0  0  0
 11 12  1  0  0  0
 11 36  1  0  0  0
 12 13  2  0  0  0
 13 37  1  0  0  0
 14 15  2  0  0  0
 14 22  1  0  0  0
 15 16  1  0  0  0
 15 17  1  0  0  0
 17 18  1  0  0  0
 17 19  2  0  0  0
 19 20  1  0  0  0
 19 24  1  0  0  0
 20 21  1  0  0  0
 20 22  2  0  0  0
 22 23  1  0  0  0
 24 25  2  0  0  0
 24 30  1  0  0  0
 25 26  1  0  0  0
 25 38  1  0  0  0
 26 27  2  0  0  0
 26 39  1  0  0  0
 27 28  1  0  0  0
 27 29  1  0  0  0
 29 30  2  0  0  0
 29 40  1  0  0  0
 30 41  1  0  0  0
M  END
> <s_m_entry_id>
25462

> <s_m_entry_name>
dock_pv.114

> <s_m_Source_Path>
/home/csk/Desktop/cluster/DUD-E-result/pyrd

> <s_m_Source_File>
dock_pv.maegz

> <i_m_Source_File_Index>
114

> <chembl_id>
CHEMBL3677819

> <chembl_pref_name>
None

> <i_lp_mmshare_version>
53161

> <r_lp_tautomer_probability>
1

> <s_lp_Force_Field>
OPLS_2005

> <r_lp_Energy>
29.060241

> <b_lp_Chiralities_Consistent>
1

> <s_lp_Variant>
CHEMBL1966_lig559-1

> <s_i_glide_gridfile>
glide-grid_1d3g

> <i_i_glide_lignum>
613

> <i_i_glide_rotatable_bonds>
4

> <r_i_docking_score>
-10.3332324837897

> <r_i_glide_ligand_efficiency>
-0.344441082792991

> <r_i_glide_ligand_efficiency_sa>
-1.07025852762694

> <r_i_glide_ligand_efficiency_ln>
-2.34782300990266

> <r_i_glide_gscore>
-10.3332324837897

> <r_i_glide_lipo>
-5.36368264559452

> <r_i_glide_hbond>
-0.132717868143873

> <r_i_glide_metal>
0

> <r_i_glide_rewards>
-2.87368934579814

> <r_i_glide_evdw>
-39.6642684936523

> <r_i_glide_ecoul>
-2.10065245628357

> <r_i_glide_erotb>
0.3389906886759

> <r_i_glide_esite>
-0.00382201980395183

> <r_i_glide_emodel>
-57.2479057529935

> <r_i_glide_energy>
-41.7649209499359

> <r_i_glide_einternal>
4.90083312988281

> <i_i_glide_confnum>
32

> <i_i_glide_posenum>
256

> <r_i_glide_eff_state_penalty>
0

> <s_user_duplicate_titles>
CHEMBL1966_lig559

> <i_f3d_flags>
0

> <s_m_subgroup_title>
dock_pv

> <s_m_subgroupid>
dock_pv

> <b_m_subgroup_collapsed>
1

$$$$
CHEMBL1966_lig496
                    3D
 Schrodinger Suite 2021-1.
 39 42  0  0  1  0            999 V2000
   47.1193   38.6818   -0.4991 O   0  0  0  0  0  0
   48.0230   39.6101   -0.9164 C   0  0  0  0  0  0
   48.8230   40.1094   -0.1301 O   0  0  0  0  0  0
   47.9547   40.0040   -2.3842 C   0  0  0  0  0  0
   46.8806   39.5586   -3.1797 C   0  0  0  0  0  0
   46.7118   40.0100   -4.4923 C   0  0  0  0  0  0
   45.2970   39.5836   -5.3845 Cl  0  0  0  0  0  0
   47.6601   40.8458   -5.0736 C   0  0  0  0  0  0
   48.7131   41.3150   -4.2963 C   0  0  0  0  0  0
   49.6930   42.4105   -4.5562 C   0  0  0  0  0  0
   50.2890   42.5331   -3.1644 C   0  0  0  0  0  0
   49.8490   41.6634   -2.3424 N   0  0  0  0  0  0
   48.8519   40.9220   -2.9736 C   0  0  0  0  0  0
   51.2230   43.6099   -2.8257 C   0  0  0  0  0  0
   52.3054   43.9022   -3.6608 C   0  0  0  0  0  0
   53.2127   44.8967   -3.2936 C   0  0  0  0  0  0
   53.0480   45.6100   -2.1010 C   0  0  0  0  0  0
   51.9301   45.3538   -1.2990 C   0  0  0  0  0  0
   51.0255   44.3556   -1.6552 C   0  0  0  0  0  0
   54.0923   46.5745   -1.6727 C   0  0  0  0  0  0
   54.5640   47.5587   -2.5507 C   0  0  0  0  0  0
   55.5985   48.4089   -2.1661 C   0  0  0  0  0  0
   56.1672   48.2731   -0.9023 C   0  0  0  0  0  0
   55.6995   47.3057   -0.0166 C   0  0  0  0  0  0
   54.6594   46.4657   -0.3978 C   0  0  0  0  0  0
   47.2233   38.5628    0.4539 H   0  0  0  0  0  0
   46.1242   38.9042   -2.7690 H   0  0  0  0  0  0
   47.5049   41.2281   -6.0705 H   0  0  0  0  0  0
   50.4230   42.1556   -5.3142 H   0  0  0  0  0  0
   49.2199   43.3465   -4.8525 H   0  0  0  0  0  0
   52.4748   43.3323   -4.5623 H   0  0  0  0  0  0
   54.0760   45.0974   -3.9083 H   0  0  0  0  0  0
   51.7799   45.9029   -0.3804 H   0  0  0  0  0  0
   50.1830   44.1551   -1.0073 H   0  0  0  0  0  0
   54.1353   47.6569   -3.5383 H   0  0  0  0  0  0
   55.9659   49.1618   -2.8482 H   0  0  0  0  0  0
   56.9790   48.9219   -0.6046 H   0  0  0  0  0  0
   56.1457   47.2089    0.9630 H   0  0  0  0  0  0
   54.3165   45.7069    0.2911 H   0  0  0  0  0  0
  1  2  1  0  0  0
  1 26  1  0  0  0
  2  3  2  0  0  0
  2  4  1  0  0  0
  4  5  2  0  0  0
  4 13  1  0  0  0
  5  6  1  0  0  0
  5 27  1  0  0  0
  6  7  1  0  0  0
  6  8  2  0  0  0
  8  9  1  0  0  0
  8 28  1  0  0  0
  9 10  1  0  0  0
  9 13  2  0  0  0
 10 11  1  0  0  0
 10 29  1  0  0  0
 10 30  1  0  0  0
 11 12  2  0  0  0
 11 14  1  0  0  0
 12 13  1  0  0  0
 14 15  2  0  0  0
 14 19  1  0  0  0
 15 16  1  0  0  0
 15 31  1  0  0  0
 16 17  2  0  0  0
 16 32  1  0  0  0
 17 18  1  0  0  0
 17 20  1  0  0  0
 18 19  2  0  0  0
 18 33  1  0  0  0
 19 34  1  0  0  0
 20 21  2  0  0  0
 20 25  1  0  0  0
 21 22  1  0  0  0
 21 35  1  0  0  0
 22 23  2  0  0  0
 22 36  1  0  0  0
 23 24  1  0  0  0
 23 37  1  0  0  0
 24 25  2  0  0  0
 24 38  1  0  0  0
 25 39  1  0  0  0
M  END
> <s_m_entry_id>
25463

> <s_m_entry_name>
dock_pv.115

> <s_m_Source_Path>
/home/csk/Desktop/cluster/DUD-E-result/pyrd

> <s_m_Source_File>
dock_pv.maegz

> <i_m_Source_File_Index>
115

> <chembl_id>
CHEMBL3677753

> <chembl_pref_name>
None

> <i_lp_mmshare_version>
53161

> <r_lp_tautomer_probability>
0.999601159137504

> <s_lp_Force_Field>
OPLS_2005

> <r_lp_Energy>
36.434891

> <b_lp_Chiralities_Consistent>
1

> <s_lp_Variant>
CHEMBL1966_lig496-1

> <s_i_glide_gridfile>
glide-grid_1d3g

> <i_i_glide_lignum>
546

> <i_i_glide_rotatable_bonds>
4

> <r_i_docking_score>
-10.3207498279176

> <r_i_glide_ligand_efficiency>
-0.412829993116704

> <r_i_glide_ligand_efficiency_sa>
-1.20712222144435

> <r_i_glide_ligand_efficiency_ln>
-2.44632699713081

> <r_i_glide_gscore>
-10.3207498279176

> <r_i_glide_lipo>
-5.38254266022644

> <r_i_glide_hbond>
0

> <r_i_glide_metal>
0

> <r_i_glide_rewards>
-2.52544896347537

> <r_i_glide_evdw>
-42.358772277832

> <r_i_glide_ecoul>
-5.11173105239868

> <r_i_glide_erotb>
0.471940067535615

> <r_i_glide_esite>
0

> <r_i_glide_emodel>
-66.8449140446226

> <r_i_glide_energy>
-47.4705033302307

> <r_i_glide_einternal>
2.93945503234863

> <i_i_glide_confnum>
4

> <i_i_glide_posenum>
73

> <r_i_glide_eff_state_penalty>
0

> <s_user_duplicate_titles>
CHEMBL1966_lig496

> <i_f3d_flags>
0

> <s_m_subgroup_title>
dock_pv

> <s_m_subgroupid>
dock_pv

> <b_m_subgroup_collapsed>
1

$$$$
CHEMBL1966_lig459
                    3D
 Schrodinger Suite 2021-1.
 56 59  0  0  1  0            999 V2000
   47.0704   38.5937   -0.8990 C   0  0  0  0  0  0
   47.9024   39.6367   -1.6202 C   0  0  0  0  0  0
   48.8230   40.4100   -0.9113 C   0  0  0  0  0  0
   49.6230   41.3150   -1.5826 C   0  0  0  0  0  0
   49.5044   41.5209   -2.9619 C   0  0  0  0  0  0
   50.3626   42.4450   -3.5875 N   0  0  0  0  0  0
   51.1578   43.4687   -3.0473 C   0  0  0  0  0  0
   52.3271   43.8381   -3.6990 C   0  0  0  0  0  0
   53.1605   44.8084   -3.2487 N   0  0  0  0  0  0
   52.8716   45.4536   -2.0811 C   0  0  0  0  0  0
   51.6727   45.1630   -1.3776 C   0  0  0  0  0  0
   51.2230   45.8382   -0.0986 C   0  0  0  0  0  0
   50.8247   44.1673   -1.8842 C   0  0  0  0  0  0
   53.9747   46.3747   -1.6347 C   0  0  0  0  0  0
   54.4299   46.4095   -0.3069 C   0  0  0  0  0  0
   55.5156   47.1956    0.0722 C   0  0  0  0  0  0
   56.2200   47.9193   -0.8839 C   0  0  0  0  0  0
   55.8456   47.8506   -2.2275 C   0  0  0  0  0  0
   54.6926   47.1299   -2.5785 C   0  0  0  0  0  0
   56.7118   48.5074   -3.2726 C   0  0  0  0  0  0
   57.0338   49.6870   -3.1268 O   0  0  0  0  0  0
   57.1445   47.7559   -4.3178 N   0  0  0  0  0  0
   56.9821   46.2974   -4.4411 C   0  0  0  0  0  0
   58.0860   45.9189   -5.4269 C   0  0  0  0  0  0
   58.2143   47.1431   -6.3136 C   0  0  0  0  0  0
   58.0402   48.3080   -5.3420 C   0  0  0  0  0  0
   48.5392   40.7794   -3.6863 C   0  0  0  0  0  0
   47.7582   39.8330   -2.9960 C   0  0  0  0  0  0
   48.3213   40.9526   -5.1742 C   0  0  0  0  0  0
   49.2230   41.2118   -5.9669 O   0  0  0  0  0  0
   47.0235   40.8100   -5.5663 O   0  0  0  0  0  0
   46.7606   37.7949   -1.5713 H   0  0  0  0  0  0
   47.6480   38.1247   -0.1004 H   0  0  0  0  0  0
   46.1862   39.0541   -0.4584 H   0  0  0  0  0  0
   48.9520   40.2646    0.1511 H   0  0  0  0  0  0
   50.3770   41.8235   -1.0043 H   0  0  0  0  0  0
   50.5220   42.2423   -4.5644 H   0  0  0  0  0  0
   52.6349   43.3182   -4.5929 H   0  0  0  0  0  0
   50.4603   45.2099    0.3806 H   0  0  0  0  0  0
   51.9955   45.9585    0.6526 H   0  0  0  0  0  0
   50.8241   46.8250   -0.3327 H   0  0  0  0  0  0
   49.8973   43.9513   -1.3766 H   0  0  0  0  0  0
   53.9990   45.7748    0.4472 H   0  0  0  0  0  0
   55.8408   47.2066    1.1015 H   0  0  0  0  0  0
   57.0930   48.4833   -0.5814 H   0  0  0  0  0  0
   54.3842   47.1033   -3.6145 H   0  0  0  0  0  0
   56.0233   46.0588   -4.9003 H   0  0  0  0  0  0
   57.1405   45.7654   -3.5018 H   0  0  0  0  0  0
   57.8584   45.0040   -5.9748 H   0  0  0  0  0  0
   59.0207   45.7463   -4.8892 H   0  0  0  0  0  0
   59.1570   47.1898   -6.8617 H   0  0  0  0  0  0
   57.4117   47.1535   -7.0530 H   0  0  0  0  0  0
   58.9999   48.5573   -4.8849 H   0  0  0  0  0  0
   57.6232   49.1915   -5.8280 H   0  0  0  0  0  0
   47.0423   39.2170   -3.5234 H   0  0  0  0  0  0
   46.4479   40.7707   -4.8000 H   0  0  0  0  0  0
  1  2  1  0  0  0
  1 32  1  0  0  0
  1 33  1  0  0  0
  1 34  1  0  0  0
  2  3  2  0  0  0
  2 28  1  0  0  0
  3  4  1  0  0  0
  3 35  1  0  0  0
  4  5  2  0  0  0
  4 36  1  0  0  0
  5  6  1  0  0  0
  5 27  1  0  0  0
  6  7  1  0  0  0
  6 37  1  0  0  0
  7  8  2  0  0  0
  7 13  1  0  0  0
  8  9  1  0  0  0
  8 38  1  0  0  0
  9 10  2  0  0  0
 10 11  1  0  0  0
 10 14  1  0  0  0
 11 12  1  0  0  0
 11 13  2  0  0  0
 12 39  1  0  0  0
 12 40  1  0  0  0
 12 41  1  0  0  0
 13 42  1  0  0  0
 14 15  2  0  0  0
 14 19  1  0  0  0
 15 16  1  0  0  0
 15 43  1  0  0  0
 16 17  2  0  0  0
 16 44  1  0  0  0
 17 18  1  0  0  0
 17 45  1  0  0  0
 18 19  2  0  0  0
 18 20  1  0  0  0
 19 46  1  0  0  0
 20 21  2  0  0  0
 20 22  1  0  0  0
 22 23  1  0  0  0
 22 26  1  0  0  0
 23 24  1  0  0  0
 23 47  1  0  0  0
 23 48  1  0  0  0
 24 25  1  0  0  0
 24 49  1  0  0  0
 24 50  1  0  0  0
 25 26  1  0  0  0
 25 51  1  0  0  0
 25 52  1  0  0  0
 26 53  1  0  0  0
 26 54  1  0  0  0
 27 28  2  0  0  0
 27 29  1  0  0  0
 28 55  1  0  0  0
 29 30  2  0  0  0
 29 31  1  0  0  0
 31 56  1  0  0  0
M  END
> <s_m_entry_id>
25464

> <s_m_entry_name>
dock_pv.116

> <s_m_Source_Path>
/home/csk/Desktop/cluster/DUD-E-result/pyrd

> <s_m_Source_File>
dock_pv.maegz

> <i_m_Source_File_Index>
116

> <chembl_id>
CHEMBL3674668

> <chembl_pref_name>
None

> <i_lp_mmshare_version>
53161

> <r_lp_tautomer_probability>
0.999999999999999

> <s_lp_Force_Field>
OPLS_2005

> <r_lp_Energy>
58.761809

> <b_lp_Chiralities_Consistent>
1

> <s_lp_Variant>
CHEMBL1966_lig459-1

> <s_i_glide_gridfile>
glide-grid_1d3g

> <i_i_glide_lignum>
509

> <i_i_glide_rotatable_bonds>
7

> <r_i_docking_score>
-10.3156971428263

> <r_i_glide_ligand_efficiency>
-0.332764423962139

> <r_i_glide_ligand_efficiency_sa>
-1.04533972204227

> <r_i_glide_ligand_efficiency_ln>
-2.32650584385801

> <r_i_glide_gscore>
-10.3156971428263

> <r_i_glide_lipo>
-5.69228881470557

> <r_i_glide_hbond>
-0.0784644094664066

> <r_i_glide_metal>
0

> <r_i_glide_rewards>
-2.31846294540821

> <r_i_glide_evdw>
-52.1961326599121

> <r_i_glide_ecoul>
-2.02017951011658

> <r_i_glide_erotb>
0.686352586266969

> <r_i_glide_esite>
0

> <r_i_glide_emodel>
-79.1233892029668

> <r_i_glide_energy>
-54.2163121700287

> <r_i_glide_einternal>
14.5826148986816

> <i_i_glide_confnum>
25

> <i_i_glide_posenum>
159

> <r_i_glide_eff_state_penalty>
0

> <s_user_duplicate_titles>
CHEMBL1966_lig459

> <i_f3d_flags>
0

> <s_m_subgroup_title>
dock_pv

> <s_m_subgroupid>
dock_pv

> <b_m_subgroup_collapsed>
1

$$$$
CHEMBL1966_lig180
                    3D
 Schrodinger Suite 2021-1.
 43 45  0  0  1  0            999 V2000
   51.5750   46.1025    0.3067 C   0  0  0  0  0  0
   51.7710   45.3560   -1.0097 C   0  0  0  0  0  0
   50.8234   44.3742   -1.3897 C   0  0  0  0  0  0
   49.7397   44.1561   -0.6045 F   0  0  0  0  0  0
   50.9951   43.6282   -2.5734 C   0  0  0  0  0  0
   50.1031   42.6468   -3.0618 N   0  0  0  0  0  0
   49.4409   41.5549   -2.4734 C   0  0  0  0  0  0
   49.6231   41.3737   -1.1375 N   0  0  0  0  0  0
   48.9209   40.4100   -0.4990 C   0  0  0  0  0  0
   48.0230   39.5770   -1.1536 C   0  0  0  0  0  0
   47.8864   39.7066   -2.5337 C   0  0  0  0  0  0
   48.5816   40.7134   -3.2294 C   0  0  0  0  0  0
   48.3795   40.8533   -4.7262 C   0  0  0  0  0  0
   49.2234   41.3323   -5.4779 O   0  0  0  0  0  0
   47.1563   40.4447   -5.1740 O   0  0  0  0  0  0
   52.1033   43.9110   -3.3692 C   0  0  0  0  0  0
   52.3167   43.2099   -4.4990 F   0  0  0  0  0  0
   53.0302   44.8821   -3.0064 C   0  0  0  0  0  0
   52.9038   45.6107   -1.8211 C   0  0  0  0  0  0
   54.0337   46.5292   -1.4626 C   0  0  0  0  0  0
   54.7543   46.3532   -0.2742 C   0  0  0  0  0  0
   55.8752   47.1249    0.0134 C   0  0  0  0  0  0
   56.3186   48.0760   -0.8993 C   0  0  0  0  0  0
   55.6353   48.2708   -2.1086 C   0  0  0  0  0  0
   56.0226   49.1782   -3.0781 O   0  0  0  0  0  0
   57.3732   49.6366   -3.1408 C   0  0  0  0  0  0
   58.2237   48.6170   -3.2511 F   0  0  0  0  0  0
   57.5001   50.3718   -4.2438 F   0  0  0  0  0  0
   57.6930   50.4094   -2.1016 F   0  0  0  0  0  0
   54.4883   47.5069   -2.3635 C   0  0  0  0  0  0
   52.4786   46.1751    0.9028 H   0  0  0  0  0  0
   51.2224   47.1169    0.1216 H   0  0  0  0  0  0
   50.8669   45.5843    0.9523 H   0  0  0  0  0  0
   49.9981   42.6581   -4.0692 H   0  0  0  0  0  0
   49.1178   40.2932    0.5568 H   0  0  0  0  0  0
   47.4920   38.8080   -0.6109 H   0  0  0  0  0  0
   47.2355   39.0117   -3.0449 H   0  0  0  0  0  0
   46.5509   40.2624   -4.4534 H   0  0  0  0  0  0
   53.8876   45.0368   -3.6457 H   0  0  0  0  0  0
   54.4774   45.5785    0.4244 H   0  0  0  0  0  0
   56.4170   46.9691    0.9354 H   0  0  0  0  0  0
   57.2032   48.6413   -0.6483 H   0  0  0  0  0  0
   53.9666   47.6519   -3.2987 H   0  0  0  0  0  0
  1  2  1  0  0  0
  1 31  1  0  0  0
  1 32  1  0  0  0
  1 33  1  0  0  0
  2  3  2  0  0  0
  2 19  1  0  0  0
  3  4  1  0  0  0
  3  5  1  0  0  0
  5  6  1  0  0  0
  5 16  2  0  0  0
  6  7  1  0  0  0
  6 34  1  0  0  0
  7  8  2  0  0  0
  7 12  1  0  0  0
  8  9  1  0  0  0
  9 10  2  0  0  0
  9 35  1  0  0  0
 10 11  1  0  0  0
 10 36  1  0  0  0
 11 12  2  0  0  0
 11 37  1  0  0  0
 12 13  1  0  0  0
 13 14  2  0  0  0
 13 15  1  0  0  0
 15 38  1  0  0  0
 16 17  1  0  0  0
 16 18  1  0  0  0
 18 19  2  0  0  0
 18 39  1  0  0  0
 19 20  1  0  0  0
 20 21  2  0  0  0
 20 30  1  0  0  0
 21 22  1  0  0  0
 21 40  1  0  0  0
 22 23  2  0  0  0
 22 41  1  0  0  0
 23 24  1  0  0  0
 23 42  1  0  0  0
 24 25  1  0  0  0
 24 30  2  0  0  0
 25 26  1  0  0  0
 26 27  1  0  0  0
 26 28  1  0  0  0
 26 29  1  0  0  0
 30 43  1  0  0  0
M  END
> <s_m_entry_id>
25465

> <s_m_entry_name>
dock_pv.117

> <s_m_Source_Path>
/home/csk/Desktop/cluster/DUD-E-result/pyrd

> <s_m_Source_File>
dock_pv.maegz

> <i_m_Source_File_Index>
117

> <chembl_id>
CHEMBL2263448

> <chembl_pref_name>
None

> <i_lp_mmshare_version>
53161

> <r_lp_tautomer_probability>
1

> <s_lp_Force_Field>
OPLS_2005

> <r_lp_Energy>
26.628149

> <b_lp_Chiralities_Consistent>
1

> <s_lp_Variant>
CHEMBL1966_lig180-1

> <s_i_glide_gridfile>
glide-grid_1d3g

> <i_i_glide_lignum>
225

> <i_i_glide_rotatable_bonds>
7

> <r_i_docking_score>
-10.2910370241972

> <r_i_glide_ligand_efficiency>
-0.343034567473239

> <r_i_glide_ligand_efficiency_sa>
-1.06588815751024

> <r_i_glide_ligand_efficiency_ln>
-2.33823574172687

> <r_i_glide_gscore>
-10.2910370241972

> <r_i_glide_lipo>
-5.44195669478908

> <r_i_glide_hbond>
0

> <r_i_glide_metal>
0

> <r_i_glide_rewards>
-2.7424457955051

> <r_i_glide_evdw>
-44.1824798583984

> <r_i_glide_ecoul>
-2.9874746799469

> <r_i_glide_erotb>
0.550610661008963

> <r_i_glide_esite>
0

> <r_i_glide_emodel>
-65.4713712685383

> <r_i_glide_energy>
-47.1699545383453

> <r_i_glide_einternal>
12.3189210891724

> <i_i_glide_confnum>
84

> <i_i_glide_posenum>
326

> <r_i_glide_eff_state_penalty>
0

> <s_user_duplicate_titles>
CHEMBL1966_lig180

> <i_f3d_flags>
0

> <s_m_subgroup_title>
dock_pv

> <s_m_subgroupid>
dock_pv

> <b_m_subgroup_collapsed>
1

$$$$
CHEMBL1966_lig313
                    3D
 Schrodinger Suite 2021-1.
 43 45  0  0  1  0            999 V2000
   46.4351   38.7085   -1.6059 C   0  0  0  0  0  0
   47.4311   39.1528   -0.7478 C   0  0  0  0  0  0
   48.4219   40.0100   -1.2125 C   0  0  0  0  0  0
   48.4524   40.4235   -2.5526 C   0  0  0  0  0  0
   47.4117   39.9941   -3.4263 C   0  0  0  0  0  0
   46.4239   39.1326   -2.9271 C   0  0  0  0  0  0
   47.2915   40.4109   -4.8773 C   0  0  0  0  0  0
   46.0368   40.8103   -5.2327 O   0  0  0  0  0  0
   48.2294   40.4101   -5.6673 O   0  0  0  0  0  0
   49.5457   41.3261   -2.9495 C   0  0  0  0  0  0
   49.9198   42.3520   -2.2728 N   0  0  0  0  0  0
   50.9368   43.2863   -2.7144 N   0  0  0  0  0  0
   51.3466   44.3751   -1.9390 C   0  0  0  0  0  0
   52.4229   45.1086   -2.1512 N   0  0  0  0  0  0
   52.6975   45.9620   -1.1834 C   0  0  0  0  0  0
   51.7155   46.0108   -0.1917 C   0  0  0  0  0  0
   50.5012   44.8027   -0.4989 S   0  0  0  0  0  0
   54.0293   46.6458   -1.1560 C   0  0  0  0  0  0
   54.6832   46.6697    0.0838 C   0  0  0  0  0  0
   55.9591   47.2102    0.2069 C   0  0  0  0  0  0
   56.5821   47.7839   -0.8981 C   0  0  0  0  0  0
   55.9517   47.7657   -2.1374 C   0  0  0  0  0  0
   54.6923   47.1833   -2.2792 C   0  0  0  0  0  0
   54.0231   47.1360   -3.8711 Cl  0  0  0  0  0  0
   51.5623   43.0770   -4.0307 C   0  0  0  0  0  0
   50.6666   43.6189   -5.1723 C   0  0  0  0  0  0
   49.7237   42.7297   -5.6992 O   0  0  0  0  0  0
   45.6660   38.0372   -1.2566 H   0  0  0  0  0  0
   47.4410   38.8363    0.2829 H   0  0  0  0  0  0
   49.1829   40.3353   -0.5162 H   0  0  0  0  0  0
   45.6307   38.7673   -3.5664 H   0  0  0  0  0  0
   45.4826   40.9396   -4.4597 H   0  0  0  0  0  0
   50.0085   41.0350   -3.8849 H   0  0  0  0  0  0
   51.6884   46.6085    0.7081 H   0  0  0  0  0  0
   54.2185   46.2379    0.9588 H   0  0  0  0  0  0
   56.4607   47.1989    1.1633 H   0  0  0  0  0  0
   57.5644   48.2229   -0.7984 H   0  0  0  0  0  0
   56.4520   48.1865   -2.9965 H   0  0  0  0  0  0
   52.5271   43.5803   -4.0909 H   0  0  0  0  0  0
   51.8312   42.0293   -4.0990 H   0  0  0  0  0  0
   50.0500   44.4053   -4.7576 H   0  0  0  0  0  0
   51.2230   44.0409   -6.0018 H   0  0  0  0  0  0
   48.9414   43.2327   -5.9504 H   0  0  0  0  0  0
  1  2  2  0  0  0
  1  6  1  0  0  0
  1 28  1  0  0  0
  2  3  1  0  0  0
  2 29  1  0  0  0
  3  4  2  0  0  0
  3 30  1  0  0  0
  4  5  1  0  0  0
  4 10  1  0  0  0
  5  6  2  0  0  0
  5  7  1  0  0  0
  6 31  1  0  0  0
  7  8  1  0  0  0
  7  9  2  0  0  0
  8 32  1  0  0  0
 10 11  2  0  0  0
 10 33  1  0  0  0
 11 12  1  0  0  0
 12 13  1  0  0  0
 12 25  1  0  0  0
 13 14  2  0  0  0
 13 17  1  0  0  0
 14 15  1  0  0  0
 15 16  2  0  0  0
 15 18  1  0  0  0
 16 17  1  0  0  0
 16 34  1  0  0  0
 18 19  2  0  0  0
 18 23  1  0  0  0
 19 20  1  0  0  0
 19 35  1  0  0  0
 20 21  2  0  0  0
 20 36  1  0  0  0
 21 22  1  0  0  0
 21 37  1  0  0  0
 22 23  2  0  0  0
 22 38  1  0  0  0
 23 24  1  0  0  0
 25 26  1  0  0  0
 25 39  1  0  0  0
 25 40  1  0  0  0
 26 27  1  0  0  0
 26 41  1  0  0  0
 26 42  1  0  0  0
 27 43  1  0  0  0
M  END
> <s_m_entry_id>
25466

> <s_m_entry_name>
dock_pv.118

> <s_m_Source_Path>
/home/csk/Desktop/cluster/DUD-E-result/pyrd

> <s_m_Source_File>
dock_pv.maegz

> <i_m_Source_File_Index>
118

> <chembl_id>
CHEMBL3900235

> <chembl_pref_name>
None

> <i_lp_mmshare_version>
53161

> <r_lp_tautomer_probability>
1

> <s_lp_Force_Field>
OPLS_2005

> <r_lp_Energy>
29.809613

> <b_lp_Chiralities_Consistent>
1

> <s_lp_Variant>
CHEMBL1966_lig313-1

> <s_i_glide_gridfile>
glide-grid_1d3g

> <i_i_glide_lignum>
360

> <i_i_glide_rotatable_bonds>
9

> <r_i_docking_score>
-10.2827490066925

> <r_i_glide_ligand_efficiency>
-0.380842555803426

> <r_i_glide_ligand_efficiency_sa>
-1.14252766615508

> <r_i_glide_ligand_efficiency_ln>
-2.39365444439159

> <r_i_glide_gscore>
-10.2827490066925

> <r_i_glide_lipo>
-5.37053150042419

> <r_i_glide_hbond>
-0.104404717245958

> <r_i_glide_metal>
0

> <r_i_glide_rewards>
-2.41556463298281

> <r_i_glide_evdw>
-45.7042846679688

> <r_i_glide_ecoul>
-6.38249111175537

> <r_i_glide_erotb>
0.850339744122208

> <r_i_glide_esite>
0

> <r_i_glide_emodel>
-69.7951693292847

> <r_i_glide_energy>
-52.0867757797241

> <r_i_glide_einternal>
9.7113561630249

> <i_i_glide_confnum>
149

> <i_i_glide_posenum>
233

> <r_i_glide_eff_state_penalty>
0

> <s_user_duplicate_titles>
CHEMBL1966_lig313

> <i_f3d_flags>
0

> <s_m_subgroup_title>
dock_pv

> <s_m_subgroupid>
dock_pv

> <b_m_subgroup_collapsed>
1

$$$$
CHEMBL1966_lig493
                    3D
 Schrodinger Suite 2021-1.
 38 41  0  0  1  0            999 V2000
   47.1236   38.6298   -0.8987 O   0  0  0  0  0  0
   48.0229   39.6099   -1.1856 C   0  0  0  0  0  0
   48.7896   40.0473   -0.3314 O   0  0  0  0  0  0
   48.0230   40.1162   -2.6118 C   0  0  0  0  0  0
   46.9855   39.7661   -3.4934 C   0  0  0  0  0  0
   46.8603   40.3323   -4.7662 C   0  0  0  0  0  0
   45.4602   39.9768   -5.6988 Cl  0  0  0  0  0  0
   47.8056   41.2104   -5.2897 C   0  0  0  0  0  0
   48.8234   41.5917   -4.4205 C   0  0  0  0  0  0
   49.8063   42.5461   -4.5004 N   0  0  0  0  0  0
   50.3941   42.6181   -3.2617 C   0  0  0  0  0  0
   49.9561   41.7096   -2.4337 N   0  0  0  0  0  0
   48.9431   41.0713   -3.1001 C   0  0  0  0  0  0
   51.3360   43.6855   -2.8723 C   0  0  0  0  0  0
   52.4252   43.9888   -3.6810 C   0  0  0  0  0  0
   53.3106   44.9930   -3.2984 C   0  0  0  0  0  0
   53.1213   45.7178   -2.1170 C   0  0  0  0  0  0
   52.0013   45.4326   -1.3251 C   0  0  0  0  0  0
   51.1222   44.4124   -1.6964 C   0  0  0  0  0  0
   54.1462   46.7253   -1.7198 C   0  0  0  0  0  0
   54.6841   47.5954   -2.6820 C   0  0  0  0  0  0
   55.7419   48.4490   -2.3698 C   0  0  0  0  0  0
   56.2830   48.4436   -1.0873 C   0  0  0  0  0  0
   55.7381   47.6101   -0.1133 C   0  0  0  0  0  0
   54.6652   46.7773   -0.4151 C   0  0  0  0  0  0
   54.1597   46.0077    0.5736 F   0  0  0  0  0  0
   47.2162   38.4101    0.0337 H   0  0  0  0  0  0
   46.2072   39.0898   -3.1675 H   0  0  0  0  0  0
   47.6715   41.6844   -6.2478 H   0  0  0  0  0  0
   49.9995   43.1984   -5.2461 H   0  0  0  0  0  0
   52.6072   43.4117   -4.5734 H   0  0  0  0  0  0
   54.1748   45.1995   -3.9116 H   0  0  0  0  0  0
   51.8214   45.9794   -0.4111 H   0  0  0  0  0  0
   50.2701   44.1931   -1.0683 H   0  0  0  0  0  0
   54.2974   47.5949   -3.6912 H   0  0  0  0  0  0
   56.1537   49.1007   -3.1268 H   0  0  0  0  0  0
   57.1164   49.0882   -0.8443 H   0  0  0  0  0  0
   56.1470   47.6081    0.8846 H   0  0  0  0  0  0
  1  2  1  0  0  0
  1 27  1  0  0  0
  2  3  2  0  0  0
  2  4  1  0  0  0
  4  5  2  0  0  0
  4 13  1  0  0  0
  5  6  1  0  0  0
  5 28  1  0  0  0
  6  7  1  0  0  0
  6  8  2  0  0  0
  8  9  1  0  0  0
  8 29  1  0  0  0
  9 10  1  0  0  0
  9 13  2  0  0  0
 10 11  1  0  0  0
 10 30  1  0  0  0
 11 12  2  0  0  0
 11 14  1  0  0  0
 12 13  1  0  0  0
 14 15  2  0  0  0
 14 19  1  0  0  0
 15 16  1  0  0  0
 15 31  1  0  0  0
 16 17  2  0  0  0
 16 32  1  0  0  0
 17 18  1  0  0  0
 17 20  1  0  0  0
 18 19  2  0  0  0
 18 33  1  0  0  0
 19 34  1  0  0  0
 20 21  2  0  0  0
 20 25  1  0  0  0
 21 22  1  0  0  0
 21 35  1  0  0  0
 22 23  2  0  0  0
 22 36  1  0  0  0
 23 24  1  0  0  0
 23 37  1  0  0  0
 24 25  2  0  0  0
 24 38  1  0  0  0
 25 26  1  0  0  0
M  END
> <s_m_entry_id>
25468

> <s_m_entry_name>
dock_pv.120

> <s_m_Source_Path>
/home/csk/Desktop/cluster/DUD-E-result/pyrd

> <s_m_Source_File>
dock_pv.maegz

> <i_m_Source_File_Index>
120

> <chembl_id>
CHEMBL3677750

> <chembl_pref_name>
None

> <i_lp_mmshare_version>
53161

> <r_lp_tautomer_probability>
1

> <s_lp_Force_Field>
OPLS_2005

> <r_lp_Energy>
23.555054

> <b_lp_Chiralities_Consistent>
1

> <s_lp_Variant>
CHEMBL1966_lig493-1

> <s_i_glide_gridfile>
glide-grid_1d3g

> <i_i_glide_lignum>
543

> <i_i_glide_rotatable_bonds>
4

> <r_i_docking_score>
-10.2676300507321

> <r_i_glide_ligand_efficiency>
-0.394908848105082

> <r_i_glide_ligand_efficiency_sa>
-1.16991590862002

> <r_i_glide_ligand_efficiency_ln>
-2.4113192265723

> <r_i_glide_gscore>
-10.2676300507321

> <r_i_glide_lipo>
-5.07106114201069

> <r_i_glide_hbond>
0

> <r_i_glide_metal>
0

> <r_i_glide_rewards>
-2.99677161073

> <r_i_glide_evdw>
-42.9869842529297

> <r_i_glide_ecoul>
-3.19848036766052

> <r_i_glide_erotb>
0.429323969804122

> <r_i_glide_esite>
0

> <r_i_glide_emodel>
-65.8805220695274

> <r_i_glide_energy>
-46.1854646205902

> <r_i_glide_einternal>
3.58048558235168

> <i_i_glide_confnum>
13

> <i_i_glide_posenum>
97

> <r_i_glide_eff_state_penalty>
0

> <s_user_duplicate_titles>
CHEMBL1966_lig493

> <i_f3d_flags>
0

> <s_m_subgroup_title>
dock_pv

> <s_m_subgroupid>
dock_pv

> <b_m_subgroup_collapsed>
1

$$$$
CHEMBL1966_lig105
                    3D
 Schrodinger Suite 2021-1.
 34 36  0  0  1  0            999 V2000
   48.0230   39.7010   -1.6850 C   0  0  0  0  0  0
   48.6463   40.0132   -0.4843 C   0  0  0  0  0  0
   49.5824   41.0405   -0.3961 C   0  0  0  0  0  0
   48.3932   40.3919   -2.8425 C   0  0  0  0  0  0
   49.3472   41.4577   -2.8032 C   0  0  0  0  0  0
   49.9156   41.8014   -1.5392 C   0  0  0  0  0  0
   50.7390   42.8688   -1.3761 N   0  0  0  0  0  0
   51.1251   43.6102   -2.4479 C   0  0  0  0  0  0
   50.7067   43.2608   -3.7440 C   0  0  0  0  0  0
   49.7479   42.2421   -3.9328 C   0  0  0  0  0  0
   52.0229   44.7850   -2.0992 C   0  0  0  0  0  0
   53.1378   45.1085   -2.8945 C   0  0  0  0  0  0
   54.0599   46.0604   -2.4729 C   0  0  0  0  0  0
   53.8855   46.6908   -1.2451 C   0  0  0  0  0  0
   52.7689   46.4103   -0.4618 C   0  0  0  0  0  0
   51.8219   45.4962   -0.9060 C   0  0  0  0  0  0
   51.2226   43.9206   -4.8310 O   0  0  0  0  0  0
   49.1441   42.0099   -5.2976 C   0  0  0  0  0  0
   48.8268   43.1640   -5.9353 O   0  0  0  0  0  0
   48.9518   40.9006   -5.7935 O   0  0  0  0  0  0
   55.0710   47.8136   -0.6862 Cl  0  0  0  0  0  0
   46.9490   38.6200   -1.6905 C   0  0  0  0  0  0
   45.9442   38.9851   -0.8989 F   0  0  0  0  0  0
   46.4396   38.4101   -2.8991 F   0  0  0  0  0  0
   47.4638   37.4794   -1.2318 F   0  0  0  0  0  0
   48.3977   39.4578    0.4077 H   0  0  0  0  0  0
   50.0230   41.2720    0.5608 H   0  0  0  0  0  0
   47.9132   40.1267   -3.7713 H   0  0  0  0  0  0
   53.3384   44.5685   -3.8039 H   0  0  0  0  0  0
   54.9280   46.2763   -3.0786 H   0  0  0  0  0  0
   52.6324   46.9062    0.4881 H   0  0  0  0  0  0
   50.9694   45.2817   -0.2774 H   0  0  0  0  0  0
   50.8334   43.6319   -5.6624 H   0  0  0  0  0  0
   48.5360   43.8941   -5.3654 H   0  0  0  0  0  0
  1  2  2  0  0  0
  1  4  1  0  0  0
  1 22  1  0  0  0
  2  3  1  0  0  0
  2 26  1  0  0  0
  3  6  2  0  0  0
  3 27  1  0  0  0
  4  5  2  0  0  0
  4 28  1  0  0  0
  5  6  1  0  0  0
  5 10  1  0  0  0
  6  7  1  0  0  0
  7  8  2  0  0  0
  8  9  1  0  0  0
  8 11  1  0  0  0
  9 17  1  0  0  0
  9 10  2  0  0  0
 10 18  1  0  0  0
 11 12  2  0  0  0
 11 16  1  0  0  0
 12 13  1  0  0  0
 12 29  1  0  0  0
 13 14  2  0  0  0
 13 30  1  0  0  0
 14 15  1  0  0  0
 14 21  1  0  0  0
 15 16  2  0  0  0
 15 31  1  0  0  0
 16 32  1  0  0  0
 17 33  1  0  0  0
 18 19  1  0  0  0
 18 20  2  0  0  0
 19 34  1  0  0  0
 22 23  1  0  0  0
 22 24  1  0  0  0
 22 25  1  0  0  0
M  END
> <s_m_entry_id>
25469

> <s_m_entry_name>
dock_pv.121

> <s_m_Source_Path>
/home/csk/Desktop/cluster/DUD-E-result/pyrd

> <s_m_Source_File>
dock_pv.maegz

> <i_m_Source_File_Index>
121

> <chembl_id>
CHEMBL386700

> <chembl_pref_name>
None

> <i_lp_mmshare_version>
53161

> <r_lp_tautomer_probability>
1

> <s_lp_Force_Field>
OPLS_2005

> <r_lp_Energy>
27.489693

> <b_lp_Chiralities_Consistent>
1

> <s_lp_Variant>
CHEMBL1966_lig105-1

> <s_i_glide_gridfile>
glide-grid_1d3g

> <i_i_glide_lignum>
114

> <i_i_glide_rotatable_bonds>
5

> <r_i_docking_score>
-10.2647583189326

> <r_i_glide_ligand_efficiency>
-0.410590332757302

> <r_i_glide_ligand_efficiency_sa>
-1.20057341483291

> <r_i_glide_ligand_efficiency_ln>
-2.43305533157123

> <r_i_glide_gscore>
-10.2647583189326

> <r_i_glide_lipo>
-5.05670670008111

> <r_i_glide_hbond>
-0.098916924344408

> <r_i_glide_metal>
0

> <r_i_glide_rewards>
-2.76248173415612

> <r_i_glide_evdw>
-25.2479648590088

> <r_i_glide_ecoul>
-9.12782764434814

> <r_i_glide_erotb>
0.28491942925174

> <r_i_glide_esite>
0

> <r_i_glide_emodel>
-50.0441605112256

> <r_i_glide_energy>
-34.3757925033569

> <r_i_glide_einternal>
3.99375987052917

> <i_i_glide_confnum>
11

> <i_i_glide_posenum>
282

> <r_i_glide_eff_state_penalty>
0

> <s_user_duplicate_titles>
CHEMBL1966_lig105,365579

> <i_f3d_flags>
0

> <s_m_subgroup_title>
dock_pv

> <s_m_subgroupid>
dock_pv

> <b_m_subgroup_collapsed>
1

$$$$
CHEMBL1966_lig566
                    3D
 Schrodinger Suite 2021-1.
 40 43  0  0  1  0            999 V2000
   46.6176   38.3589   -1.6741 C   0  0  0  0  0  0
   47.5521   39.4055   -2.2446 C   0  0  0  0  0  0
   47.4956   39.7272   -3.6038 C   0  0  0  0  0  0
   48.3258   40.7024   -4.1747 C   0  0  0  0  0  0
   48.2213   41.0379   -5.6247 C   0  0  0  0  0  0
   49.2205   41.2080   -6.3213 O   0  0  0  0  0  0
   46.9411   41.2078   -6.0561 O   0  0  0  0  0  0
   49.1974   41.3763   -3.3161 C   0  0  0  0  0  0
   50.0193   42.4233   -3.6178 N   0  0  0  0  0  0
   50.4929   42.8229   -2.4753 C   0  0  0  0  0  0
   50.0847   42.0219   -1.4262 N   0  0  0  0  0  0
   49.2233   41.0734   -1.9368 C   0  0  0  0  0  0
   48.4231   40.0649   -1.3768 C   0  0  0  0  0  0
   51.3848   44.0100   -2.3649 C   0  0  0  0  0  0
   52.4232   44.1898   -3.2990 C   0  0  0  0  0  0
   52.6015   43.3130   -4.3163 F   0  0  0  0  0  0
   53.3584   45.2080   -3.0961 C   0  0  0  0  0  0
   54.4479   45.2806   -3.8928 F   0  0  0  0  0  0
   53.2461   46.1027   -2.0274 C   0  0  0  0  0  0
   52.1710   45.9580   -1.1375 C   0  0  0  0  0  0
   52.0355   46.8049   -0.0888 F   0  0  0  0  0  0
   51.2513   44.9148   -1.2988 C   0  0  0  0  0  0
   50.2501   44.7680   -0.3985 F   0  0  0  0  0  0
   54.3147   47.1221   -1.8407 C   0  0  0  0  0  0
   54.7011   47.9711   -2.8899 C   0  0  0  0  0  0
   55.8066   48.8100   -2.7443 C   0  0  0  0  0  0
   56.4936   48.7977   -1.5330 C   0  0  0  0  0  0
   56.1313   48.0021   -0.4990 N   0  0  0  0  0  0
   55.0550   47.1916   -0.6554 C   0  0  0  0  0  0
   46.0572   38.7783   -0.8377 H   0  0  0  0  0  0
   45.9001   38.0098   -2.4142 H   0  0  0  0  0  0
   47.1855   37.5077   -1.2972 H   0  0  0  0  0  0
   46.7780   39.2108   -4.2230 H   0  0  0  0  0  0
   46.3366   41.2882   -5.3124 H   0  0  0  0  0  0
   50.3531   42.1851   -0.4678 H   0  0  0  0  0  0
   48.4374   39.8415   -0.3193 H   0  0  0  0  0  0
   54.1690   47.9532   -3.8308 H   0  0  0  0  0  0
   56.1229   49.4534   -3.5524 H   0  0  0  0  0  0
   57.3582   49.4265   -1.3742 H   0  0  0  0  0  0
   54.8224   46.5510    0.1833 H   0  0  0  0  0  0
  1  2  1  0  0  0
  1 30  1  0  0  0
  1 31  1  0  0  0
  1 32  1  0  0  0
  2  3  2  0  0  0
  2 13  1  0  0  0
  3  4  1  0  0  0
  3 33  1  0  0  0
  4  5  1  0  0  0
  4  8  2  0  0  0
  5  6  2  0  0  0
  5  7  1  0  0  0
  7 34  1  0  0  0
  8  9  1  0  0  0
  8 12  1  0  0  0
  9 10  2  0  0  0
 10 11  1  0  0  0
 10 14  1  0  0  0
 11 12  1  0  0  0
 11 35  1  0  0  0
 12 13  2  0  0  0
 13 36  1  0  0  0
 14 15  2  0  0  0
 14 22  1  0  0  0
 15 16  1  0  0  0
 15 17  1  0  0  0
 17 18  1  0  0  0
 17 19  2  0  0  0
 19 20  1  0  0  0
 19 24  1  0  0  0
 20 21  1  0  0  0
 20 22  2  0  0  0
 22 23  1  0  0  0
 24 25  2  0  0  0
 24 29  1  0  0  0
 25 26  1  0  0  0
 25 37  1  0  0  0
 26 27  2  0  0  0
 26 38  1  0  0  0
 27 28  1  0  0  0
 27 39  1  0  0  0
 28 29  2  0  0  0
 29 40  1  0  0  0
M  END
> <s_m_entry_id>
25470

> <s_m_entry_name>
dock_pv.122

> <s_m_Source_Path>
/home/csk/Desktop/cluster/DUD-E-result/pyrd

> <s_m_Source_File>
dock_pv.maegz

> <i_m_Source_File_Index>
122

> <chembl_id>
CHEMBL3677825

> <chembl_pref_name>
None

> <i_lp_mmshare_version>
53161

> <r_lp_tautomer_probability>
1

> <s_lp_Force_Field>
OPLS_2005

> <r_lp_Energy>
29.412066

> <b_lp_Chiralities_Consistent>
1

> <s_lp_Variant>
CHEMBL1966_lig566-1

> <s_i_glide_gridfile>
glide-grid_1d3g

> <i_i_glide_lignum>
620

> <i_i_glide_rotatable_bonds>
4

> <r_i_docking_score>
-10.2629803000199

> <r_i_glide_ligand_efficiency>
-0.35389587241448

> <r_i_glide_ligand_efficiency_sa>
-1.08728024213938

> <r_i_glide_ligand_efficiency_ln>
-2.34996224197886

> <r_i_glide_gscore>
-10.2629803000199

> <r_i_glide_lipo>
-5.19409819374527

> <r_i_glide_hbond>
-0.16

> <r_i_glide_metal>
0

> <r_i_glide_rewards>
-2.77323232249313

> <r_i_glide_evdw>
-39.071704864502

> <r_i_glide_ecoul>
-3.6457576751709

> <r_i_glide_erotb>
0.365336853265675

> <r_i_glide_esite>
-0.000537742546464403

> <r_i_glide_emodel>
-61.7144561210331

> <r_i_glide_energy>
-42.7174625396729

> <r_i_glide_einternal>
4.3930344581604

> <i_i_glide_confnum>
12

> <i_i_glide_posenum>
323

> <r_i_glide_eff_state_penalty>
0

> <s_user_duplicate_titles>
CHEMBL1966_lig566

> <i_f3d_flags>
0

> <s_m_subgroup_title>
dock_pv

> <s_m_subgroupid>
dock_pv

> <b_m_subgroup_collapsed>
1

$$$$
CHEMBL1966_lig770
                    3D
 Schrodinger Suite 2021-1.
 43 46  0  0  1  0            999 V2000
   50.1275   42.1521   -1.8058 N   0  0  0  0  0  0
   49.1145   41.5508   -4.3340 C   0  0  0  0  0  0
   50.4854   42.9027   -2.8670 C   0  0  0  0  0  0
   50.0071   42.6312   -4.1586 C   0  0  0  0  0  0
   49.2482   41.1260   -1.9496 C   0  0  0  0  0  0
   48.6802   40.7845   -3.2050 C   0  0  0  0  0  0
   48.6177   41.2101   -5.7003 C   0  0  0  0  0  0
   51.4309   44.0080   -2.5218 C   0  0  0  0  0  0
   48.8697   40.4100   -0.7903 C   0  0  0  0  0  0
   53.2823   46.0129   -1.8796 C   0  0  0  0  0  0
   47.4460   40.9638   -5.9722 O   0  0  0  0  0  0
   51.2230   44.8328   -1.4043 C   0  0  0  0  0  0
   52.5795   44.2013   -3.2990 C   0  0  0  0  0  0
   53.4793   45.2099   -2.9975 C   0  0  0  0  0  0
   52.1468   45.8286   -1.0833 C   0  0  0  0  0  0
   54.3417   46.9793   -1.5342 C   0  0  0  0  0  0
   49.6208   41.2080   -6.6229 O   0  0  0  0  0  0
   49.6230   40.8100    0.7010 Cl  0  0  0  0  0  0
   47.7173   39.7235   -3.2335 C   0  0  0  0  0  0
   50.3918   43.5232   -5.3468 C   0  0  0  0  0  0
   47.3342   39.0664   -2.0694 C   0  0  0  0  0  0
   47.9058   39.4098   -0.8538 C   0  0  0  0  0  0
   54.7041   47.9855   -2.4373 C   0  0  0  0  0  0
   55.0653   46.8100   -0.3526 C   0  0  0  0  0  0
   56.1708   47.6100   -0.0990 C   0  0  0  0  0  0
   55.7913   48.8100   -2.1657 C   0  0  0  0  0  0
   56.5256   48.6105   -1.0013 C   0  0  0  0  0  0
   50.3500   44.6997   -0.7811 H   0  0  0  0  0  0
   52.7986   43.5437   -4.1265 H   0  0  0  0  0  0
   54.3652   45.3263   -3.6055 H   0  0  0  0  0  0
   51.9883   46.4429   -0.2087 H   0  0  0  0  0  0
   50.4571   41.4343   -6.2125 H   0  0  0  0  0  0
   47.2579   39.4144   -4.1570 H   0  0  0  0  0  0
   49.5121   43.8413   -5.9091 H   0  0  0  0  0  0
   50.8796   44.4100   -5.0315 H   0  0  0  0  0  0
   51.0919   43.0491   -6.0310 H   0  0  0  0  0  0
   46.5990   38.2760   -2.1124 H   0  0  0  0  0  0
   47.6169   38.8794    0.0403 H   0  0  0  0  0  0
   54.1540   48.1136   -3.3590 H   0  0  0  0  0  0
   54.8069   46.0224    0.3411 H   0  0  0  0  0  0
   56.7583   47.4526    0.7931 H   0  0  0  0  0  0
   56.0768   49.5849   -2.8623 H   0  0  0  0  0  0
   57.3840   49.2345   -0.8010 H   0  0  0  0  0  0
  1  3  2  0  0  0
  1  5  1  0  0  0
  2  6  1  0  0  0
  2  7  1  0  0  0
  2  4  2  0  0  0
  3  4  1  0  0  0
  3  8  1  0  0  0
  4 20  1  0  0  0
  5  6  1  0  0  0
  5  9  2  0  0  0
  6 19  2  0  0  0
  7 11  2  0  0  0
  7 17  1  0  0  0
  8 12  2  0  0  0
  8 13  1  0  0  0
  9 18  1  0  0  0
  9 22  1  0  0  0
 10 14  1  0  0  0
 10 16  1  0  0  0
 10 15  2  0  0  0
 12 15  1  0  0  0
 12 28  1  0  0  0
 13 14  2  0  0  0
 13 29  1  0  0  0
 14 30  1  0  0  0
 15 31  1  0  0  0
 16 23  2  0  0  0
 16 24  1  0  0  0
 17 32  1  0  0  0
 19 21  1  0  0  0
 19 33  1  0  0  0
 20 34  1  0  0  0
 20 35  1  0  0  0
 20 36  1  0  0  0
 21 22  2  0  0  0
 21 37  1  0  0  0
 22 38  1  0  0  0
 23 26  1  0  0  0
 23 39  1  0  0  0
 24 25  2  0  0  0
 24 40  1  0  0  0
 25 27  1  0  0  0
 25 41  1  0  0  0
 26 27  2  0  0  0
 26 42  1  0  0  0
 27 43  1  0  0  0
M  END
> <s_m_entry_id>
25471

> <s_m_entry_name>
dock_pv.123

> <s_m_Source_Path>
/home/csk/Desktop/cluster/DUD-E-result/pyrd

> <s_m_Source_File>
dock_pv.maegz

> <i_m_Source_File_Index>
123

> <chembl_id>
CHEMBL40182

> <chembl_pref_name>
None

> <i_lp_mmshare_version>
53161

> <r_lp_tautomer_probability>
1

> <s_lp_Force_Field>
OPLS_2005

> <r_lp_Energy>
35.689036

> <b_lp_Chiralities_Consistent>
1

> <s_lp_Variant>
CHEMBL1966_lig770-1

> <s_i_glide_gridfile>
glide-grid_1d3g

> <i_i_glide_lignum>
841

> <i_i_glide_rotatable_bonds>
4

> <r_i_docking_score>
-10.2589391729541

> <r_i_glide_ligand_efficiency>
-0.379960710109411

> <r_i_glide_ligand_efficiency_sa>
-1.13988212907594

> <r_i_glide_ligand_efficiency_ln>
-2.38811190763308

> <r_i_glide_gscore>
-10.2589391729541

> <r_i_glide_lipo>
-6.28152591482423

> <r_i_glide_hbond>
-0.190134968053095

> <r_i_glide_metal>
0

> <r_i_glide_rewards>
-1.72315680708332

> <r_i_glide_evdw>
-35.3396339416504

> <r_i_glide_ecoul>
-4.74721479415894

> <r_i_glide_erotb>
0.414942433212914

> <r_i_glide_esite>
0

> <r_i_glide_emodel>
-55.727430571564

> <r_i_glide_energy>
-40.0868487358093

> <r_i_glide_einternal>
5.20872974395752

> <i_i_glide_confnum>
10

> <i_i_glide_posenum>
109

> <r_i_glide_eff_state_penalty>
0

> <s_user_duplicate_titles>
CHEMBL1966_lig770,55935

> <i_f3d_flags>
0

> <s_m_subgroup_title>
dock_pv

> <s_m_subgroupid>
dock_pv

> <b_m_subgroup_collapsed>
1

$$$$
CHEMBL1966_lig505
                    3D
 Schrodinger Suite 2021-1.
 38 41  0  0  1  0            999 V2000
   46.7237   38.2636   -1.2991 O   0  0  0  0  0  0
   47.6231   39.2817   -1.3700 C   0  0  0  0  0  0
   48.2894   39.6233   -0.4007 O   0  0  0  0  0  0
   47.7726   39.9607   -2.7124 C   0  0  0  0  0  0
   46.7808   39.7470   -3.6835 C   0  0  0  0  0  0
   46.7714   40.4096   -4.9049 C   0  0  0  0  0  0
   45.7195   40.2275   -5.7304 F   0  0  0  0  0  0
   47.8109   41.2415   -5.2993 C   0  0  0  0  0  0
   48.7718   41.5199   -4.3325 C   0  0  0  0  0  0
   49.7427   42.4728   -4.2782 N   0  0  0  0  0  0
   50.2067   42.5088   -2.9895 C   0  0  0  0  0  0
   49.7159   41.5427   -2.2465 N   0  0  0  0  0  0
   48.7688   40.9250   -3.0369 C   0  0  0  0  0  0
   51.1114   43.6088   -2.5490 C   0  0  0  0  0  0
   50.9115   44.3607   -1.3803 C   0  0  0  0  0  0
   49.8770   44.0888   -0.5508 F   0  0  0  0  0  0
   51.7974   45.3952   -1.0537 C   0  0  0  0  0  0
   52.9009   45.6791   -1.8733 C   0  0  0  0  0  0
   53.0675   44.9479   -3.0488 C   0  0  0  0  0  0
   52.1894   43.9260   -3.3795 C   0  0  0  0  0  0
   52.4211   43.2103   -4.4989 F   0  0  0  0  0  0
   53.9576   46.6474   -1.4955 C   0  0  0  0  0  0
   54.5806   46.5429   -0.2487 C   0  0  0  0  0  0
   55.6929   47.3235    0.0434 C   0  0  0  0  0  0
   56.1629   48.2406   -0.8949 C   0  0  0  0  0  0
   55.5238   48.3884   -2.1218 C   0  0  0  0  0  0
   54.4264   47.5872   -2.4232 C   0  0  0  0  0  0
   46.7401   37.9223   -0.4027 H   0  0  0  0  0  0
   45.9465   39.0907   -3.4789 H   0  0  0  0  0  0
   47.7667   41.7876   -6.2259 H   0  0  0  0  0  0
   49.9981   43.1564   -4.9756 H   0  0  0  0  0  0
   51.6468   45.9480   -0.1377 H   0  0  0  0  0  0
   53.9133   45.1357   -3.6946 H   0  0  0  0  0  0
   54.2439   45.8138    0.4745 H   0  0  0  0  0  0
   56.1951   47.2100    0.9934 H   0  0  0  0  0  0
   57.0298   48.8434   -0.6634 H   0  0  0  0  0  0
   55.8919   49.1034   -2.8429 H   0  0  0  0  0  0
   53.9563   47.6785   -3.3921 H   0  0  0  0  0  0
  1  2  1  0  0  0
  1 28  1  0  0  0
  2  3  2  0  0  0
  2  4  1  0  0  0
  4  5  2  0  0  0
  4 13  1  0  0  0
  5  6  1  0  0  0
  5 29  1  0  0  0
  6  7  1  0  0  0
  6  8  2  0  0  0
  8  9  1  0  0  0
  8 30  1  0  0  0
  9 10  1  0  0  0
  9 13  2  0  0  0
 10 11  1  0  0  0
 10 31  1  0  0  0
 11 12  2  0  0  0
 11 14  1  0  0  0
 12 13  1  0  0  0
 14 15  2  0  0  0
 14 20  1  0  0  0
 15 16  1  0  0  0
 15 17  1  0  0  0
 17 18  2  0  0  0
 17 32  1  0  0  0
 18 19  1  0  0  0
 18 22  1  0  0  0
 19 20  2  0  0  0
 19 33  1  0  0  0
 20 21  1  0  0  0
 22 23  2  0  0  0
 22 27  1  0  0  0
 23 24  1  0  0  0
 23 34  1  0  0  0
 24 25  2  0  0  0
 24 35  1  0  0  0
 25 26  1  0  0  0
 25 36  1  0  0  0
 26 27  2  0  0  0
 26 37  1  0  0  0
 27 38  1  0  0  0
M  END
> <s_m_entry_id>
25472

> <s_m_entry_name>
dock_pv.124

> <s_m_Source_Path>
/home/csk/Desktop/cluster/DUD-E-result/pyrd

> <s_m_Source_File>
dock_pv.maegz

> <i_m_Source_File_Index>
124

> <chembl_id>
CHEMBL3677763

> <chembl_pref_name>
None

> <i_lp_mmshare_version>
53161

> <r_lp_tautomer_probability>
1

> <s_lp_Force_Field>
OPLS_2005

> <r_lp_Energy>
25.030331

> <b_lp_Chiralities_Consistent>
1

> <s_lp_Variant>
CHEMBL1966_lig505-1

> <s_i_glide_gridfile>
glide-grid_1d3g

> <i_i_glide_lignum>
555

> <i_i_glide_rotatable_bonds>
4

> <r_i_docking_score>
-10.251895872501

> <r_i_glide_ligand_efficiency>
-0.379699847129667

> <r_i_glide_ligand_efficiency_sa>
-1.13909954013757

> <r_i_glide_ligand_efficiency_ln>
-2.38647234340548

> <r_i_glide_gscore>
-10.251895872501

> <r_i_glide_lipo>
-4.98307770138298

> <r_i_glide_hbond>
0

> <r_i_glide_metal>
0

> <r_i_glide_rewards>
-3.3039872739595

> <r_i_glide_evdw>
-43.8866004943848

> <r_i_glide_ecoul>
-1.31087851524353

> <r_i_glide_erotb>
0.426130904847231

> <r_i_glide_esite>
0

> <r_i_glide_emodel>
-65.3226828799167

> <r_i_glide_energy>
-45.1974790096283

> <r_i_glide_einternal>
2.08061766624451

> <i_i_glide_confnum>
19

> <i_i_glide_posenum>
287

> <r_i_glide_eff_state_penalty>
0

> <s_user_duplicate_titles>
CHEMBL1966_lig505

> <i_f3d_flags>
0

> <s_m_subgroup_title>
dock_pv

> <s_m_subgroupid>
dock_pv

> <b_m_subgroup_collapsed>
1

$$$$
CHEMBL1966_lig561
                    3D
 Schrodinger Suite 2021-1.
 37 40  0  0  1  0            999 V2000
   47.0009   38.7727   -0.5232 O   0  0  0  0  0  0
   48.0041   39.6097   -0.9009 C   0  0  0  0  0  0
   48.8233   40.0181   -0.0983 O   0  0  0  0  0  0
   48.0411   40.0407   -2.3435 C   0  0  0  0  0  0
   47.1010   39.5505   -3.2595 C   0  0  0  0  0  0
   47.0426   40.0103   -4.5725 C   0  0  0  0  0  0
   47.9402   40.9523   -5.0807 C   0  0  0  0  0  0
   48.8554   41.4789   -4.1702 C   0  0  0  0  0  0
   49.7696   42.5065   -4.2362 N   0  0  0  0  0  0
   50.2931   42.6762   -2.9740 C   0  0  0  0  0  0
   49.8571   41.7772   -2.1333 N   0  0  0  0  0  0
   48.9259   41.0369   -2.8238 C   0  0  0  0  0  0
   51.2227   43.7813   -2.5920 C   0  0  0  0  0  0
   50.9937   44.5921   -1.4658 C   0  0  0  0  0  0
   49.8920   44.4048   -0.6998 F   0  0  0  0  0  0
   51.8973   45.6098   -1.1273 C   0  0  0  0  0  0
   51.6587   46.3785   -0.0380 F   0  0  0  0  0  0
   53.0553   45.8144   -1.8928 C   0  0  0  0  0  0
   53.2752   45.0018   -3.0077 C   0  0  0  0  0  0
   54.4308   45.1246   -3.6990 F   0  0  0  0  0  0
   52.3637   44.0097   -3.3680 C   0  0  0  0  0  0
   52.6287   43.2108   -4.4316 F   0  0  0  0  0  0
   54.1051   46.7955   -1.5184 C   0  0  0  0  0  0
   54.5257   47.7902   -2.4144 C   0  0  0  0  0  0
   55.6281   48.5896   -2.1051 C   0  0  0  0  0  0
   56.2894   48.3650   -0.8986 C   0  0  0  0  0  0
   55.8910   47.4228   -0.0077 N   0  0  0  0  0  0
   54.8065   46.6703   -0.3148 C   0  0  0  0  0  0
   47.0908   38.6264    0.4275 H   0  0  0  0  0  0
   46.3693   38.8173   -2.9474 H   0  0  0  0  0  0
   46.2663   39.6213   -5.2155 H   0  0  0  0  0  0
   47.8625   41.3310   -6.0884 H   0  0  0  0  0  0
   49.9823   43.1178   -5.0110 H   0  0  0  0  0  0
   54.0253   47.9168   -3.3644 H   0  0  0  0  0  0
   55.9773   49.3459   -2.7927 H   0  0  0  0  0  0
   57.1612   48.9439   -0.6247 H   0  0  0  0  0  0
   54.5427   45.9093    0.4058 H   0  0  0  0  0  0
  1  2  1  0  0  0
  1 29  1  0  0  0
  2  3  2  0  0  0
  2  4  1  0  0  0
  4  5  2  0  0  0
  4 12  1  0  0  0
  5  6  1  0  0  0
  5 30  1  0  0  0
  6  7  2  0  0  0
  6 31  1  0  0  0
  7  8  1  0  0  0
  7 32  1  0  0  0
  8  9  1  0  0  0
  8 12  2  0  0  0
  9 10  1  0  0  0
  9 33  1  0  0  0
 10 11  2  0  0  0
 10 13  1  0  0  0
 11 12  1  0  0  0
 13 14  2  0  0  0
 13 21  1  0  0  0
 14 15  1  0  0  0
 14 16  1  0  0  0
 16 17  1  0  0  0
 16 18  2  0  0  0
 18 19  1  0  0  0
 18 23  1  0  0  0
 19 20  1  0  0  0
 19 21  2  0  0  0
 21 22  1  0  0  0
 23 24  2  0  0  0
 23 28  1  0  0  0
 24 25  1  0  0  0
 24 34  1  0  0  0
 25 26  2  0  0  0
 25 35  1  0  0  0
 26 27  1  0  0  0
 26 36  1  0  0  0
 27 28  2  0  0  0
 28 37  1  0  0  0
M  END
> <s_m_entry_id>
25473

> <s_m_entry_name>
dock_pv.125

> <s_m_Source_Path>
/home/csk/Desktop/cluster/DUD-E-result/pyrd

> <s_m_Source_File>
dock_pv.maegz

> <i_m_Source_File_Index>
125

> <chembl_id>
CHEMBL3677821

> <chembl_pref_name>
None

> <i_lp_mmshare_version>
53161

> <r_lp_tautomer_probability>
1

> <s_lp_Force_Field>
OPLS_2005

> <r_lp_Energy>
29.86854

> <b_lp_Chiralities_Consistent>
1

> <s_lp_Variant>
CHEMBL1966_lig561-1

> <s_i_glide_gridfile>
glide-grid_1d3g

> <i_i_glide_lignum>
615

> <i_i_glide_rotatable_bonds>
4

> <r_i_docking_score>
-10.2465446196365

> <r_i_glide_ligand_efficiency>
-0.365948022129875

> <r_i_glide_ligand_efficiency_sa>
-1.111233727045

> <r_i_glide_ligand_efficiency_ln>
-2.36520334983496

> <r_i_glide_gscore>
-10.2465446196365

> <r_i_glide_lipo>
-4.66374286614952

> <r_i_glide_hbond>
0

> <r_i_glide_metal>
0

> <r_i_glide_rewards>
-3.27151411413411

> <r_i_glide_evdw>
-41.3921546936035

> <r_i_glide_ecoul>
-4.20763635635376

> <r_i_glide_erotb>
0.389465548780361

> <r_i_glide_esite>
0

> <r_i_glide_emodel>
-65.0392816689155

> <r_i_glide_energy>
-45.5997910499573

> <r_i_glide_einternal>
1.56507754325867

> <i_i_glide_confnum>
12

> <i_i_glide_posenum>
309

> <r_i_glide_eff_state_penalty>
0

> <s_user_duplicate_titles>
CHEMBL1966_lig561

> <i_f3d_flags>
0

> <s_m_subgroup_title>
dock_pv

> <s_m_subgroupid>
dock_pv

> <b_m_subgroup_collapsed>
1

$$$$
CHEMBL1966_lig477
                    3D
 Schrodinger Suite 2021-1.
 38 41  0  0  1  0            999 V2000
   47.1055   38.6861   -0.4990 O   0  0  0  0  0  0
   48.0230   39.6100   -0.8912 C   0  0  0  0  0  0
   48.8230   40.0898   -0.0990 O   0  0  0  0  0  0
   48.0230   40.0100   -2.3454 C   0  0  0  0  0  0
   47.0128   39.5613   -3.2077 C   0  0  0  0  0  0
   46.9100   40.0100   -4.5228 C   0  0  0  0  0  0
   47.8385   40.8808   -5.0940 C   0  0  0  0  0  0
   48.8230   41.3719   -4.2397 C   0  0  0  0  0  0
   49.7690   42.3597   -4.3709 N   0  0  0  0  0  0
   50.3284   42.5437   -3.1301 C   0  0  0  0  0  0
   49.9004   41.6815   -2.2487 N   0  0  0  0  0  0
   48.9244   40.9579   -2.8853 C   0  0  0  0  0  0
   51.2531   43.6502   -2.7980 C   0  0  0  0  0  0
   51.0658   44.4066   -1.6333 C   0  0  0  0  0  0
   51.9645   45.4197   -1.2990 C   0  0  0  0  0  0
   53.0673   45.6825   -2.1214 C   0  0  0  0  0  0
   53.2230   44.9467   -3.2990 C   0  0  0  0  0  0
   52.3246   43.9398   -3.6422 C   0  0  0  0  0  0
   54.1051   46.6790   -1.7456 C   0  0  0  0  0  0
   54.5837   46.7425   -0.4312 C   0  0  0  0  0  0
   55.6351   47.5931   -0.0990 C   0  0  0  0  0  0
   56.2122   48.4100   -1.0692 C   0  0  0  0  0  0
   55.7285   48.3805   -2.3746 C   0  0  0  0  0  0
   56.2825   49.1724   -3.3199 F   0  0  0  0  0  0
   54.6821   47.5214   -2.7088 C   0  0  0  0  0  0
   47.2229   38.5444    0.4497 H   0  0  0  0  0  0
   46.2573   38.8756   -2.8491 H   0  0  0  0  0  0
   46.0824   39.6552   -5.1207 H   0  0  0  0  0  0
   47.7276   41.2521   -6.0990 H   0  0  0  0  0  0
   49.9588   42.9588   -5.1607 H   0  0  0  0  0  0
   50.2308   44.1998   -0.9788 H   0  0  0  0  0  0
   51.8131   45.9806   -0.3881 H   0  0  0  0  0  0
   54.0734   45.1409   -3.9339 H   0  0  0  0  0  0
   52.4868   43.3533   -4.5335 H   0  0  0  0  0  0
   54.1712   46.0988    0.3327 H   0  0  0  0  0  0
   56.0094   47.6068    0.9127 H   0  0  0  0  0  0
   57.0333   49.0635   -0.8113 H   0  0  0  0  0  0
   54.3311   47.5041   -3.7304 H   0  0  0  0  0  0
  1  2  1  0  0  0
  1 26  1  0  0  0
  2  3  2  0  0  0
  2  4  1  0  0  0
  4  5  2  0  0  0
  4 12  1  0  0  0
  5  6  1  0  0  0
  5 27  1  0  0  0
  6  7  2  0  0  0
  6 28  1  0  0  0
  7  8  1  0  0  0
  7 29  1  0  0  0
  8  9  1  0  0  0
  8 12  2  0  0  0
  9 10  1  0  0  0
  9 30  1  0  0  0
 10 11  2  0  0  0
 10 13  1  0  0  0
 11 12  1  0  0  0
 13 14  2  0  0  0
 13 18  1  0  0  0
 14 15  1  0  0  0
 14 31  1  0  0  0
 15 16  2  0  0  0
 15 32  1  0  0  0
 16 17  1  0  0  0
 16 19  1  0  0  0
 17 18  2  0  0  0
 17 33  1  0  0  0
 18 34  1  0  0  0
 19 20  2  0  0  0
 19 25  1  0  0  0
 20 21  1  0  0  0
 20 35  1  0  0  0
 21 22  2  0  0  0
 21 36  1  0  0  0
 22 23  1  0  0  0
 22 37  1  0  0  0
 23 24  1  0  0  0
 23 25  2  0  0  0
 25 38  1  0  0  0
M  END
> <s_m_entry_id>
25474

> <s_m_entry_name>
dock_pv.126

> <s_m_Source_Path>
/home/csk/Desktop/cluster/DUD-E-result/pyrd

> <s_m_Source_File>
dock_pv.maegz

> <i_m_Source_File_Index>
126

> <chembl_id>
CHEMBL3677734

> <chembl_pref_name>
None

> <i_lp_mmshare_version>
53161

> <r_lp_tautomer_probability>
1

> <s_lp_Force_Field>
OPLS_2005

> <r_lp_Energy>
21.819005

> <b_lp_Chiralities_Consistent>
1

> <s_lp_Variant>
CHEMBL1966_lig477-1

> <s_i_glide_gridfile>
glide-grid_1d3g

> <i_i_glide_lignum>
527

> <i_i_glide_rotatable_bonds>
4

> <r_i_docking_score>
-10.245203377441

> <r_i_glide_ligand_efficiency>
-0.409808135097641

> <r_i_glide_ligand_efficiency_sa>
-1.19828625500373

> <r_i_glide_ligand_efficiency_ln>
-2.42842022442343

> <r_i_glide_gscore>
-10.245203377441

> <r_i_glide_lipo>
-5.00540030517628

> <r_i_glide_hbond>
0

> <r_i_glide_metal>
0

> <r_i_glide_rewards>
-3.03865724857359

> <r_i_glide_evdw>
-41.0231628417969

> <r_i_glide_ecoul>
-4.41040325164795

> <r_i_glide_erotb>
0.511572806145865

> <r_i_glide_esite>
0

> <r_i_glide_emodel>
-63.4554105214311

> <r_i_glide_energy>
-45.4335660934448

> <r_i_glide_einternal>
4.58253049850464

> <i_i_glide_confnum>
6

> <i_i_glide_posenum>
317

> <r_i_glide_eff_state_penalty>
0

> <s_user_duplicate_titles>
CHEMBL1966_lig477

> <i_f3d_flags>
0

> <s_m_subgroup_title>
dock_pv

> <s_m_subgroupid>
dock_pv

> <b_m_subgroup_collapsed>
1

$$$$
CHEMBL1966_lig485
                    3D
 Schrodinger Suite 2021-1.
 38 41  0  0  1  0            999 V2000
   46.4874   40.8100   -5.6206 O   0  0  0  0  0  0
   47.8046   40.6853   -5.2940 C   0  0  0  0  0  0
   48.7236   40.8100   -6.0989 O   0  0  0  0  0  0
   48.0614   40.4098   -3.8437 C   0  0  0  0  0  0
   47.3614   39.4305   -3.1237 C   0  0  0  0  0  0
   47.5789   39.2151   -1.7616 C   0  0  0  0  0  0
   48.4727   40.0100   -1.0397 C   0  0  0  0  0  0
   49.2226   40.9880   -1.7322 C   0  0  0  0  0  0
   50.0648   41.9591   -1.2483 N   0  0  0  0  0  0
   50.3544   42.7052   -2.2908 C   0  0  0  0  0  0
   49.7763   42.2428   -3.4466 N   0  0  0  0  0  0
   48.9910   41.1656   -3.1199 C   0  0  0  0  0  0
   51.2365   43.9034   -2.2738 C   0  0  0  0  0  0
   52.1853   44.0099   -3.2992 C   0  0  0  0  0  0
   53.1614   45.0058   -3.2693 C   0  0  0  0  0  0
   53.2220   45.9290   -2.2222 C   0  0  0  0  0  0
   52.2421   45.8533   -1.2213 C   0  0  0  0  0  0
   51.2586   44.8562   -1.2427 C   0  0  0  0  0  0
   50.3640   44.8054   -0.2331 F   0  0  0  0  0  0
   54.3243   46.9305   -2.1862 C   0  0  0  0  0  0
   55.0176   47.1933   -0.9975 C   0  0  0  0  0  0
   56.1081   48.0610   -0.9966 C   0  0  0  0  0  0
   56.4964   48.6930   -2.1721 C   0  0  0  0  0  0
   55.8085   48.4558   -3.3557 C   0  0  0  0  0  0
   54.7275   47.5800   -3.3615 C   0  0  0  0  0  0
   45.9295   40.8508   -4.8402 H   0  0  0  0  0  0
   46.6312   38.8100   -3.6238 H   0  0  0  0  0  0
   47.0165   38.4483   -1.2479 H   0  0  0  0  0  0
   48.5943   39.8682    0.0244 H   0  0  0  0  0  0
   49.8733   42.6980   -4.3433 H   0  0  0  0  0  0
   52.2154   43.2849   -4.1005 H   0  0  0  0  0  0
   53.9003   45.0484   -4.0512 H   0  0  0  0  0  0
   52.2507   46.5569   -0.4022 H   0  0  0  0  0  0
   54.7399   46.6939   -0.0808 H   0  0  0  0  0  0
   56.6726   48.2398   -0.0988 H   0  0  0  0  0  0
   57.3423   49.3656   -2.1667 H   0  0  0  0  0  0
   56.1162   48.9493   -4.2655 H   0  0  0  0  0  0
   54.2044   47.4023   -4.2906 H   0  0  0  0  0  0
  1  2  1  0  0  0
  1 26  1  0  0  0
  2  3  2  0  0  0
  2  4  1  0  0  0
  4  5  2  0  0  0
  4 12  1  0  0  0
  5  6  1  0  0  0
  5 27  1  0  0  0
  6  7  2  0  0  0
  6 28  1  0  0  0
  7  8  1  0  0  0
  7 29  1  0  0  0
  8  9  1  0  0  0
  8 12  2  0  0  0
  9 10  2  0  0  0
 10 11  1  0  0  0
 10 13  1  0  0  0
 11 12  1  0  0  0
 11 30  1  0  0  0
 13 14  2  0  0  0
 13 18  1  0  0  0
 14 15  1  0  0  0
 14 31  1  0  0  0
 15 16  2  0  0  0
 15 32  1  0  0  0
 16 17  1  0  0  0
 16 20  1  0  0  0
 17 18  2  0  0  0
 17 33  1  0  0  0
 18 19  1  0  0  0
 20 21  2  0  0  0
 20 25  1  0  0  0
 21 22  1  0  0  0
 21 34  1  0  0  0
 22 23  2  0  0  0
 22 35  1  0  0  0
 23 24  1  0  0  0
 23 36  1  0  0  0
 24 25  2  0  0  0
 24 37  1  0  0  0
 25 38  1  0  0  0
M  END
> <s_m_entry_id>
25475

> <s_m_entry_name>
dock_pv.127

> <s_m_Source_Path>
/home/csk/Desktop/cluster/DUD-E-result/pyrd

> <s_m_Source_File>
dock_pv.maegz

> <i_m_Source_File_Index>
127

> <chembl_id>
CHEMBL3677742

> <chembl_pref_name>
None

> <i_lp_mmshare_version>
53161

> <r_lp_tautomer_probability>
1

> <s_lp_Force_Field>
OPLS_2005

> <r_lp_Energy>
24.116641

> <b_lp_Chiralities_Consistent>
1

> <s_lp_Variant>
CHEMBL1966_lig485-1

> <s_i_glide_gridfile>
glide-grid_1d3g

> <i_i_glide_lignum>
535

> <i_i_glide_rotatable_bonds>
4

> <r_i_docking_score>
-10.239581225348

> <r_i_glide_ligand_efficiency>
-0.409583249013922

> <r_i_glide_ligand_efficiency_sa>
-1.19762868410656

> <r_i_glide_ligand_efficiency_ln>
-2.42708760589509

> <r_i_glide_gscore>
-10.239581225348

> <r_i_glide_lipo>
-5.04692868644886

> <r_i_glide_hbond>
-0.16

> <r_i_glide_metal>
0

> <r_i_glide_rewards>
-2.73729156056018

> <r_i_glide_evdw>
-39.056640625

> <r_i_glide_ecoul>
-5.69401168823242

> <r_i_glide_erotb>
0.511572806145865

> <r_i_glide_esite>
0

> <r_i_glide_emodel>
-64.9379258502136

> <r_i_glide_energy>
-44.7506523132324

> <r_i_glide_einternal>
5.93820571899414

> <i_i_glide_confnum>
14

> <i_i_glide_posenum>
348

> <r_i_glide_eff_state_penalty>
0

> <s_user_duplicate_titles>
CHEMBL1966_lig485

> <i_f3d_flags>
0

> <s_m_subgroup_title>
dock_pv

> <s_m_subgroupid>
dock_pv

> <b_m_subgroup_collapsed>
1

$$$$
CHEMBL1966_lig530
                    3D
 Schrodinger Suite 2021-1.
 42 45  0  0  1  0            999 V2000
   57.1570   48.7042   -3.8044 C   0  0  0  0  0  0
   56.1166   47.8768   -3.0712 C   0  0  0  0  0  0
   56.1668   47.7854   -1.6758 C   0  0  0  0  0  0
   55.2228   47.0507   -0.9444 C   0  0  0  0  0  0
   55.3395   46.8667    0.5334 C   0  0  0  0  0  0
   56.4229   46.8100    1.1010 O   0  0  0  0  0  0
   54.1522   46.7484    1.1856 O   0  0  0  0  0  0
   54.2343   46.4006   -1.6849 C   0  0  0  0  0  0
   53.1626   45.6105   -1.3488 N   0  0  0  0  0  0
   52.6257   45.0881   -2.4990 C   0  0  0  0  0  0
   53.2230   45.5878   -3.5583 N   0  0  0  0  0  0
   54.2072   46.4151   -3.0915 C   0  0  0  0  0  0
   55.1444   47.1810   -3.7978 C   0  0  0  0  0  0
   51.5494   44.0103   -2.5156 C   0  0  0  0  0  0
   51.2461   43.2767   -3.6740 C   0  0  0  0  0  0
   51.8359   43.5661   -4.8537 F   0  0  0  0  0  0
   50.3195   42.2349   -3.6479 C   0  0  0  0  0  0
   50.0232   41.6240   -4.8197 F   0  0  0  0  0  0
   49.7042   41.8344   -2.4501 C   0  0  0  0  0  0
   49.9975   42.5968   -1.2975 C   0  0  0  0  0  0
   49.4155   42.3369   -0.1014 F   0  0  0  0  0  0
   50.8450   43.6944   -1.3448 C   0  0  0  0  0  0
   51.0289   44.4096   -0.2076 F   0  0  0  0  0  0
   48.7029   40.7078   -2.4213 C   0  0  0  0  0  0
   48.4229   40.0099   -1.2364 C   0  0  0  0  0  0
   47.3706   39.0912   -1.1607 C   0  0  0  0  0  0
   46.5240   38.9047   -2.2539 C   0  0  0  0  0  0
   46.7695   39.6099   -3.4294 C   0  0  0  0  0  0
   45.8950   39.6064   -4.4823 O   0  0  0  0  0  0
   47.8915   40.4100   -3.5300 C   0  0  0  0  0  0
   57.2246   48.4317   -4.8582 H   0  0  0  0  0  0
   56.9238   49.7665   -3.7243 H   0  0  0  0  0  0
   58.1455   48.5417   -3.3717 H   0  0  0  0  0  0
   56.9628   48.2949   -1.1470 H   0  0  0  0  0  0
   54.3371   46.6172    2.1229 H   0  0  0  0  0  0
   52.8405   45.3610   -0.4245 H   0  0  0  0  0  0
   55.1245   47.2100   -4.8773 H   0  0  0  0  0  0
   49.0266   40.1340   -0.3514 H   0  0  0  0  0  0
   47.1891   38.5614   -0.2362 H   0  0  0  0  0  0
   45.6705   38.2508   -2.1668 H   0  0  0  0  0  0
   45.0927   39.1170   -4.2885 H   0  0  0  0  0  0
   47.9766   40.9596   -4.4518 H   0  0  0  0  0  0
  1  2  1  0  0  0
  1 31  1  0  0  0
  1 32  1  0  0  0
  1 33  1  0  0  0
  2  3  2  0  0  0
  2 13  1  0  0  0
  3  4  1  0  0  0
  3 34  1  0  0  0
  4  5  1  0  0  0
  4  8  2  0  0  0
  5  6  2  0  0  0
  5  7  1  0  0  0
  7 35  1  0  0  0
  8  9  1  0  0  0
  8 12  1  0  0  0
  9 10  1  0  0  0
  9 36  1  0  0  0
 10 11  2  0  0  0
 10 14  1  0  0  0
 11 12  1  0  0  0
 12 13  2  0  0  0
 13 37  1  0  0  0
 14 15  2  0  0  0
 14 22  1  0  0  0
 15 16  1  0  0  0
 15 17  1  0  0  0
 17 18  1  0  0  0
 17 19  2  0  0  0
 19 20  1  0  0  0
 19 24  1  0  0  0
 20 21  1  0  0  0
 20 22  2  0  0  0
 22 23  1  0  0  0
 24 25  2  0  0  0
 24 30  1  0  0  0
 25 26  1  0  0  0
 25 38  1  0  0  0
 26 27  2  0  0  0
 26 39  1  0  0  0
 27 28  1  0  0  0
 27 40  1  0  0  0
 28 29  1  0  0  0
 28 30  2  0  0  0
 29 41  1  0  0  0
 30 42  1  0  0  0
M  END
> <s_m_entry_id>
25476

> <s_m_entry_name>
dock_pv.128

> <s_m_Source_Path>
/home/csk/Desktop/cluster/DUD-E-result/pyrd

> <s_m_Source_File>
dock_pv.maegz

> <i_m_Source_File_Index>
128

> <chembl_id>
CHEMBL3677789

> <chembl_pref_name>
None

> <i_lp_mmshare_version>
53161

> <r_lp_tautomer_probability>
0.999999999997365

> <s_lp_Force_Field>
OPLS_2005

> <r_lp_Energy>
25.674578

> <b_lp_Chiralities_Consistent>
1

> <s_lp_Variant>
CHEMBL1966_lig530-1

> <s_i_glide_gridfile>
glide-grid_1d3g

> <i_i_glide_lignum>
584

> <i_i_glide_rotatable_bonds>
5

> <r_i_docking_score>
-10.2225420442622

> <r_i_glide_ligand_efficiency>
-0.340751401475407

> <r_i_glide_ligand_efficiency_sa>
-1.05879382991333

> <r_i_glide_ligand_efficiency_ln>
-2.32267293597306

> <r_i_glide_gscore>
-10.2225420442622

> <r_i_glide_lipo>
-5.62358645024564

> <r_i_glide_hbond>
-0.0142201638636805

> <r_i_glide_metal>
0

> <r_i_glide_rewards>
-2.78101121780713

> <r_i_glide_evdw>
-35.3042221069336

> <r_i_glide_ecoul>
-2.53625655174255

> <r_i_glide_erotb>
0.34192537576231

> <r_i_glide_esite>
0

> <r_i_glide_emodel>
-47.1051440867066

> <r_i_glide_energy>
-37.8404786586761

> <r_i_glide_einternal>
2.42256426811218

> <i_i_glide_confnum>
10

> <i_i_glide_posenum>
333

> <r_i_glide_eff_state_penalty>
0

> <s_user_duplicate_titles>
CHEMBL1966_lig530

> <i_f3d_flags>
0

> <s_m_subgroup_title>
dock_pv

> <s_m_subgroupid>
dock_pv

> <b_m_subgroup_collapsed>
1

$$$$
CHEMBL1966_lig95
                    3D
 Schrodinger Suite 2021-1.
 42 45  0  0  1  0            999 V2000
   47.3227   39.0095   -1.8206 C   0  0  0  0  0  0
   47.8868   39.4016   -0.6156 C   0  0  0  0  0  0
   48.8408   40.4100   -0.5767 C   0  0  0  0  0  0
   47.6944   39.6308   -3.0114 C   0  0  0  0  0  0
   48.6378   40.7081   -3.0153 C   0  0  0  0  0  0
   49.2230   41.0766   -1.7655 C   0  0  0  0  0  0
   50.0952   42.1081   -1.6451 N   0  0  0  0  0  0
   50.4277   42.8408   -2.7367 C   0  0  0  0  0  0
   49.9241   42.5461   -4.0102 C   0  0  0  0  0  0
   49.0137   41.4829   -4.1681 C   0  0  0  0  0  0
   51.3374   43.9953   -2.4536 C   0  0  0  0  0  0
   51.1431   44.7910   -1.3111 C   0  0  0  0  0  0
   52.0252   45.8214   -1.0041 C   0  0  0  0  0  0
   53.1157   46.0851   -1.8300 C   0  0  0  0  0  0
   53.2826   45.3324   -3.0026 C   0  0  0  0  0  0
   52.4229   44.2817   -3.2990 C   0  0  0  0  0  0
   48.4674   41.1876   -5.5377 C   0  0  0  0  0  0
   47.1091   41.1191   -5.6404 O   0  0  0  0  0  0
   49.2230   41.0896   -6.4990 O   0  0  0  0  0  0
   50.2862   43.3258   -5.0871 O   0  0  0  0  0  0
   53.9600   47.1054   -1.4310 O   0  0  0  0  0  0
   55.1529   47.3715   -2.0655 C   0  0  0  0  0  0
   55.4415   48.6983   -2.3769 C   0  0  0  0  0  0
   56.6085   49.0239   -3.0615 C   0  0  0  0  0  0
   57.4894   48.0100   -3.4285 C   0  0  0  0  0  0
   57.2258   46.6848   -3.0877 C   0  0  0  0  0  0
   56.0773   46.3684   -2.3747 C   0  0  0  0  0  0
   46.3969   38.0261   -1.8274 F   0  0  0  0  0  0
   47.5886   38.9140    0.3007 H   0  0  0  0  0  0
   49.2795   40.7035    0.3659 H   0  0  0  0  0  0
   47.2416   39.2904   -3.9285 H   0  0  0  0  0  0
   50.3102   44.6027   -0.6488 H   0  0  0  0  0  0
   51.8718   46.4107   -0.1120 H   0  0  0  0  0  0
   54.0813   45.5374   -3.6973 H   0  0  0  0  0  0
   52.6086   43.6799   -4.1756 H   0  0  0  0  0  0
   46.6592   41.3721   -4.8306 H   0  0  0  0  0  0
   49.8937   43.0190   -5.9098 H   0  0  0  0  0  0
   54.7445   49.4721   -2.0990 H   0  0  0  0  0  0
   56.8222   50.0533   -3.3122 H   0  0  0  0  0  0
   58.3938   48.2531   -3.9668 H   0  0  0  0  0  0
   57.9285   45.9084   -3.3545 H   0  0  0  0  0  0
   55.8876   45.3422   -2.0985 H   0  0  0  0  0  0
  1  2  2  0  0  0
  1  4  1  0  0  0
  1 28  1  0  0  0
  2  3  1  0  0  0
  2 29  1  0  0  0
  3  6  2  0  0  0
  3 30  1  0  0  0
  4  5  2  0  0  0
  4 31  1  0  0  0
  5 10  1  0  0  0
  5  6  1  0  0  0
  6  7  1  0  0  0
  7  8  2  0  0  0
  8  9  1  0  0  0
  8 11  1  0  0  0
  9 20  1  0  0  0
  9 10  2  0  0  0
 10 17  1  0  0  0
 11 16  1  0  0  0
 11 12  2  0  0  0
 12 13  1  0  0  0
 12 32  1  0  0  0
 13 14  2  0  0  0
 13 33  1  0  0  0
 14 15  1  0  0  0
 14 21  1  0  0  0
 15 16  2  0  0  0
 15 34  1  0  0  0
 16 35  1  0  0  0
 17 18  1  0  0  0
 17 19  2  0  0  0
 18 36  1  0  0  0
 20 37  1  0  0  0
 21 22  1  0  0  0
 22 23  2  0  0  0
 22 27  1  0  0  0
 23 24  1  0  0  0
 23 38  1  0  0  0
 24 25  2  0  0  0
 24 39  1  0  0  0
 25 26  1  0  0  0
 25 40  1  0  0  0
 26 27  2  0  0  0
 26 41  1  0  0  0
 27 42  1  0  0  0
M  END
> <s_m_entry_id>
25477

> <s_m_entry_name>
dock_pv.129

> <s_m_Source_Path>
/home/csk/Desktop/cluster/DUD-E-result/pyrd

> <s_m_Source_File>
dock_pv.maegz

> <i_m_Source_File_Index>
129

> <chembl_id>
CHEMBL218084

> <chembl_pref_name>
None

> <i_lp_mmshare_version>
53161

> <r_lp_tautomer_probability>
1

> <s_lp_Force_Field>
OPLS_2005

> <r_lp_Energy>
33.608534

> <b_lp_Chiralities_Consistent>
1

> <s_lp_Variant>
CHEMBL1966_lig95-1

> <s_i_glide_gridfile>
glide-grid_1d3g

> <i_i_glide_lignum>
104

> <i_i_glide_rotatable_bonds>
6

> <r_i_docking_score>
-10.2204635467965

> <r_i_glide_ligand_efficiency>
-0.36501655524273

> <r_i_glide_ligand_efficiency_sa>
-1.10840524497097

> <r_i_glide_ligand_efficiency_ln>
-2.3591830724499

> <r_i_glide_gscore>
-10.2204635467965

> <r_i_glide_lipo>
-5.77450089734644

> <r_i_glide_hbond>
-0.16

> <r_i_glide_metal>
0

> <r_i_glide_rewards>
-2.02940031652175

> <r_i_glide_evdw>
-39.5140419006348

> <r_i_glide_ecoul>
-5.53413248062134

> <r_i_glide_erotb>
0.549259634196681

> <r_i_glide_esite>
0

> <r_i_glide_emodel>
-71.6586785449587

> <r_i_glide_energy>
-45.0481743812561

> <r_i_glide_einternal>
3.78558897972107

> <i_i_glide_confnum>
5

> <i_i_glide_posenum>
316

> <r_i_glide_eff_state_penalty>
0

> <s_user_duplicate_titles>
CHEMBL1966_lig95,365577

> <i_f3d_flags>
0

> <s_m_subgroup_title>
dock_pv

> <s_m_subgroupid>
dock_pv

> <b_m_subgroup_collapsed>
1

$$$$
CHEMBL1966_lig771
                    3D
 Schrodinger Suite 2021-1.
 40 43  0  0  1  0            999 V2000
   48.6399   40.5209   -2.3470 C   0  0  0  0  0  0
   49.6735   42.3385   -4.2301 N   0  0  0  0  0  0
   49.6381   41.4904   -1.9925 C   0  0  0  0  0  0
   48.7230   41.4744   -4.6117 C   0  0  0  0  0  0
   50.1082   42.4166   -2.9583 C   0  0  0  0  0  0
   48.1777   40.5933   -3.6757 C   0  0  0  0  0  0
   48.0493   41.3751   -5.7788 N   0  0  0  0  0  0
   47.1096   40.0099   -4.2714 N   0  0  0  0  0  0
   47.9570   39.5773   -1.3712 C   0  0  0  0  0  0
   47.0520   40.5988   -5.4308 C   0  0  0  0  0  0
   51.0325   43.5611   -2.6944 C   0  0  0  0  0  0
   53.9142   46.6349   -1.7793 C   0  0  0  0  0  0
   52.8687   45.6182   -2.0984 C   0  0  0  0  0  0
   47.0612   38.8010   -1.6939 O   0  0  0  0  0  0
   54.4744   46.7428   -0.4950 C   0  0  0  0  0  0
   52.1336   43.7943   -3.5244 C   0  0  0  0  0  0
   50.8245   44.4163   -1.6019 C   0  0  0  0  0  0
   51.7349   45.4302   -1.2997 C   0  0  0  0  0  0
   53.0383   44.8098   -3.2243 C   0  0  0  0  0  0
   48.3877   39.6103   -0.0989 O   0  0  0  0  0  0
   54.0016   46.0096    0.5373 F   0  0  0  0  0  0
   50.2285   41.6108   -0.5762 C   0  0  0  0  0  0
   54.4252   47.4597   -2.7951 C   0  0  0  0  0  0
   55.5557   47.5903   -0.2616 C   0  0  0  0  0  0
   55.4848   48.3336   -2.5501 C   0  0  0  0  0  0
   56.0627   48.3881   -1.2844 C   0  0  0  0  0  0
   49.9976   43.0327   -4.8856 H   0  0  0  0  0  0
   46.2340   40.3768   -6.0978 H   0  0  0  0  0  0
   52.3274   43.1576   -4.3751 H   0  0  0  0  0  0
   49.9598   44.2945   -0.9659 H   0  0  0  0  0  0
   51.5634   46.0580   -0.4369 H   0  0  0  0  0  0
   53.9118   44.9417   -3.8408 H   0  0  0  0  0  0
   47.8914   39.0071    0.4655 H   0  0  0  0  0  0
   50.4226   40.6576   -0.0987 H   0  0  0  0  0  0
   51.2207   42.0610   -0.5775 H   0  0  0  0  0  0
   49.5687   42.1860    0.0733 H   0  0  0  0  0  0
   54.0124   47.4116   -3.7932 H   0  0  0  0  0  0
   56.0044   47.6102    0.7184 H   0  0  0  0  0  0
   55.8716   48.9506   -3.3481 H   0  0  0  0  0  0
   56.9014   49.0433   -1.0939 H   0  0  0  0  0  0
  1  3  1  0  0  0
  1  6  2  0  0  0
  1  9  1  0  0  0
  2  4  1  0  0  0
  2  5  1  0  0  0
  2 27  1  0  0  0
  3  5  2  0  0  0
  3 22  1  0  0  0
  4  6  1  0  0  0
  4  7  2  0  0  0
  5 11  1  0  0  0
  6  8  1  0  0  0
  7 10  1  0  0  0
  8 10  2  0  0  0
  9 14  2  0  0  0
  9 20  1  0  0  0
 10 28  1  0  0  0
 11 16  2  0  0  0
 11 17  1  0  0  0
 12 13  1  0  0  0
 12 15  2  0  0  0
 12 23  1  0  0  0
 13 18  1  0  0  0
 13 19  2  0  0  0
 15 21  1  0  0  0
 15 24  1  0  0  0
 16 19  1  0  0  0
 16 29  1  0  0  0
 17 18  2  0  0  0
 17 30  1  0  0  0
 18 31  1  0  0  0
 19 32  1  0  0  0
 20 33  1  0  0  0
 22 34  1  0  0  0
 22 35  1  0  0  0
 22 36  1  0  0  0
 23 25  2  0  0  0
 23 37  1  0  0  0
 24 26  2  0  0  0
 24 38  1  0  0  0
 25 26  1  0  0  0
 25 39  1  0  0  0
 26 40  1  0  0  0
M  END
> <s_m_entry_id>
25478

> <s_m_entry_name>
dock_pv.130

> <s_m_Source_Path>
/home/csk/Desktop/cluster/DUD-E-result/pyrd

> <s_m_Source_File>
dock_pv.maegz

> <i_m_Source_File_Index>
130

> <chembl_id>
CHEMBL440660

> <chembl_pref_name>
None

> <i_lp_mmshare_version>
53161

> <r_lp_tautomer_probability>
1

> <s_lp_Force_Field>
OPLS_2005

> <r_lp_Energy>
32.533279

> <b_lp_Chiralities_Consistent>
1

> <s_lp_Variant>
CHEMBL1966_lig771-1

> <s_i_glide_gridfile>
glide-grid_1d3g

> <i_i_glide_lignum>
842

> <i_i_glide_rotatable_bonds>
4

> <r_i_docking_score>
-10.2188362241682

> <r_i_glide_ligand_efficiency>
-0.393032162468006

> <r_i_glide_ligand_efficiency_sa>
-1.16435623480459

> <r_i_glide_ligand_efficiency_ln>
-2.39986015650935

> <r_i_glide_gscore>
-10.2188362241682

> <r_i_glide_lipo>
-5.11883448838063

> <r_i_glide_hbond>
0

> <r_i_glide_metal>
0

> <r_i_glide_rewards>
-2.88996003630352

> <r_i_glide_evdw>
-40.5838012695312

> <r_i_glide_ecoul>
-3.99667239189148

> <r_i_glide_erotb>
0.473030707975331

> <r_i_glide_esite>
-0.0543814851990542

> <r_i_glide_emodel>
-67.2550196787893

> <r_i_glide_energy>
-44.5804736614227

> <r_i_glide_einternal>
1.68484807014465

> <i_i_glide_confnum>
12

> <i_i_glide_posenum>
70

> <r_i_glide_eff_state_penalty>
0

> <s_user_duplicate_titles>
CHEMBL1966_lig771

> <i_f3d_flags>
0

> <s_m_subgroup_title>
dock_pv

> <s_m_subgroupid>
dock_pv

> <b_m_subgroup_collapsed>
1

$$$$
CHEMBL1966_lig417
                    3D
 Schrodinger Suite 2021-1.
 43 46  0  0  1  0            999 V2000
   47.2144   40.8099   -5.5840 O   0  0  0  0  0  0
   48.4564   41.1471   -5.1328 C   0  0  0  0  0  0
   49.3135   41.6102   -5.8789 O   0  0  0  0  0  0
   48.6777   40.9234   -3.6463 C   0  0  0  0  0  0
   47.8884   39.9745   -2.9785 C   0  0  0  0  0  0
   48.0230   39.7547   -1.6061 C   0  0  0  0  0  0
   48.9880   40.4363   -0.8848 C   0  0  0  0  0  0
   49.7674   41.3942   -1.5200 C   0  0  0  0  0  0
   49.6242   41.6550   -2.8870 C   0  0  0  0  0  0
   50.4319   42.6300   -3.4835 N   0  0  0  0  0  0
   51.2847   43.6105   -2.9623 C   0  0  0  0  0  0
   52.4225   43.9266   -3.6977 C   0  0  0  0  0  0
   53.3040   44.8752   -3.2990 N   0  0  0  0  0  0
   53.0179   45.5687   -2.1664 C   0  0  0  0  0  0
   51.9304   45.3397   -1.3717 N   0  0  0  0  0  0
   51.0764   44.3517   -1.7818 C   0  0  0  0  0  0
   54.0293   46.6076   -1.7908 C   0  0  0  0  0  0
   54.5047   46.7373   -0.4739 C   0  0  0  0  0  0
   53.9780   46.0099    0.5354 F   0  0  0  0  0  0
   55.5595   47.5980   -0.1749 C   0  0  0  0  0  0
   56.0993   48.4152   -1.1654 C   0  0  0  0  0  0
   57.1049   49.3013   -0.8990 O   0  0  0  0  0  0
   55.6071   48.3450   -2.4588 C   0  0  0  0  0  0
   54.6037   47.4369   -2.7756 C   0  0  0  0  0  0
   54.2107   47.3684   -4.0664 F   0  0  0  0  0  0
   47.1149   38.8333   -0.8382 C   0  0  0  0  0  0
   46.0238   38.0159   -1.4555 C   0  0  0  0  0  0
   47.2768   37.3489   -0.8991 C   0  0  0  0  0  0
   46.6198   40.6545   -4.8479 H   0  0  0  0  0  0
   47.1555   39.3986   -3.5205 H   0  0  0  0  0  0
   49.1157   40.2563    0.1734 H   0  0  0  0  0  0
   50.5080   41.9144   -0.9336 H   0  0  0  0  0  0
   50.4481   42.5522   -4.4928 H   0  0  0  0  0  0
   52.6701   43.3740   -4.5898 H   0  0  0  0  0  0
   50.1975   44.1987   -1.1744 H   0  0  0  0  0  0
   55.9363   47.6101    0.8352 H   0  0  0  0  0  0
   57.6125   49.1270   -0.0978 H   0  0  0  0  0  0
   56.0256   48.9743   -3.2303 H   0  0  0  0  0  0
   46.8743   39.2227    0.1517 H   0  0  0  0  0  0
   45.8675   38.0104   -2.5326 H   0  0  0  0  0  0
   45.0846   38.0098   -0.8994 H   0  0  0  0  0  0
   47.2598   36.8104    0.0391 H   0  0  0  0  0  0
   48.0240   36.9456   -1.5856 H   0  0  0  0  0  0
  1  2  1  0  0  0
  1 29  1  0  0  0
  2  3  2  0  0  0
  2  4  1  0  0  0
  4  5  2  0  0  0
  4  9  1  0  0  0
  5  6  1  0  0  0
  5 30  1  0  0  0
  6  7  2  0  0  0
  6 26  1  0  0  0
  7  8  1  0  0  0
  7 31  1  0  0  0
  8  9  2  0  0  0
  8 32  1  0  0  0
  9 10  1  0  0  0
 10 11  1  0  0  0
 10 33  1  0  0  0
 11 12  2  0  0  0
 11 16  1  0  0  0
 12 13  1  0  0  0
 12 34  1  0  0  0
 13 14  2  0  0  0
 14 15  1  0  0  0
 14 17  1  0  0  0
 15 16  2  0  0  0
 16 35  1  0  0  0
 17 18  2  0  0  0
 17 24  1  0  0  0
 18 19  1  0  0  0
 18 20  1  0  0  0
 20 21  2  0  0  0
 20 36  1  0  0  0
 21 22  1  0  0  0
 21 23  1  0  0  0
 22 37  1  0  0  0
 23 24  2  0  0  0
 23 38  1  0  0  0
 24 25  1  0  0  0
 26 27  1  0  0  0
 26 28  1  0  0  0
 26 39  1  0  0  0
 27 28  1  0  0  0
 27 40  1  0  0  0
 27 41  1  0  0  0
 28 42  1  0  0  0
 28 43  1  0  0  0
M  END
> <s_m_entry_id>
25479

> <s_m_entry_name>
dock_pv.131

> <s_m_Source_Path>
/home/csk/Desktop/cluster/DUD-E-result/pyrd

> <s_m_Source_File>
dock_pv.maegz

> <i_m_Source_File_Index>
131

> <chembl_id>
CHEMBL3674627

> <chembl_pref_name>
None

> <i_lp_mmshare_version>
53161

> <r_lp_tautomer_probability>
0.999999999997365

> <s_lp_Force_Field>
OPLS_2005

> <r_lp_Energy>
35.633483

> <b_lp_Chiralities_Consistent>
1

> <s_lp_Variant>
CHEMBL1966_lig417-1

> <s_i_glide_gridfile>
glide-grid_1d3g

> <i_i_glide_lignum>
467

> <i_i_glide_rotatable_bonds>
7

> <r_i_docking_score>
-10.2185901660528

> <r_i_glide_ligand_efficiency>
-0.364949648787601

> <r_i_glide_ligand_efficiency_sa>
-1.10820207756741

> <r_i_glide_ligand_efficiency_ln>
-2.35875064116942

> <r_i_glide_gscore>
-10.2185901660528

> <r_i_glide_lipo>
-4.918959748616

> <r_i_glide_hbond>
-0.286268496821166

> <r_i_glide_metal>
0

> <r_i_glide_rewards>
-2.99009536854143

> <r_i_glide_evdw>
-38.793514251709

> <r_i_glide_ecoul>
-4.96476173400879

> <r_i_glide_erotb>
0.66112342061255

> <r_i_glide_esite>
0

> <r_i_glide_emodel>
-56.9606687432425

> <r_i_glide_energy>
-43.7582759857178

> <r_i_glide_einternal>
13.9581279754639

> <i_i_glide_confnum>
64

> <i_i_glide_posenum>
91

> <r_i_glide_eff_state_penalty>
0

> <s_user_duplicate_titles>
CHEMBL1966_lig417

> <i_f3d_flags>
0

> <s_m_subgroup_title>
dock_pv

> <s_m_subgroupid>
dock_pv

> <b_m_subgroup_collapsed>
1

$$$$
CHEMBL1966_lig460
                    3D
 Schrodinger Suite 2021-1.
 53 56  0  0  1  0            999 V2000
   47.1637   38.5382   -1.4510 C   0  0  0  0  0  0
   48.0229   39.6753   -1.9743 C   0  0  0  0  0  0
   48.8229   40.4100   -1.1000 C   0  0  0  0  0  0
   49.6315   41.4233   -1.5899 C   0  0  0  0  0  0
   49.6368   41.7469   -2.9491 C   0  0  0  0  0  0
   50.5543   42.6851   -3.4328 N   0  0  0  0  0  0
   51.3344   43.6880   -2.8696 C   0  0  0  0  0  0
   52.4611   44.0923   -3.5728 C   0  0  0  0  0  0
   53.3195   45.0386   -3.1190 N   0  0  0  0  0  0
   53.0856   45.6100   -1.9056 C   0  0  0  0  0  0
   51.9236   45.2997   -1.1591 C   0  0  0  0  0  0
   51.6124   45.8835    0.2125 C   0  0  0  0  0  0
   51.0402   44.3391   -1.6703 C   0  0  0  0  0  0
   54.2211   46.4474   -1.4159 C   0  0  0  0  0  0
   54.7882   46.1846   -0.1637 C   0  0  0  0  0  0
   55.8721   46.9087    0.3016 C   0  0  0  0  0  0
   56.4365   47.8886   -0.4992 C   0  0  0  0  0  0
   55.9467   48.1545   -1.7829 C   0  0  0  0  0  0
   54.8182   47.4360   -2.2204 C   0  0  0  0  0  0
   56.6506   49.1437   -2.6898 C   0  0  0  0  0  0
   56.3777   49.2085   -3.8885 O   0  0  0  0  0  0
   57.5827   49.9266   -2.1122 N   0  0  0  0  0  0
   58.4437   50.8670   -2.8156 C   0  0  0  0  0  0
   59.3064   51.7855   -1.9866 C   0  0  0  0  0  0
   59.9346   50.6456   -2.7607 C   0  0  0  0  0  0
   48.7784   41.0603   -3.8408 C   0  0  0  0  0  0
   47.9976   40.0098   -3.3293 C   0  0  0  0  0  0
   48.5845   41.4507   -5.2988 C   0  0  0  0  0  0
   47.8746   40.8100   -6.0710 O   0  0  0  0  0  0
   49.1990   42.5950   -5.6991 O   0  0  0  0  0  0
   47.6517   37.5778   -1.6239 H   0  0  0  0  0  0
   46.9604   38.6502   -0.3849 H   0  0  0  0  0  0
   46.1963   38.5262   -1.9556 H   0  0  0  0  0  0
   48.8506   40.1619   -0.0485 H   0  0  0  0  0  0
   50.2999   41.9138   -0.9010 H   0  0  0  0  0  0
   50.6492   42.6257   -4.4370 H   0  0  0  0  0  0
   52.7277   43.6087   -4.4990 H   0  0  0  0  0  0
   50.8992   45.2371    0.7347 H   0  0  0  0  0  0
   52.4648   45.9383    0.8788 H   0  0  0  0  0  0
   51.2227   46.8954    0.1143 H   0  0  0  0  0  0
   50.1407   44.0919   -1.1276 H   0  0  0  0  0  0
   54.4237   45.3804    0.4548 H   0  0  0  0  0  0
   56.2949   46.6964    1.2727 H   0  0  0  0  0  0
   57.2904   48.4104   -0.1028 H   0  0  0  0  0  0
   54.4172   47.6163   -3.2088 H   0  0  0  0  0  0
   57.8250   49.7437   -1.1503 H   0  0  0  0  0  0
   58.0228   51.2751   -3.7370 H   0  0  0  0  0  0
   59.2499   51.7202   -0.8995 H   0  0  0  0  0  0
   59.4451   52.8110   -2.3309 H   0  0  0  0  0  0
   60.5192   50.8617   -3.6554 H   0  0  0  0  0  0
   60.3148   49.7794   -2.2171 H   0  0  0  0  0  0
   47.3389   39.4513   -3.9803 H   0  0  0  0  0  0
   48.8807   42.8737   -6.5581 H   0  0  0  0  0  0
  1  2  1  0  0  0
  1 31  1  0  0  0
  1 32  1  0  0  0
  1 33  1  0  0  0
  2  3  2  0  0  0
  2 27  1  0  0  0
  3  4  1  0  0  0
  3 34  1  0  0  0
  4  5  2  0  0  0
  4 35  1  0  0  0
  5  6  1  0  0  0
  5 26  1  0  0  0
  6  7  1  0  0  0
  6 36  1  0  0  0
  7  8  2  0  0  0
  7 13  1  0  0  0
  8  9  1  0  0  0
  8 37  1  0  0  0
  9 10  2  0  0  0
 10 11  1  0  0  0
 10 14  1  0  0  0
 11 12  1  0  0  0
 11 13  2  0  0  0
 12 38  1  0  0  0
 12 39  1  0  0  0
 12 40  1  0  0  0
 13 41  1  0  0  0
 14 15  2  0  0  0
 14 19  1  0  0  0
 15 16  1  0  0  0
 15 42  1  0  0  0
 16 17  2  0  0  0
 16 43  1  0  0  0
 17 18  1  0  0  0
 17 44  1  0  0  0
 18 19  2  0  0  0
 18 20  1  0  0  0
 19 45  1  0  0  0
 20 21  2  0  0  0
 20 22  1  0  0  0
 22 23  1  0  0  0
 22 46  1  0  0  0
 23 24  1  0  0  0
 23 25  1  0  0  0
 23 47  1  0  0  0
 24 25  1  0  0  0
 24 48  1  0  0  0
 24 49  1  0  0  0
 25 50  1  0  0  0
 25 51  1  0  0  0
 26 27  2  0  0  0
 26 28  1  0  0  0
 27 52  1  0  0  0
 28 29  2  0  0  0
 28 30  1  0  0  0
 30 53  1  0  0  0
M  END
> <s_m_entry_id>
25480

> <s_m_entry_name>
dock_pv.132

> <s_m_Source_Path>
/home/csk/Desktop/cluster/DUD-E-result/pyrd

> <s_m_Source_File>
dock_pv.maegz

> <i_m_Source_File_Index>
132

> <chembl_id>
CHEMBL3674669

> <chembl_pref_name>
None

> <i_lp_mmshare_version>
53161

> <r_lp_tautomer_probability>
0.999999999999999

> <s_lp_Force_Field>
OPLS_2005

> <r_lp_Energy>
44.543905

> <b_lp_Chiralities_Consistent>
1

> <s_lp_Variant>
CHEMBL1966_lig460-1

> <s_i_glide_gridfile>
glide-grid_1d3g

> <i_i_glide_lignum>
510

> <i_i_glide_rotatable_bonds>
8

> <r_i_docking_score>
-10.215807065982

> <r_i_glide_ligand_efficiency>
-0.340526902199399

> <r_i_glide_ligand_efficiency_sa>
-1.05809625846614

> <r_i_glide_ligand_efficiency_ln>
-2.32114267552433

> <r_i_glide_gscore>
-10.215807065982

> <r_i_glide_lipo>
-5.44219489713594

> <r_i_glide_hbond>
-0.258534439084828

> <r_i_glide_metal>
0

> <r_i_glide_rewards>
-2.14791882913469

> <r_i_glide_evdw>
-52.3469352722168

> <r_i_glide_ecoul>
-4.01143217086792

> <r_i_glide_erotb>
0.851902688614526

> <r_i_glide_esite>
0

> <r_i_glide_emodel>
-77.7203910222027

> <r_i_glide_energy>
-56.3583674430847

> <r_i_glide_einternal>
16.7407054901123

> <i_i_glide_confnum>
29

> <i_i_glide_posenum>
201

> <r_i_glide_eff_state_penalty>
0

> <s_user_duplicate_titles>
CHEMBL1966_lig460

> <i_f3d_flags>
0

> <s_m_subgroup_title>
dock_pv

> <s_m_subgroupid>
dock_pv

> <b_m_subgroup_collapsed>
1

$$$$
CHEMBL1966_lig464
                    3D
 Schrodinger Suite 2021-1.
 42 45  0  0  1  0            999 V2000
   49.5103   42.5137   -5.6719 O   0  0  0  0  0  0
   48.8236   41.4877   -5.0982 C   0  0  0  0  0  0
   48.0387   40.8101   -5.7605 O   0  0  0  0  0  0
   49.0615   41.2452   -3.6099 C   0  0  0  0  0  0
   48.3211   40.2270   -2.9943 C   0  0  0  0  0  0
   48.3673   40.0109   -1.6151 C   0  0  0  0  0  0
   49.2241   40.7876   -0.8326 C   0  0  0  0  0  0
   50.0214   41.7616   -1.4226 C   0  0  0  0  0  0
   49.9252   42.0196   -2.7931 C   0  0  0  0  0  0
   50.7230   43.0154   -3.3539 N   0  0  0  0  0  0
   51.5911   43.9814   -2.8530 C   0  0  0  0  0  0
   52.7204   44.2360   -3.6101 C   0  0  0  0  0  0
   53.6278   45.1794   -3.2752 N   0  0  0  0  0  0
   53.3809   45.8798   -2.1386 C   0  0  0  0  0  0
   52.3012   45.7146   -1.3188 N   0  0  0  0  0  0
   51.4047   44.7580   -1.6987 C   0  0  0  0  0  0
   54.4460   46.8449   -1.7717 C   0  0  0  0  0  0
   54.9459   47.7294   -2.7416 C   0  0  0  0  0  0
   56.0364   48.5513   -2.4695 C   0  0  0  0  0  0
   56.5113   49.3848   -3.4216 F   0  0  0  0  0  0
   56.6473   48.4952   -1.2212 C   0  0  0  0  0  0
   56.1533   47.6309   -0.2453 C   0  0  0  0  0  0
   55.0464   46.8279   -0.5040 C   0  0  0  0  0  0
   54.5932   46.0100    0.4730 F   0  0  0  0  0  0
   47.4287   39.0275   -0.9383 C   0  0  0  0  0  0
   46.4220   38.1851   -1.6880 C   0  0  0  0  0  0
   47.6229   37.5384   -1.0233 C   0  0  0  0  0  0
   49.1907   42.6714   -6.5607 H   0  0  0  0  0  0
   47.6516   39.6333   -3.5956 H   0  0  0  0  0  0
   49.2763   40.6282    0.2346 H   0  0  0  0  0  0
   50.6990   42.3222   -0.7992 H   0  0  0  0  0  0
   50.6863   42.9845   -4.3658 H   0  0  0  0  0  0
   52.9046   43.6402   -4.4903 H   0  0  0  0  0  0
   50.5274   44.6437   -1.0804 H   0  0  0  0  0  0
   54.5030   47.7615   -3.7268 H   0  0  0  0  0  0
   57.5027   49.1201   -1.0086 H   0  0  0  0  0  0
   56.6351   47.5980    0.7181 H   0  0  0  0  0  0
   47.0867   39.3853    0.0329 H   0  0  0  0  0  0
   46.3732   38.1944   -2.7747 H   0  0  0  0  0  0
   45.4305   38.0612   -1.2596 H   0  0  0  0  0  0
   47.4993   36.9613   -0.1066 H   0  0  0  0  0  0
   48.4227   37.1453   -1.6517 H   0  0  0  0  0  0
  1  2  1  0  0  0
  1 28  1  0  0  0
  2  3  2  0  0  0
  2  4  1  0  0  0
  4  5  2  0  0  0
  4  9  1  0  0  0
  5  6  1  0  0  0
  5 29  1  0  0  0
  6  7  2  0  0  0
  6 25  1  0  0  0
  7  8  1  0  0  0
  7 30  1  0  0  0
  8  9  2  0  0  0
  8 31  1  0  0  0
  9 10  1  0  0  0
 10 11  1  0  0  0
 10 32  1  0  0  0
 11 12  2  0  0  0
 11 16  1  0  0  0
 12 13  1  0  0  0
 12 33  1  0  0  0
 13 14  2  0  0  0
 14 15  1  0  0  0
 14 17  1  0  0  0
 15 16  2  0  0  0
 16 34  1  0  0  0
 17 18  2  0  0  0
 17 23  1  0  0  0
 18 19  1  0  0  0
 18 35  1  0  0  0
 19 20  1  0  0  0
 19 21  2  0  0  0
 21 22  1  0  0  0
 21 36  1  0  0  0
 22 23  2  0  0  0
 22 37  1  0  0  0
 23 24  1  0  0  0
 25 26  1  0  0  0
 25 27  1  0  0  0
 25 38  1  0  0  0
 26 27  1  0  0  0
 26 39  1  0  0  0
 26 40  1  0  0  0
 27 41  1  0  0  0
 27 42  1  0  0  0
M  END
> <s_m_entry_id>
25481

> <s_m_entry_name>
dock_pv.133

> <s_m_Source_Path>
/home/csk/Desktop/cluster/DUD-E-result/pyrd

> <s_m_Source_File>
dock_pv.maegz

> <i_m_Source_File_Index>
133

> <chembl_id>
CHEMBL3674673

> <chembl_pref_name>
None

> <i_lp_mmshare_version>
53161

> <r_lp_tautomer_probability>
1

> <s_lp_Force_Field>
OPLS_2005

> <r_lp_Energy>
33.822452

> <b_lp_Chiralities_Consistent>
1

> <s_lp_Variant>
CHEMBL1966_lig464-1

> <s_i_glide_gridfile>
glide-grid_1d3g

> <i_i_glide_lignum>
514

> <i_i_glide_rotatable_bonds>
6

> <r_i_docking_score>
-10.213961946148

> <r_i_glide_ligand_efficiency>
-0.378294886894372

> <r_i_glide_ligand_efficiency_sa>
-1.13488465943632

> <r_i_glide_ligand_efficiency_ln>
-2.37764195074016

> <r_i_glide_gscore>
-10.213961946148

> <r_i_glide_lipo>
-4.98064815375535

> <r_i_glide_hbond>
-0.0790101531284798

> <r_i_glide_metal>
0

> <r_i_glide_rewards>
-3.34089970063218

> <r_i_glide_evdw>
-42.9378509521484

> <r_i_glide_ecoul>
-2.53365397453308

> <r_i_glide_erotb>
0.713536705155362

> <r_i_glide_esite>
0

> <r_i_glide_emodel>
-58.9094270322268

> <r_i_glide_energy>
-45.4715049266815

> <r_i_glide_einternal>
16.7636604309082

> <i_i_glide_confnum>
168

> <i_i_glide_posenum>
20

> <r_i_glide_eff_state_penalty>
0

> <s_user_duplicate_titles>
CHEMBL1966_lig464

> <i_f3d_flags>
0

> <s_m_subgroup_title>
dock_pv

> <s_m_subgroupid>
dock_pv

> <b_m_subgroup_collapsed>
1

$$$$
CHEMBL1966_lig558
                    3D
 Schrodinger Suite 2021-1.
 38 41  0  0  1  0            999 V2000
   46.9975   38.7742   -0.5324 O   0  0  0  0  0  0
   48.0042   39.6098   -0.9047 C   0  0  0  0  0  0
   48.8231   40.0100   -0.0984 O   0  0  0  0  0  0
   48.0400   40.0432   -2.3469 C   0  0  0  0  0  0
   47.0928   39.5623   -3.2607 C   0  0  0  0  0  0
   47.0386   40.0142   -4.5756 C   0  0  0  0  0  0
   47.9409   40.9485   -5.0881 C   0  0  0  0  0  0
   48.8564   41.4760   -4.1776 C   0  0  0  0  0  0
   49.7702   42.5036   -4.2439 N   0  0  0  0  0  0
   50.2924   42.6741   -2.9793 C   0  0  0  0  0  0
   49.8584   41.7746   -2.1393 N   0  0  0  0  0  0
   48.9260   41.0358   -2.8293 C   0  0  0  0  0  0
   51.2226   43.7767   -2.5973 C   0  0  0  0  0  0
   50.9978   44.5893   -1.4706 C   0  0  0  0  0  0
   49.8954   44.4082   -0.7032 F   0  0  0  0  0  0
   51.9031   45.6089   -1.1378 C   0  0  0  0  0  0
   51.6648   46.3887   -0.0567 F   0  0  0  0  0  0
   53.0575   45.8056   -1.9077 C   0  0  0  0  0  0
   53.2807   44.9813   -3.0126 C   0  0  0  0  0  0
   54.4409   45.0949   -3.6990 F   0  0  0  0  0  0
   52.3631   43.9984   -3.3742 C   0  0  0  0  0  0
   52.6183   43.2108   -4.4474 F   0  0  0  0  0  0
   54.0856   46.8224   -1.5782 C   0  0  0  0  0  0
   54.8046   46.7476   -0.3823 C   0  0  0  0  0  0
   55.8736   47.6100   -0.1597 C   0  0  0  0  0  0
   56.2023   48.5671   -1.1163 C   0  0  0  0  0  0
   57.2168   49.4283   -0.8993 F   0  0  0  0  0  0
   55.4838   48.6598   -2.2997 C   0  0  0  0  0  0
   54.4234   47.7936   -2.5276 C   0  0  0  0  0  0
   47.0851   38.6226    0.4172 H   0  0  0  0  0  0
   46.3575   38.8343   -2.9472 H   0  0  0  0  0  0
   46.2581   39.6285   -5.2148 H   0  0  0  0  0  0
   47.8658   41.3257   -6.0962 H   0  0  0  0  0  0
   49.9831   43.1156   -5.0185 H   0  0  0  0  0  0
   54.5642   45.9941    0.3536 H   0  0  0  0  0  0
   56.4550   47.5316    0.7458 H   0  0  0  0  0  0
   55.7598   49.3976   -3.0385 H   0  0  0  0  0  0
   53.8840   47.8501   -3.4625 H   0  0  0  0  0  0
  1  2  1  0  0  0
  1 30  1  0  0  0
  2  3  2  0  0  0
  2  4  1  0  0  0
  4  5  2  0  0  0
  4 12  1  0  0  0
  5  6  1  0  0  0
  5 31  1  0  0  0
  6  7  2  0  0  0
  6 32  1  0  0  0
  7  8  1  0  0  0
  7 33  1  0  0  0
  8  9  1  0  0  0
  8 12  2  0  0  0
  9 10  1  0  0  0
  9 34  1  0  0  0
 10 11  2  0  0  0
 10 13  1  0  0  0
 11 12  1  0  0  0
 13 14  2  0  0  0
 13 21  1  0  0  0
 14 15  1  0  0  0
 14 16  1  0  0  0
 16 17  1  0  0  0
 16 18  2  0  0  0
 18 19  1  0  0  0
 18 23  1  0  0  0
 19 20  1  0  0  0
 19 21  2  0  0  0
 21 22  1  0  0  0
 23 24  2  0  0  0
 23 29  1  0  0  0
 24 25  1  0  0  0
 24 35  1  0  0  0
 25 26  2  0  0  0
 25 36  1  0  0  0
 26 27  1  0  0  0
 26 28  1  0  0  0
 28 29  2  0  0  0
 28 37  1  0  0  0
 29 38  1  0  0  0
M  END
> <s_m_entry_id>
25482

> <s_m_entry_name>
dock_pv.134

> <s_m_Source_Path>
/home/csk/Desktop/cluster/DUD-E-result/pyrd

> <s_m_Source_File>
dock_pv.maegz

> <i_m_Source_File_Index>
134

> <chembl_id>
CHEMBL3677818

> <chembl_pref_name>
None

> <i_lp_mmshare_version>
53161

> <r_lp_tautomer_probability>
1

> <s_lp_Force_Field>
OPLS_2005

> <r_lp_Energy>
29.516446

> <b_lp_Chiralities_Consistent>
1

> <s_lp_Variant>
CHEMBL1966_lig558-1

> <s_i_glide_gridfile>
glide-grid_1d3g

> <i_i_glide_lignum>
612

> <i_i_glide_rotatable_bonds>
4

> <r_i_docking_score>
-10.1997540116423

> <r_i_glide_ligand_efficiency>
-0.351715655573872

> <r_i_glide_ligand_efficiency_sa>
-1.08058192526386

> <r_i_glide_ligand_efficiency_ln>
-2.33548502522072

> <r_i_glide_gscore>
-10.1997540116423

> <r_i_glide_lipo>
-5.01145620372843

> <r_i_glide_hbond>
0

> <r_i_glide_metal>
0

> <r_i_glide_rewards>
-3.07077464382166

> <r_i_glide_evdw>
-40.4270172119141

> <r_i_glide_ecoul>
-3.04453372955322

> <r_i_glide_erotb>
0.360507755936473

> <r_i_glide_esite>
0

> <r_i_glide_emodel>
-59.4851119101389

> <r_i_glide_energy>
-43.4715509414673

> <r_i_glide_einternal>
1.38668763637543

> <i_i_glide_confnum>
11

> <i_i_glide_posenum>
246

> <r_i_glide_eff_state_penalty>
0

> <s_user_duplicate_titles>
CHEMBL1966_lig558

> <i_f3d_flags>
0

> <s_m_subgroup_title>
dock_pv

> <s_m_subgroupid>
dock_pv

> <b_m_subgroup_collapsed>
1

$$$$
CHEMBL1966_lig465
                    3D
 Schrodinger Suite 2021-1.
 45 48  0  0  1  0            999 V2000
   49.4504   42.4103   -5.6941 O   0  0  0  0  0  0
   48.7152   41.4400   -5.0820 C   0  0  0  0  0  0
   47.8681   40.8097   -5.7110 O   0  0  0  0  0  0
   48.9712   41.2050   -3.5949 C   0  0  0  0  0  0
   48.2230   40.2086   -2.9470 C   0  0  0  0  0  0
   48.3083   40.0101   -1.5647 C   0  0  0  0  0  0
   49.2230   40.7559   -0.8194 C   0  0  0  0  0  0
   50.0125   41.7102   -1.4406 C   0  0  0  0  0  0
   49.8653   41.9691   -2.8053 C   0  0  0  0  0  0
   50.6431   42.9670   -3.3812 N   0  0  0  0  0  0
   51.4985   43.9316   -2.8672 C   0  0  0  0  0  0
   52.6272   44.2062   -3.6171 C   0  0  0  0  0  0
   53.5333   45.1407   -3.2564 N   0  0  0  0  0  0
   53.2875   45.8069   -2.0967 C   0  0  0  0  0  0
   52.1906   45.6311   -1.2993 N   0  0  0  0  0  0
   51.2976   44.6828   -1.6990 C   0  0  0  0  0  0
   54.4100   46.6614   -1.6225 C   0  0  0  0  0  0
   55.1713   47.4018   -2.5462 C   0  0  0  0  0  0
   56.3310   48.0812   -2.1594 C   0  0  0  0  0  0
   56.7297   48.0103   -0.8254 C   0  0  0  0  0  0
   55.9874   47.2874    0.1029 C   0  0  0  0  0  0
   54.8137   46.6559   -0.2777 C   0  0  0  0  0  0
   54.1053   46.0097    0.6752 F   0  0  0  0  0  0
   57.1679   48.8582   -3.1775 C   0  0  0  0  0  0
   57.9040   49.8048   -2.5912 F   0  0  0  0  0  0
   57.9882   48.0105   -3.7960 F   0  0  0  0  0  0
   56.4027   49.4445   -4.0965 F   0  0  0  0  0  0
   47.3517   39.0936   -0.8268 C   0  0  0  0  0  0
   46.1665   38.4151   -1.4699 C   0  0  0  0  0  0
   47.3581   37.6052   -1.0013 C   0  0  0  0  0  0
   49.1101   42.5794   -6.5729 H   0  0  0  0  0  0
   47.5182   39.6232   -3.5170 H   0  0  0  0  0  0
   49.3114   40.6023    0.2464 H   0  0  0  0  0  0
   50.7240   42.2552   -0.8415 H   0  0  0  0  0  0
   50.6029   42.9370   -4.3929 H   0  0  0  0  0  0
   52.8231   43.6207   -4.4990 H   0  0  0  0  0  0
   50.4152   44.5573   -1.0899 H   0  0  0  0  0  0
   54.8769   47.4193   -3.5867 H   0  0  0  0  0  0
   57.6229   48.5132   -0.4986 H   0  0  0  0  0  0
   56.3150   47.2162    1.1293 H   0  0  0  0  0  0
   47.1715   39.4251    0.1961 H   0  0  0  0  0  0
   45.9821   38.5030   -2.5392 H   0  0  0  0  0  0
   45.2371   38.4103   -0.9003 H   0  0  0  0  0  0
   47.2730   36.9878   -0.1074 H   0  0  0  0  0  0
   48.0352   37.1745   -1.7380 H   0  0  0  0  0  0
  1  2  1  0  0  0
  1 31  1  0  0  0
  2  3  2  0  0  0
  2  4  1  0  0  0
  4  5  2  0  0  0
  4  9  1  0  0  0
  5  6  1  0  0  0
  5 32  1  0  0  0
  6  7  2  0  0  0
  6 28  1  0  0  0
  7  8  1  0  0  0
  7 33  1  0  0  0
  8  9  2  0  0  0
  8 34  1  0  0  0
  9 10  1  0  0  0
 10 11  1  0  0  0
 10 35  1  0  0  0
 11 12  2  0  0  0
 11 16  1  0  0  0
 12 13  1  0  0  0
 12 36  1  0  0  0
 13 14  2  0  0  0
 14 15  1  0  0  0
 14 17  1  0  0  0
 15 16  2  0  0  0
 16 37  1  0  0  0
 17 18  2  0  0  0
 17 22  1  0  0  0
 18 19  1  0  0  0
 18 38  1  0  0  0
 19 20  2  0  0  0
 19 24  1  0  0  0
 20 21  1  0  0  0
 20 39  1  0  0  0
 21 22  2  0  0  0
 21 40  1  0  0  0
 22 23  1  0  0  0
 24 25  1  0  0  0
 24 26  1  0  0  0
 24 27  1  0  0  0
 28 29  1  0  0  0
 28 30  1  0  0  0
 28 41  1  0  0  0
 29 30  1  0  0  0
 29 42  1  0  0  0
 29 43  1  0  0  0
 30 44  1  0  0  0
 30 45  1  0  0  0
M  END
> <s_m_entry_id>
25483

> <s_m_entry_name>
dock_pv.135

> <s_m_Source_Path>
/home/csk/Desktop/cluster/DUD-E-result/pyrd

> <s_m_Source_File>
dock_pv.maegz

> <i_m_Source_File_Index>
135

> <chembl_id>
CHEMBL3674674

> <chembl_pref_name>
None

> <i_lp_mmshare_version>
53161

> <r_lp_tautomer_probability>
1

> <s_lp_Force_Field>
OPLS_2005

> <r_lp_Energy>
33.434991

> <b_lp_Chiralities_Consistent>
1

> <s_lp_Variant>
CHEMBL1966_lig465-1

> <s_i_glide_gridfile>
glide-grid_1d3g

> <i_i_glide_lignum>
515

> <i_i_glide_rotatable_bonds>
7

> <r_i_docking_score>
-10.1971153051734

> <r_i_glide_ligand_efficiency>
-0.33990384350578

> <r_i_glide_ligand_efficiency_sa>
-1.05616027024241

> <r_i_glide_ligand_efficiency_ln>
-2.31689570380558

> <r_i_glide_gscore>
-10.1971153051734

> <r_i_glide_lipo>
-5.10453756389868

> <r_i_glide_hbond>
-0.0417699030765402

> <r_i_glide_metal>
0

> <r_i_glide_rewards>
-2.94129433369793

> <r_i_glide_evdw>
-45.7150497436523

> <r_i_glide_ecoul>
-2.60730481147766

> <r_i_glide_erotb>
0.567334704404023

> <r_i_glide_esite>
0

> <r_i_glide_emodel>
-63.7453230044923

> <r_i_glide_energy>
-48.32235455513

> <r_i_glide_einternal>
15.9184312820435

> <i_i_glide_confnum>
77

> <i_i_glide_posenum>
102

> <r_i_glide_eff_state_penalty>
0

> <s_user_duplicate_titles>
CHEMBL1966_lig465

> <i_f3d_flags>
0

> <s_m_subgroup_title>
dock_pv

> <s_m_subgroupid>
dock_pv

> <b_m_subgroup_collapsed>
1

$$$$
CHEMBL1966_lig540
                    3D
 Schrodinger Suite 2021-1.
 55 59  0  0  1  0            999 V2000
   45.4900   40.0699   -5.4985 C   0  0  0  0  0  0
   46.7928   40.3196   -4.7535 C   0  0  0  0  0  0
   46.9589   39.7467   -3.4854 C   0  0  0  0  0  0
   48.0216   40.0855   -2.6300 C   0  0  0  0  0  0
   48.0229   39.6098   -1.1939 C   0  0  0  0  0  0
   48.7741   40.0814   -0.3433 O   0  0  0  0  0  0
   47.1430   38.6136   -0.8975 O   0  0  0  0  0  0
   48.9427   41.0241   -3.1382 C   0  0  0  0  0  0
   49.9650   41.6547   -2.4821 N   0  0  0  0  0  0
   50.3813   42.5770   -3.3035 C   0  0  0  0  0  0
   49.7890   42.5025   -4.5418 N   0  0  0  0  0  0
   48.8078   41.5447   -4.4555 C   0  0  0  0  0  0
   47.7528   41.1828   -5.2982 C   0  0  0  0  0  0
   51.3107   43.6491   -2.8944 C   0  0  0  0  0  0
   52.4009   43.9666   -3.6988 C   0  0  0  0  0  0
   53.2997   44.9487   -3.2989 C   0  0  0  0  0  0
   53.1341   45.6100   -2.0762 C   0  0  0  0  0  0
   51.9967   45.3352   -1.3027 C   0  0  0  0  0  0
   51.0956   44.3514   -1.7008 C   0  0  0  0  0  0
   54.2134   46.5004   -1.5650 C   0  0  0  0  0  0
   54.5332   46.4944   -0.2011 C   0  0  0  0  0  0
   55.6137   47.2208    0.2807 C   0  0  0  0  0  0
   56.3819   47.9811   -0.5955 C   0  0  0  0  0  0
   56.0928   48.0169   -1.9575 C   0  0  0  0  0  0
   56.9631   48.7458   -2.7467 O   0  0  0  0  0  0
   56.8241   48.7832   -4.1706 C   0  0  0  0  0  0
   57.4161   47.5648   -4.8875 C   0  0  0  0  0  0
   57.7538   46.3865   -4.2104 C   0  0  0  0  0  0
   58.2935   45.3087   -4.9054 C   0  0  0  0  0  0
   58.4949   45.4034   -6.2798 C   0  0  0  0  0  0
   58.1602   46.5667   -6.9655 C   0  0  0  0  0  0
   57.6241   47.6443   -6.2686 C   0  0  0  0  0  0
   54.9941   47.2828   -2.4318 C   0  0  0  0  0  0
   44.9587   41.0153   -5.6156 H   0  0  0  0  0  0
   45.6438   39.6654   -6.4929 H   0  0  0  0  0  0
   44.8262   39.3754   -4.9790 H   0  0  0  0  0  0
   46.1798   39.0896   -3.1225 H   0  0  0  0  0  0
   47.2223   38.4103    0.0401 H   0  0  0  0  0  0
   49.9647   43.1649   -5.2828 H   0  0  0  0  0  0
   47.6033   41.6738   -6.2460 H   0  0  0  0  0  0
   52.5727   43.4088   -4.6056 H   0  0  0  0  0  0
   54.1726   45.1459   -3.9015 H   0  0  0  0  0  0
   51.8298   45.8464   -0.3657 H   0  0  0  0  0  0
   50.2412   44.1247   -1.0790 H   0  0  0  0  0  0
   53.9717   45.8897    0.4962 H   0  0  0  0  0  0
   55.8577   47.1941    1.3322 H   0  0  0  0  0  0
   57.2237   48.5385   -0.2161 H   0  0  0  0  0  0
   55.7967   48.9566   -4.4908 H   0  0  0  0  0  0
   57.3792   49.6636   -4.4980 H   0  0  0  0  0  0
   57.6275   46.2938   -3.1432 H   0  0  0  0  0  0
   58.5690   44.4102   -4.3741 H   0  0  0  0  0  0
   58.9202   44.5711   -6.8211 H   0  0  0  0  0  0
   58.3202   46.6335   -8.0322 H   0  0  0  0  0  0
   57.3706   48.5442   -6.8091 H   0  0  0  0  0  0
   54.7617   47.2853   -3.4850 H   0  0  0  0  0  0
  1  2  1  0  0  0
  1 34  1  0  0  0
  1 35  1  0  0  0
  1 36  1  0  0  0
  2  3  2  0  0  0
  2 13  1  0  0  0
  3  4  1  0  0  0
  3 37  1  0  0  0
  4  5  1  0  0  0
  4  8  2  0  0  0
  5  6  2  0  0  0
  5  7  1  0  0  0
  7 38  1  0  0  0
  8  9  1  0  0  0
  8 12  1  0  0  0
  9 10  2  0  0  0
 10 11  1  0  0  0
 10 14  1  0  0  0
 11 12  1  0  0  0
 11 39  1  0  0  0
 12 13  2  0  0  0
 13 40  1  0  0  0
 14 15  2  0  0  0
 14 19  1  0  0  0
 15 16  1  0  0  0
 15 41  1  0  0  0
 16 17  2  0  0  0
 16 42  1  0  0  0
 17 18  1  0  0  0
 17 20  1  0  0  0
 18 19  2  0  0  0
 18 43  1  0  0  0
 19 44  1  0  0  0
 20 21  2  0  0  0
 20 33  1  0  0  0
 21 22  1  0  0  0
 21 45  1  0  0  0
 22 23  2  0  0  0
 22 46  1  0  0  0
 23 24  1  0  0  0
 23 47  1  0  0  0
 24 25  1  0  0  0
 24 33  2  0  0  0
 25 26  1  0  0  0
 26 27  1  0  0  0
 26 48  1  0  0  0
 26 49  1  0  0  0
 27 28  2  0  0  0
 27 32  1  0  0  0
 28 29  1  0  0  0
 28 50  1  0  0  0
 29 30  2  0  0  0
 29 51  1  0  0  0
 30 31  1  0  0  0
 30 52  1  0  0  0
 31 32  2  0  0  0
 31 53  1  0  0  0
 32 54  1  0  0  0
 33 55  1  0  0  0
M  END
> <s_m_entry_id>
25484

> <s_m_entry_name>
dock_pv.136

> <s_m_Source_Path>
/home/csk/Desktop/cluster/DUD-E-result/pyrd

> <s_m_Source_File>
dock_pv.maegz

> <i_m_Source_File_Index>
136

> <chembl_id>
CHEMBL3677800

> <chembl_pref_name>
None

> <i_lp_mmshare_version>
53161

> <r_lp_tautomer_probability>
1

> <s_lp_Force_Field>
OPLS_2005

> <r_lp_Energy>
33.394885

> <b_lp_Chiralities_Consistent>
1

> <s_lp_Variant>
CHEMBL1966_lig540-1

> <s_i_glide_gridfile>
glide-grid_1d3g

> <i_i_glide_lignum>
594

> <i_i_glide_rotatable_bonds>
7

> <r_i_docking_score>
-10.188164317462

> <r_i_glide_ligand_efficiency>
-0.308732252044302

> <r_i_glide_ligand_efficiency_sa>
-0.99026929605486

> <r_i_glide_ligand_efficiency_ln>
-2.2657949927119

> <r_i_glide_gscore>
-10.188164317462

> <r_i_glide_lipo>
-5.81195828750425

> <r_i_glide_hbond>
0

> <r_i_glide_metal>
0

> <r_i_glide_rewards>
-2.00408636548177

> <r_i_glide_evdw>
-51.1829490661621

> <r_i_glide_ecoul>
-2.97316479682922

> <r_i_glide_erotb>
0.633002508356563

> <r_i_glide_esite>
0

> <r_i_glide_emodel>
-76.3366059132807

> <r_i_glide_energy>
-54.1561138629913

> <r_i_glide_einternal>
6.86782932281494

> <i_i_glide_confnum>
6

> <i_i_glide_posenum>
9

> <r_i_glide_eff_state_penalty>
0

> <s_user_duplicate_titles>
CHEMBL1966_lig540

> <i_f3d_flags>
0

> <s_m_subgroup_title>
dock_pv

> <s_m_subgroupid>
dock_pv

> <b_m_subgroup_collapsed>
1

$$$$
CHEMBL1966_lig188
                    3D
 Schrodinger Suite 2021-1.
 46 48  0  0  1  0            999 V2000
   45.8097   38.3589   -1.4947 C   0  0  0  0  0  0
   47.2995   38.4004   -1.1344 C   0  0  0  0  0  0
   48.0220   39.5984   -1.7258 C   0  0  0  0  0  0
   48.8577   40.4102   -0.9568 C   0  0  0  0  0  0
   49.6228   41.3899   -1.4957 N   0  0  0  0  0  0
   49.4570   41.6739   -2.8152 C   0  0  0  0  0  0
   50.0716   42.8318   -3.2871 N   0  0  0  0  0  0
   50.9756   43.7133   -2.6857 C   0  0  0  0  0  0
   50.7484   44.4054   -1.4819 C   0  0  0  0  0  0
   49.6328   44.1911   -0.7417 F   0  0  0  0  0  0
   51.6755   45.3590   -1.0475 C   0  0  0  0  0  0
   52.8474   45.6104   -1.7830 C   0  0  0  0  0  0
   53.0614   44.8933   -2.9648 C   0  0  0  0  0  0
   52.1440   43.9502   -3.4015 C   0  0  0  0  0  0
   52.4220   43.2113   -4.4984 F   0  0  0  0  0  0
   53.9324   46.5020   -1.3020 C   0  0  0  0  0  0
   54.3937   46.4153    0.0158 C   0  0  0  0  0  0
   55.5472   47.0886    0.4036 C   0  0  0  0  0  0
   56.2307   47.8905   -0.5071 C   0  0  0  0  0  0
   55.7446   48.0568   -1.8120 C   0  0  0  0  0  0
   56.3212   48.8658   -2.7708 O   0  0  0  0  0  0
   57.5181   49.5716   -2.4597 C   0  0  0  0  0  0
   54.6025   47.3529   -2.1925 C   0  0  0  0  0  0
   48.6672   40.8793   -3.6777 C   0  0  0  0  0  0
   47.9557   39.8326   -3.0965 C   0  0  0  0  0  0
   48.4588   41.1430   -5.1535 C   0  0  0  0  0  0
   47.4210   40.8191   -5.7265 O   0  0  0  0  0  0
   49.5235   41.6845   -5.8102 O   0  0  0  0  0  0
   45.3851   37.3772   -1.2922 H   0  0  0  0  0  0
   45.2414   39.1076   -0.9413 H   0  0  0  0  0  0
   45.6489   38.5357   -2.5566 H   0  0  0  0  0  0
   47.7917   37.5060   -1.5201 H   0  0  0  0  0  0
   47.4247   38.3661   -0.0553 H   0  0  0  0  0  0
   48.9880   40.2270    0.1003 H   0  0  0  0  0  0
   49.8580   43.0652   -4.2459 H   0  0  0  0  0  0
   51.4931   45.8859   -0.1218 H   0  0  0  0  0  0
   53.9697   45.0295   -3.5349 H   0  0  0  0  0  0
   53.9013   45.7684    0.7284 H   0  0  0  0  0  0
   55.9203   46.9800    1.4114 H   0  0  0  0  0  0
   57.1301   48.3886   -0.1780 H   0  0  0  0  0  0
   57.7603   50.2397   -3.2853 H   0  0  0  0  0  0
   57.4157   50.1887   -1.5660 H   0  0  0  0  0  0
   58.3565   48.8862   -2.3378 H   0  0  0  0  0  0
   54.2532   47.4497   -3.2109 H   0  0  0  0  0  0
   47.3500   39.1898   -3.7169 H   0  0  0  0  0  0
   50.3133   41.7020   -5.2644 H   0  0  0  0  0  0
  1  2  1  0  0  0
  1 29  1  0  0  0
  1 30  1  0  0  0
  1 31  1  0  0  0
  2  3  1  0  0  0
  2 32  1  0  0  0
  2 33  1  0  0  0
  3  4  2  0  0  0
  3 25  1  0  0  0
  4  5  1  0  0  0
  4 34  1  0  0  0
  5  6  2  0  0  0
  6  7  1  0  0  0
  6 24  1  0  0  0
  7  8  1  0  0  0
  7 35  1  0  0  0
  8  9  2  0  0  0
  8 14  1  0  0  0
  9 10  1  0  0  0
  9 11  1  0  0  0
 11 12  2  0  0  0
 11 36  1  0  0  0
 12 13  1  0  0  0
 12 16  1  0  0  0
 13 14  2  0  0  0
 13 37  1  0  0  0
 14 15  1  0  0  0
 16 17  2  0  0  0
 16 23  1  0  0  0
 17 18  1  0  0  0
 17 38  1  0  0  0
 18 19  2  0  0  0
 18 39  1  0  0  0
 19 20  1  0  0  0
 19 40  1  0  0  0
 20 21  1  0  0  0
 20 23  2  0  0  0
 21 22  1  0  0  0
 22 41  1  0  0  0
 22 42  1  0  0  0
 22 43  1  0  0  0
 23 44  1  0  0  0
 24 25  2  0  0  0
 24 26  1  0  0  0
 25 45  1  0  0  0
 26 27  2  0  0  0
 26 28  1  0  0  0
 28 46  1  0  0  0
M  END
> <s_m_entry_id>
25485

> <s_m_entry_name>
dock_pv.137

> <s_m_Source_Path>
/home/csk/Desktop/cluster/DUD-E-result/pyrd

> <s_m_Source_File>
dock_pv.maegz

> <i_m_Source_File_Index>
137

> <chembl_id>
CHEMBL2263640

> <chembl_pref_name>
None

> <i_lp_mmshare_version>
53161

> <r_lp_tautomer_probability>
1

> <s_lp_Force_Field>
OPLS_2005

> <r_lp_Energy>
29.522607

> <b_lp_Chiralities_Consistent>
1

> <s_lp_Variant>
CHEMBL1966_lig188-1

> <s_i_glide_gridfile>
glide-grid_1d3g

> <i_i_glide_lignum>
233

> <i_i_glide_rotatable_bonds>
7

> <r_i_docking_score>
-10.1704994499018

> <r_i_glide_ligand_efficiency>
-0.36323212321078

> <r_i_glide_ligand_efficiency_sa>
-1.10298665834771

> <r_i_glide_ligand_efficiency_ln>
-2.34764989187699

> <r_i_glide_gscore>
-10.1704994499018

> <r_i_glide_lipo>
-5.68329585038305

> <r_i_glide_hbond>
-0.0827702073962332

> <r_i_glide_metal>
0

> <r_i_glide_rewards>
-2.29402501113936

> <r_i_glide_evdw>
-43.9765129089355

> <r_i_glide_ecoul>
-2.91965270042419

> <r_i_glide_erotb>
0.526365169527206

> <r_i_glide_esite>
0

> <r_i_glide_emodel>
-65.0057241782282

> <r_i_glide_energy>
-46.8961656093597

> <r_i_glide_einternal>
7.76204776763916

> <i_i_glide_confnum>
15

> <i_i_glide_posenum>
4

> <r_i_glide_eff_state_penalty>
0

> <s_user_duplicate_titles>
CHEMBL1966_lig188

> <i_f3d_flags>
0

> <s_m_subgroup_title>
dock_pv

> <s_m_subgroupid>
dock_pv

> <b_m_subgroup_collapsed>
1

$$$$
CHEMBL1966_lig543
                    3D
 Schrodinger Suite 2021-1.
 52 56  0  0  1  0            999 V2000
   46.0164   40.9269   -5.5978 O   0  0  0  0  0  0
   47.3234   40.6831   -5.2989 C   0  0  0  0  0  0
   48.2437   40.8110   -6.0990 O   0  0  0  0  0  0
   47.5774   40.2388   -3.8939 C   0  0  0  0  0  0
   46.7675   39.2597   -3.2984 C   0  0  0  0  0  0
   46.9588   38.8458   -1.9779 C   0  0  0  0  0  0
   47.9307   39.4233   -1.1567 C   0  0  0  0  0  0
   48.7258   40.4114   -1.7441 C   0  0  0  0  0  0
   49.6310   41.3331   -1.2544 N   0  0  0  0  0  0
   49.9849   42.1840   -2.2885 C   0  0  0  0  0  0
   49.4572   41.8124   -3.4218 N   0  0  0  0  0  0
   48.5885   40.7994   -3.0995 C   0  0  0  0  0  0
   50.8231   43.4198   -2.1516 C   0  0  0  0  0  0
   50.6869   44.2443   -1.0323 C   0  0  0  0  0  0
   51.5602   45.3128   -0.8346 C   0  0  0  0  0  0
   52.6241   45.5528   -1.7185 C   0  0  0  0  0  0
   52.6729   44.8099   -2.9071 C   0  0  0  0  0  0
   51.7639   43.7641   -3.1330 C   0  0  0  0  0  0
   53.7678   46.4311   -1.3184 C   0  0  0  0  0  0
   54.1302   46.5036    0.0346 C   0  0  0  0  0  0
   55.2626   47.1942    0.4405 C   0  0  0  0  0  0
   56.0540   47.8404   -0.4985 C   0  0  0  0  0  0
   55.7231   47.8154   -1.8469 C   0  0  0  0  0  0
   56.6082   48.4905   -2.6634 O   0  0  0  0  0  0
   56.4235   48.5492   -4.0712 C   0  0  0  0  0  0
   57.2422   47.4900   -4.8039 C   0  0  0  0  0  0
   57.4598   46.2260   -4.2449 C   0  0  0  0  0  0
   58.2071   45.2796   -4.9381 C   0  0  0  0  0  0
   58.7299   45.5891   -6.1913 C   0  0  0  0  0  0
   58.5126   46.8413   -6.7593 C   0  0  0  0  0  0
   57.7720   47.7917   -6.0630 C   0  0  0  0  0  0
   54.5753   47.1049   -2.2544 C   0  0  0  0  0  0
   45.4732   40.9773   -4.8076 H   0  0  0  0  0  0
   45.9644   38.8076   -3.8620 H   0  0  0  0  0  0
   46.3079   38.0864   -1.5679 H   0  0  0  0  0  0
   48.0237   39.1466   -0.1154 H   0  0  0  0  0  0
   49.9512   41.4549   -0.3061 H   0  0  0  0  0  0
   49.9296   44.0384   -0.2895 H   0  0  0  0  0  0
   51.4596   45.8915    0.0718 H   0  0  0  0  0  0
   53.4644   44.9650   -3.6244 H   0  0  0  0  0  0
   51.8641   43.1580   -4.0222 H   0  0  0  0  0  0
   53.5645   45.9823    0.7924 H   0  0  0  0  0  0
   55.5371   47.2096    1.4838 H   0  0  0  0  0  0
   56.9440   48.3632   -0.1771 H   0  0  0  0  0  0
   55.3784   48.5073   -4.3702 H   0  0  0  0  0  0
   56.7721   49.5373   -4.3756 H   0  0  0  0  0  0
   57.0666   45.9709   -3.2727 H   0  0  0  0  0  0
   58.3904   44.3132   -4.4992 H   0  0  0  0  0  0
   59.3098   44.8510   -6.7258 H   0  0  0  0  0  0
   58.9184   47.0751   -7.7326 H   0  0  0  0  0  0
   57.6136   48.7643   -6.5076 H   0  0  0  0  0  0
   54.3133   47.0423   -3.2982 H   0  0  0  0  0  0
  1  2  1  0  0  0
  1 33  1  0  0  0
  2  3  2  0  0  0
  2  4  1  0  0  0
  4  5  2  0  0  0
  4 12  1  0  0  0
  5  6  1  0  0  0
  5 34  1  0  0  0
  6  7  2  0  0  0
  6 35  1  0  0  0
  7  8  1  0  0  0
  7 36  1  0  0  0
  8  9  1  0  0  0
  8 12  2  0  0  0
  9 10  1  0  0  0
  9 37  1  0  0  0
 10 11  2  0  0  0
 10 13  1  0  0  0
 11 12  1  0  0  0
 13 14  2  0  0  0
 13 18  1  0  0  0
 14 15  1  0  0  0
 14 38  1  0  0  0
 15 16  2  0  0  0
 15 39  1  0  0  0
 16 17  1  0  0  0
 16 19  1  0  0  0
 17 18  2  0  0  0
 17 40  1  0  0  0
 18 41  1  0  0  0
 19 20  2  0  0  0
 19 32  1  0  0  0
 20 21  1  0  0  0
 20 42  1  0  0  0
 21 22  2  0  0  0
 21 43  1  0  0  0
 22 23  1  0  0  0
 22 44  1  0  0  0
 23 24  1  0  0  0
 23 32  2  0  0  0
 24 25  1  0  0  0
 25 26  1  0  0  0
 25 45  1  0  0  0
 25 46  1  0  0  0
 26 27  2  0  0  0
 26 31  1  0  0  0
 27 28  1  0  0  0
 27 47  1  0  0  0
 28 29  2  0  0  0
 28 48  1  0  0  0
 29 30  1  0  0  0
 29 49  1  0  0  0
 30 31  2  0  0  0
 30 50  1  0  0  0
 31 51  1  0  0  0
 32 52  1  0  0  0
M  END
> <s_m_entry_id>
25486

> <s_m_entry_name>
dock_pv.138

> <s_m_Source_Path>
/home/csk/Desktop/cluster/DUD-E-result/pyrd

> <s_m_Source_File>
dock_pv.maegz

> <i_m_Source_File_Index>
138

> <chembl_id>
CHEMBL3677803

> <chembl_pref_name>
None

> <i_lp_mmshare_version>
53161

> <r_lp_tautomer_probability>
1

> <s_lp_Force_Field>
OPLS_2005

> <r_lp_Energy>
33.882678

> <b_lp_Chiralities_Consistent>
1

> <s_lp_Variant>
CHEMBL1966_lig543-1

> <s_i_glide_gridfile>
glide-grid_1d3g

> <i_i_glide_lignum>
597

> <i_i_glide_rotatable_bonds>
7

> <r_i_docking_score>
-10.1655197587483

> <r_i_glide_ligand_efficiency>
-0.317672492460883

> <r_i_glide_ligand_efficiency_sa>
-1.00854729626241

> <r_i_glide_ligand_efficiency_ln>
-2.27633697558674

> <r_i_glide_gscore>
-10.1655197587483

> <r_i_glide_lipo>
-6.05501396467244

> <r_i_glide_hbond>
-0.177805858686214

> <r_i_glide_metal>
0

> <r_i_glide_rewards>
-1.61869108418092

> <r_i_glide_evdw>
-47.7892608642578

> <r_i_glide_ecoul>
-3.82097768783569

> <r_i_glide_erotb>
0.671748334802037

> <r_i_glide_esite>
-0.023147489622483

> <r_i_glide_emodel>
-71.5534273212641

> <r_i_glide_energy>
-51.6102385520935

> <r_i_glide_einternal>
7.22624111175537

> <i_i_glide_confnum>
6

> <i_i_glide_posenum>
4

> <r_i_glide_eff_state_penalty>
0

> <s_user_duplicate_titles>
CHEMBL1966_lig543

> <i_f3d_flags>
0

> <s_m_subgroup_title>
dock_pv

> <s_m_subgroupid>
dock_pv

> <b_m_subgroup_collapsed>
1

$$$$
CHEMBL1966_lig769
                    3D
 Schrodinger Suite 2021-1.
 45 47  0  0  1  0            999 V2000
   50.2560   42.2165   -1.7382 N   0  0  0  0  0  0
   49.0762   41.5591   -4.2109 C   0  0  0  0  0  0
   50.5529   42.9324   -2.8519 C   0  0  0  0  0  0
   49.9809   42.6404   -4.1090 C   0  0  0  0  0  0
   48.7403   40.8101   -3.0351 C   0  0  0  0  0  0
   49.3695   41.1901   -1.8117 C   0  0  0  0  0  0
   48.4962   41.1635   -5.5453 C   0  0  0  0  0  0
   51.5691   44.0100   -2.6133 C   0  0  0  0  0  0
   47.7831   39.7473   -2.9988 C   0  0  0  0  0  0
   54.7821   46.9060   -1.8615 C   0  0  0  0  0  0
   53.6147   45.9125   -2.1174 C   0  0  0  0  0  0
   49.2230   40.8101   -6.4650 O   0  0  0  0  0  0
   49.0229   40.5202   -0.6081 C   0  0  0  0  0  0
   52.6944   44.0894   -3.4334 C   0  0  0  0  0  0
   51.4651   44.9112   -1.5430 C   0  0  0  0  0  0
   52.4678   45.8580   -1.3039 C   0  0  0  0  0  0
   53.6896   45.0322   -3.1980 C   0  0  0  0  0  0
   47.4220   39.1556   -1.7962 C   0  0  0  0  0  0
   47.1371   41.2190   -5.6506 O   0  0  0  0  0  0
   50.2827   43.4992   -5.3472 C   0  0  0  0  0  0
   48.0231   39.5516   -0.6133 C   0  0  0  0  0  0
   46.4710   38.1969   -1.7704 F   0  0  0  0  0  0
   54.5686   48.1672   -2.7284 C   0  0  0  0  0  0
   56.1679   46.2929   -2.2155 C   0  0  0  0  0  0
   54.8757   47.3220   -0.3763 C   0  0  0  0  0  0
   47.2961   39.4033   -3.8972 H   0  0  0  0  0  0
   49.4991   40.8073    0.3180 H   0  0  0  0  0  0
   52.8207   43.3874   -4.2441 H   0  0  0  0  0  0
   50.6052   44.8761   -0.8902 H   0  0  0  0  0  0
   52.3448   46.5274   -0.4673 H   0  0  0  0  0  0
   54.5469   45.0501   -3.8490 H   0  0  0  0  0  0
   46.7192   41.6441   -4.8978 H   0  0  0  0  0  0
   49.3523   43.8076   -5.8248 H   0  0  0  0  0  0
   50.8234   44.4100   -5.1316 H   0  0  0  0  0  0
   50.8451   42.9302   -6.0848 H   0  0  0  0  0  0
   47.7351   39.0655    0.3010 H   0  0  0  0  0  0
   55.3604   48.9005   -2.5702 H   0  0  0  0  0  0
   53.6231   48.6557   -2.4992 H   0  0  0  0  0  0
   54.5550   47.9259   -3.7926 H   0  0  0  0  0  0
   56.3278   45.3370   -1.7173 H   0  0  0  0  0  0
   56.2967   46.1351   -3.2863 H   0  0  0  0  0  0
   56.9881   46.9473   -1.9162 H   0  0  0  0  0  0
   54.9156   46.4582    0.2897 H   0  0  0  0  0  0
   55.7573   47.9327   -0.1753 H   0  0  0  0  0  0
   54.0217   47.9271   -0.0984 H   0  0  0  0  0  0
  1  3  2  0  0  0
  1  6  1  0  0  0
  2  5  1  0  0  0
  2  7  1  0  0  0
  2  4  2  0  0  0
  3  4  1  0  0  0
  3  8  1  0  0  0
  4 20  1  0  0  0
  5  6  1  0  0  0
  5  9  2  0  0  0
  6 13  2  0  0  0
  7 12  2  0  0  0
  7 19  1  0  0  0
  8 14  1  0  0  0
  8 15  2  0  0  0
  9 18  1  0  0  0
  9 26  1  0  0  0
 10 11  1  0  0  0
 10 23  1  0  0  0
 10 24  1  0  0  0
 10 25  1  0  0  0
 11 16  2  0  0  0
 11 17  1  0  0  0
 13 21  1  0  0  0
 13 27  1  0  0  0
 14 17  2  0  0  0
 14 28  1  0  0  0
 15 16  1  0  0  0
 15 29  1  0  0  0
 16 30  1  0  0  0
 17 31  1  0  0  0
 18 21  2  0  0  0
 18 22  1  0  0  0
 19 32  1  0  0  0
 20 33  1  0  0  0
 20 34  1  0  0  0
 20 35  1  0  0  0
 21 36  1  0  0  0
 23 37  1  0  0  0
 23 38  1  0  0  0
 23 39  1  0  0  0
 24 40  1  0  0  0
 24 41  1  0  0  0
 24 42  1  0  0  0
 25 43  1  0  0  0
 25 44  1  0  0  0
 25 45  1  0  0  0
M  END
> <s_m_entry_id>
25487

> <s_m_entry_name>
dock_pv.139

> <s_m_Source_Path>
/home/csk/Desktop/cluster/DUD-E-result/pyrd

> <s_m_Source_File>
dock_pv.maegz

> <i_m_Source_File_Index>
139

> <chembl_id>
CHEMBL416057

> <chembl_pref_name>
None

> <i_lp_mmshare_version>
53161

> <r_lp_tautomer_probability>
1

> <s_lp_Force_Field>
OPLS_2005

> <r_lp_Energy>
28.17347

> <b_lp_Chiralities_Consistent>
1

> <s_lp_Variant>
CHEMBL1966_lig769-1

> <s_i_glide_gridfile>
glide-grid_1d3g

> <i_i_glide_lignum>
840

> <i_i_glide_rotatable_bonds>
4

> <r_i_docking_score>
-10.1488526655367

> <r_i_glide_ligand_efficiency>
-0.405954106621469

> <r_i_glide_ligand_efficiency_sa>
-1.18701700738791

> <r_i_glide_ligand_efficiency_ln>
-2.40558221830427

> <r_i_glide_gscore>
-10.1488526655367

> <r_i_glide_lipo>
-5.60389115834307

> <r_i_glide_hbond>
-0.16

> <r_i_glide_metal>
0

> <r_i_glide_rewards>
-2.26533481859382

> <r_i_glide_evdw>
-28.7787113189697

> <r_i_glide_ecoul>
-6.75159454345703

> <r_i_glide_erotb>
0.332048058867213

> <r_i_glide_esite>
0

> <r_i_glide_emodel>
-54.8946296216391

> <r_i_glide_energy>
-35.5303058624268

> <r_i_glide_einternal>
2.69060635566711

> <i_i_glide_confnum>
6

> <i_i_glide_posenum>
86

> <r_i_glide_eff_state_penalty>
0

> <s_user_duplicate_titles>
CHEMBL1966_lig769,57317

> <i_f3d_flags>
0

> <s_m_subgroup_title>
dock_pv

> <s_m_subgroupid>
dock_pv

> <b_m_subgroup_collapsed>
1

$$$$
CHEMBL1966_lig77
                    3D
 Schrodinger Suite 2021-1.
 40 42  0  0  1  0            999 V2000
   51.6249   45.1952   -1.2991 C   0  0  0  0  0  0
   50.7172   44.1851   -1.6158 C   0  0  0  0  0  0
   50.9122   43.3945   -2.7671 C   0  0  0  0  0  0
   51.9759   43.6870   -3.6236 C   0  0  0  0  0  0
   52.8791   44.7011   -3.2936 C   0  0  0  0  0  0
   52.7471   45.4343   -2.1029 C   0  0  0  0  0  0
   53.8144   46.3816   -1.6784 C   0  0  0  0  0  0
   54.2470   46.4113   -0.3460 C   0  0  0  0  0  0
   55.3178   47.2116    0.0403 C   0  0  0  0  0  0
   55.9595   48.0169   -0.8987 C   0  0  0  0  0  0
   55.5250   48.0339   -2.2339 C   0  0  0  0  0  0
   54.4600   47.2106   -2.6058 C   0  0  0  0  0  0
   50.0429   42.3555   -3.1413 N   0  0  0  0  0  0
   49.6228   41.3631   -2.3300 C   0  0  0  0  0  0
   48.5645   40.5008   -2.8452 C   0  0  0  0  0  0
   49.9931   41.2408   -1.1600 O   0  0  0  0  0  0
   47.9184   39.5591   -2.0463 C   0  0  0  0  0  0
   46.8375   39.0298   -2.6612 O   0  0  0  0  0  0
   46.7818   39.6100   -3.8778 C   0  0  0  0  0  0
   47.8608   40.4616   -4.0887 C   0  0  0  0  0  0
   49.6614   43.9912   -0.7895 F   0  0  0  0  0  0
   56.0831   48.8102   -3.2298 O   0  0  0  0  0  0
   57.1471   49.6960   -2.9000 C   0  0  0  0  0  0
   48.0723   41.2206   -5.2988 C   0  0  0  0  0  0
   49.1771   41.5632   -5.7094 O   0  0  0  0  0  0
   46.8926   41.6100   -5.8631 O   0  0  0  0  0  0
   51.4705   45.7665   -0.3952 H   0  0  0  0  0  0
   52.1301   43.1130   -4.5246 H   0  0  0  0  0  0
   53.7288   44.8787   -3.9315 H   0  0  0  0  0  0
   53.7795   45.7766    0.3943 H   0  0  0  0  0  0
   55.6529   47.2024    1.0682 H   0  0  0  0  0  0
   56.7896   48.6240   -0.5699 H   0  0  0  0  0  0
   54.1405   47.2163   -3.6378 H   0  0  0  0  0  0
   49.8032   42.2856   -4.1240 H   0  0  0  0  0  0
   48.0659   39.2405   -1.0233 H   0  0  0  0  0  0
   45.9492   39.3070   -4.4968 H   0  0  0  0  0  0
   57.4324   50.2634   -3.7858 H   0  0  0  0  0  0
   56.8475   50.4120   -2.1345 H   0  0  0  0  0  0
   58.0275   49.1510   -2.5546 H   0  0  0  0  0  0
   46.9688   42.4505   -6.3397 H   0  0  0  0  0  0
  1  6  2  0  0  0
  1  2  1  0  0  0
  1 27  1  0  0  0
  2  3  2  0  0  0
  2 21  1  0  0  0
  3 13  1  0  0  0
  3  4  1  0  0  0
  4  5  2  0  0  0
  4 28  1  0  0  0
  5  6  1  0  0  0
  5 29  1  0  0  0
  6  7  1  0  0  0
  7  8  2  0  0  0
  7 12  1  0  0  0
  8  9  1  0  0  0
  8 30  1  0  0  0
  9 10  2  0  0  0
  9 31  1  0  0  0
 10 11  1  0  0  0
 10 32  1  0  0  0
 11 22  1  0  0  0
 11 12  2  0  0  0
 12 33  1  0  0  0
 13 14  1  0  0  0
 13 34  1  0  0  0
 14 15  1  0  0  0
 14 16  2  0  0  0
 15 17  2  0  0  0
 15 20  1  0  0  0
 17 18  1  0  0  0
 17 35  1  0  0  0
 18 19  1  0  0  0
 19 20  2  0  0  0
 19 36  1  0  0  0
 20 24  1  0  0  0
 22 23  1  0  0  0
 23 37  1  0  0  0
 23 38  1  0  0  0
 23 39  1  0  0  0
 24 25  2  0  0  0
 24 26  1  0  0  0
 26 40  1  0  0  0
M  END
> <s_m_entry_id>
25488

> <s_m_entry_name>
dock_pv.140

> <s_m_Source_Path>
/home/csk/Desktop/cluster/DUD-E-result/pyrd

> <s_m_Source_File>
dock_pv.maegz

> <i_m_Source_File_Index>
140

> <chembl_id>
CHEMBL370228

> <chembl_pref_name>
None

> <i_lp_mmshare_version>
53161

> <r_lp_tautomer_probability>
1

> <s_lp_Force_Field>
OPLS_2005

> <r_lp_Energy>
24.227153

> <b_lp_Chiralities_Consistent>
1

> <s_lp_Variant>
CHEMBL1966_lig77-1

> <s_i_glide_gridfile>
glide-grid_1d3g

> <i_i_glide_lignum>
86

> <i_i_glide_rotatable_bonds>
7

> <r_i_docking_score>
-10.1466370999117

> <r_i_glide_ligand_efficiency>
-0.390255273073525

> <r_i_glide_ligand_efficiency_sa>
-1.15612971089997

> <r_i_glide_ligand_efficiency_ln>
-2.38290442908236

> <r_i_glide_gscore>
-10.1466370999117

> <r_i_glide_lipo>
-4.92683084735531

> <r_i_glide_hbond>
0

> <r_i_glide_metal>
0

> <r_i_glide_rewards>
-2.62756854013515

> <r_i_glide_evdw>
-44.3882102966309

> <r_i_glide_ecoul>
-7.53347492218018

> <r_i_glide_erotb>
0.757194040737375

> <r_i_glide_esite>
0

> <r_i_glide_emodel>
-71.7968036243326

> <r_i_glide_energy>
-51.921685218811

> <r_i_glide_einternal>
13.2273235321045

> <i_i_glide_confnum>
5

> <i_i_glide_posenum>
131

> <r_i_glide_eff_state_penalty>
0

> <s_user_duplicate_titles>
CHEMBL1966_lig77,335053

> <i_f3d_flags>
0

> <s_m_subgroup_title>
dock_pv

> <s_m_subgroupid>
dock_pv

> <b_m_subgroup_collapsed>
1

$$$$
CHEMBL1966_lig807
                    3D
 Schrodinger Suite 2021-1.
 42 44  0  0  1  0            999 V2000
   51.2230   45.2100   -0.4101 C   0  0  0  0  0  0
   52.0178   46.1650    0.2230 C   0  0  0  0  0  0
   53.1791   46.6233   -0.3915 C   0  0  0  0  0  0
   53.5447   46.1661   -1.6605 C   0  0  0  0  0  0
   52.7306   45.2100   -2.2816 C   0  0  0  0  0  0
   51.5842   44.6800   -1.6557 C   0  0  0  0  0  0
   50.8183   43.5225   -2.2406 C   0  0  0  0  0  0
   50.6233   43.4082   -3.6222 C   0  0  0  0  0  0
   49.8737   42.3612   -4.1789 C   0  0  0  0  0  0
   49.3446   41.3845   -3.3336 C   0  0  0  0  0  0
   49.5300   41.4406   -1.9552 C   0  0  0  0  0  0
   50.2696   42.5139   -1.4235 C   0  0  0  0  0  0
   48.8358   40.4100   -1.0848 C   0  0  0  0  0  0
   49.2230   40.4100    0.2159 O   0  0  0  0  0  0
   48.0109   39.6100   -1.5208 O   0  0  0  0  0  0
   49.6230   42.2440   -5.6591 C   0  0  0  0  0  0
   50.4230   42.9476   -6.4686 N   0  0  0  0  0  0
   48.8126   41.4293   -6.0990 O   0  0  0  0  0  0
   54.7933   46.6529   -2.3085 C   0  0  0  0  0  0
   55.1423   48.0100   -2.2675 C   0  0  0  0  0  0
   56.3222   48.4637   -2.8562 C   0  0  0  0  0  0
   57.1763   47.5620   -3.4883 C   0  0  0  0  0  0
   56.8498   46.2050   -3.5364 C   0  0  0  0  0  0
   55.6604   45.7600   -2.9540 C   0  0  0  0  0  0
   57.7885   45.2093   -4.1914 C   0  0  0  0  0  0
   50.3459   44.8407    0.1012 H   0  0  0  0  0  0
   51.7407   46.5364    1.1989 H   0  0  0  0  0  0
   53.7996   47.3391    0.1269 H   0  0  0  0  0  0
   53.0287   44.8217   -3.2444 H   0  0  0  0  0  0
   51.0456   44.1619   -4.2670 H   0  0  0  0  0  0
   48.7629   40.5724   -3.7534 H   0  0  0  0  0  0
   50.4037   42.5811   -0.3561 H   0  0  0  0  0  0
   48.7546   39.7108    0.6817 H   0  0  0  0  0  0
   51.0798   43.6100   -6.0906 H   0  0  0  0  0  0
   50.3383   42.8387   -7.4667 H   0  0  0  0  0  0
   54.4930   48.7231   -1.7812 H   0  0  0  0  0  0
   56.5764   49.5132   -2.8175 H   0  0  0  0  0  0
   58.0947   47.9189   -3.9314 H   0  0  0  0  0  0
   55.4226   44.7061   -2.9839 H   0  0  0  0  0  0
   58.7293   45.6680   -4.4989 H   0  0  0  0  0  0
   58.0250   44.4100   -3.4886 H   0  0  0  0  0  0
   57.3147   44.7540   -5.0616 H   0  0  0  0  0  0
  1  6  1  0  0  0
  1  2  2  0  0  0
  1 26  1  0  0  0
  2  3  1  0  0  0
  2 27  1  0  0  0
  3  4  2  0  0  0
  3 28  1  0  0  0
  4  5  1  0  0  0
  4 19  1  0  0  0
  5  6  2  0  0  0
  5 29  1  0  0  0
  6  7  1  0  0  0
  7  8  2  0  0  0
  7 12  1  0  0  0
  8  9  1  0  0  0
  8 30  1  0  0  0
  9 16  1  0  0  0
  9 10  2  0  0  0
 10 11  1  0  0  0
 10 31  1  0  0  0
 11 13  1  0  0  0
 11 12  2  0  0  0
 12 32  1  0  0  0
 13 14  1  0  0  0
 13 15  2  0  0  0
 14 33  1  0  0  0
 16 17  1  0  0  0
 16 18  2  0  0  0
 17 34  1  0  0  0
 17 35  1  0  0  0
 19 20  2  0  0  0
 19 24  1  0  0  0
 20 21  1  0  0  0
 20 36  1  0  0  0
 21 22  2  0  0  0
 21 37  1  0  0  0
 22 23  1  0  0  0
 22 38  1  0  0  0
 23 24  2  0  0  0
 23 25  1  0  0  0
 24 39  1  0  0  0
 25 40  1  0  0  0
 25 41  1  0  0  0
 25 42  1  0  0  0
M  END
> <s_m_entry_id>
25489

> <s_m_entry_name>
dock_pv.141

> <s_m_Source_Path>
/home/csk/Desktop/cluster/DUD-E-result/pyrd

> <s_m_Source_File>
dock_pv.maegz

> <i_m_Source_File_Index>
141

> <chembl_id>
CHEMBL382039

> <chembl_pref_name>
None

> <i_lp_mmshare_version>
53161

> <r_lp_tautomer_probability>
1

> <s_lp_Force_Field>
OPLS_2005

> <r_lp_Energy>
22.233482

> <b_lp_Chiralities_Consistent>
1

> <s_lp_Variant>
CHEMBL1966_lig807-1

> <s_i_glide_gridfile>
glide-grid_1d3g

> <i_i_glide_lignum>
878

> <i_i_glide_rotatable_bonds>
5

> <r_i_docking_score>
-10.1359682258528

> <r_i_glide_ligand_efficiency>
-0.405438729034111

> <r_i_glide_ligand_efficiency_sa>
-1.18551003418222

> <r_i_glide_ligand_efficiency_ln>
-2.40252821998368

> <r_i_glide_gscore>
-10.1359682258528

> <r_i_glide_lipo>
-5.60434263106148

> <r_i_glide_hbond>
-0.0973501583147394

> <r_i_glide_metal>
0

> <r_i_glide_rewards>
-2.68956711574535

> <r_i_glide_evdw>
-35.4791145324707

> <r_i_glide_ecoul>
-3.23305439949036

> <r_i_glide_erotb>
0.514205565815865

> <r_i_glide_esite>
0

> <r_i_glide_emodel>
-59.8690793127853

> <r_i_glide_energy>
-38.7121689319611

> <r_i_glide_einternal>
0.404863506555557

> <i_i_glide_confnum>
15

> <i_i_glide_posenum>
223

> <r_i_glide_eff_state_penalty>
0

> <s_user_duplicate_titles>
CHEMBL1966_lig807

> <i_f3d_flags>
0

> <s_m_subgroup_title>
dock_pv

> <s_m_subgroupid>
dock_pv

> <b_m_subgroup_collapsed>
1

$$$$
CHEMBL1966_lig466
                    3D
 Schrodinger Suite 2021-1.
 43 46  0  0  1  0            999 V2000
   49.5774   42.4209   -5.6989 O   0  0  0  0  0  0
   48.8231   41.4582   -5.0990 C   0  0  0  0  0  0
   48.0029   40.8103   -5.7472 O   0  0  0  0  0  0
   49.0521   41.2304   -3.6071 C   0  0  0  0  0  0
   48.3058   40.2210   -2.9819 C   0  0  0  0  0  0
   48.3594   40.0100   -1.6010 C   0  0  0  0  0  0
   49.2230   40.7838   -0.8260 C   0  0  0  0  0  0
   50.0161   41.7532   -1.4238 C   0  0  0  0  0  0
   49.9155   42.0085   -2.7950 C   0  0  0  0  0  0
   50.7136   43.0062   -3.3525 N   0  0  0  0  0  0
   51.5233   44.0078   -2.8237 C   0  0  0  0  0  0
   51.2676   44.7157   -1.6424 C   0  0  0  0  0  0
   52.1654   45.7123   -1.2420 C   0  0  0  0  0  0
   53.2923   45.9667   -2.0392 C   0  0  0  0  0  0
   53.5179   45.3023   -3.2033 N   0  0  0  0  0  0
   52.6358   44.3480   -3.5743 C   0  0  0  0  0  0
   54.3732   46.9079   -1.6581 C   0  0  0  0  0  0
   54.8668   47.8342   -2.5901 C   0  0  0  0  0  0
   55.9641   48.6380   -2.2859 C   0  0  0  0  0  0
   56.5900   48.5135   -1.0489 C   0  0  0  0  0  0
   56.0977   47.6097   -0.1076 C   0  0  0  0  0  0
   54.9812   46.8325   -0.3965 C   0  0  0  0  0  0
   54.5221   45.9818    0.5489 F   0  0  0  0  0  0
   47.4356   39.0238   -0.9101 C   0  0  0  0  0  0
   46.4052   38.1979   -1.6401 C   0  0  0  0  0  0
   47.6223   37.5353   -1.0228 C   0  0  0  0  0  0
   49.2891   42.5596   -6.6010 H   0  0  0  0  0  0
   47.6348   39.6237   -3.5783 H   0  0  0  0  0  0
   49.2862   40.6246    0.2408 H   0  0  0  0  0  0
   50.7039   42.3022   -0.8017 H   0  0  0  0  0  0
   50.7814   42.9054   -4.3570 H   0  0  0  0  0  0
   50.3857   44.5173   -1.0522 H   0  0  0  0  0  0
   52.0002   46.2573   -0.3238 H   0  0  0  0  0  0
   52.8232   43.8182   -4.4952 H   0  0  0  0  0  0
   54.4113   47.9127   -3.5675 H   0  0  0  0  0  0
   56.3419   49.3398   -3.0155 H   0  0  0  0  0  0
   57.4578   49.1159   -0.8241 H   0  0  0  0  0  0
   56.5883   47.5029    0.8476 H   0  0  0  0  0  0
   47.1240   39.3702    0.0753 H   0  0  0  0  0  0
   46.3213   38.2320   -2.7248 H   0  0  0  0  0  0
   45.4260   38.0808   -1.1822 H   0  0  0  0  0  0
   47.5215   36.9431   -0.1136 H   0  0  0  0  0  0
   48.4216   37.1632   -1.6673 H   0  0  0  0  0  0
  1  2  1  0  0  0
  1 27  1  0  0  0
  2  3  2  0  0  0
  2  4  1  0  0  0
  4  5  2  0  0  0
  4  9  1  0  0  0
  5  6  1  0  0  0
  5 28  1  0  0  0
  6  7  2  0  0  0
  6 24  1  0  0  0
  7  8  1  0  0  0
  7 29  1  0  0  0
  8  9  2  0  0  0
  8 30  1  0  0  0
  9 10  1  0  0  0
 10 11  1  0  0  0
 10 31  1  0  0  0
 11 12  2  0  0  0
 11 16  1  0  0  0
 12 13  1  0  0  0
 12 32  1  0  0  0
 13 14  2  0  0  0
 13 33  1  0  0  0
 14 15  1  0  0  0
 14 17  1  0  0  0
 15 16  2  0  0  0
 16 34  1  0  0  0
 17 18  2  0  0  0
 17 22  1  0  0  0
 18 19  1  0  0  0
 18 35  1  0  0  0
 19 20  2  0  0  0
 19 36  1  0  0  0
 20 21  1  0  0  0
 20 37  1  0  0  0
 21 22  2  0  0  0
 21 38  1  0  0  0
 22 23  1  0  0  0
 24 25  1  0  0  0
 24 26  1  0  0  0
 24 39  1  0  0  0
 25 26  1  0  0  0
 25 40  1  0  0  0
 25 41  1  0  0  0
 26 42  1  0  0  0
 26 43  1  0  0  0
M  END
> <s_m_entry_id>
25490

> <s_m_entry_name>
dock_pv.142

> <s_m_Source_Path>
/home/csk/Desktop/cluster/DUD-E-result/pyrd

> <s_m_Source_File>
dock_pv.maegz

> <i_m_Source_File_Index>
142

> <chembl_id>
CHEMBL3674675

> <chembl_pref_name>
None

> <i_lp_mmshare_version>
53161

> <r_lp_tautomer_probability>
0.999999999999999

> <s_lp_Force_Field>
OPLS_2005

> <r_lp_Energy>
35.425936

> <b_lp_Chiralities_Consistent>
1

> <s_lp_Variant>
CHEMBL1966_lig466-1

> <s_i_glide_gridfile>
glide-grid_1d3g

> <i_i_glide_lignum>
516

> <i_i_glide_rotatable_bonds>
6

> <r_i_docking_score>
-10.1337101314294

> <r_i_glide_ligand_efficiency>
-0.389758081978054

> <r_i_glide_ligand_efficiency_sa>
-1.15465678423599

> <r_i_glide_ligand_efficiency_ln>
-2.37986857295115

> <r_i_glide_gscore>
-10.1337101314294

> <r_i_glide_lipo>
-5.63832279653959

> <r_i_glide_hbond>
-0.0704714588375291

> <r_i_glide_metal>
0

> <r_i_glide_rewards>
-2.78712938651669

> <r_i_glide_evdw>
-41.6411437988281

> <r_i_glide_ecoul>
-2.26657247543335

> <r_i_glide_erotb>
0.784256571720808

> <r_i_glide_esite>
0

> <r_i_glide_emodel>
-58.7757169159899

> <r_i_glide_energy>
-43.9077162742615

> <r_i_glide_einternal>
17.0072860717773

> <i_i_glide_confnum>
207

> <i_i_glide_posenum>
75

> <r_i_glide_eff_state_penalty>
0

> <s_user_duplicate_titles>
CHEMBL1966_lig466

> <i_f3d_flags>
0

> <s_m_subgroup_title>
dock_pv

> <s_m_subgroupid>
dock_pv

> <b_m_subgroup_collapsed>
1

$$$$
CHEMBL1966_lig583
                    3D
 Schrodinger Suite 2021-1.
 46 49  0  0  1  0            999 V2000
   47.8847   39.3839   -0.6050 C   0  0  0  0  0  0
   47.3440   38.9784   -1.8174 C   0  0  0  0  0  0
   47.7169   39.6100   -3.0000 C   0  0  0  0  0  0
   48.8230   40.4100   -0.5490 C   0  0  0  0  0  0
   49.2230   41.0704   -1.7324 C   0  0  0  0  0  0
   48.6483   40.6909   -2.9890 C   0  0  0  0  0  0
   49.0243   41.4614   -4.1396 C   0  0  0  0  0  0
   49.9362   42.5048   -3.9734 C   0  0  0  0  0  0
   50.4234   42.8162   -2.7066 C   0  0  0  0  0  0
   50.0796   42.1145   -1.6024 N   0  0  0  0  0  0
   51.3634   43.9452   -2.4991 C   0  0  0  0  0  0
   52.4230   44.1164   -3.3938 C   0  0  0  0  0  0
   53.3433   45.1412   -3.2174 C   0  0  0  0  0  0
   53.2227   46.0287   -2.1462 C   0  0  0  0  0  0
   52.1603   45.8643   -1.2464 C   0  0  0  0  0  0
   51.2428   44.8242   -1.4127 C   0  0  0  0  0  0
   54.2504   47.1486   -1.9238 C   0  0  0  0  0  0
   48.4842   41.2143   -5.5191 C   0  0  0  0  0  0
   47.1304   41.0757   -5.6088 O   0  0  0  0  0  0
   49.2230   41.2098   -6.4978 O   0  0  0  0  0  0
   55.1987   46.7988   -0.7525 C   0  0  0  0  0  0
   56.2329   47.9083   -0.4990 C   0  0  0  0  0  0
   57.0350   48.2570   -1.7599 C   0  0  0  0  0  0
   56.0995   48.6728   -2.9019 C   0  0  0  0  0  0
   55.0434   47.5862   -3.1943 C   0  0  0  0  0  0
   47.5823   38.8854    0.3010 H   0  0  0  0  0  0
   46.6320   38.1660   -1.8405 H   0  0  0  0  0  0
   47.2884   39.2609   -3.9261 H   0  0  0  0  0  0
   49.2428   40.7109    0.4002 H   0  0  0  0  0  0
   50.2336   43.1073   -4.8215 H   0  0  0  0  0  0
   52.5553   43.4330   -4.2203 H   0  0  0  0  0  0
   54.1560   45.2182   -3.9189 H   0  0  0  0  0  0
   52.0524   46.5339   -0.4050 H   0  0  0  0  0  0
   50.4340   44.7109   -0.7043 H   0  0  0  0  0  0
   53.6453   48.0077   -1.6316 H   0  0  0  0  0  0
   46.6877   41.2708   -4.7794 H   0  0  0  0  0  0
   54.6293   46.6664    0.1688 H   0  0  0  0  0  0
   55.7255   45.8659   -0.9599 H   0  0  0  0  0  0
   55.7186   48.8007   -0.1390 H   0  0  0  0  0  0
   56.9100   47.6099    0.3010 H   0  0  0  0  0  0
   57.7460   49.0560   -1.5433 H   0  0  0  0  0  0
   57.6231   47.3922   -2.0679 H   0  0  0  0  0  0
   55.6208   49.6100   -2.6269 H   0  0  0  0  0  0
   56.6782   48.8822   -3.8028 H   0  0  0  0  0  0
   55.5838   46.7429   -3.6248 H   0  0  0  0  0  0
   54.3571   47.9759   -3.9474 H   0  0  0  0  0  0
  1  2  2  0  0  0
  1  4  1  0  0  0
  1 26  1  0  0  0
  2  3  1  0  0  0
  2 27  1  0  0  0
  3  6  2  0  0  0
  3 28  1  0  0  0
  4  5  2  0  0  0
  4 29  1  0  0  0
  5  6  1  0  0  0
  5 10  1  0  0  0
  6  7  1  0  0  0
  7  8  2  0  0  0
  7 18  1  0  0  0
  8  9  1  0  0  0
  8 30  1  0  0  0
  9 10  2  0  0  0
  9 11  1  0  0  0
 11 12  2  0  0  0
 11 16  1  0  0  0
 12 13  1  0  0  0
 12 31  1  0  0  0
 13 14  2  0  0  0
 13 32  1  0  0  0
 14 15  1  0  0  0
 14 17  1  0  0  0
 15 16  2  0  0  0
 15 33  1  0  0  0
 16 34  1  0  0  0
 17 21  1  0  0  0
 17 25  1  0  0  0
 17 35  1  0  0  0
 18 19  1  0  0  0
 18 20  2  0  0  0
 19 36  1  0  0  0
 21 22  1  0  0  0
 21 37  1  0  0  0
 21 38  1  0  0  0
 22 23  1  0  0  0
 22 39  1  0  0  0
 22 40  1  0  0  0
 23 24  1  0  0  0
 23 41  1  0  0  0
 23 42  1  0  0  0
 24 25  1  0  0  0
 24 43  1  0  0  0
 24 44  1  0  0  0
 25 45  1  0  0  0
 25 46  1  0  0  0
M  END
> <s_m_entry_id>
25491

> <s_m_entry_name>
dock_pv.143

> <s_m_Source_Path>
/home/csk/Desktop/cluster/DUD-E-result/pyrd

> <s_m_Source_File>
dock_pv.maegz

> <i_m_Source_File_Index>
143

> <chembl_id>
CHEMBL4226040

> <chembl_pref_name>
None

> <i_lp_mmshare_version>
53161

> <r_lp_tautomer_probability>
1

> <s_lp_Force_Field>
OPLS_2005

> <r_lp_Energy>
28.45809

> <b_lp_Chiralities_Consistent>
1

> <s_lp_Variant>
CHEMBL1966_lig583-1

> <s_i_glide_gridfile>
glide-grid_1d3g

> <i_i_glide_lignum>
637

> <i_i_glide_rotatable_bonds>
4

> <r_i_docking_score>
-10.1174082090353

> <r_i_glide_ligand_efficiency>
-0.40469632836141

> <r_i_glide_ligand_efficiency_sa>
-1.18333924144871

> <r_i_glide_ligand_efficiency_ln>
-2.3981289397991

> <r_i_glide_gscore>
-10.1174082090353

> <r_i_glide_lipo>
-5.89710116704064

> <r_i_glide_hbond>
-0.16

> <r_i_glide_metal>
0

> <r_i_glide_rewards>
-1.99723664794735

> <r_i_glide_evdw>
-38.26611328125

> <r_i_glide_ecoul>
-4.42568111419678

> <r_i_glide_erotb>
0.514087437144754

> <r_i_glide_esite>
0

> <r_i_glide_emodel>
-65.8517830769691

> <r_i_glide_energy>
-42.6917943954468

> <r_i_glide_einternal>
6.73712015151978

> <i_i_glide_confnum>
29

> <i_i_glide_posenum>
324

> <r_i_glide_eff_state_penalty>
0

> <s_user_duplicate_titles>
CHEMBL1966_lig583

> <i_f3d_flags>
0

> <s_m_subgroup_title>
dock_pv

> <s_m_subgroupid>
dock_pv

> <b_m_subgroup_collapsed>
1

$$$$
CHEMBL1966_lig153
                    3D
 Schrodinger Suite 2021-1.
 37 40  0  0  1  0            999 V2000
   49.7630   41.7002   -1.8855 N   0  0  0  0  0  0
   50.1127   42.4390   -2.9702 C   0  0  0  0  0  0
   49.5956   42.1640   -4.2572 C   0  0  0  0  0  0
   48.6594   41.1261   -4.4163 C   0  0  0  0  0  0
   48.8390   40.7143   -2.0154 C   0  0  0  0  0  0
   48.2303   40.4117   -3.2653 C   0  0  0  0  0  0
   47.1974   39.4400   -3.2419 C   0  0  0  0  0  0
   46.7892   38.7734   -2.1376 N   0  0  0  0  0  0
   47.4137   39.0560   -0.9710 C   0  0  0  0  0  0
   48.4231   40.0100   -0.8545 C   0  0  0  0  0  0
   51.0607   43.5644   -2.6508 C   0  0  0  0  0  0
   50.8267   44.4410   -1.5773 C   0  0  0  0  0  0
   51.7116   45.4911   -1.2991 C   0  0  0  0  0  0
   52.8577   45.6783   -2.0867 C   0  0  0  0  0  0
   53.0850   44.8095   -3.1499 C   0  0  0  0  0  0
   52.2097   43.7660   -3.4233 C   0  0  0  0  0  0
   53.8843   46.7299   -1.8289 C   0  0  0  0  0  0
   54.5340   46.8876   -0.5893 C   0  0  0  0  0  0
   55.6133   47.7694   -0.5024 C   0  0  0  0  0  0
   55.3907   48.4073   -2.7149 C   0  0  0  0  0  0
   54.3240   47.5283   -2.8984 C   0  0  0  0  0  0
   48.1128   40.8101   -5.6414 O   0  0  0  0  0  0
   50.0315   42.9445   -5.4099 C   0  0  0  0  0  0
   50.4230   43.5588   -6.3061 N   0  0  0  0  0  0
   56.0448   48.5304   -1.5365 N   0  0  0  0  0  0
   54.0786   46.0105    0.8272 Cl  0  0  0  0  0  0
   46.6492   39.2098   -4.1403 H   0  0  0  0  0  0
   47.0795   38.5084   -0.1013 H   0  0  0  0  0  0
   48.8792   40.2200    0.1018 H   0  0  0  0  0  0
   49.9494   44.3185   -0.9583 H   0  0  0  0  0  0
   51.5066   46.1522   -0.4696 H   0  0  0  0  0  0
   53.9860   44.9100   -3.7326 H   0  0  0  0  0  0
   52.4590   43.0904   -4.2281 H   0  0  0  0  0  0
   56.1602   47.8679    0.4192 H   0  0  0  0  0  0
   55.7516   49.0180   -3.5301 H   0  0  0  0  0  0
   53.8623   47.4467   -3.8722 H   0  0  0  0  0  0
   47.4024   40.1743   -5.5392 H   0  0  0  0  0  0
  1  2  1  0  0  0
  1  5  2  0  0  0
  2 11  1  0  0  0
  2  3  2  0  0  0
  3  4  1  0  0  0
  3 23  1  0  0  0
  4  6  2  0  0  0
  4 22  1  0  0  0
  5 10  1  0  0  0
  5  6  1  0  0  0
  6  7  1  0  0  0
  7  8  2  0  0  0
  7 27  1  0  0  0
  8  9  1  0  0  0
  9 10  2  0  0  0
  9 28  1  0  0  0
 10 29  1  0  0  0
 11 16  1  0  0  0
 11 12  2  0  0  0
 12 13  1  0  0  0
 12 30  1  0  0  0
 13 14  2  0  0  0
 13 31  1  0  0  0
 14 17  1  0  0  0
 14 15  1  0  0  0
 15 16  2  0  0  0
 15 32  1  0  0  0
 16 33  1  0  0  0
 17 18  2  0  0  0
 17 21  1  0  0  0
 18 19  1  0  0  0
 18 26  1  0  0  0
 19 25  2  0  0  0
 19 34  1  0  0  0
 20 25  1  0  0  0
 20 21  2  0  0  0
 20 35  1  0  0  0
 21 36  1  0  0  0
 22 37  1  0  0  0
 23 24  3  0  0  0
M  END
> <s_m_entry_id>
25492

> <s_m_entry_name>
dock_pv.144

> <s_m_Source_Path>
/home/csk/Desktop/cluster/DUD-E-result/pyrd

> <s_m_Source_File>
dock_pv.maegz

> <i_m_Source_File_Index>
144

> <chembl_id>
CHEMBL1957370

> <chembl_pref_name>
None

> <i_lp_mmshare_version>
53161

> <r_lp_tautomer_probability>
1

> <s_lp_Force_Field>
OPLS_2005

> <r_lp_Energy>
14.898657

> <b_lp_Chiralities_Consistent>
1

> <s_lp_Variant>
CHEMBL1966_lig153-1

> <s_i_glide_gridfile>
glide-grid_1d3g

> <i_i_glide_lignum>
198

> <i_i_glide_rotatable_bonds>
3

> <r_i_docking_score>
-10.1122509567112

> <r_i_glide_ligand_efficiency>
-0.388932729104275

> <r_i_glide_ligand_efficiency_sa>
-1.15221167959503

> <r_i_glide_ligand_efficiency_ln>
-2.37482895618186

> <r_i_glide_gscore>
-10.1122509567112

> <r_i_glide_lipo>
-5.92023467511494

> <r_i_glide_hbond>
-0.0428394897825334

> <r_i_glide_metal>
0

> <r_i_glide_rewards>
-1.98778313675381

> <r_i_glide_evdw>
-45.7312507629395

> <r_i_glide_ecoul>
-1.15013444423676

> <r_i_glide_erotb>
0.297689049722617

> <r_i_glide_esite>
0

> <r_i_glide_emodel>
-70.5685212074917

> <r_i_glide_energy>
-46.8813852071762

> <r_i_glide_einternal>
0.587835252285004

> <i_i_glide_confnum>
15

> <i_i_glide_posenum>
28

> <r_i_glide_eff_state_penalty>
0

> <s_user_duplicate_titles>
CHEMBL1966_lig153

> <i_f3d_flags>
0

> <s_m_subgroup_title>
dock_pv

> <s_m_subgroupid>
dock_pv

> <b_m_subgroup_collapsed>
1

$$$$
CHEMBL1966_lig546
                    3D
 Schrodinger Suite 2021-1.
 45 48  0  0  1  0            999 V2000
   47.2674   38.5147   -0.9516 C   0  0  0  0  0  0
   47.9985   39.6040   -1.7165 C   0  0  0  0  0  0
   47.7669   39.7659   -3.0846 C   0  0  0  0  0  0
   48.4231   40.7460   -3.8436 C   0  0  0  0  0  0
   48.1460   40.9316   -5.3017 C   0  0  0  0  0  0
   49.0358   41.2097   -6.0990 O   0  0  0  0  0  0
   46.8344   40.8099   -5.6531 O   0  0  0  0  0  0
   49.3346   41.5567   -3.1553 C   0  0  0  0  0  0
   50.1137   42.6344   -3.5145 N   0  0  0  0  0  0
   50.7157   43.1053   -2.3722 C   0  0  0  0  0  0
   50.4244   42.3868   -1.3132 N   0  0  0  0  0  0
   49.5855   41.4091   -1.7687 C   0  0  0  0  0  0
   48.9153   40.4101   -1.0426 C   0  0  0  0  0  0
   51.6230   44.2808   -2.3296 C   0  0  0  0  0  0
   52.6441   44.4100   -3.2807 C   0  0  0  0  0  0
   53.6361   45.3682   -3.0862 C   0  0  0  0  0  0
   53.5868   46.2177   -1.9762 C   0  0  0  0  0  0
   52.5148   46.1508   -1.0840 C   0  0  0  0  0  0
   51.5327   45.1839   -1.2636 C   0  0  0  0  0  0
   54.6605   47.1032   -1.7304 N   0  0  0  0  0  0
   55.1163   48.0876   -2.5934 C   0  0  0  0  0  0
   54.4322   48.4099   -3.8940 C   0  0  0  0  0  0
   56.2186   48.6904   -2.0178 C   0  0  0  0  0  0
   56.4342   48.0865   -0.7907 C   0  0  0  0  0  0
   55.4625   47.1205   -0.5965 C   0  0  0  0  0  0
   55.2521   46.2041    0.5891 C   0  0  0  0  0  0
   47.8541   38.1682   -0.0991 H   0  0  0  0  0  0
   46.3056   38.8790   -0.5898 H   0  0  0  0  0  0
   47.0977   37.6415   -1.5827 H   0  0  0  0  0  0
   47.0611   39.1019   -3.5634 H   0  0  0  0  0  0
   46.2663   40.7561   -4.8817 H   0  0  0  0  0  0
   50.2102   43.0665   -4.4222 H   0  0  0  0  0  0
   49.0859   40.2910    0.0175 H   0  0  0  0  0  0
   52.7283   43.7094   -4.0988 H   0  0  0  0  0  0
   54.4733   45.4087   -3.7671 H   0  0  0  0  0  0
   52.4645   46.8097   -0.2285 H   0  0  0  0  0  0
   50.7381   45.0924   -0.5366 H   0  0  0  0  0  0
   54.9894   49.1735   -4.4330 H   0  0  0  0  0  0
   54.3318   47.5576   -4.5634 H   0  0  0  0  0  0
   53.4385   48.8101   -3.7000 H   0  0  0  0  0  0
   56.7996   49.4969   -2.4423 H   0  0  0  0  0  0
   57.2230   48.3412   -0.0992 H   0  0  0  0  0  0
   56.1945   46.0109    1.1009 H   0  0  0  0  0  0
   54.5705   46.6462    1.3161 H   0  0  0  0  0  0
   54.8390   45.2358    0.3090 H   0  0  0  0  0  0
  1  2  1  0  0  0
  1 27  1  0  0  0
  1 28  1  0  0  0
  1 29  1  0  0  0
  2  3  2  0  0  0
  2 13  1  0  0  0
  3  4  1  0  0  0
  3 30  1  0  0  0
  4  5  1  0  0  0
  4  8  2  0  0  0
  5  6  2  0  0  0
  5  7  1  0  0  0
  7 31  1  0  0  0
  8  9  1  0  0  0
  8 12  1  0  0  0
  9 10  1  0  0  0
  9 32  1  0  0  0
 10 11  2  0  0  0
 10 14  1  0  0  0
 11 12  1  0  0  0
 12 13  2  0  0  0
 13 33  1  0  0  0
 14 15  2  0  0  0
 14 19  1  0  0  0
 15 16  1  0  0  0
 15 34  1  0  0  0
 16 17  2  0  0  0
 16 35  1  0  0  0
 17 18  1  0  0  0
 17 20  1  0  0  0
 18 19  2  0  0  0
 18 36  1  0  0  0
 19 37  1  0  0  0
 20 21  1  0  0  0
 20 25  1  0  0  0
 21 22  1  0  0  0
 21 23  2  0  0  0
 22 38  1  0  0  0
 22 39  1  0  0  0
 22 40  1  0  0  0
 23 24  1  0  0  0
 23 41  1  0  0  0
 24 25  2  0  0  0
 24 42  1  0  0  0
 25 26  1  0  0  0
 26 43  1  0  0  0
 26 44  1  0  0  0
 26 45  1  0  0  0
M  END
> <s_m_entry_id>
25493

> <s_m_entry_name>
dock_pv.145

> <s_m_Source_Path>
/home/csk/Desktop/cluster/DUD-E-result/pyrd

> <s_m_Source_File>
dock_pv.maegz

> <i_m_Source_File_Index>
145

> <chembl_id>
CHEMBL3677806

> <chembl_pref_name>
None

> <i_lp_mmshare_version>
53161

> <r_lp_tautomer_probability>
1

> <s_lp_Force_Field>
OPLS_2005

> <r_lp_Energy>
16.273244

> <b_lp_Chiralities_Consistent>
1

> <s_lp_Variant>
CHEMBL1966_lig546-1

> <s_i_glide_gridfile>
glide-grid_1d3g

> <i_i_glide_lignum>
600

> <i_i_glide_rotatable_bonds>
4

> <r_i_docking_score>
-10.1100215309372

> <r_i_glide_ligand_efficiency>
-0.388846981959124

> <r_i_glide_ligand_efficiency_sa>
-1.15195765401491

> <r_i_glide_ligand_efficiency_ln>
-2.3743053828542

> <r_i_glide_gscore>
-10.1100215309372

> <r_i_glide_lipo>
-5.26114060020596

> <r_i_glide_hbond>
-0.138265433562128

> <r_i_glide_metal>
0

> <r_i_glide_rewards>
-2.35721306133425

> <r_i_glide_evdw>
-42.6064796447754

> <r_i_glide_ecoul>
-4.6723837852478

> <r_i_glide_erotb>
0.477779114191055

> <r_i_glide_esite>
0

> <r_i_glide_emodel>
-61.3931926193019

> <r_i_glide_energy>
-47.2788634300232

> <r_i_glide_einternal>
4.25296831130981

> <i_i_glide_confnum>
7

> <i_i_glide_posenum>
45

> <r_i_glide_eff_state_penalty>
0

> <s_user_duplicate_titles>
CHEMBL1966_lig546

> <i_f3d_flags>
0

> <s_m_subgroup_title>
dock_pv

> <s_m_subgroupid>
dock_pv

> <b_m_subgroup_collapsed>
1

$$$$
CHEMBL1966_lig456
                    3D
 Schrodinger Suite 2021-1.
 39 41  0  0  1  0            999 V2000
   47.1647   38.5193   -0.9542 C   0  0  0  0  0  0
   47.9960   39.6107   -1.6036 C   0  0  0  0  0  0
   48.8231   40.4099   -0.8163 C   0  0  0  0  0  0
   49.6230   41.3791   -1.4074 C   0  0  0  0  0  0
   49.5702   41.6176   -2.7843 C   0  0  0  0  0  0
   50.4265   42.5740   -3.3475 N   0  0  0  0  0  0
   51.2231   43.6102   -2.8534 C   0  0  0  0  0  0
   50.9462   44.3476   -1.6942 C   0  0  0  0  0  0
   51.8234   45.3672   -1.2991 C   0  0  0  0  0  0
   52.9783   45.6121   -2.0658 C   0  0  0  0  0  0
   53.2229   44.9213   -3.2137 N   0  0  0  0  0  0
   52.3476   43.9621   -3.5976 C   0  0  0  0  0  0
   54.0541   46.5755   -1.6617 C   0  0  0  0  0  0
   54.7545   47.3482   -2.6141 C   0  0  0  0  0  0
   54.4226   47.3167   -3.9255 F   0  0  0  0  0  0
   55.8216   48.1631   -2.2364 C   0  0  0  0  0  0
   56.2241   48.2205   -0.9069 C   0  0  0  0  0  0
   55.5325   47.4837    0.0475 C   0  0  0  0  0  0
   54.4509   46.6882   -0.3160 C   0  0  0  0  0  0
   53.8159   46.0101    0.6661 F   0  0  0  0  0  0
   48.6854   40.8584   -3.5953 C   0  0  0  0  0  0
   47.9217   39.8500   -2.9778 C   0  0  0  0  0  0
   48.4256   41.1489   -5.0701 C   0  0  0  0  0  0
   47.5187   40.6111   -5.6985 O   0  0  0  0  0  0
   49.2229   42.0769   -5.6675 O   0  0  0  0  0  0
   46.6204   38.9240   -0.1004 H   0  0  0  0  0  0
   47.8111   37.7237   -0.5811 H   0  0  0  0  0  0
   46.4339   38.0914   -1.6401 H   0  0  0  0  0  0
   48.8872   40.2351    0.2479 H   0  0  0  0  0  0
   50.3055   41.9278   -0.7788 H   0  0  0  0  0  0
   50.5094   42.4445   -4.3471 H   0  0  0  0  0  0
   50.0578   44.1523   -1.1126 H   0  0  0  0  0  0
   51.6163   45.9312   -0.4017 H   0  0  0  0  0  0
   52.6006   43.4255   -4.4988 H   0  0  0  0  0  0
   56.3486   48.7380   -2.9834 H   0  0  0  0  0  0
   57.0661   48.8337   -0.6162 H   0  0  0  0  0  0
   55.8311   47.5239    1.0840 H   0  0  0  0  0  0
   47.2439   39.2454   -3.5653 H   0  0  0  0  0  0
   48.8655   42.3372   -6.5164 H   0  0  0  0  0  0
  1  2  1  0  0  0
  1 26  1  0  0  0
  1 27  1  0  0  0
  1 28  1  0  0  0
  2  3  2  0  0  0
  2 22  1  0  0  0
  3  4  1  0  0  0
  3 29  1  0  0  0
  4  5  2  0  0  0
  4 30  1  0  0  0
  5  6  1  0  0  0
  5 21  1  0  0  0
  6  7  1  0  0  0
  6 31  1  0  0  0
  7  8  2  0  0  0
  7 12  1  0  0  0
  8  9  1  0  0  0
  8 32  1  0  0  0
  9 10  2  0  0  0
  9 33  1  0  0  0
 10 11  1  0  0  0
 10 13  1  0  0  0
 11 12  2  0  0  0
 12 34  1  0  0  0
 13 14  2  0  0  0
 13 19  1  0  0  0
 14 15  1  0  0  0
 14 16  1  0  0  0
 16 17  2  0  0  0
 16 35  1  0  0  0
 17 18  1  0  0  0
 17 36  1  0  0  0
 18 19  2  0  0  0
 18 37  1  0  0  0
 19 20  1  0  0  0
 21 22  2  0  0  0
 21 23  1  0  0  0
 22 38  1  0  0  0
 23 24  2  0  0  0
 23 25  1  0  0  0
 25 39  1  0  0  0
M  END
> <s_m_entry_id>
25494

> <s_m_entry_name>
dock_pv.146

> <s_m_Source_Path>
/home/csk/Desktop/cluster/DUD-E-result/pyrd

> <s_m_Source_File>
dock_pv.maegz

> <i_m_Source_File_Index>
146

> <chembl_id>
CHEMBL3674665

> <chembl_pref_name>
None

> <i_lp_mmshare_version>
53161

> <r_lp_tautomer_probability>
0.999999999999999

> <s_lp_Force_Field>
OPLS_2005

> <r_lp_Energy>
29.96447

> <b_lp_Chiralities_Consistent>
1

> <s_lp_Variant>
CHEMBL1966_lig456-1

> <s_i_glide_gridfile>
glide-grid_1d3g

> <i_i_glide_lignum>
506

> <i_i_glide_rotatable_bonds>
5

> <r_i_docking_score>
-10.0938750927478

> <r_i_glide_ligand_efficiency>
-0.403755003709914

> <r_i_glide_ligand_efficiency_sa>
-1.18058679147327

> <r_i_glide_ligand_efficiency_ln>
-2.3925508860084

> <r_i_glide_gscore>
-10.0938750927478

> <r_i_glide_lipo>
-5.22726892537996

> <r_i_glide_hbond>
-0.0551924187616601

> <r_i_glide_metal>
0

> <r_i_glide_rewards>
-3.09446113380747

> <r_i_glide_evdw>
-43.1862754821777

> <r_i_glide_ecoul>
-1.41077101230621

> <r_i_glide_erotb>
0.65397681115606

> <r_i_glide_esite>
0

> <r_i_glide_emodel>
-62.0428506556712

> <r_i_glide_energy>
-44.5970464944839

> <r_i_glide_einternal>
15.0854196548462

> <i_i_glide_confnum>
56

> <i_i_glide_posenum>
17

> <r_i_glide_eff_state_penalty>
0

> <s_user_duplicate_titles>
CHEMBL1966_lig456

> <i_f3d_flags>
0

> <s_m_subgroup_title>
dock_pv

> <s_m_subgroupid>
dock_pv

> <b_m_subgroup_collapsed>
1

$$$$
CHEMBL1966_lig507
                    3D
 Schrodinger Suite 2021-1.
 40 43  0  0  1  0            999 V2000
   47.2270   38.5302   -0.9481 C   0  0  0  0  0  0
   47.9743   39.6100   -1.7107 C   0  0  0  0  0  0
   47.7551   39.7698   -3.0813 C   0  0  0  0  0  0
   48.4230   40.7440   -3.8381 C   0  0  0  0  0  0
   48.1510   40.9320   -5.2991 C   0  0  0  0  0  0
   49.0401   41.2100   -6.0990 O   0  0  0  0  0  0
   46.8395   40.8100   -5.6512 O   0  0  0  0  0  0
   49.3365   41.5473   -3.1423 C   0  0  0  0  0  0
   50.1244   42.6191   -3.4934 N   0  0  0  0  0  0
   50.7188   43.0886   -2.3457 C   0  0  0  0  0  0
   50.4230   42.3715   -1.2903 N   0  0  0  0  0  0
   49.5780   41.4005   -1.7530 C   0  0  0  0  0  0
   48.8925   40.4100   -1.0309 C   0  0  0  0  0  0
   51.6230   44.2630   -2.3091 C   0  0  0  0  0  0
   51.6230   45.1798   -1.2498 C   0  0  0  0  0  0
   52.6121   46.1630   -1.1864 C   0  0  0  0  0  0
   53.5677   46.2359   -2.2087 C   0  0  0  0  0  0
   53.5478   45.3796   -3.2663 N   0  0  0  0  0  0
   52.6004   44.4100   -3.2990 C   0  0  0  0  0  0
   54.6811   47.2255   -2.1946 C   0  0  0  0  0  0
   55.0710   47.8836   -3.3696 C   0  0  0  0  0  0
   56.1316   48.7861   -3.3610 C   0  0  0  0  0  0
   56.8194   49.0281   -2.1765 C   0  0  0  0  0  0
   56.4502   48.3787   -1.0032 C   0  0  0  0  0  0
   55.3766   47.4922   -1.0082 C   0  0  0  0  0  0
   47.8111   38.1712   -0.0990 H   0  0  0  0  0  0
   46.2736   38.9102   -0.5805 H   0  0  0  0  0  0
   47.0396   37.6626   -1.5813 H   0  0  0  0  0  0
   47.0469   39.1107   -3.5634 H   0  0  0  0  0  0
   46.2715   40.7570   -4.8796 H   0  0  0  0  0  0
   50.2255   43.0534   -4.3995 H   0  0  0  0  0  0
   49.0534   40.2914    0.0307 H   0  0  0  0  0  0
   50.8948   45.0963   -0.4555 H   0  0  0  0  0  0
   52.6397   46.8433   -0.3488 H   0  0  0  0  0  0
   52.6747   43.7055   -4.1135 H   0  0  0  0  0  0
   54.5470   47.6952   -4.2961 H   0  0  0  0  0  0
   56.4230   49.2920   -4.2698 H   0  0  0  0  0  0
   57.6508   49.7179   -2.1679 H   0  0  0  0  0  0
   57.0114   48.5532   -0.0990 H   0  0  0  0  0  0
   55.1090   46.9875   -0.0909 H   0  0  0  0  0  0
  1  2  1  0  0  0
  1 26  1  0  0  0
  1 27  1  0  0  0
  1 28  1  0  0  0
  2  3  2  0  0  0
  2 13  1  0  0  0
  3  4  1  0  0  0
  3 29  1  0  0  0
  4  5  1  0  0  0
  4  8  2  0  0  0
  5  6  2  0  0  0
  5  7  1  0  0  0
  7 30  1  0  0  0
  8  9  1  0  0  0
  8 12  1  0  0  0
  9 10  1  0  0  0
  9 31  1  0  0  0
 10 11  2  0  0  0
 10 14  1  0  0  0
 11 12  1  0  0  0
 12 13  2  0  0  0
 13 32  1  0  0  0
 14 15  2  0  0  0
 14 19  1  0  0  0
 15 16  1  0  0  0
 15 33  1  0  0  0
 16 17  2  0  0  0
 16 34  1  0  0  0
 17 18  1  0  0  0
 17 20  1  0  0  0
 18 19  2  0  0  0
 19 35  1  0  0  0
 20 21  2  0  0  0
 20 25  1  0  0  0
 21 22  1  0  0  0
 21 36  1  0  0  0
 22 23  2  0  0  0
 22 37  1  0  0  0
 23 24  1  0  0  0
 23 38  1  0  0  0
 24 25  2  0  0  0
 24 39  1  0  0  0
 25 40  1  0  0  0
M  END
> <s_m_entry_id>
25495

> <s_m_entry_name>
dock_pv.147

> <s_m_Source_Path>
/home/csk/Desktop/cluster/DUD-E-result/pyrd

> <s_m_Source_File>
dock_pv.maegz

> <i_m_Source_File_Index>
147

> <chembl_id>
CHEMBL3677765

> <chembl_pref_name>
None

> <i_lp_mmshare_version>
53161

> <r_lp_tautomer_probability>
1

> <s_lp_Force_Field>
OPLS_2005

> <r_lp_Energy>
21.537728

> <b_lp_Chiralities_Consistent>
1

> <s_lp_Variant>
CHEMBL1966_lig507-1

> <s_i_glide_gridfile>
glide-grid_1d3g

> <i_i_glide_lignum>
557

> <i_i_glide_rotatable_bonds>
4

> <r_i_docking_score>
-10.0806401901038

> <r_i_glide_ligand_efficiency>
-0.403225607604153

> <r_i_glide_ligand_efficiency_sa>
-1.17903882787115

> <r_i_glide_ligand_efficiency_ln>
-2.38941381746374

> <r_i_glide_gscore>
-10.0806401901038

> <r_i_glide_lipo>
-5.02044091578889

> <r_i_glide_hbond>
-0.13787501978317

> <r_i_glide_metal>
0

> <r_i_glide_rewards>
-2.69536178553591

> <r_i_glide_evdw>
-41.6937980651855

> <r_i_glide_ecoul>
-4.41363573074341

> <r_i_glide_erotb>
0.519772793874928

> <r_i_glide_esite>
0

> <r_i_glide_emodel>
-68.0210052463422

> <r_i_glide_energy>
-46.107433795929

> <r_i_glide_einternal>
6.76389026641846

> <i_i_glide_confnum>
2

> <i_i_glide_posenum>
181

> <r_i_glide_eff_state_penalty>
0

> <s_user_duplicate_titles>
CHEMBL1966_lig507

> <i_f3d_flags>
0

> <s_m_subgroup_title>
dock_pv

> <s_m_subgroupid>
dock_pv

> <b_m_subgroup_collapsed>
1

$$$$
CHEMBL1966_lig475
                    3D
 Schrodinger Suite 2021-1.
 41 44  0  0  1  0            999 V2000
   46.7738   38.3023   -1.0881 C   0  0  0  0  0  0
   47.6185   39.3451   -1.7907 C   0  0  0  0  0  0
   47.4437   39.5930   -3.1555 C   0  0  0  0  0  0
   48.1798   40.5654   -3.8441 C   0  0  0  0  0  0
   47.9141   40.8086   -5.2990 C   0  0  0  0  0  0
   48.8245   40.9794   -6.0989 O   0  0  0  0  0  0
   46.5949   40.8114   -5.6467 O   0  0  0  0  0  0
   49.1032   41.3096   -3.0872 C   0  0  0  0  0  0
   49.8969   42.3567   -3.4797 N   0  0  0  0  0  0
   50.4222   42.8282   -2.3775 C   0  0  0  0  0  0
   50.0783   42.0812   -1.2739 N   0  0  0  0  0  0
   49.2235   41.0854   -1.6930 C   0  0  0  0  0  0
   48.5043   40.0913   -1.0212 C   0  0  0  0  0  0
   51.3310   44.0094   -2.3391 C   0  0  0  0  0  0
   52.2999   44.1103   -3.3412 C   0  0  0  0  0  0
   53.2377   45.1353   -3.2975 C   0  0  0  0  0  0
   53.2612   46.0411   -2.2347 C   0  0  0  0  0  0
   52.2765   45.9485   -1.2420 C   0  0  0  0  0  0
   51.3059   44.9448   -1.2989 C   0  0  0  0  0  0
   54.3613   47.0422   -2.1716 C   0  0  0  0  0  0
   55.1005   47.2184   -0.9963 C   0  0  0  0  0  0
   56.2020   48.0723   -0.9820 C   0  0  0  0  0  0
   56.5537   48.7760   -2.1282 C   0  0  0  0  0  0
   55.8193   48.6244   -3.2978 C   0  0  0  0  0  0
   54.7273   47.7617   -3.3173 C   0  0  0  0  0  0
   47.3898   37.7048   -0.4121 H   0  0  0  0  0  0
   46.0105   38.8082   -0.4928 H   0  0  0  0  0  0
   46.2891   37.6134   -1.7787 H   0  0  0  0  0  0
   46.7147   38.9980   -3.6882 H   0  0  0  0  0  0
   46.0265   40.8454   -4.8737 H   0  0  0  0  0  0
   50.4017   42.2894   -0.3429 H   0  0  0  0  0  0
   48.6029   39.9262    0.0427 H   0  0  0  0  0  0
   52.3384   43.3887   -4.1446 H   0  0  0  0  0  0
   53.9883   45.2096   -4.0686 H   0  0  0  0  0  0
   52.2706   46.6451   -0.4159 H   0  0  0  0  0  0
   50.5619   44.8761   -0.5187 H   0  0  0  0  0  0
   54.8507   46.6613   -0.1047 H   0  0  0  0  0  0
   56.8036   48.1831   -0.0969 H   0  0  0  0  0  0
   57.4087   49.4358   -2.1129 H   0  0  0  0  0  0
   56.0978   49.1723   -4.1859 H   0  0  0  0  0  0
   54.1693   47.6427   -4.2352 H   0  0  0  0  0  0
  1  2  1  0  0  0
  1 26  1  0  0  0
  1 27  1  0  0  0
  1 28  1  0  0  0
  2  3  2  0  0  0
  2 13  1  0  0  0
  3  4  1  0  0  0
  3 29  1  0  0  0
  4  5  1  0  0  0
  4  8  2  0  0  0
  5  6  2  0  0  0
  5  7  1  0  0  0
  7 30  1  0  0  0
  8  9  1  0  0  0
  8 12  1  0  0  0
  9 10  2  0  0  0
 10 11  1  0  0  0
 10 14  1  0  0  0
 11 12  1  0  0  0
 11 31  1  0  0  0
 12 13  2  0  0  0
 13 32  1  0  0  0
 14 15  2  0  0  0
 14 19  1  0  0  0
 15 16  1  0  0  0
 15 33  1  0  0  0
 16 17  2  0  0  0
 16 34  1  0  0  0
 17 18  1  0  0  0
 17 20  1  0  0  0
 18 19  2  0  0  0
 18 35  1  0  0  0
 19 36  1  0  0  0
 20 21  2  0  0  0
 20 25  1  0  0  0
 21 22  1  0  0  0
 21 37  1  0  0  0
 22 23  2  0  0  0
 22 38  1  0  0  0
 23 24  1  0  0  0
 23 39  1  0  0  0
 24 25  2  0  0  0
 24 40  1  0  0  0
 25 41  1  0  0  0
M  END
> <s_m_entry_id>
25496

> <s_m_entry_name>
dock_pv.148

> <s_m_Source_Path>
/home/csk/Desktop/cluster/DUD-E-result/pyrd

> <s_m_Source_File>
dock_pv.maegz

> <i_m_Source_File_Index>
148

> <chembl_id>
CHEMBL3677732

> <chembl_pref_name>
None

> <i_lp_mmshare_version>
53161

> <r_lp_tautomer_probability>
1

> <s_lp_Force_Field>
OPLS_2005

> <r_lp_Energy>
22.896113

> <b_lp_Chiralities_Consistent>
1

> <s_lp_Variant>
CHEMBL1966_lig475-1

> <s_i_glide_gridfile>
glide-grid_1d3g

> <i_i_glide_lignum>
525

> <i_i_glide_rotatable_bonds>
4

> <r_i_docking_score>
-10.0715261639639

> <r_i_glide_ligand_efficiency>
-0.402861046558556

> <r_i_glide_ligand_efficiency_sa>
-1.1779728449083

> <r_i_glide_ligand_efficiency_ln>
-2.38725352014326

> <r_i_glide_gscore>
-10.0715261639639

> <r_i_glide_lipo>
-5.35277583925737

> <r_i_glide_hbond>
-0.16

> <r_i_glide_metal>
0

> <r_i_glide_rewards>
-2.61938341519331

> <r_i_glide_evdw>
-39.386417388916

> <r_i_glide_ecoul>
-3.2839024066925

> <r_i_glide_erotb>
0.522539320936458

> <r_i_glide_esite>
0

> <r_i_glide_emodel>
-61.4583927397755

> <r_i_glide_energy>
-42.6703197956085

> <r_i_glide_einternal>
6.90890121459961

> <i_i_glide_confnum>
2

> <i_i_glide_posenum>
262

> <r_i_glide_eff_state_penalty>
0

> <s_user_duplicate_titles>
CHEMBL1966_lig475

> <i_f3d_flags>
0

> <s_m_subgroup_title>
dock_pv

> <s_m_subgroupid>
dock_pv

> <b_m_subgroup_collapsed>
1

$$$$
CHEMBL1966_lig534
                    3D
 Schrodinger Suite 2021-1.
 39 42  0  0  1  0            999 V2000
   56.8262   49.3790   -1.4446 C   0  0  0  0  0  0
   56.0832   48.1485   -1.9299 C   0  0  0  0  0  0
   56.6693   47.3555   -2.9138 C   0  0  0  0  0  0
   56.0243   46.2291   -3.4291 C   0  0  0  0  0  0
   56.7175   45.4347   -4.4305 C   0  0  0  0  0  0
   57.2718   44.8101   -5.2285 N   0  0  0  0  0  0
   54.7283   45.9270   -2.9527 C   0  0  0  0  0  0
   53.8522   44.9247   -3.2987 N   0  0  0  0  0  0
   52.7938   45.0761   -2.5328 C   0  0  0  0  0  0
   52.9311   46.1603   -1.6944 N   0  0  0  0  0  0
   54.1618   46.7327   -1.9346 C   0  0  0  0  0  0
   54.8373   47.8258   -1.3862 C   0  0  0  0  0  0
   51.6230   44.0979   -2.4991 C   0  0  0  0  0  0
   50.9077   43.8639   -1.3167 C   0  0  0  0  0  0
   51.1342   44.6199   -0.2151 F   0  0  0  0  0  0
   50.0229   42.7905   -1.2204 C   0  0  0  0  0  0
   49.4061   42.6030   -0.0301 F   0  0  0  0  0  0
   49.7462   41.9520   -2.3220 C   0  0  0  0  0  0
   50.3623   42.2903   -3.5390 C   0  0  0  0  0  0
   50.0728   41.6115   -4.6723 F   0  0  0  0  0  0
   51.2928   43.3261   -3.6221 C   0  0  0  0  0  0
   51.8704   43.5728   -4.8180 F   0  0  0  0  0  0
   48.7898   40.7842   -2.2227 C   0  0  0  0  0  0
   47.9782   40.4100   -3.3105 C   0  0  0  0  0  0
   46.9950   39.4340   -3.1948 C   0  0  0  0  0  0
   46.8228   38.7707   -1.9882 C   0  0  0  0  0  0
   47.6227   39.0875   -0.8994 C   0  0  0  0  0  0
   48.5846   40.0875   -1.0147 C   0  0  0  0  0  0
   56.4357   49.7451   -0.4976 H   0  0  0  0  0  0
   57.8830   49.1522   -1.2990 H   0  0  0  0  0  0
   56.7580   50.1780   -2.1836 H   0  0  0  0  0  0
   57.6508   47.6267   -3.2810 H   0  0  0  0  0  0
   52.2303   46.4208   -1.0161 H   0  0  0  0  0  0
   54.4203   48.4096   -0.5864 H   0  0  0  0  0  0
   48.0154   40.9299   -4.2529 H   0  0  0  0  0  0
   46.3570   39.2097   -4.0364 H   0  0  0  0  0  0
   46.0627   38.0093   -1.8947 H   0  0  0  0  0  0
   47.4956   38.5606    0.0325 H   0  0  0  0  0  0
   49.1863   40.3003   -0.1444 H   0  0  0  0  0  0
  1  2  1  0  0  0
  1 29  1  0  0  0
  1 30  1  0  0  0
  1 31  1  0  0  0
  2  3  2  0  0  0
  2 12  1  0  0  0
  3  4  1  0  0  0
  3 32  1  0  0  0
  4  5  1  0  0  0
  4  7  2  0  0  0
  5  6  3  0  0  0
  7  8  1  0  0  0
  7 11  1  0  0  0
  8  9  2  0  0  0
  9 10  1  0  0  0
  9 13  1  0  0  0
 10 11  1  0  0  0
 10 33  1  0  0  0
 11 12  2  0  0  0
 12 34  1  0  0  0
 13 14  2  0  0  0
 13 21  1  0  0  0
 14 15  1  0  0  0
 14 16  1  0  0  0
 16 17  1  0  0  0
 16 18  2  0  0  0
 18 19  1  0  0  0
 18 23  1  0  0  0
 19 20  1  0  0  0
 19 21  2  0  0  0
 21 22  1  0  0  0
 23 24  2  0  0  0
 23 28  1  0  0  0
 24 25  1  0  0  0
 24 35  1  0  0  0
 25 26  2  0  0  0
 25 36  1  0  0  0
 26 27  1  0  0  0
 26 37  1  0  0  0
 27 28  2  0  0  0
 27 38  1  0  0  0
 28 39  1  0  0  0
M  END
> <s_m_entry_id>
25497

> <s_m_entry_name>
dock_pv.149

> <s_m_Source_Path>
/home/csk/Desktop/cluster/DUD-E-result/pyrd

> <s_m_Source_File>
dock_pv.maegz

> <i_m_Source_File_Index>
149

> <chembl_id>
CHEMBL3677794

> <chembl_pref_name>
None

> <i_lp_mmshare_version>
53161

> <r_lp_tautomer_probability>
1

> <s_lp_Force_Field>
OPLS_2005

> <r_lp_Energy>
25.46525

> <b_lp_Chiralities_Consistent>
1

> <s_lp_Variant>
CHEMBL1966_lig534-1

> <s_i_glide_gridfile>
glide-grid_1d3g

> <i_i_glide_lignum>
588

> <i_i_glide_rotatable_bonds>
2

> <r_i_docking_score>
-10.0295665206824

> <r_i_glide_ligand_efficiency>
-0.358198804310085

> <r_i_glide_ligand_efficiency_sa>
-1.0877025376989

> <r_i_glide_ligand_efficiency_ln>
-2.31511843384254

> <r_i_glide_gscore>
-10.0295665206824

> <r_i_glide_lipo>
-5.63713908836241

> <r_i_glide_hbond>
0

> <r_i_glide_metal>
0

> <r_i_glide_rewards>
-3.01517842618893

> <r_i_glide_evdw>
-32.2985000610352

> <r_i_glide_ecoul>
-0.195286735892296

> <r_i_glide_erotb>
0.266969007304549

> <r_i_glide_esite>
0

> <r_i_glide_emodel>
-37.5746882442144

> <r_i_glide_energy>
-32.4937867969275

> <r_i_glide_einternal>
2.32161569595337

> <i_i_glide_confnum>
11

> <i_i_glide_posenum>
39

> <r_i_glide_eff_state_penalty>
0

> <s_user_duplicate_titles>
CHEMBL1966_lig534

> <i_f3d_flags>
0

> <s_m_subgroup_title>
dock_pv

> <s_m_subgroupid>
dock_pv

> <b_m_subgroup_collapsed>
1

$$$$
CHEMBL1966_lig303
                    3D
 Schrodinger Suite 2021-1.
 45 47  0  0  1  0            999 V2000
   48.2157   39.6276   -0.6001 C   0  0  0  0  0  0
   47.5704   39.2714   -1.7724 C   0  0  0  0  0  0
   47.9098   39.8751   -2.9768 C   0  0  0  0  0  0
   49.2230   40.5915   -0.5983 C   0  0  0  0  0  0
   49.5469   41.2595   -1.8014 C   0  0  0  0  0  0
   48.8893   40.9122   -3.0196 C   0  0  0  0  0  0
   49.2224   41.6707   -4.1898 C   0  0  0  0  0  0
   50.1378   42.7420   -4.0853 C   0  0  0  0  0  0
   50.7033   43.0229   -2.8205 C   0  0  0  0  0  0
   50.4246   42.2807   -1.7228 N   0  0  0  0  0  0
   51.6230   44.1579   -2.4999 C   0  0  0  0  0  0
   52.7663   44.4097   -3.2769 C   0  0  0  0  0  0
   53.6420   45.4395   -2.9456 C   0  0  0  0  0  0
   53.3907   46.2512   -1.8372 C   0  0  0  0  0  0
   52.2570   46.0111   -1.0551 C   0  0  0  0  0  0
   51.3821   44.9782   -1.3830 C   0  0  0  0  0  0
   48.5792   41.3196   -5.5096 C   0  0  0  0  0  0
   47.2530   41.6100   -5.6246 O   0  0  0  0  0  0
   49.2230   40.8100   -6.4139 O   0  0  0  0  0  0
   46.1539   38.0100   -1.6990 Br  0  0  0  0  0  0
   50.4474   43.5881   -5.3265 C   0  0  0  0  0  0
   54.3524   47.3903   -1.4774 C   0  0  1  0  0  0
   55.6643   46.8910   -0.8278 C   0  0  0  0  0  0
   54.6238   48.3288   -2.6710 C   0  0  0  0  0  0
   55.4728   46.3323    0.5903 C   0  0  0  0  0  0
   47.9359   39.1221    0.3011 H   0  0  0  0  0  0
   47.3813   39.5789   -3.8701 H   0  0  0  0  0  0
   49.7193   40.8634    0.3222 H   0  0  0  0  0  0
   53.0074   43.7563   -4.0991 H   0  0  0  0  0  0
   54.5242   45.5942   -3.5490 H   0  0  0  0  0  0
   52.0493   46.6240   -0.1901 H   0  0  0  0  0  0
   50.5114   44.8149   -0.7640 H   0  0  0  0  0  0
   46.9224   42.1537   -4.9058 H   0  0  0  0  0  0
   50.8811   42.9712   -6.1134 H   0  0  0  0  0  0
   49.5281   44.0099   -5.7319 H   0  0  0  0  0  0
   51.1260   44.4100   -5.1552 H   0  0  0  0  0  0
   53.8568   48.0099   -0.7323 H   0  0  0  0  0  0
   56.3767   47.7155   -0.7650 H   0  0  0  0  0  0
   56.1372   46.1388   -1.4613 H   0  0  0  0  0  0
   53.6918   48.6807   -3.1158 H   0  0  0  0  0  0
   55.1897   49.2069   -2.3568 H   0  0  0  0  0  0
   55.2003   47.8367   -3.4546 H   0  0  0  0  0  0
   56.4233   46.0101    1.0148 H   0  0  0  0  0  0
   54.8001   45.4755    0.5951 H   0  0  0  0  0  0
   55.0545   47.0862    1.2582 H   0  0  0  0  0  0
  1  2  2  0  0  0
  1  4  1  0  0  0
  1 26  1  0  0  0
  2  3  1  0  0  0
  2 20  1  0  0  0
  3  6  2  0  0  0
  3 27  1  0  0  0
  4  5  2  0  0  0
  4 28  1  0  0  0
  5  6  1  0  0  0
  5 10  1  0  0  0
  6  7  1  0  0  0
  7  8  2  0  0  0
  7 17  1  0  0  0
  8  9  1  0  0  0
  8 21  1  0  0  0
  9 10  2  0  0  0
  9 11  1  0  0  0
 11 12  2  0  0  0
 11 16  1  0  0  0
 12 13  1  0  0  0
 12 29  1  0  0  0
 13 14  2  0  0  0
 13 30  1  0  0  0
 14 15  1  0  0  0
 14 22  1  0  0  0
 15 16  2  0  0  0
 15 31  1  0  0  0
 16 32  1  0  0  0
 17 18  1  0  0  0
 17 19  2  0  0  0
 18 33  1  0  0  0
 21 34  1  0  0  0
 21 35  1  0  0  0
 21 36  1  0  0  0
 22 23  1  0  0  0
 22 24  1  0  0  0
 22 37  1  0  0  0
 23 25  1  0  0  0
 23 38  1  0  0  0
 23 39  1  0  0  0
 24 40  1  0  0  0
 24 41  1  0  0  0
 24 42  1  0  0  0
 25 43  1  0  0  0
 25 44  1  0  0  0
 25 45  1  0  0  0
M  END
> <s_m_entry_id>
25498

> <s_m_entry_name>
dock_pv.150

> <s_m_Source_Path>
/home/csk/Desktop/cluster/DUD-E-result/pyrd

> <s_m_Source_File>
dock_pv.maegz

> <i_m_Source_File_Index>
150

> <chembl_id>
CHEMBL3818031

> <chembl_pref_name>
None

> <i_lp_mmshare_version>
53161

> <r_lp_tautomer_probability>
1

> <s_lp_Force_Field>
OPLS_2005

> <r_lp_Energy>
25.36324

> <b_lp_Chiralities_Consistent>
1

> <s_lp_Variant>
CHEMBL1966_lig303-2

> <s_i_glide_gridfile>
glide-grid_1d3g

> <i_i_glide_lignum>
350

> <i_i_glide_rotatable_bonds>
5

> <r_i_docking_score>
-10.028387527615

> <r_i_glide_ligand_efficiency>
-0.401135501104598

> <r_i_glide_ligand_efficiency_sa>
-1.17292731939825

> <r_i_glide_ligand_efficiency_ln>
-2.37702837056794

> <r_i_glide_gscore>
-10.028387527615

> <r_i_glide_lipo>
-5.98644358504621

> <r_i_glide_hbond>
-0.16

> <r_i_glide_metal>
0

> <r_i_glide_rewards>
-1.52595138345369

> <r_i_glide_evdw>
-35.4330368041992

> <r_i_glide_ecoul>
-6.3645339012146

> <r_i_glide_erotb>
0.370339366277097

> <r_i_glide_esite>
0

> <r_i_glide_emodel>
-62.3728777297498

> <r_i_glide_energy>
-41.7975707054138

> <r_i_glide_einternal>
2.74026679992676

> <i_i_glide_confnum>
16

> <i_i_glide_posenum>
30

> <r_i_glide_eff_state_penalty>
0

> <s_user_duplicate_titles>
CHEMBL1966_lig303

> <i_f3d_flags>
0

> <s_m_subgroup_title>
dock_pv

> <s_m_subgroupid>
dock_pv

> <b_m_subgroup_collapsed>
1

$$$$
CHEMBL1966_lig713
                    3D
 Schrodinger Suite 2021-1.
 46 50  0  0  1  0            999 V2000
   52.4230   45.0775   -2.3891 C   0  0  0  0  0  0
   52.3687   45.6098   -1.0841 C   0  0  0  0  0  0
   53.3619   45.4519   -3.2992 N   0  0  0  0  0  0
   53.4096   46.4836   -0.7134 C   0  0  0  0  0  0
   51.4362   44.0077   -2.7949 C   0  0  0  0  0  0
   54.3299   46.9900   -1.6881 C   0  0  0  0  0  0
   49.7303   42.4643   -2.0510 N   0  0  0  0  0  0
   50.4774   43.5693   -1.8708 C   0  0  0  0  0  0
   54.2787   46.4050   -2.9792 C   0  0  0  0  0  0
   53.6205   46.8100    0.7291 C   0  0  0  0  0  0
   49.6700   41.9012   -3.2755 C   0  0  0  0  0  0
   51.2903   45.1025   -0.0812 C   0  0  0  0  0  0
   51.3752   43.4004   -4.0621 C   0  0  0  0  0  0
   48.6483   40.8292   -3.3890 C   0  0  0  0  0  0
   55.3011   48.0180   -1.4533 C   0  0  0  0  0  0
   50.0975   44.4387   -0.7170 C   0  0  0  0  0  0
   54.9255   46.8069    1.1012 O   0  0  0  0  0  0
   50.4229   42.4101   -4.3302 C   0  0  0  0  0  0
   52.6947   47.0074    1.5010 O   0  0  0  0  0  0
   47.7939   40.7637   -4.4989 C   0  0  0  0  0  0
   55.2307   46.8088   -3.9462 C   0  0  0  0  0  0
   56.1966   48.4096   -2.4382 C   0  0  0  0  0  0
   56.1703   47.7970   -3.6785 C   0  0  0  0  0  0
   46.6182   40.0099   -4.4235 C   0  0  0  0  0  0
   57.0994   49.3829   -2.1823 F   0  0  0  0  0  0
   48.3832   40.0100   -2.2829 C   0  0  0  0  0  0
   47.2650   39.1868   -2.2450 C   0  0  0  0  0  0
   46.3708   39.2100   -3.3048 C   0  0  0  0  0  0
   45.6001   40.0595   -5.5409 C   0  0  0  0  0  0
   50.8383   45.9359    0.4456 H   0  0  0  0  0  0
   51.6566   44.4223    0.6826 H   0  0  0  0  0  0
   52.0223   43.7111   -4.8615 H   0  0  0  0  0  0
   55.3578   48.5210   -0.5021 H   0  0  0  0  0  0
   49.4829   43.9188    0.0207 H   0  0  0  0  0  0
   49.4737   45.2100   -1.1368 H   0  0  0  0  0  0
   50.3181   42.0103   -5.3257 H   0  0  0  0  0  0
   47.9523   41.4182   -5.3435 H   0  0  0  0  0  0
   55.2448   46.3346   -4.8989 H   0  0  0  0  0  0
   56.8828   48.0904   -4.4357 H   0  0  0  0  0  0
   49.0216   40.0424   -1.4123 H   0  0  0  0  0  0
   47.0723   38.5697   -1.3796 H   0  0  0  0  0  0
   45.4829   38.6014   -3.2649 H   0  0  0  0  0  0
   44.9118   39.2134   -5.5055 H   0  0  0  0  0  0
   45.0338   40.9912   -5.4970 H   0  0  0  0  0  0
   46.1003   40.0103   -6.4990 H   0  0  0  0  0  0
   54.9906   46.8819    2.0604 H   0  0  0  0  0  0
  1  2  1  0  0  0
  1  3  2  0  0  0
  1  5  1  0  0  0
  2  4  2  0  0  0
  2 12  1  0  0  0
  3  9  1  0  0  0
  4 10  1  0  0  0
  4  6  1  0  0  0
  5  8  2  0  0  0
  5 13  1  0  0  0
  6  9  1  0  0  0
  6 15  2  0  0  0
  7  8  1  0  0  0
  7 11  2  0  0  0
  8 16  1  0  0  0
  9 21  2  0  0  0
 10 17  1  0  0  0
 10 19  2  0  0  0
 11 18  1  0  0  0
 11 14  1  0  0  0
 12 16  1  0  0  0
 12 30  1  0  0  0
 12 31  1  0  0  0
 13 18  2  0  0  0
 13 32  1  0  0  0
 14 20  1  0  0  0
 14 26  2  0  0  0
 15 22  1  0  0  0
 15 33  1  0  0  0
 16 34  1  0  0  0
 16 35  1  0  0  0
 17 46  1  0  0  0
 18 36  1  0  0  0
 20 24  2  0  0  0
 20 37  1  0  0  0
 21 23  1  0  0  0
 21 38  1  0  0  0
 22 23  2  0  0  0
 22 25  1  0  0  0
 23 39  1  0  0  0
 24 29  1  0  0  0
 24 28  1  0  0  0
 26 27  1  0  0  0
 26 40  1  0  0  0
 27 28  2  0  0  0
 27 41  1  0  0  0
 28 42  1  0  0  0
 29 43  1  0  0  0
 29 44  1  0  0  0
 29 45  1  0  0  0
M  END
> <s_m_entry_id>
25499

> <s_m_entry_name>
dock_pv.151

> <s_m_Source_Path>
/home/csk/Desktop/cluster/DUD-E-result/pyrd

> <s_m_Source_File>
dock_pv.maegz

> <i_m_Source_File_Index>
151

> <chembl_id>
CHEMBL104167

> <chembl_pref_name>
None

> <i_lp_mmshare_version>
53161

> <r_lp_tautomer_probability>
1

> <s_lp_Force_Field>
OPLS_2005

> <r_lp_Energy>
29.371967

> <b_lp_Chiralities_Consistent>
1

> <s_lp_Variant>
CHEMBL1966_lig713-1

> <s_i_glide_gridfile>
glide-grid_1d3g

> <i_i_glide_lignum>
783

> <i_i_glide_rotatable_bonds>
3

> <r_i_docking_score>
-10.0238221712446

> <r_i_glide_ligand_efficiency>
-0.345649040387744

> <r_i_glide_ligand_efficiency_sa>
-1.06194336137347

> <r_i_glide_ligand_efficiency_ln>
-2.29520109501618

> <r_i_glide_gscore>
-10.0238221712446

> <r_i_glide_lipo>
-6.18391317435206

> <r_i_glide_hbond>
0

> <r_i_glide_metal>
0

> <r_i_glide_rewards>
-2.20306265031662

> <r_i_glide_evdw>
-32.2239151000977

> <r_i_glide_ecoul>
-1.92533874511719

> <r_i_glide_erotb>
0.263150220196574

> <r_i_glide_esite>
0

> <r_i_glide_emodel>
-50.9666571322135

> <r_i_glide_energy>
-34.1492538452148

> <r_i_glide_einternal>
5.44945049285889

> <i_i_glide_confnum>
7

> <i_i_glide_posenum>
18

> <r_i_glide_eff_state_penalty>
0

> <s_user_duplicate_titles>
CHEMBL1966_lig713,173485

> <i_f3d_flags>
0

> <s_m_subgroup_title>
dock_pv

> <s_m_subgroupid>
dock_pv

> <b_m_subgroup_collapsed>
1

$$$$
CHEMBL1966_lig512
                    3D
 Schrodinger Suite 2021-1.
 57 61  0  0  1  0            999 V2000
   47.1816   38.5173   -1.0092 C   0  0  0  0  0  0
   47.9429   39.6100   -1.7381 C   0  0  0  0  0  0
   47.7511   39.7945   -3.1096 C   0  0  0  0  0  0
   48.4230   40.7926   -3.8329 C   0  0  0  0  0  0
   48.1537   40.9499   -5.2990 C   0  0  0  0  0  0
   49.0464   41.2100   -6.0990 O   0  0  0  0  0  0
   46.8447   40.8100   -5.6588 O   0  0  0  0  0  0
   49.3179   41.6053   -3.1099 C   0  0  0  0  0  0
   50.0549   42.6825   -3.5339 N   0  0  0  0  0  0
   50.6436   43.1353   -2.4561 C   0  0  0  0  0  0
   50.3637   42.3910   -1.3395 N   0  0  0  0  0  0
   49.5066   41.3941   -1.7202 C   0  0  0  0  0  0
   48.8230   40.4100   -1.0087 C   0  0  0  0  0  0
   51.6230   44.2440   -2.4195 C   0  0  0  0  0  0
   52.7138   44.1903   -3.2990 C   0  0  0  0  0  0
   52.8040   43.2100   -4.2291 F   0  0  0  0  0  0
   53.8091   45.0258   -3.0897 C   0  0  0  0  0  0
   54.9760   44.7284   -3.6990 F   0  0  0  0  0  0
   53.7796   46.0743   -2.1652 C   0  0  0  0  0  0
   52.6801   46.1262   -1.2875 C   0  0  0  0  0  0
   52.6549   47.0212   -0.2733 F   0  0  0  0  0  0
   51.6230   45.2100   -1.3997 C   0  0  0  0  0  0
   50.6132   45.2405   -0.4990 F   0  0  0  0  0  0
   54.9269   47.0463   -2.1470 C   0  0  0  0  0  0
   55.4668   47.5522   -0.9568 C   0  0  0  0  0  0
   56.5677   48.4101   -0.9893 C   0  0  0  0  0  0
   57.1726   48.7583   -2.1865 C   0  0  0  0  0  0
   56.6834   48.2432   -3.3783 C   0  0  0  0  0  0
   57.3931   48.5692   -4.5410 N   0  0  0  0  0  0
   57.6230   47.7713   -5.6062 C   0  0  0  0  0  0
   57.2230   46.6072   -5.6909 O   0  0  0  0  0  0
   58.4822   48.3984   -6.7324 C   0  0  1  0  0  0
   59.9469   47.9335   -6.6556 C   0  0  0  0  0  0
   60.3968   47.8945   -8.1182 C   0  0  0  0  0  0
   59.1653   48.3176   -8.9226 C   0  0  0  0  0  0
   58.0231   48.0342   -8.0702 N   0  0  2  0  0  0
   55.5362   47.4368   -3.3575 C   0  0  0  0  0  0
   46.7337   38.9179   -0.0990 H   0  0  0  0  0  0
   46.3743   38.1001   -1.6123 H   0  0  0  0  0  0
   47.8587   37.7143   -0.7151 H   0  0  0  0  0  0
   47.0668   39.1314   -3.6196 H   0  0  0  0  0  0
   46.2696   40.7767   -4.8912 H   0  0  0  0  0  0
   50.7345   42.6010   -0.4260 H   0  0  0  0  0  0
   48.9592   40.2702    0.0539 H   0  0  0  0  0  0
   55.0540   47.2718    0.0009 H   0  0  0  0  0  0
   57.0086   48.8022   -0.0990 H   0  0  0  0  0  0
   58.0455   49.3954   -2.1698 H   0  0  0  0  0  0
   57.8829   49.4492   -4.5132 H   0  0  0  0  0  0
   58.4230   49.4845   -6.6290 H   0  0  0  0  0  0
   60.0611   46.9448   -6.2046 H   0  0  0  0  0  0
   60.5581   48.6422   -6.0954 H   0  0  0  0  0  0
   60.7178   46.8913   -8.4033 H   0  0  0  0  0  0
   61.2351   48.5675   -8.3025 H   0  0  0  0  0  0
   59.0757   47.7387   -9.8432 H   0  0  0  0  0  0
   59.2108   49.3728   -9.2006 H   0  0  0  0  0  0
   57.2341   48.5997   -8.3512 H   0  0  0  0  0  0
   55.1394   47.0765   -4.2956 H   0  0  0  0  0  0
  1  2  1  0  0  0
  1 38  1  0  0  0
  1 39  1  0  0  0
  1 40  1  0  0  0
  2  3  2  0  0  0
  2 13  1  0  0  0
  3  4  1  0  0  0
  3 41  1  0  0  0
  4  5  1  0  0  0
  4  8  2  0  0  0
  5  6  2  0  0  0
  5  7  1  0  0  0
  7 42  1  0  0  0
  8  9  1  0  0  0
  8 12  1  0  0  0
  9 10  2  0  0  0
 10 11  1  0  0  0
 10 14  1  0  0  0
 11 12  1  0  0  0
 11 43  1  0  0  0
 12 13  2  0  0  0
 13 44  1  0  0  0
 14 15  2  0  0  0
 14 22  1  0  0  0
 15 16  1  0  0  0
 15 17  1  0  0  0
 17 18  1  0  0  0
 17 19  2  0  0  0
 19 20  1  0  0  0
 19 24  1  0  0  0
 20 21  1  0  0  0
 20 22  2  0  0  0
 22 23  1  0  0  0
 24 25  2  0  0  0
 24 37  1  0  0  0
 25 26  1  0  0  0
 25 45  1  0  0  0
 26 27  2  0  0  0
 26 46  1  0  0  0
 27 28  1  0  0  0
 27 47  1  0  0  0
 28 29  1  0  0  0
 28 37  2  0  0  0
 29 30  1  0  0  0
 29 48  1  0  0  0
 30 31  2  0  0  0
 30 32  1  0  0  0
 32 33  1  0  0  0
 32 36  1  0  0  0
 32 49  1  0  0  0
 33 34  1  0  0  0
 33 50  1  0  0  0
 33 51  1  0  0  0
 34 35  1  0  0  0
 34 52  1  0  0  0
 34 53  1  0  0  0
 35 36  1  0  0  0
 35 54  1  0  0  0
 35 55  1  0  0  0
 36 56  1  0  0  0
 37 57  1  0  0  0
M  END
> <s_m_entry_id>
25500

> <s_m_entry_name>
dock_pv.152

> <s_m_Source_Path>
/home/csk/Desktop/cluster/DUD-E-result/pyrd

> <s_m_Source_File>
dock_pv.maegz

> <i_m_Source_File_Index>
152

> <chembl_id>
CHEMBL3677771

> <chembl_pref_name>
None

> <i_lp_mmshare_version>
53161

> <r_lp_tautomer_probability>
1

> <s_lp_Force_Field>
OPLS_2005

> <r_lp_Energy>
51.551672

> <b_lp_Chiralities_Consistent>
1

> <s_lp_Variant>
CHEMBL1966_lig512-2

> <s_i_glide_gridfile>
glide-grid_1d3g

> <i_i_glide_lignum>
564

> <i_i_glide_rotatable_bonds>
7

> <r_i_docking_score>
-10.0226501412614

> <r_i_glide_ligand_efficiency>
-0.270882436250308

> <r_i_glide_ligand_efficiency_sa>
-0.902640372213914

> <r_i_glide_ligand_efficiency_ln>
-2.17367785138333

> <r_i_glide_gscore>
-10.0226501412614

> <r_i_glide_lipo>
-5.28261685511095

> <r_i_glide_hbond>
-0.137391570511528

> <r_i_glide_metal>
0

> <r_i_glide_rewards>
-2.43318510195916

> <r_i_glide_evdw>
-46.5830879211426

> <r_i_glide_ecoul>
-1.94359290599823

> <r_i_glide_erotb>
0.468367188277634

> <r_i_glide_esite>
-0.017130470000516

> <r_i_glide_emodel>
-60.9860210321025

> <r_i_glide_energy>
-48.5266808271408

> <r_i_glide_einternal>
10.5309715270996

> <i_i_glide_confnum>
24

> <i_i_glide_posenum>
47

> <r_i_glide_eff_state_penalty>
0

> <s_user_duplicate_titles>
CHEMBL1966_lig512

> <i_f3d_flags>
0

> <s_m_subgroup_title>
dock_pv

> <s_m_subgroupid>
dock_pv

> <b_m_subgroup_collapsed>
1

$$$$
CHEMBL1966_lig470
                    3D
 Schrodinger Suite 2021-1.
 42 45  0  0  1  0            999 V2000
   57.4513   50.0101   -3.1539 C   0  0  0  0  0  0
   56.3069   49.1935   -3.3775 O   0  0  0  0  0  0
   55.8405   48.3984   -2.3488 C   0  0  0  0  0  0
   56.4168   48.3349   -1.0710 C   0  0  0  0  0  0
   55.8759   47.4959   -0.0991 C   0  0  0  0  0  0
   54.7573   46.7207   -0.3812 C   0  0  0  0  0  0
   54.1833   46.7434   -1.6557 C   0  0  0  0  0  0
   54.7292   47.5984   -2.6237 C   0  0  0  0  0  0
   53.0928   45.7970   -1.9980 C   0  0  0  0  0  0
   51.9775   45.6060   -1.1684 C   0  0  0  0  0  0
   51.0403   44.6037   -1.4565 C   0  0  0  0  0  0
   51.1956   43.7954   -2.5918 C   0  0  0  0  0  0
   52.2901   44.0098   -3.4273 C   0  0  0  0  0  0
   52.4685   43.2100   -4.4990 F   0  0  0  0  0  0
   53.2233   45.0016   -3.1383 C   0  0  0  0  0  0
   50.2427   42.7097   -2.9545 C   0  0  0  0  0  0
   49.8100   41.8134   -2.1126 N   0  0  0  0  0  0
   48.8972   41.0574   -2.8114 C   0  0  0  0  0  0
   48.0330   40.0442   -2.3361 C   0  0  0  0  0  0
   47.0913   39.5510   -3.2481 C   0  0  0  0  0  0
   47.0264   40.0116   -4.5610 C   0  0  0  0  0  0
   47.9180   40.9570   -5.0709 C   0  0  0  0  0  0
   48.8231   41.4963   -4.1580 C   0  0  0  0  0  0
   49.7180   42.5380   -4.2166 N   0  0  0  0  0  0
   48.0229   39.6014   -0.8988 C   0  0  0  0  0  0
   48.8230   40.0550   -0.0983 O   0  0  0  0  0  0
   47.0898   38.6841   -0.5292 O   0  0  0  0  0  0
   57.6605   50.5921   -4.0517 H   0  0  0  0  0  0
   57.2892   50.7143   -2.3361 H   0  0  0  0  0  0
   58.3329   49.4061   -2.9344 H   0  0  0  0  0  0
   57.2840   48.9217   -0.8152 H   0  0  0  0  0  0
   56.3332   47.4341    0.8766 H   0  0  0  0  0  0
   54.3693   46.0611    0.3812 H   0  0  0  0  0  0
   54.3002   47.6318   -3.6150 H   0  0  0  0  0  0
   51.8527   46.2077   -0.2794 H   0  0  0  0  0  0
   50.1971   44.4554   -0.7969 H   0  0  0  0  0  0
   54.0889   45.1163   -3.7719 H   0  0  0  0  0  0
   46.3703   38.8080   -2.9361 H   0  0  0  0  0  0
   46.2527   39.6138   -5.2024 H   0  0  0  0  0  0
   47.8371   41.3341   -6.0783 H   0  0  0  0  0  0
   49.9312   43.1498   -4.9909 H   0  0  0  0  0  0
   47.1998   38.5249    0.4178 H   0  0  0  0  0  0
  1  2  1  0  0  0
  1 28  1  0  0  0
  1 29  1  0  0  0
  1 30  1  0  0  0
  2  3  1  0  0  0
  3  4  2  0  0  0
  3  8  1  0  0  0
  4  5  1  0  0  0
  4 31  1  0  0  0
  5  6  2  0  0  0
  5 32  1  0  0  0
  6  7  1  0  0  0
  6 33  1  0  0  0
  7  8  2  0  0  0
  7  9  1  0  0  0
  8 34  1  0  0  0
  9 10  2  0  0  0
  9 15  1  0  0  0
 10 11  1  0  0  0
 10 35  1  0  0  0
 11 12  2  0  0  0
 11 36  1  0  0  0
 12 13  1  0  0  0
 12 16  1  0  0  0
 13 14  1  0  0  0
 13 15  2  0  0  0
 15 37  1  0  0  0
 16 17  2  0  0  0
 16 24  1  0  0  0
 17 18  1  0  0  0
 18 19  2  0  0  0
 18 23  1  0  0  0
 19 20  1  0  0  0
 19 25  1  0  0  0
 20 21  2  0  0  0
 20 38  1  0  0  0
 21 22  1  0  0  0
 21 39  1  0  0  0
 22 23  2  0  0  0
 22 40  1  0  0  0
 23 24  1  0  0  0
 24 41  1  0  0  0
 25 26  2  0  0  0
 25 27  1  0  0  0
 27 42  1  0  0  0
M  END
> <s_m_entry_id>
25501

> <s_m_entry_name>
dock_pv.153

> <s_m_Source_Path>
/home/csk/Desktop/cluster/DUD-E-result/pyrd

> <s_m_Source_File>
dock_pv.maegz

> <i_m_Source_File_Index>
153

> <chembl_id>
CHEMBL3677727

> <chembl_pref_name>
None

> <i_lp_mmshare_version>
53161

> <r_lp_tautomer_probability>
1

> <s_lp_Force_Field>
OPLS_2005

> <r_lp_Energy>
28.888764

> <b_lp_Chiralities_Consistent>
1

> <s_lp_Variant>
CHEMBL1966_lig470-1

> <s_i_glide_gridfile>
glide-grid_1d3g

> <i_i_glide_lignum>
520

> <i_i_glide_rotatable_bonds>
5

> <r_i_docking_score>
-10.0153922044091

> <r_i_glide_ligand_efficiency>
-0.370940452015153

> <r_i_glide_ligand_efficiency_sa>
-1.1128213548229

> <r_i_glide_ligand_efficiency_ln>
-2.33141818854139

> <r_i_glide_gscore>
-10.0153922044091

> <r_i_glide_lipo>
-5.18148542623282

> <r_i_glide_hbond>
0

> <r_i_glide_metal>
0

> <r_i_glide_rewards>
-2.53921302224397

> <r_i_glide_evdw>
-40.8289222717285

> <r_i_glide_ecoul>
-4.61306810379028

> <r_i_glide_erotb>
0.43871257322262

> <r_i_glide_esite>
0

> <r_i_glide_emodel>
-59.8134130026311

> <r_i_glide_energy>
-45.4419903755188

> <r_i_glide_einternal>
6.24823188781738

> <i_i_glide_confnum>
4

> <i_i_glide_posenum>
308

> <r_i_glide_eff_state_penalty>
0

> <s_user_duplicate_titles>
CHEMBL1966_lig470

> <i_f3d_flags>
0

> <s_m_subgroup_title>
dock_pv

> <s_m_subgroupid>
dock_pv

> <b_m_subgroup_collapsed>
1

$$$$
CHEMBL1966_lig192
                    3D
 Schrodinger Suite 2021-1.
 43 45  0  0  1  0            999 V2000
   47.0938   38.5674   -0.8484 C   0  0  0  0  0  0
   47.9011   39.6100   -1.5972 C   0  0  0  0  0  0
   48.8244   40.4100   -0.9267 C   0  0  0  0  0  0
   49.6229   41.3053   -1.5588 N   0  0  0  0  0  0
   49.4282   41.5279   -2.8865 C   0  0  0  0  0  0
   50.1264   42.6046   -3.4582 N   0  0  0  0  0  0
   51.0237   43.5396   -2.9107 C   0  0  0  0  0  0
   52.1277   43.8616   -3.6987 C   0  0  0  0  0  0
   53.0555   44.8099   -3.2683 C   0  0  0  0  0  0
   52.9051   45.4824   -2.0476 C   0  0  0  0  0  0
   51.7451   45.2105   -1.2991 C   0  0  0  0  0  0
   50.8228   44.2415   -1.7025 C   0  0  0  0  0  0
   49.7561   44.0098   -0.8991 F   0  0  0  0  0  0
   54.0222   46.3258   -1.5067 C   0  0  0  0  0  0
   54.1904   46.4739   -0.1213 C   0  0  0  0  0  0
   55.3054   47.1165    0.4037 C   0  0  0  0  0  0
   56.2861   47.6112   -0.4478 C   0  0  0  0  0  0
   56.1476   47.5144   -1.8270 C   0  0  0  0  0  0
   57.1989   48.0106   -2.5725 O   0  0  0  0  0  0
   57.0179   48.3369   -3.9451 C   0  0  0  0  0  0
   58.1357   48.9254   -4.3670 F   0  0  0  0  0  0
   56.8222   47.2520   -4.6963 F   0  0  0  0  0  0
   56.0235   49.2093   -4.0988 F   0  0  0  0  0  0
   55.0006   46.8910   -2.3477 C   0  0  0  0  0  0
   48.5089   40.7626   -3.6488 C   0  0  0  0  0  0
   47.7631   39.7814   -2.9747 C   0  0  0  0  0  0
   48.3047   40.9492   -5.1361 C   0  0  0  0  0  0
   49.2229   41.2125   -5.9076 O   0  0  0  0  0  0
   47.0122   40.8103   -5.5528 O   0  0  0  0  0  0
   47.7144   38.0718   -0.0994 H   0  0  0  0  0  0
   46.2540   39.0374   -0.3325 H   0  0  0  0  0  0
   46.7197   37.7889   -1.5151 H   0  0  0  0  0  0
   48.9885   40.2920    0.1351 H   0  0  0  0  0  0
   50.0738   42.6101   -4.4683 H   0  0  0  0  0  0
   52.2946   43.3438   -4.6318 H   0  0  0  0  0  0
   53.9353   44.9673   -3.8669 H   0  0  0  0  0  0
   51.5629   45.7136   -0.3614 H   0  0  0  0  0  0
   53.4852   46.0485    0.5765 H   0  0  0  0  0  0
   55.4220   47.2079    1.4741 H   0  0  0  0  0  0
   57.1713   48.0756   -0.0375 H   0  0  0  0  0  0
   54.8873   46.8073   -3.4154 H   0  0  0  0  0  0
   47.0675   39.1502   -3.5090 H   0  0  0  0  0  0
   46.3979   40.7733   -4.8164 H   0  0  0  0  0  0
  1  2  1  0  0  0
  1 30  1  0  0  0
  1 31  1  0  0  0
  1 32  1  0  0  0
  2  3  2  0  0  0
  2 26  1  0  0  0
  3  4  1  0  0  0
  3 33  1  0  0  0
  4  5  2  0  0  0
  5  6  1  0  0  0
  5 25  1  0  0  0
  6  7  1  0  0  0
  6 34  1  0  0  0
  7  8  2  0  0  0
  7 12  1  0  0  0
  8  9  1  0  0  0
  8 35  1  0  0  0
  9 10  2  0  0  0
  9 36  1  0  0  0
 10 11  1  0  0  0
 10 14  1  0  0  0
 11 12  2  0  0  0
 11 37  1  0  0  0
 12 13  1  0  0  0
 14 15  2  0  0  0
 14 24  1  0  0  0
 15 16  1  0  0  0
 15 38  1  0  0  0
 16 17  2  0  0  0
 16 39  1  0  0  0
 17 18  1  0  0  0
 17 40  1  0  0  0
 18 19  1  0  0  0
 18 24  2  0  0  0
 19 20  1  0  0  0
 20 21  1  0  0  0
 20 22  1  0  0  0
 20 23  1  0  0  0
 24 41  1  0  0  0
 25 26  2  0  0  0
 25 27  1  0  0  0
 26 42  1  0  0  0
 27 28  2  0  0  0
 27 29  1  0  0  0
 29 43  1  0  0  0
M  END
> <s_m_entry_id>
25502

> <s_m_entry_name>
dock_pv.154

> <s_m_Source_Path>
/home/csk/Desktop/cluster/DUD-E-result/pyrd

> <s_m_Source_File>
dock_pv.maegz

> <i_m_Source_File_Index>
154

> <chembl_id>
CHEMBL2263636

> <chembl_pref_name>
None

> <i_lp_mmshare_version>
53161

> <r_lp_tautomer_probability>
1

> <s_lp_Force_Field>
OPLS_2005

> <r_lp_Energy>
25.413831

> <b_lp_Chiralities_Consistent>
1

> <s_lp_Variant>
CHEMBL1966_lig192-1

> <s_i_glide_gridfile>
glide-grid_1d3g

> <i_i_glide_lignum>
237

> <i_i_glide_rotatable_bonds>
7

> <r_i_docking_score>
-10.0147475393511

> <r_i_glide_ligand_efficiency>
-0.345336122046589

> <r_i_glide_ligand_efficiency_sa>
-1.06098197708996

> <r_i_glide_ligand_efficiency_ln>
-2.29312323442539

> <r_i_glide_gscore>
-10.0147475393511

> <r_i_glide_lipo>
-5.32520899027323

> <r_i_glide_hbond>
-0.0590337676975676

> <r_i_glide_metal>
0

> <r_i_glide_rewards>
-2.37024085404484

> <r_i_glide_evdw>
-45.055290222168

> <r_i_glide_ecoul>
-4.01945734024048

> <r_i_glide_erotb>
0.595419184809023

> <r_i_glide_esite>
0

> <r_i_glide_emodel>
-69.9528845053421

> <r_i_glide_energy>
-49.0747475624084

> <r_i_glide_einternal>
8.11362552642822

> <i_i_glide_confnum>
7

> <i_i_glide_posenum>
198

> <r_i_glide_eff_state_penalty>
0

> <s_user_duplicate_titles>
CHEMBL1966_lig192

> <i_f3d_flags>
0

> <s_m_subgroup_title>
dock_pv

> <s_m_subgroupid>
dock_pv

> <b_m_subgroup_collapsed>
1

$$$$
CHEMBL1966_lig589
                    3D
 Schrodinger Suite 2021-1.
 39 42  0  0  1  0            999 V2000
   47.8875   39.3812   -0.6498 C   0  0  0  0  0  0
   47.3514   38.9884   -1.8693 C   0  0  0  0  0  0
   47.7239   39.6355   -3.0432 C   0  0  0  0  0  0
   48.8235   40.4093   -0.5810 C   0  0  0  0  0  0
   49.2230   41.0880   -1.7558 C   0  0  0  0  0  0
   48.6502   40.7225   -3.0155 C   0  0  0  0  0  0
   49.0217   41.5111   -4.1537 C   0  0  0  0  0  0
   49.9331   42.5549   -3.9801 C   0  0  0  0  0  0
   50.4269   42.8501   -2.7123 C   0  0  0  0  0  0
   50.0812   42.1320   -1.6161 N   0  0  0  0  0  0
   51.3719   43.9768   -2.4900 C   0  0  0  0  0  0
   51.2712   44.8122   -1.3654 C   0  0  0  0  0  0
   52.2132   45.8215   -1.1495 C   0  0  0  0  0  0
   53.2670   46.0076   -2.0517 C   0  0  0  0  0  0
   53.3508   45.1909   -3.1767 C   0  0  0  0  0  0
   52.4226   44.1806   -3.3902 C   0  0  0  0  0  0
   48.4771   41.2741   -5.5308 C   0  0  0  0  0  0
   47.1180   41.2090   -5.6305 O   0  0  0  0  0  0
   49.2234   41.2094   -6.4980 O   0  0  0  0  0  0
   54.3367   47.0095   -1.8267 C   0  0  0  0  0  0
   55.1166   46.9752   -0.6637 C   0  0  0  0  0  0
   56.1950   47.8542   -0.5504 C   0  0  0  0  0  0
   56.5119   48.7675   -1.5002 N   0  0  0  0  0  0
   55.7425   48.8056   -2.6144 C   0  0  0  0  0  0
   54.6570   47.9509   -2.8159 C   0  0  0  0  0  0
   47.5866   38.8717    0.2518 H   0  0  0  0  0  0
   46.6423   38.1741   -1.9041 H   0  0  0  0  0  0
   47.2958   39.3048   -3.9764 H   0  0  0  0  0  0
   49.2418   40.6978    0.3720 H   0  0  0  0  0  0
   50.2264   43.1661   -4.8235 H   0  0  0  0  0  0
   50.4700   44.6759   -0.6531 H   0  0  0  0  0  0
   52.1336   46.4452   -0.2709 H   0  0  0  0  0  0
   54.1686   45.3153   -3.8704 H   0  0  0  0  0  0
   52.5389   43.5355   -4.2487 H   0  0  0  0  0  0
   46.6746   41.4380   -4.8104 H   0  0  0  0  0  0
   54.9222   46.2495    0.1132 H   0  0  0  0  0  0
   56.8541   47.8205    0.3011 H   0  0  0  0  0  0
   56.0224   49.5338   -3.3624 H   0  0  0  0  0  0
   54.0866   48.0047   -3.7325 H   0  0  0  0  0  0
  1  2  2  0  0  0
  1  4  1  0  0  0
  1 26  1  0  0  0
  2  3  1  0  0  0
  2 27  1  0  0  0
  3  6  2  0  0  0
  3 28  1  0  0  0
  4  5  2  0  0  0
  4 29  1  0  0  0
  5  6  1  0  0  0
  5 10  1  0  0  0
  6  7  1  0  0  0
  7  8  2  0  0  0
  7 17  1  0  0  0
  8  9  1  0  0  0
  8 30  1  0  0  0
  9 10  2  0  0  0
  9 11  1  0  0  0
 11 12  2  0  0  0
 11 16  1  0  0  0
 12 13  1  0  0  0
 12 31  1  0  0  0
 13 14  2  0  0  0
 13 32  1  0  0  0
 14 15  1  0  0  0
 14 20  1  0  0  0
 15 16  2  0  0  0
 15 33  1  0  0  0
 16 34  1  0  0  0
 17 18  1  0  0  0
 17 19  2  0  0  0
 18 35  1  0  0  0
 20 21  2  0  0  0
 20 25  1  0  0  0
 21 22  1  0  0  0
 21 36  1  0  0  0
 22 23  2  0  0  0
 22 37  1  0  0  0
 23 24  1  0  0  0
 24 25  2  0  0  0
 24 38  1  0  0  0
 25 39  1  0  0  0
M  END
> <s_m_entry_id>
25503

> <s_m_entry_name>
dock_pv.155

> <s_m_Source_Path>
/home/csk/Desktop/cluster/DUD-E-result/pyrd

> <s_m_Source_File>
dock_pv.maegz

> <i_m_Source_File_Index>
155

> <chembl_id>
CHEMBL4226212

> <chembl_pref_name>
None

> <i_lp_mmshare_version>
53161

> <r_lp_tautomer_probability>
1

> <s_lp_Force_Field>
OPLS_2005

> <r_lp_Energy>
23.16182

> <b_lp_Chiralities_Consistent>
1

> <s_lp_Variant>
CHEMBL1966_lig589-1

> <s_i_glide_gridfile>
glide-grid_1d3g

> <i_i_glide_lignum>
643

> <i_i_glide_rotatable_bonds>
4

> <r_i_docking_score>
-10.0060027472148

> <r_i_glide_ligand_efficiency>
-0.400240109888592

> <r_i_glide_ligand_efficiency_sa>
-1.17030917960282

> <r_i_glide_ligand_efficiency_ln>
-2.37172250679537

> <r_i_glide_gscore>
-10.0060027472148

> <r_i_glide_lipo>
-5.72549126326534

> <r_i_glide_hbond>
-0.16

> <r_i_glide_metal>
0

> <r_i_glide_rewards>
-2.03152875337959

> <r_i_glide_evdw>
-37.7537117004395

> <r_i_glide_ecoul>
-4.8636679649353

> <r_i_glide_erotb>
0.528253049192386

> <r_i_glide_esite>
0

> <r_i_glide_emodel>
-62.3909386840601

> <r_i_glide_energy>
-42.6173796653748

> <r_i_glide_einternal>
5.18425798416138

> <i_i_glide_confnum>
58

> <i_i_glide_posenum>
393

> <r_i_glide_eff_state_penalty>
0

> <s_user_duplicate_titles>
CHEMBL1966_lig589

> <i_f3d_flags>
0

> <s_m_subgroup_title>
dock_pv

> <s_m_subgroupid>
dock_pv

> <b_m_subgroup_collapsed>
1

$$$$
CHEMBL1966_lig462
                    3D
 Schrodinger Suite 2021-1.
 45 48  0  0  1  0            999 V2000
   47.4796   41.6100   -6.0958 O   0  0  0  0  0  0
   48.7157   41.7782   -5.5459 C   0  0  0  0  0  0
   49.6118   42.4112   -6.0989 O   0  0  0  0  0  0
   48.8335   41.2611   -4.1377 C   0  0  0  0  0  0
   48.0142   40.2093   -3.7402 C   0  0  0  0  0  0
   48.0026   39.7811   -2.4227 C   0  0  0  0  0  0
   48.8190   40.4100   -1.4735 C   0  0  0  0  0  0
   49.6734   41.4289   -1.8605 C   0  0  0  0  0  0
   49.6969   41.8449   -3.1886 C   0  0  0  0  0  0
   50.6038   42.8121   -3.5989 N   0  0  0  0  0  0
   51.4437   43.7080   -2.9633 C   0  0  0  0  0  0
   52.6131   44.0104   -3.6345 C   0  0  0  0  0  0
   53.4926   44.9291   -3.1884 N   0  0  0  0  0  0
   53.1607   45.6101   -2.0609 C   0  0  0  0  0  0
   52.0151   45.3896   -1.3371 N   0  0  0  0  0  0
   51.1758   44.4103   -1.7836 C   0  0  0  0  0  0
   54.2505   46.4448   -1.4586 C   0  0  0  0  0  0
   54.2767   46.5545   -0.0574 C   0  0  0  0  0  0
   55.3451   47.1346    0.6048 C   0  0  0  0  0  0
   56.4229   47.6096   -0.1229 C   0  0  0  0  0  0
   56.4048   47.5836   -1.5017 C   0  0  0  0  0  0
   55.3269   47.0273   -2.1939 C   0  0  0  0  0  0
   55.3952   47.1419   -3.7234 C   0  0  0  0  0  0
   54.1994   47.3062   -4.2778 F   0  0  0  0  0  0
   56.1358   48.1880   -4.0983 F   0  0  0  0  0  0
   55.9739   46.0474   -4.2180 F   0  0  0  0  0  0
   47.0407   38.6728   -2.0676 C   0  0  0  0  0  0
   47.2231   37.7664   -0.8861 C   0  0  0  0  0  0
   46.1202   38.8102   -0.8989 C   0  0  0  0  0  0
   47.3022   42.3774   -6.6532 H   0  0  0  0  0  0
   47.3490   39.7334   -4.4481 H   0  0  0  0  0  0
   48.8054   40.0937   -0.4412 H   0  0  0  0  0  0
   50.3324   41.8688   -1.1281 H   0  0  0  0  0  0
   50.6714   42.8436   -4.6096 H   0  0  0  0  0  0
   52.8858   43.4454   -4.5045 H   0  0  0  0  0  0
   50.2577   44.2638   -1.2350 H   0  0  0  0  0  0
   53.4859   46.1406    0.5506 H   0  0  0  0  0  0
   55.3418   47.1917    1.6803 H   0  0  0  0  0  0
   57.2980   48.0100    0.3517 H   0  0  0  0  0  0
   57.2547   47.9964   -2.0269 H   0  0  0  0  0  0
   46.6004   38.1924   -2.9400 H   0  0  0  0  0  0
   48.0586   37.9147   -0.2054 H   0  0  0  0  0  0
   46.9527   36.7145   -0.9649 H   0  0  0  0  0  0
   45.0844   38.4923   -0.9991 H   0  0  0  0  0  0
   46.2190   39.6548   -0.2184 H   0  0  0  0  0  0
  1  2  1  0  0  0
  1 30  1  0  0  0
  2  3  2  0  0  0
  2  4  1  0  0  0
  4  5  2  0  0  0
  4  9  1  0  0  0
  5  6  1  0  0  0
  5 31  1  0  0  0
  6  7  2  0  0  0
  6 27  1  0  0  0
  7  8  1  0  0  0
  7 32  1  0  0  0
  8  9  2  0  0  0
  8 33  1  0  0  0
  9 10  1  0  0  0
 10 11  1  0  0  0
 10 34  1  0  0  0
 11 12  2  0  0  0
 11 16  1  0  0  0
 12 13  1  0  0  0
 12 35  1  0  0  0
 13 14  2  0  0  0
 14 15  1  0  0  0
 14 17  1  0  0  0
 15 16  2  0  0  0
 16 36  1  0  0  0
 17 18  2  0  0  0
 17 22  1  0  0  0
 18 19  1  0  0  0
 18 37  1  0  0  0
 19 20  2  0  0  0
 19 38  1  0  0  0
 20 21  1  0  0  0
 20 39  1  0  0  0
 21 22  2  0  0  0
 21 40  1  0  0  0
 22 23  1  0  0  0
 23 24  1  0  0  0
 23 25  1  0  0  0
 23 26  1  0  0  0
 27 28  1  0  0  0
 27 29  1  0  0  0
 27 41  1  0  0  0
 28 29  1  0  0  0
 28 42  1  0  0  0
 28 43  1  0  0  0
 29 44  1  0  0  0
 29 45  1  0  0  0
M  END
> <s_m_entry_id>
25504

> <s_m_entry_name>
dock_pv.156

> <s_m_Source_Path>
/home/csk/Desktop/cluster/DUD-E-result/pyrd

> <s_m_Source_File>
dock_pv.maegz

> <i_m_Source_File_Index>
156

> <chembl_id>
CHEMBL3674671

> <chembl_pref_name>
None

> <i_lp_mmshare_version>
53161

> <r_lp_tautomer_probability>
1

> <s_lp_Force_Field>
OPLS_2005

> <r_lp_Energy>
34.566728

> <b_lp_Chiralities_Consistent>
1

> <s_lp_Variant>
CHEMBL1966_lig462-1

> <s_i_glide_gridfile>
glide-grid_1d3g

> <i_i_glide_lignum>
512

> <i_i_glide_rotatable_bonds>
7

> <r_i_docking_score>
-10.0047845040566

> <r_i_glide_ligand_efficiency>
-0.3449925691054

> <r_i_glide_ligand_efficiency_sa>
-1.05992647360941

> <r_i_glide_ligand_efficiency_ln>
-2.29084195198373

> <r_i_glide_gscore>
-10.0047845040566

> <r_i_glide_lipo>
-5.19681530892204

> <r_i_glide_hbond>
0

> <r_i_glide_metal>
0

> <r_i_glide_rewards>
-2.7310470693115

> <r_i_glide_evdw>
-40.8721809387207

> <r_i_glide_ecoul>
-4.31709814071655

> <r_i_glide_erotb>
0.614251642220462

> <r_i_glide_esite>
0

> <r_i_glide_emodel>
-55.1704977413139

> <r_i_glide_energy>
-45.1892790794373

> <r_i_glide_einternal>
8.17083930969238

> <i_i_glide_confnum>
92

> <i_i_glide_posenum>
240

> <r_i_glide_eff_state_penalty>
0

> <s_user_duplicate_titles>
CHEMBL1966_lig462

> <i_f3d_flags>
0

> <s_m_subgroup_title>
dock_pv

> <s_m_subgroupid>
dock_pv

> <b_m_subgroup_collapsed>
1

$$$$
CHEMBL1966_lig432
                    3D
 Schrodinger Suite 2021-1.
 46 48  0  0  1  0            999 V2000
   57.1199   49.8216   -2.9095 C   0  0  0  0  0  0
   56.0229   48.9687   -3.2180 O   0  0  0  0  0  0
   55.5211   48.1364   -2.2365 C   0  0  0  0  0  0
   56.0256   48.0644   -0.9287 C   0  0  0  0  0  0
   55.4771   47.1702   -0.0161 C   0  0  0  0  0  0
   54.4339   46.3345   -0.3999 C   0  0  0  0  0  0
   53.8980   46.3832   -1.6944 C   0  0  0  0  0  0
   54.4544   47.3063   -2.5947 C   0  0  0  0  0  0
   52.8430   45.4147   -2.1388 C   0  0  0  0  0  0
   53.1584   44.7618   -3.2970 N   0  0  0  0  0  0
   52.3474   43.7628   -3.7241 C   0  0  0  0  0  0
   51.1714   43.3934   -3.0865 C   0  0  0  0  0  0
   50.3817   42.3788   -3.6528 N   0  0  0  0  0  0
   49.5046   41.4562   -3.0592 C   0  0  0  0  0  0
   49.6230   41.2099   -1.6859 C   0  0  0  0  0  0
   48.7715   40.3287   -1.0360 C   0  0  0  0  0  0
   47.8150   39.6102   -1.7613 C   0  0  0  0  0  0
   47.6974   39.8396   -3.1355 C   0  0  0  0  0  0
   48.5181   40.7652   -3.8050 C   0  0  0  0  0  0
   48.3137   40.9571   -5.2948 C   0  0  0  0  0  0
   49.2228   41.2123   -6.0810 O   0  0  0  0  0  0
   47.0206   40.8103   -5.6989 O   0  0  0  0  0  0
   46.9060   38.6068   -1.0514 C   0  0  0  0  0  0
   46.0249   38.0514   -1.8782 F   0  0  0  0  0  0
   46.2122   39.2189   -0.0996 F   0  0  0  0  0  0
   47.6231   37.6304   -0.5012 F   0  0  0  0  0  0
   50.8253   44.0885   -1.9228 C   0  0  0  0  0  0
   51.6566   45.1057   -1.4286 C   0  0  0  0  0  0
   51.2250   45.8141   -0.1606 C   0  0  0  0  0  0
   57.3645   50.4178   -3.7886 H   0  0  0  0  0  0
   56.8755   50.5102   -2.0992 H   0  0  0  0  0  0
   58.0078   49.2503   -2.6354 H   0  0  0  0  0  0
   56.8515   48.6823   -0.6067 H   0  0  0  0  0  0
   55.8764   47.1076    0.9851 H   0  0  0  0  0  0
   54.0844   45.6100    0.3177 H   0  0  0  0  0  0
   54.0777   47.3576   -3.6060 H   0  0  0  0  0  0
   52.6690   43.2313   -4.6076 H   0  0  0  0  0  0
   50.5430   42.2042   -4.6348 H   0  0  0  0  0  0
   50.3932   41.6837   -1.0991 H   0  0  0  0  0  0
   48.8868   40.1576    0.0250 H   0  0  0  0  0  0
   46.9629   39.2693   -3.6873 H   0  0  0  0  0  0
   46.4327   40.8190   -4.9405 H   0  0  0  0  0  0
   49.9006   43.8620   -1.4137 H   0  0  0  0  0  0
   52.0287   45.9567    0.5531 H   0  0  0  0  0  0
   50.8256   46.7963   -0.4121 H   0  0  0  0  0  0
   50.4791   45.2100    0.3605 H   0  0  0  0  0  0
  1  2  1  0  0  0
  1 30  1  0  0  0
  1 31  1  0  0  0
  1 32  1  0  0  0
  2  3  1  0  0  0
  3  4  2  0  0  0
  3  8  1  0  0  0
  4  5  1  0  0  0
  4 33  1  0  0  0
  5  6  2  0  0  0
  5 34  1  0  0  0
  6  7  1  0  0  0
  6 35  1  0  0  0
  7  8  2  0  0  0
  7  9  1  0  0  0
  8 36  1  0  0  0
  9 10  2  0  0  0
  9 28  1  0  0  0
 10 11  1  0  0  0
 11 12  2  0  0  0
 11 37  1  0  0  0
 12 13  1  0  0  0
 12 27  1  0  0  0
 13 14  1  0  0  0
 13 38  1  0  0  0
 14 15  2  0  0  0
 14 19  1  0  0  0
 15 16  1  0  0  0
 15 39  1  0  0  0
 16 17  2  0  0  0
 16 40  1  0  0  0
 17 18  1  0  0  0
 17 23  1  0  0  0
 18 19  2  0  0  0
 18 41  1  0  0  0
 19 20  1  0  0  0
 20 21  2  0  0  0
 20 22  1  0  0  0
 22 42  1  0  0  0
 23 24  1  0  0  0
 23 25  1  0  0  0
 23 26  1  0  0  0
 27 28  2  0  0  0
 27 43  1  0  0  0
 28 29  1  0  0  0
 29 44  1  0  0  0
 29 45  1  0  0  0
 29 46  1  0  0  0
M  END
> <s_m_entry_id>
25505

> <s_m_entry_name>
dock_pv.157

> <s_m_Source_Path>
/home/csk/Desktop/cluster/DUD-E-result/pyrd

> <s_m_Source_File>
dock_pv.maegz

> <i_m_Source_File_Index>
157

> <chembl_id>
CHEMBL3674642

> <chembl_pref_name>
None

> <i_lp_mmshare_version>
53161

> <r_lp_tautomer_probability>
0.999999999999999

> <s_lp_Force_Field>
OPLS_2005

> <r_lp_Energy>
33.177329

> <b_lp_Chiralities_Consistent>
1

> <s_lp_Variant>
CHEMBL1966_lig432-1

> <s_i_glide_gridfile>
glide-grid_1d3g

> <i_i_glide_lignum>
482

> <i_i_glide_rotatable_bonds>
7

> <r_i_docking_score>
-9.98985734323391

> <r_i_glide_ligand_efficiency>
-0.344477839421859

> <r_i_glide_ligand_efficiency_sa>
-1.05834506094376

> <r_i_glide_ligand_efficiency_ln>
-2.28742401067547

> <r_i_glide_gscore>
-9.98985734323391

> <r_i_glide_lipo>
-5.72095321940423

> <r_i_glide_hbond>
-0.114861530575805

> <r_i_glide_metal>
0

> <r_i_glide_rewards>
-1.98963922695098

> <r_i_glide_evdw>
-44.8624839782715

> <r_i_glide_ecoul>
-2.707350730896

> <r_i_glide_erotb>
0.484823442245083

> <r_i_glide_esite>
0

> <r_i_glide_emodel>
-67.5890224523123

> <r_i_glide_energy>
-47.5698347091675

> <r_i_glide_einternal>
14.4880037307739

> <i_i_glide_confnum>
1

> <i_i_glide_posenum>
257

> <r_i_glide_eff_state_penalty>
0

> <s_user_duplicate_titles>
CHEMBL1966_lig432

> <i_f3d_flags>
0

> <s_m_subgroup_title>
dock_pv

> <s_m_subgroupid>
dock_pv

> <b_m_subgroup_collapsed>
1

$$$$
CHEMBL1966_lig177
                    3D
 Schrodinger Suite 2021-1.
 40 42  0  0  1  0            999 V2000
   57.2225   49.8663   -2.3679 C   0  0  0  0  0  0
   56.0946   49.0796   -2.7385 O   0  0  0  0  0  0
   55.5583   48.2010   -1.8184 C   0  0  0  0  0  0
   56.0559   48.0101   -0.5215 C   0  0  0  0  0  0
   55.4412   47.1116    0.3450 C   0  0  0  0  0  0
   54.3442   46.3708   -0.0808 C   0  0  0  0  0  0
   53.8603   46.4987   -1.3868 C   0  0  0  0  0  0
   54.4593   47.4450   -2.2308 C   0  0  0  0  0  0
   52.8169   45.5665   -1.8989 C   0  0  0  0  0  0
   53.0709   44.8249   -3.0604 C   0  0  0  0  0  0
   54.2523   44.9776   -3.6960 F   0  0  0  0  0  0
   52.1549   43.8843   -3.5365 C   0  0  0  0  0  0
   52.4230   43.2088   -4.6790 F   0  0  0  0  0  0
   50.9854   43.6083   -2.8263 C   0  0  0  0  0  0
   50.1169   42.6424   -3.3712 N   0  0  0  0  0  0
   49.4257   41.5635   -2.7956 C   0  0  0  0  0  0
   49.6230   41.3460   -1.4667 N   0  0  0  0  0  0
   48.8716   40.4099   -0.8369 C   0  0  0  0  0  0
   47.9551   39.6085   -1.5083 C   0  0  0  0  0  0
   47.7989   39.7828   -2.8819 C   0  0  0  0  0  0
   48.5233   40.7787   -3.5572 C   0  0  0  0  0  0
   48.3115   40.9607   -5.0438 C   0  0  0  0  0  0
   49.2200   41.2375   -5.8191 O   0  0  0  0  0  0
   47.0184   40.8090   -5.4541 O   0  0  0  0  0  0
   50.7272   44.3318   -1.6450 C   0  0  0  0  0  0
   49.6074   44.1119   -0.9165 F   0  0  0  0  0  0
   51.6232   45.3129   -1.2031 C   0  0  0  0  0  0
   51.3410   46.0011   -0.0719 F   0  0  0  0  0  0
   57.5264   50.4806   -3.2150 H   0  0  0  0  0  0
   56.9864   50.5363   -1.5402 H   0  0  0  0  0  0
   58.0749   49.2440   -2.0903 H   0  0  0  0  0  0
   56.9210   48.5502   -0.1684 H   0  0  0  0  0  0
   55.8272   46.9768    1.3446 H   0  0  0  0  0  0
   53.9078   45.6501    0.5958 H   0  0  0  0  0  0
   54.0984   47.5670   -3.2420 H   0  0  0  0  0  0
   50.0396   42.6704   -4.3799 H   0  0  0  0  0  0
   49.0447   40.2827    0.2223 H   0  0  0  0  0  0
   47.3950   38.8528   -0.9781 H   0  0  0  0  0  0
   47.1103   39.1353   -3.4061 H   0  0  0  0  0  0
   46.4072   40.7630   -4.7156 H   0  0  0  0  0  0
  1  2  1  0  0  0
  1 29  1  0  0  0
  1 30  1  0  0  0
  1 31  1  0  0  0
  2  3  1  0  0  0
  3  4  2  0  0  0
  3  8  1  0  0  0
  4  5  1  0  0  0
  4 32  1  0  0  0
  5  6  2  0  0  0
  5 33  1  0  0  0
  6  7  1  0  0  0
  6 34  1  0  0  0
  7  8  2  0  0  0
  7  9  1  0  0  0
  8 35  1  0  0  0
  9 10  2  0  0  0
  9 27  1  0  0  0
 10 11  1  0  0  0
 10 12  1  0  0  0
 12 13  1  0  0  0
 12 14  2  0  0  0
 14 15  1  0  0  0
 14 25  1  0  0  0
 15 16  1  0  0  0
 15 36  1  0  0  0
 16 17  2  0  0  0
 16 21  1  0  0  0
 17 18  1  0  0  0
 18 19  2  0  0  0
 18 37  1  0  0  0
 19 20  1  0  0  0
 19 38  1  0  0  0
 20 21  2  0  0  0
 20 39  1  0  0  0
 21 22  1  0  0  0
 22 23  2  0  0  0
 22 24  1  0  0  0
 24 40  1  0  0  0
 25 26  1  0  0  0
 25 27  2  0  0  0
 27 28  1  0  0  0
M  END
> <s_m_entry_id>
25506

> <s_m_entry_name>
dock_pv.158

> <s_m_Source_Path>
/home/csk/Desktop/cluster/DUD-E-result/pyrd

> <s_m_Source_File>
dock_pv.maegz

> <i_m_Source_File_Index>
158

> <chembl_id>
CHEMBL2263625

> <chembl_pref_name>
None

> <i_lp_mmshare_version>
53161

> <r_lp_tautomer_probability>
1

> <s_lp_Force_Field>
OPLS_2005

> <r_lp_Energy>
33.842941

> <b_lp_Chiralities_Consistent>
1

> <s_lp_Variant>
CHEMBL1966_lig177-1

> <s_i_glide_gridfile>
glide-grid_1d3g

> <i_i_glide_lignum>
222

> <i_i_glide_rotatable_bonds>
6

> <r_i_docking_score>
-9.98969146547288

> <r_i_glide_ligand_efficiency>
-0.35677469519546

> <r_i_glide_ligand_efficiency_sa>
-1.08337810367149

> <r_i_glide_ligand_efficiency_ln>
-2.30591410031769

> <r_i_glide_gscore>
-9.98969146547288

> <r_i_glide_lipo>
-5.13084722081189

> <r_i_glide_hbond>
-0.0250767551975967

> <r_i_glide_metal>
0

> <r_i_glide_rewards>
-2.63960211543486

> <r_i_glide_evdw>
-42.3879089355469

> <r_i_glide_ecoul>
-3.88128805160522

> <r_i_glide_erotb>
0.507423280489603

> <r_i_glide_esite>
0

> <r_i_glide_emodel>
-63.721418526491

> <r_i_glide_energy>
-46.2691969871521

> <r_i_glide_einternal>
9.44257545471191

> <i_i_glide_confnum>
57

> <i_i_glide_posenum>
80

> <r_i_glide_eff_state_penalty>
0

> <s_user_duplicate_titles>
CHEMBL1966_lig177

> <i_f3d_flags>
0

> <s_m_subgroup_title>
dock_pv

> <s_m_subgroupid>
dock_pv

> <b_m_subgroup_collapsed>
1

$$$$
CHEMBL1966_lig190
                    3D
 Schrodinger Suite 2021-1.
 43 45  0  0  1  0            999 V2000
   57.2569   49.8058   -2.5050 C   0  0  0  0  0  0
   56.1798   48.9522   -2.8775 O   0  0  0  0  0  0
   55.6164   48.1286   -1.9234 C   0  0  0  0  0  0
   56.0730   48.0137   -0.6028 C   0  0  0  0  0  0
   55.4188   47.1808    0.3010 C   0  0  0  0  0  0
   54.3196   46.4317   -0.1073 C   0  0  0  0  0  0
   53.8753   46.4881   -1.4327 C   0  0  0  0  0  0
   54.5248   47.3564   -2.3217 C   0  0  0  0  0  0
   52.8110   45.5697   -1.9093 C   0  0  0  0  0  0
   51.6572   45.2913   -1.1578 C   0  0  0  0  0  0
   50.7401   44.3179   -1.5728 C   0  0  0  0  0  0
   49.6508   44.0888   -0.8019 F   0  0  0  0  0  0
   50.9567   43.6100   -2.7706 C   0  0  0  0  0  0
   50.0818   42.6501   -3.3136 N   0  0  0  0  0  0
   49.4153   41.5576   -2.7458 C   0  0  0  0  0  0
   49.6230   41.3384   -1.4199 N   0  0  0  0  0  0
   48.8674   40.4100   -0.7899 C   0  0  0  0  0  0
   47.9460   39.6099   -1.4616 C   0  0  0  0  0  0
   47.1661   38.5423   -0.7217 C   0  0  0  0  0  0
   47.7956   39.7766   -2.8378 C   0  0  0  0  0  0
   48.5188   40.7712   -3.5110 C   0  0  0  0  0  0
   48.3095   40.9490   -4.9984 C   0  0  0  0  0  0
   49.2230   41.2106   -5.7755 O   0  0  0  0  0  0
   47.0140   40.8100   -5.4068 O   0  0  0  0  0  0
   52.0973   43.8984   -3.5150 C   0  0  0  0  0  0
   52.3510   43.2100   -4.6407 F   0  0  0  0  0  0
   53.0054   44.8652   -3.1004 C   0  0  0  0  0  0
   57.5504   50.4099   -3.3634 H   0  0  0  0  0  0
   56.9686   50.4897   -1.7049 H   0  0  0  0  0  0
   58.1305   49.2335   -2.1885 H   0  0  0  0  0  0
   56.9332   48.5682   -0.2599 H   0  0  0  0  0  0
   55.7726   47.1071    1.3187 H   0  0  0  0  0  0
   53.8478   45.7674    0.6023 H   0  0  0  0  0  0
   54.1917   47.4254   -3.3474 H   0  0  0  0  0  0
   51.4782   45.8141   -0.2294 H   0  0  0  0  0  0
   49.9910   42.6917   -4.3206 H   0  0  0  0  0  0
   49.0441   40.2839    0.2689 H   0  0  0  0  0  0
   46.4231   39.0046   -0.0725 H   0  0  0  0  0  0
   46.6652   37.8516   -1.4008 H   0  0  0  0  0  0
   47.8389   37.9524   -0.0990 H   0  0  0  0  0  0
   47.1125   39.1301   -3.3709 H   0  0  0  0  0  0
   46.4044   40.7689   -4.6666 H   0  0  0  0  0  0
   53.8912   45.0311   -3.6963 H   0  0  0  0  0  0
  1  2  1  0  0  0
  1 28  1  0  0  0
  1 29  1  0  0  0
  1 30  1  0  0  0
  2  3  1  0  0  0
  3  4  2  0  0  0
  3  8  1  0  0  0
  4  5  1  0  0  0
  4 31  1  0  0  0
  5  6  2  0  0  0
  5 32  1  0  0  0
  6  7  1  0  0  0
  6 33  1  0  0  0
  7  8  2  0  0  0
  7  9  1  0  0  0
  8 34  1  0  0  0
  9 10  2  0  0  0
  9 27  1  0  0  0
 10 11  1  0  0  0
 10 35  1  0  0  0
 11 12  1  0  0  0
 11 13  2  0  0  0
 13 14  1  0  0  0
 13 25  1  0  0  0
 14 15  1  0  0  0
 14 36  1  0  0  0
 15 16  2  0  0  0
 15 21  1  0  0  0
 16 17  1  0  0  0
 17 18  2  0  0  0
 17 37  1  0  0  0
 18 19  1  0  0  0
 18 20  1  0  0  0
 19 38  1  0  0  0
 19 39  1  0  0  0
 19 40  1  0  0  0
 20 21  2  0  0  0
 20 41  1  0  0  0
 21 22  1  0  0  0
 22 23  2  0  0  0
 22 24  1  0  0  0
 24 42  1  0  0  0
 25 26  1  0  0  0
 25 27  2  0  0  0
 27 43  1  0  0  0
M  END
> <s_m_entry_id>
25507

> <s_m_entry_name>
dock_pv.159

> <s_m_Source_Path>
/home/csk/Desktop/cluster/DUD-E-result/pyrd

> <s_m_Source_File>
dock_pv.maegz

> <i_m_Source_File_Index>
159

> <chembl_id>
CHEMBL2263638

> <chembl_pref_name>
None

> <i_lp_mmshare_version>
53161

> <r_lp_tautomer_probability>
1

> <s_lp_Force_Field>
OPLS_2005

> <r_lp_Energy>
29.21178

> <b_lp_Chiralities_Consistent>
1

> <s_lp_Variant>
CHEMBL1966_lig190-1

> <s_i_glide_gridfile>
glide-grid_1d3g

> <i_i_glide_lignum>
235

> <i_i_glide_rotatable_bonds>
6

> <r_i_docking_score>
-9.9863262140625

> <r_i_glide_ligand_efficiency>
-0.369863933854166

> <r_i_glide_ligand_efficiency_sa>
-1.10959180034349

> <r_i_glide_ligand_efficiency_ln>
-2.32465210517899

> <r_i_glide_gscore>
-9.9863262140625

> <r_i_glide_lipo>
-5.37443954435883

> <r_i_glide_hbond>
-0.0157387439793084

> <r_i_glide_metal>
0

> <r_i_glide_rewards>
-2.42374111961973

> <r_i_glide_evdw>
-42.9717788696289

> <r_i_glide_ecoul>
-3.90940070152283

> <r_i_glide_erotb>
0.562592242605238

> <r_i_glide_esite>
0

> <r_i_glide_emodel>
-64.1553826503324

> <r_i_glide_energy>
-46.8811795711517

> <r_i_glide_einternal>
10.624174118042

> <i_i_glide_confnum>
50

> <i_i_glide_posenum>
245

> <r_i_glide_eff_state_penalty>
0

> <s_user_duplicate_titles>
CHEMBL1966_lig190

> <i_f3d_flags>
0

> <s_m_subgroup_title>
dock_pv

> <s_m_subgroupid>
dock_pv

> <b_m_subgroup_collapsed>
1

$$$$
CHEMBL1966_lig569
                    3D
 Schrodinger Suite 2021-1.
 35 38  0  0  1  0            999 V2000
   47.0356   38.7369   -0.5911 O   0  0  0  0  0  0
   48.0226   39.6099   -0.9272 C   0  0  0  0  0  0
   48.8231   40.0111   -0.0984 O   0  0  0  0  0  0
   48.0698   40.0774   -2.3611 C   0  0  0  0  0  0
   47.1407   39.6060   -3.2987 C   0  0  0  0  0  0
   47.1043   40.0771   -4.6095 C   0  0  0  0  0  0
   48.0102   41.0240   -5.0918 C   0  0  0  0  0  0
   48.9015   41.5437   -4.1568 C   0  0  0  0  0  0
   49.8075   42.5755   -4.1952 N   0  0  0  0  0  0
   50.3062   42.7314   -2.9229 C   0  0  0  0  0  0
   49.8638   41.8244   -2.0969 N   0  0  0  0  0  0
   48.9521   41.0866   -2.8133 C   0  0  0  0  0  0
   51.2378   43.8217   -2.5314 C   0  0  0  0  0  0
   51.0272   44.6430   -1.4089 C   0  0  0  0  0  0
   49.9280   44.4730   -0.6359 F   0  0  0  0  0  0
   51.9498   45.6493   -1.0846 C   0  0  0  0  0  0
   51.7372   46.4309    0.0008 F   0  0  0  0  0  0
   53.0995   45.8288   -1.8668 C   0  0  0  0  0  0
   53.3091   45.0034   -2.9744 C   0  0  0  0  0  0
   54.4457   45.1234   -3.6990 F   0  0  0  0  0  0
   52.3885   44.0101   -3.3076 C   0  0  0  0  0  0
   52.6363   43.2100   -4.3732 F   0  0  0  0  0  0
   54.1766   46.8058   -1.5493 C   0  0  0  0  0  0
   54.9700   46.7646   -0.3933 C   0  0  0  0  0  0
   56.0275   47.6618   -0.4289 C   0  0  0  0  0  0
   56.0187   48.6445   -1.8516 S   0  0  0  0  0  0
   54.6045   47.8147   -2.4135 C   0  0  0  0  0  0
   47.1127   38.5652    0.3562 H   0  0  0  0  0  0
   46.4055   38.8677   -3.0085 H   0  0  0  0  0  0
   46.3383   39.6958   -5.2693 H   0  0  0  0  0  0
   47.9513   41.4128   -6.0966 H   0  0  0  0  0  0
   50.0362   43.1933   -4.9605 H   0  0  0  0  0  0
   54.8165   46.0597    0.4114 H   0  0  0  0  0  0
   56.8116   47.7908    0.3011 H   0  0  0  0  0  0
   54.1880   48.0638   -3.3788 H   0  0  0  0  0  0
  1  2  1  0  0  0
  1 28  1  0  0  0
  2  3  2  0  0  0
  2  4  1  0  0  0
  4  5  2  0  0  0
  4 12  1  0  0  0
  5  6  1  0  0  0
  5 29  1  0  0  0
  6  7  2  0  0  0
  6 30  1  0  0  0
  7  8  1  0  0  0
  7 31  1  0  0  0
  8  9  1  0  0  0
  8 12  2  0  0  0
  9 10  1  0  0  0
  9 32  1  0  0  0
 10 11  2  0  0  0
 10 13  1  0  0  0
 11 12  1  0  0  0
 13 14  2  0  0  0
 13 21  1  0  0  0
 14 15  1  0  0  0
 14 16  1  0  0  0
 16 17  1  0  0  0
 16 18  2  0  0  0
 18 19  1  0  0  0
 18 23  1  0  0  0
 19 20  1  0  0  0
 19 21  2  0  0  0
 21 22  1  0  0  0
 23 24  1  0  0  0
 23 27  2  0  0  0
 24 25  2  0  0  0
 24 33  1  0  0  0
 25 26  1  0  0  0
 25 34  1  0  0  0
 26 27  1  0  0  0
 27 35  1  0  0  0
M  END
> <s_m_entry_id>
25508

> <s_m_entry_name>
dock_pv.160

> <s_m_Source_Path>
/home/csk/Desktop/cluster/DUD-E-result/pyrd

> <s_m_Source_File>
dock_pv.maegz

> <i_m_Source_File_Index>
160

> <chembl_id>
CHEMBL3677828

> <chembl_pref_name>
None

> <i_lp_mmshare_version>
53161

> <r_lp_tautomer_probability>
1

> <s_lp_Force_Field>
OPLS_2005

> <r_lp_Energy>
26.492671

> <b_lp_Chiralities_Consistent>
1

> <s_lp_Variant>
CHEMBL1966_lig569-1

> <s_i_glide_gridfile>
glide-grid_1d3g

> <i_i_glide_lignum>
623

> <i_i_glide_rotatable_bonds>
4

> <r_i_docking_score>
-9.98305850010454

> <r_i_glide_ligand_efficiency>
-0.369742907411279

> <r_i_glide_ligand_efficiency_sa>
-1.10922872101523

> <r_i_glide_ligand_efficiency_ln>
-2.32389143524206

> <r_i_glide_gscore>
-9.98305850010454

> <r_i_glide_lipo>
-4.78757378068339

> <r_i_glide_hbond>
0

> <r_i_glide_metal>
0

> <r_i_glide_rewards>
-3.03166640641505

> <r_i_glide_evdw>
-40.5713920593262

> <r_i_glide_ecoul>
-3.43849396705627

> <r_i_glide_erotb>
0.380525385018638

> <r_i_glide_esite>
0

> <r_i_glide_emodel>
-61.0710124856468

> <r_i_glide_energy>
-44.0098860263824

> <r_i_glide_einternal>
3.75802278518677

> <i_i_glide_confnum>
24

> <i_i_glide_posenum>
140

> <r_i_glide_eff_state_penalty>
0

> <s_user_duplicate_titles>
CHEMBL1966_lig569

> <i_f3d_flags>
0

> <s_m_subgroup_title>
dock_pv

> <s_m_subgroupid>
dock_pv

> <b_m_subgroup_collapsed>
1

$$$$
CHEMBL1966_lig492
                    3D
 Schrodinger Suite 2021-1.
 38 41  0  0  1  0            999 V2000
   47.1423   38.5910   -1.0261 O   0  0  0  0  0  0
   48.0203   39.6093   -1.2365 C   0  0  0  0  0  0
   48.7494   40.0274   -0.3423 O   0  0  0  0  0  0
   48.0537   40.1642   -2.6414 C   0  0  0  0  0  0
   47.0510   39.8186   -3.5616 C   0  0  0  0  0  0
   46.9629   40.4034   -4.8256 C   0  0  0  0  0  0
   45.6212   40.0103   -5.8120 Cl  0  0  0  0  0  0
   47.9020   41.3097   -5.2990 C   0  0  0  0  0  0
   48.8834   41.6858   -4.3917 C   0  0  0  0  0  0
   49.8468   42.6565   -4.4274 N   0  0  0  0  0  0
   50.4086   42.7024   -3.1768 C   0  0  0  0  0  0
   49.9708   41.7690   -2.3776 N   0  0  0  0  0  0
   48.9762   41.1397   -3.0797 C   0  0  0  0  0  0
   51.3542   43.7571   -2.7789 C   0  0  0  0  0  0
   52.4308   44.0144   -3.6222 C   0  0  0  0  0  0
   53.3470   45.0173   -3.2979 C   0  0  0  0  0  0
   53.2203   45.7571   -2.1190 C   0  0  0  0  0  0
   52.1166   45.5164   -1.2937 C   0  0  0  0  0  0
   51.1936   44.5165   -1.6103 C   0  0  0  0  0  0
   50.1487   44.2982   -0.7779 F   0  0  0  0  0  0
   54.2842   46.7134   -1.7258 C   0  0  0  0  0  0
   54.7756   47.6580   -2.6347 C   0  0  0  0  0  0
   55.8270   48.4987   -2.2759 C   0  0  0  0  0  0
   56.3985   48.3853   -1.0113 C   0  0  0  0  0  0
   55.9193   47.4476   -0.1010 C   0  0  0  0  0  0
   54.8543   46.6270   -0.4513 C   0  0  0  0  0  0
   47.2231   38.3131   -0.1119 H   0  0  0  0  0  0
   46.2764   39.1193   -3.2780 H   0  0  0  0  0  0
   47.7905   41.8001   -6.2507 H   0  0  0  0  0  0
   50.0502   43.3258   -5.1549 H   0  0  0  0  0  0
   52.5790   43.4216   -4.5111 H   0  0  0  0  0  0
   54.1951   45.2012   -3.9402 H   0  0  0  0  0  0
   51.9870   46.0786   -0.3805 H   0  0  0  0  0  0
   54.3459   47.7382   -3.6235 H   0  0  0  0  0  0
   56.2046   49.2284   -2.9770 H   0  0  0  0  0  0
   57.2229   49.0263   -0.7339 H   0  0  0  0  0  0
   56.3743   47.3480    0.8730 H   0  0  0  0  0  0
   54.5008   45.8925    0.2583 H   0  0  0  0  0  0
  1  2  1  0  0  0
  1 27  1  0  0  0
  2  3  2  0  0  0
  2  4  1  0  0  0
  4  5  2  0  0  0
  4 13  1  0  0  0
  5  6  1  0  0  0
  5 28  1  0  0  0
  6  7  1  0  0  0
  6  8  2  0  0  0
  8  9  1  0  0  0
  8 29  1  0  0  0
  9 10  1  0  0  0
  9 13  2  0  0  0
 10 11  1  0  0  0
 10 30  1  0  0  0
 11 12  2  0  0  0
 11 14  1  0  0  0
 12 13  1  0  0  0
 14 15  2  0  0  0
 14 19  1  0  0  0
 15 16  1  0  0  0
 15 31  1  0  0  0
 16 17  2  0  0  0
 16 32  1  0  0  0
 17 18  1  0  0  0
 17 21  1  0  0  0
 18 19  2  0  0  0
 18 33  1  0  0  0
 19 20  1  0  0  0
 21 22  2  0  0  0
 21 26  1  0  0  0
 22 23  1  0  0  0
 22 34  1  0  0  0
 23 24  2  0  0  0
 23 35  1  0  0  0
 24 25  1  0  0  0
 24 36  1  0  0  0
 25 26  2  0  0  0
 25 37  1  0  0  0
 26 38  1  0  0  0
M  END
> <s_m_entry_id>
25509

> <s_m_entry_name>
dock_pv.161

> <s_m_Source_Path>
/home/csk/Desktop/cluster/DUD-E-result/pyrd

> <s_m_Source_File>
dock_pv.maegz

> <i_m_Source_File_Index>
161

> <chembl_id>
CHEMBL3677749

> <chembl_pref_name>
None

> <i_lp_mmshare_version>
53161

> <r_lp_tautomer_probability>
1

> <s_lp_Force_Field>
OPLS_2005

> <r_lp_Energy>
23.868366

> <b_lp_Chiralities_Consistent>
1

> <s_lp_Variant>
CHEMBL1966_lig492-1

> <s_i_glide_gridfile>
glide-grid_1d3g

> <i_i_glide_lignum>
542

> <i_i_glide_rotatable_bonds>
4

> <r_i_docking_score>
-9.98180964983096

> <r_i_glide_ligand_efficiency>
-0.383915755762729

> <r_i_glide_ligand_efficiency_sa>
-1.13734891581153

> <r_i_glide_ligand_efficiency_ln>
-2.34419524327389

> <r_i_glide_gscore>
-9.98180964983096

> <r_i_glide_lipo>
-4.90925294362832

> <r_i_glide_hbond>
0

> <r_i_glide_metal>
0

> <r_i_glide_rewards>
-2.97061992332885

> <r_i_glide_evdw>
-42.2368545532227

> <r_i_glide_ecoul>
-2.79612016677856

> <r_i_glide_erotb>
0.429323969804122

> <r_i_glide_esite>
0

> <r_i_glide_emodel>
-66.7054737636313

> <r_i_glide_energy>
-45.0329747200012

> <r_i_glide_einternal>
2.29142713546753

> <i_i_glide_confnum>
8

> <i_i_glide_posenum>
251

> <r_i_glide_eff_state_penalty>
0

> <s_user_duplicate_titles>
CHEMBL1966_lig492

> <i_f3d_flags>
0

> <s_m_subgroup_title>
dock_pv

> <s_m_subgroupid>
dock_pv

> <b_m_subgroup_collapsed>
1

$$$$
CHEMBL1966_lig186
                    3D
 Schrodinger Suite 2021-1.
 40 42  0  0  1  0            999 V2000
   57.2733   49.8319   -2.3523 C   0  0  0  0  0  0
   56.1527   49.0369   -2.7266 O   0  0  0  0  0  0
   55.5917   48.1756   -1.8012 C   0  0  0  0  0  0
   56.0805   48.0022   -0.4990 C   0  0  0  0  0  0
   55.4470   47.1333    0.3828 C   0  0  0  0  0  0
   54.3328   46.4101   -0.0260 C   0  0  0  0  0  0
   53.8482   46.5217   -1.3334 C   0  0  0  0  0  0
   54.4784   47.4281   -2.2061 C   0  0  0  0  0  0
   54.0230   47.5749   -3.4723 F   0  0  0  0  0  0
   52.7674   45.6064   -1.7939 C   0  0  0  0  0  0
   51.6226   45.3368   -1.0268 C   0  0  0  0  0  0
   50.7054   44.3475   -1.4110 C   0  0  0  0  0  0
   49.6263   44.1288   -0.6220 F   0  0  0  0  0  0
   50.9118   43.6102   -2.5954 C   0  0  0  0  0  0
   50.0420   42.6215   -3.0962 N   0  0  0  0  0  0
   49.4078   41.5263   -2.4934 C   0  0  0  0  0  0
   49.6230   41.3586   -1.1616 N   0  0  0  0  0  0
   48.9278   40.4100   -0.4990 C   0  0  0  0  0  0
   48.0227   39.5670   -1.1312 C   0  0  0  0  0  0
   47.8591   39.6781   -2.5114 C   0  0  0  0  0  0
   48.5411   40.6787   -3.2282 C   0  0  0  0  0  0
   48.3275   40.8099   -4.7235 C   0  0  0  0  0  0
   49.1886   41.2381   -5.4889 O   0  0  0  0  0  0
   47.0868   40.4348   -5.1518 O   0  0  0  0  0  0
   52.0364   43.9021   -3.3674 C   0  0  0  0  0  0
   52.2793   43.2100   -4.4990 F   0  0  0  0  0  0
   52.9462   44.8792   -2.9743 C   0  0  0  0  0  0
   57.5725   50.4510   -3.1977 H   0  0  0  0  0  0
   57.0319   50.4989   -1.5236 H   0  0  0  0  0  0
   58.1301   49.2151   -2.0769 H   0  0  0  0  0  0
   56.9553   48.5319   -0.1529 H   0  0  0  0  0  0
   55.8291   47.0113    1.3857 H   0  0  0  0  0  0
   53.8798   45.7171    0.6688 H   0  0  0  0  0  0
   51.4529   45.8749   -0.1056 H   0  0  0  0  0  0
   49.9392   42.6284   -4.1036 H   0  0  0  0  0  0
   49.1430   40.3068    0.5548 H   0  0  0  0  0  0
   47.5011   38.8048   -0.5701 H   0  0  0  0  0  0
   47.1993   38.9790   -3.0057 H   0  0  0  0  0  0
   46.4854   40.2800   -4.4214 H   0  0  0  0  0  0
   53.8237   45.0391   -3.5842 H   0  0  0  0  0  0
  1  2  1  0  0  0
  1 28  1  0  0  0
  1 29  1  0  0  0
  1 30  1  0  0  0
  2  3  1  0  0  0
  3  4  2  0  0  0
  3  8  1  0  0  0
  4  5  1  0  0  0
  4 31  1  0  0  0
  5  6  2  0  0  0
  5 32  1  0  0  0
  6  7  1  0  0  0
  6 33  1  0  0  0
  7  8  2  0  0  0
  7 10  1  0  0  0
  8  9  1  0  0  0
 10 11  2  0  0  0
 10 27  1  0  0  0
 11 12  1  0  0  0
 11 34  1  0  0  0
 12 13  1  0  0  0
 12 14  2  0  0  0
 14 15  1  0  0  0
 14 25  1  0  0  0
 15 16  1  0  0  0
 15 35  1  0  0  0
 16 17  2  0  0  0
 16 21  1  0  0  0
 17 18  1  0  0  0
 18 19  2  0  0  0
 18 36  1  0  0  0
 19 20  1  0  0  0
 19 37  1  0  0  0
 20 21  2  0  0  0
 20 38  1  0  0  0
 21 22  1  0  0  0
 22 23  2  0  0  0
 22 24  1  0  0  0
 24 39  1  0  0  0
 25 26  1  0  0  0
 25 27  2  0  0  0
 27 40  1  0  0  0
M  END
> <s_m_entry_id>
25510

> <s_m_entry_name>
dock_pv.162

> <s_m_Source_Path>
/home/csk/Desktop/cluster/DUD-E-result/pyrd

> <s_m_Source_File>
dock_pv.maegz

> <i_m_Source_File_Index>
162

> <chembl_id>
CHEMBL2263642

> <chembl_pref_name>
None

> <i_lp_mmshare_version>
53161

> <r_lp_tautomer_probability>
1

> <s_lp_Force_Field>
OPLS_2005

> <r_lp_Energy>
33.286508

> <b_lp_Chiralities_Consistent>
1

> <s_lp_Variant>
CHEMBL1966_lig186-1

> <s_i_glide_gridfile>
glide-grid_1d3g

> <i_i_glide_lignum>
231

> <i_i_glide_rotatable_bonds>
6

> <r_i_docking_score>
-9.98154879536592

> <r_i_glide_ligand_efficiency>
-0.36968699242096

> <r_i_glide_ligand_efficiency_sa>
-1.10906097604445

> <r_i_glide_ligand_efficiency_ln>
-2.32354000086834

> <r_i_glide_gscore>
-9.98154879536592

> <r_i_glide_lipo>
-5.21310312685011

> <r_i_glide_hbond>
0

> <r_i_glide_metal>
0

> <r_i_glide_rewards>
-2.72212374742389

> <r_i_glide_evdw>
-42.3565826416016

> <r_i_glide_ecoul>
-3.20316982269287

> <r_i_glide_erotb>
0.55198268439208

> <r_i_glide_esite>
0

> <r_i_glide_emodel>
-63.9613186050278

> <r_i_glide_energy>
-45.5597524642944

> <r_i_glide_einternal>
6.72916698455811

> <i_i_glide_confnum>
16

> <i_i_glide_posenum>
122

> <r_i_glide_eff_state_penalty>
0

> <s_user_duplicate_titles>
CHEMBL1966_lig186

> <i_f3d_flags>
0

> <s_m_subgroup_title>
dock_pv

> <s_m_subgroupid>
dock_pv

> <b_m_subgroup_collapsed>
1

$$$$
CHEMBL1966_lig541
                    3D
 Schrodinger Suite 2021-1.
 42 45  0  0  1  0            999 V2000
   57.2680   48.6402   -3.7642 C   0  0  0  0  0  0
   56.1794   47.8328   -3.0805 C   0  0  0  0  0  0
   56.1821   47.7229   -1.6877 C   0  0  0  0  0  0
   55.2050   46.9944   -0.9910 C   0  0  0  0  0  0
   55.3339   46.8453    0.4936 C   0  0  0  0  0  0
   56.4230   46.8100    1.0595 O   0  0  0  0  0  0
   54.1517   46.7566    1.1578 O   0  0  0  0  0  0
   54.2029   46.3715   -1.7609 C   0  0  0  0  0  0
   53.1306   45.6100   -1.3613 N   0  0  0  0  0  0
   52.6177   45.1126   -2.4585 C   0  0  0  0  0  0
   53.2263   45.6287   -3.5757 N   0  0  0  0  0  0
   54.2535   46.4433   -3.1710 C   0  0  0  0  0  0
   55.2206   47.1775   -3.8566 C   0  0  0  0  0  0
   51.5573   44.0389   -2.4990 C   0  0  0  0  0  0
   51.3377   43.3301   -3.6821 C   0  0  0  0  0  0
   50.4230   42.2877   -3.7128 C   0  0  0  0  0  0
   49.7409   41.8883   -2.5620 C   0  0  0  0  0  0
   49.9820   42.5935   -1.3748 C   0  0  0  0  0  0
   50.8240   43.6964   -1.3566 C   0  0  0  0  0  0
   48.7408   40.7788   -2.6240 C   0  0  0  0  0  0
   48.0230   40.5237   -3.8050 C   0  0  0  0  0  0
   46.9754   39.6100   -3.8289 C   0  0  0  0  0  0
   46.7085   38.8282   -2.7133 C   0  0  0  0  0  0
   47.4532   39.0080   -1.5563 C   0  0  0  0  0  0
   47.2231   38.1790   -0.4990 O   0  0  0  0  0  0
   48.4230   40.0100   -1.4930 C   0  0  0  0  0  0
   57.3989   48.3413   -4.8048 H   0  0  0  0  0  0
   57.0344   49.7046   -3.7250 H   0  0  0  0  0  0
   58.2278   48.4843   -3.2699 H   0  0  0  0  0  0
   56.9732   48.2137   -1.1343 H   0  0  0  0  0  0
   54.3299   46.6351    2.0964 H   0  0  0  0  0  0
   52.9579   45.3847   -4.5158 H   0  0  0  0  0  0
   55.2436   47.2101   -4.9342 H   0  0  0  0  0  0
   51.8808   43.5686   -4.5833 H   0  0  0  0  0  0
   50.2725   41.7704   -4.6460 H   0  0  0  0  0  0
   49.4702   42.3320   -0.4613 H   0  0  0  0  0  0
   50.9718   44.2370   -0.4326 H   0  0  0  0  0  0
   48.1970   41.1109   -4.6936 H   0  0  0  0  0  0
   46.3861   39.4903   -4.7253 H   0  0  0  0  0  0
   45.9350   38.0765   -2.7499 H   0  0  0  0  0  0
   47.6230   38.4419    0.3399 H   0  0  0  0  0  0
   48.9652   40.1495   -0.5704 H   0  0  0  0  0  0
  1  2  1  0  0  0
  1 27  1  0  0  0
  1 28  1  0  0  0
  1 29  1  0  0  0
  2  3  2  0  0  0
  2 13  1  0  0  0
  3  4  1  0  0  0
  3 30  1  0  0  0
  4  5  1  0  0  0
  4  8  2  0  0  0
  5  6  2  0  0  0
  5  7  1  0  0  0
  7 31  1  0  0  0
  8  9  1  0  0  0
  8 12  1  0  0  0
  9 10  2  0  0  0
 10 11  1  0  0  0
 10 14  1  0  0  0
 11 12  1  0  0  0
 11 32  1  0  0  0
 12 13  2  0  0  0
 13 33  1  0  0  0
 14 15  2  0  0  0
 14 19  1  0  0  0
 15 16  1  0  0  0
 15 34  1  0  0  0
 16 17  2  0  0  0
 16 35  1  0  0  0
 17 18  1  0  0  0
 17 20  1  0  0  0
 18 19  2  0  0  0
 18 36  1  0  0  0
 19 37  1  0  0  0
 20 21  2  0  0  0
 20 26  1  0  0  0
 21 22  1  0  0  0
 21 38  1  0  0  0
 22 23  2  0  0  0
 22 39  1  0  0  0
 23 24  1  0  0  0
 23 40  1  0  0  0
 24 25  1  0  0  0
 24 26  2  0  0  0
 25 41  1  0  0  0
 26 42  1  0  0  0
M  END
> <s_m_entry_id>
25511

> <s_m_entry_name>
dock_pv.163

> <s_m_Source_Path>
/home/csk/Desktop/cluster/DUD-E-result/pyrd

> <s_m_Source_File>
dock_pv.maegz

> <i_m_Source_File_Index>
163

> <chembl_id>
CHEMBL3677801

> <chembl_pref_name>
None

> <i_lp_mmshare_version>
53161

> <r_lp_tautomer_probability>
0.999999999997365

> <s_lp_Force_Field>
OPLS_2005

> <r_lp_Energy>
22.068715

> <b_lp_Chiralities_Consistent>
1

> <s_lp_Variant>
CHEMBL1966_lig541-1

> <s_i_glide_gridfile>
glide-grid_1d3g

> <i_i_glide_lignum>
595

> <i_i_glide_rotatable_bonds>
5

> <r_i_docking_score>
-9.96778184459428

> <r_i_glide_ligand_efficiency>
-0.383376224792088

> <r_i_glide_ligand_efficiency_sa>
-1.13575055743396

> <r_i_glide_ligand_efficiency_ln>
-2.34090085924304

> <r_i_glide_gscore>
-9.96778184459428

> <r_i_glide_lipo>
-5.51764199365937

> <r_i_glide_hbond>
-0.285591932760452

> <r_i_glide_metal>
0

> <r_i_glide_rewards>
-2.20697734541036

> <r_i_glide_evdw>
-34.5374526977539

> <r_i_glide_ecoul>
-4.74013090133667

> <r_i_glide_erotb>
0.480321697324099

> <r_i_glide_esite>
0

> <r_i_glide_emodel>
-57.3448173798206

> <r_i_glide_energy>
-39.2775835990906

> <r_i_glide_einternal>
3.42716670036316

> <i_i_glide_confnum>
3

> <i_i_glide_posenum>
114

> <r_i_glide_eff_state_penalty>
0

> <s_user_duplicate_titles>
CHEMBL1966_lig541

> <i_f3d_flags>
0

> <s_m_subgroup_title>
dock_pv

> <s_m_subgroupid>
dock_pv

> <b_m_subgroup_collapsed>
1

$$$$
CHEMBL1966_lig318
                    3D
 Schrodinger Suite 2021-1.
 39 41  0  0  1  0            999 V2000
   46.4009   38.7875   -1.6516 C   0  0  0  0  0  0
   47.3851   39.1963   -0.7651 C   0  0  0  0  0  0
   48.4230   40.0100   -1.2006 C   0  0  0  0  0  0
   48.5177   40.4100   -2.5399 C   0  0  0  0  0  0
   47.4952   40.0122   -3.4464 C   0  0  0  0  0  0
   46.4489   39.2019   -2.9772 C   0  0  0  0  0  0
   47.4684   40.4231   -4.8990 C   0  0  0  0  0  0
   46.2363   40.8102   -5.3360 O   0  0  0  0  0  0
   48.4580   40.4105   -5.6257 O   0  0  0  0  0  0
   49.6802   41.2602   -2.8279 C   0  0  0  0  0  0
   49.6230   42.4116   -3.3608 N   0  0  0  0  0  0
   50.8267   43.1553   -3.4230 N   0  0  0  0  0  0
   51.2822   44.0100   -2.4126 C   0  0  0  0  0  0
   52.3382   44.8100   -2.4990 N   0  0  0  0  0  0
   52.5179   45.5867   -1.4370 C   0  0  0  0  0  0
   51.5310   45.4474   -0.4610 C   0  0  0  0  0  0
   50.4230   44.1837   -0.9047 S   0  0  0  0  0  0
   53.7562   46.4101   -1.3077 C   0  0  0  0  0  0
   54.3836   46.4945   -0.0575 C   0  0  0  0  0  0
   55.5849   47.1853    0.0894 C   0  0  0  0  0  0
   56.1600   47.8236   -1.0081 C   0  0  0  0  0  0
   55.5392   47.7569   -2.2560 C   0  0  0  0  0  0
   54.3447   47.0482   -2.4074 C   0  0  0  0  0  0
   56.2621   48.5357   -3.6150 Cl  0  0  0  0  0  0
   51.2501   43.3859   -4.8007 C   0  0  0  0  0  0
   45.5982   38.1535   -1.3067 H   0  0  0  0  0  0
   47.3449   38.8880    0.2669 H   0  0  0  0  0  0
   49.1658   40.3095   -0.4729 H   0  0  0  0  0  0
   45.6640   38.8632   -3.6404 H   0  0  0  0  0  0
   45.6375   40.9428   -4.5971 H   0  0  0  0  0  0
   50.6259   40.8366   -2.4996 H   0  0  0  0  0  0
   51.4509   45.9450    0.4944 H   0  0  0  0  0  0
   53.9603   45.9961    0.8028 H   0  0  0  0  0  0
   56.0717   47.2126    1.0537 H   0  0  0  0  0  0
   57.0912   48.3604   -0.8908 H   0  0  0  0  0  0
   53.8785   46.9878   -3.3806 H   0  0  0  0  0  0
   52.3215   43.2100   -4.8991 H   0  0  0  0  0  0
   50.7309   42.7511   -5.5183 H   0  0  0  0  0  0
   51.0466   44.4100   -5.0962 H   0  0  0  0  0  0
  1  2  2  0  0  0
  1  6  1  0  0  0
  1 26  1  0  0  0
  2  3  1  0  0  0
  2 27  1  0  0  0
  3  4  2  0  0  0
  3 28  1  0  0  0
  4  5  1  0  0  0
  4 10  1  0  0  0
  5  6  2  0  0  0
  5  7  1  0  0  0
  6 29  1  0  0  0
  7  8  1  0  0  0
  7  9  2  0  0  0
  8 30  1  0  0  0
 10 11  2  0  0  0
 10 31  1  0  0  0
 11 12  1  0  0  0
 12 13  1  0  0  0
 12 25  1  0  0  0
 13 14  2  0  0  0
 13 17  1  0  0  0
 14 15  1  0  0  0
 15 16  2  0  0  0
 15 18  1  0  0  0
 16 17  1  0  0  0
 16 32  1  0  0  0
 18 19  2  0  0  0
 18 23  1  0  0  0
 19 20  1  0  0  0
 19 33  1  0  0  0
 20 21  2  0  0  0
 20 34  1  0  0  0
 21 22  1  0  0  0
 21 35  1  0  0  0
 22 23  2  0  0  0
 22 24  1  0  0  0
 23 36  1  0  0  0
 25 37  1  0  0  0
 25 38  1  0  0  0
 25 39  1  0  0  0
M  END
> <s_m_entry_id>
25512

> <s_m_entry_name>
dock_pv.164

> <s_m_Source_Path>
/home/csk/Desktop/cluster/DUD-E-result/pyrd

> <s_m_Source_File>
dock_pv.maegz

> <i_m_Source_File_Index>
164

> <chembl_id>
CHEMBL3913950

> <chembl_pref_name>
None

> <i_lp_mmshare_version>
53161

> <r_lp_tautomer_probability>
1

> <s_lp_Force_Field>
OPLS_2005

> <r_lp_Energy>
28.45341

> <b_lp_Chiralities_Consistent>
1

> <s_lp_Variant>
CHEMBL1966_lig318-1

> <s_i_glide_gridfile>
glide-grid_1d3g

> <i_i_glide_lignum>
368

> <i_i_glide_rotatable_bonds>
6

> <r_i_docking_score>
-9.96342762055959

> <r_i_glide_ligand_efficiency>
-0.398537104822383

> <r_i_glide_ligand_efficiency_sa>
-1.1653295625863

> <r_i_glide_ligand_efficiency_ln>
-2.3616309259045

> <r_i_glide_gscore>
-9.96342762055959

> <r_i_glide_lipo>
-5.15891331005135

> <r_i_glide_hbond>
-0.0998905910466015

> <r_i_glide_metal>
0

> <r_i_glide_rewards>
-2.45091464081483

> <r_i_glide_evdw>
-46.9443359375

> <r_i_glide_ecoul>
-4.03130912780762

> <r_i_glide_erotb>
0.698204087399336

> <r_i_glide_esite>
0

> <r_i_glide_emodel>
-71.2776510001831

> <r_i_glide_energy>
-50.9756450653076

> <r_i_glide_einternal>
14.057710647583

> <i_i_glide_confnum>
47

> <i_i_glide_posenum>
322

> <r_i_glide_eff_state_penalty>
0

> <s_user_duplicate_titles>
CHEMBL1966_lig318

> <i_f3d_flags>
0

> <s_m_subgroup_title>
dock_pv

> <s_m_subgroupid>
dock_pv

> <b_m_subgroup_collapsed>
1

$$$$
CHEMBL1966_lig206
                    3D
 Schrodinger Suite 2021-1.
 41 44  0  0  1  0            999 V2000
   47.3217   39.1208   -1.8217 C   0  0  0  0  0  0
   47.8743   39.4538   -0.5977 C   0  0  0  0  0  0
   48.8701   40.4100   -0.5197 C   0  0  0  0  0  0
   47.7716   39.7050   -3.0019 C   0  0  0  0  0  0
   48.7619   40.7325   -2.9737 C   0  0  0  0  0  0
   49.2985   41.0764   -1.6919 C   0  0  0  0  0  0
   50.1606   42.1005   -1.5183 N   0  0  0  0  0  0
   50.5123   42.8501   -2.5851 C   0  0  0  0  0  0
   50.0929   42.5633   -3.8776 C   0  0  0  0  0  0
   49.2226   41.4918   -4.1131 C   0  0  0  0  0  0
   46.0230   38.0100   -1.8519 Cl  0  0  0  0  0  0
   48.7249   41.2684   -5.5224 C   0  0  0  0  0  0
   49.6230   41.6087   -6.4927 O   0  0  0  0  0  0
   47.6182   40.8100   -5.7890 O   0  0  0  0  0  0
   51.3233   44.0435   -2.2648 C   0  0  0  0  0  0
   52.4230   44.4100   -3.0583 C   0  0  0  0  0  0
   53.2463   45.4666   -2.6776 C   0  0  0  0  0  0
   52.9520   46.2002   -1.5206 C   0  0  0  0  0  0
   51.8230   45.8850   -0.7722 C   0  0  0  0  0  0
   51.0197   44.8129   -1.1340 C   0  0  0  0  0  0
   53.7345   47.2100   -1.0094 O   0  0  0  0  0  0
   54.8444   47.7048   -1.6467 C   0  0  0  0  0  0
   56.0213   47.7769   -0.9087 C   0  0  0  0  0  0
   57.1537   48.3479   -1.4730 C   0  0  0  0  0  0
   57.1164   48.8467   -2.7690 C   0  0  0  0  0  0
   55.9413   48.7840   -3.5075 C   0  0  0  0  0  0
   54.7974   48.2187   -2.9467 C   0  0  0  0  0  0
   47.5128   38.9809    0.3010 H   0  0  0  0  0  0
   49.2873   40.6828    0.4388 H   0  0  0  0  0  0
   47.3149   39.3970   -3.9270 H   0  0  0  0  0  0
   50.3929   43.2297   -4.6742 H   0  0  0  0  0  0
   50.4402   41.9493   -6.1272 H   0  0  0  0  0  0
   52.6826   43.8306   -3.9321 H   0  0  0  0  0  0
   54.1227   45.6811   -3.2693 H   0  0  0  0  0  0
   51.5921   46.4523    0.1176 H   0  0  0  0  0  0
   50.1653   44.5720   -0.5173 H   0  0  0  0  0  0
   56.0500   47.4049    0.1050 H   0  0  0  0  0  0
   58.0556   48.4102   -0.8990 H   0  0  0  0  0  0
   58.0000   49.2963   -3.1979 H   0  0  0  0  0  0
   55.9169   49.2018   -4.4990 H   0  0  0  0  0  0
   53.8745   48.1977   -3.5075 H   0  0  0  0  0  0
  1  2  2  0  0  0
  1  4  1  0  0  0
  1 11  1  0  0  0
  2  3  1  0  0  0
  2 28  1  0  0  0
  3  6  2  0  0  0
  3 29  1  0  0  0
  4  5  2  0  0  0
  4 30  1  0  0  0
  5  6  1  0  0  0
  5 10  1  0  0  0
  6  7  1  0  0  0
  7  8  2  0  0  0
  8  9  1  0  0  0
  8 15  1  0  0  0
  9 10  2  0  0  0
  9 31  1  0  0  0
 10 12  1  0  0  0
 12 13  1  0  0  0
 12 14  2  0  0  0
 13 32  1  0  0  0
 15 16  2  0  0  0
 15 20  1  0  0  0
 16 17  1  0  0  0
 16 33  1  0  0  0
 17 18  2  0  0  0
 17 34  1  0  0  0
 18 19  1  0  0  0
 18 21  1  0  0  0
 19 20  2  0  0  0
 19 35  1  0  0  0
 20 36  1  0  0  0
 21 22  1  0  0  0
 22 23  2  0  0  0
 22 27  1  0  0  0
 23 24  1  0  0  0
 23 37  1  0  0  0
 24 25  2  0  0  0
 24 38  1  0  0  0
 25 26  1  0  0  0
 25 39  1  0  0  0
 26 27  2  0  0  0
 26 40  1  0  0  0
 27 41  1  0  0  0
M  END
> <s_m_entry_id>
25513

> <s_m_entry_name>
dock_pv.165

> <s_m_Source_Path>
/home/csk/Desktop/cluster/DUD-E-result/pyrd

> <s_m_Source_File>
dock_pv.maegz

> <i_m_Source_File_Index>
165

> <chembl_id>
CHEMBL2385514

> <chembl_pref_name>
None

> <i_lp_mmshare_version>
53161

> <r_lp_tautomer_probability>
1

> <s_lp_Force_Field>
OPLS_2005

> <r_lp_Energy>
26.997227

> <b_lp_Chiralities_Consistent>
1

> <s_lp_Variant>
CHEMBL1966_lig206-1

> <s_i_glide_gridfile>
glide-grid_1d3g

> <i_i_glide_lignum>
251

> <i_i_glide_rotatable_bonds>
5

> <r_i_docking_score>
-9.96243528568154

> <r_i_glide_ligand_efficiency>
-0.368979084654872

> <r_i_glide_ligand_efficiency_sa>
-1.10693725274852

> <r_i_glide_ligand_efficiency_ln>
-2.31909069092464

> <r_i_glide_gscore>
-9.96243528568154

> <r_i_glide_lipo>
-6.03793617880994

> <r_i_glide_hbond>
-0.100441505002937

> <r_i_glide_metal>
0

> <r_i_glide_rewards>
-1.78919029027113

> <r_i_glide_evdw>
-39.1819038391113

> <r_i_glide_ecoul>
-4.15894937515259

> <r_i_glide_erotb>
0.548070286630925

> <r_i_glide_esite>
0

> <r_i_glide_emodel>
-64.9614248580634

> <r_i_glide_energy>
-43.3408532142639

> <r_i_glide_einternal>
3.18297362327576

> <i_i_glide_confnum>
36

> <i_i_glide_posenum>
106

> <r_i_glide_eff_state_penalty>
0

> <s_user_duplicate_titles>
CHEMBL1966_lig206

> <i_f3d_flags>
0

> <s_m_subgroup_title>
dock_pv

> <s_m_subgroupid>
dock_pv

> <b_m_subgroup_collapsed>
1

$$$$
CHEMBL1966_lig700
                    3D
 Schrodinger Suite 2021-1.
 47 51  0  0  1  0            999 V2000
   50.3854   42.6232   -2.9481 C   0  0  0  0  0  0
   49.8428   41.9295   -1.8562 C   0  0  0  0  0  0
   49.9917   42.4101   -4.2144 N   0  0  0  0  0  0
   48.9742   40.8243   -2.0756 C   0  0  0  0  0  0
   48.4229   40.7141   -3.4012 C   0  0  0  0  0  0
   51.3599   43.7339   -2.7106 C   0  0  0  0  0  0
   48.9195   41.6120   -4.3985 C   0  0  0  0  0  0
   48.4229   40.0100   -0.9022 C   0  0  0  0  0  0
   51.2362   44.5052   -1.5370 C   0  0  0  0  0  0
   53.1949   45.8295   -2.1670 C   0  0  0  0  0  0
   50.1577   42.5289   -0.4978 C   0  0  0  0  0  0
   52.1247   45.5711   -1.2991 C   0  0  0  0  0  0
   54.2264   46.8946   -1.9459 C   0  0  0  0  0  0
   52.4012   44.0102   -3.5966 C   0  0  0  0  0  0
   47.2843   39.9209   -3.7548 C   0  0  0  0  0  0
   50.1991   44.0752   -0.5246 C   0  0  0  0  0  0
   53.3132   45.0228   -3.2991 C   0  0  0  0  0  0
   49.1790   40.0100    0.2202 O   0  0  0  0  0  0
   47.3883   39.3525   -0.9268 O   0  0  0  0  0  0
   48.1630   41.8683   -5.5494 C   0  0  0  0  0  0
   54.9590   47.0478   -0.7464 C   0  0  0  0  0  0
   46.5231   40.2455   -4.8684 C   0  0  0  0  0  0
   46.9297   41.2576   -5.7100 C   0  0  0  0  0  0
   45.3720   39.5915   -5.1282 F   0  0  0  0  0  0
   54.5657   47.7229   -3.0293 C   0  0  0  0  0  0
   54.6959   46.2169    0.4944 C   0  0  0  0  0  0
   56.0270   47.9475   -0.6868 C   0  0  0  0  0  0
   55.6229   48.6276   -2.9542 C   0  0  0  0  0  0
   56.3592   48.7383   -1.7810 C   0  0  0  0  0  0
   51.1006   42.0783   -0.1902 H   0  0  0  0  0  0
   49.4145   42.2995    0.2615 H   0  0  0  0  0  0
   52.0128   46.1631   -0.4029 H   0  0  0  0  0  0
   52.5272   43.4156   -4.4898 H   0  0  0  0  0  0
   46.8924   39.1478   -3.1190 H   0  0  0  0  0  0
   49.2232   44.4769   -0.7990 H   0  0  0  0  0  0
   50.4312   44.4669    0.4669 H   0  0  0  0  0  0
   54.1338   45.2026   -3.9762 H   0  0  0  0  0  0
   48.4719   42.6800   -6.1891 H   0  0  0  0  0  0
   46.2725   41.5858   -6.4989 H   0  0  0  0  0  0
   54.0233   47.6420   -3.9611 H   0  0  0  0  0  0
   55.5958   46.1218    1.1008 H   0  0  0  0  0  0
   53.8998   46.6499    1.0998 H   0  0  0  0  0  0
   54.4227   45.2102    0.2172 H   0  0  0  0  0  0
   56.6248   48.0099    0.2099 H   0  0  0  0  0  0
   55.8789   49.2326   -3.8119 H   0  0  0  0  0  0
   57.1907   49.4255   -1.7212 H   0  0  0  0  0  0
   48.7482   39.4554    0.8811 H   0  0  0  0  0  0
  1  2  1  0  0  0
  1  3  2  0  0  0
  1  6  1  0  0  0
  2  4  2  0  0  0
  2 11  1  0  0  0
  3  7  1  0  0  0
  4  8  1  0  0  0
  4  5  1  0  0  0
  5  7  1  0  0  0
  5 15  2  0  0  0
  6  9  2  0  0  0
  6 14  1  0  0  0
  7 20  2  0  0  0
  8 18  1  0  0  0
  8 19  2  0  0  0
  9 12  1  0  0  0
  9 16  1  0  0  0
 10 17  1  0  0  0
 10 13  1  0  0  0
 10 12  2  0  0  0
 11 16  1  0  0  0
 11 30  1  0  0  0
 11 31  1  0  0  0
 12 32  1  0  0  0
 13 21  1  0  0  0
 13 25  2  0  0  0
 14 17  2  0  0  0
 14 33  1  0  0  0
 15 22  1  0  0  0
 15 34  1  0  0  0
 16 35  1  0  0  0
 16 36  1  0  0  0
 17 37  1  0  0  0
 18 47  1  0  0  0
 20 23  1  0  0  0
 20 38  1  0  0  0
 21 26  1  0  0  0
 21 27  2  0  0  0
 22 23  2  0  0  0
 22 24  1  0  0  0
 23 39  1  0  0  0
 25 28  1  0  0  0
 25 40  1  0  0  0
 26 41  1  0  0  0
 26 42  1  0  0  0
 26 43  1  0  0  0
 27 29  1  0  0  0
 27 44  1  0  0  0
 28 29  2  0  0  0
 28 45  1  0  0  0
 29 46  1  0  0  0
M  END
> <s_m_entry_id>
25514

> <s_m_entry_name>
dock_pv.166

> <s_m_Source_Path>
/home/csk/Desktop/cluster/DUD-E-result/pyrd

> <s_m_Source_File>
dock_pv.maegz

> <i_m_Source_File_Index>
166

> <chembl_id>
CHEMBL321060

> <chembl_pref_name>
None

> <i_lp_mmshare_version>
53161

> <r_lp_tautomer_probability>
1

> <s_lp_Force_Field>
OPLS_2005

> <r_lp_Energy>
33.860065

> <b_lp_Chiralities_Consistent>
1

> <s_lp_Variant>
CHEMBL1966_lig700-1

> <s_i_glide_gridfile>
glide-grid_1d3g

> <i_i_glide_lignum>
769

> <i_i_glide_rotatable_bonds>
3

> <r_i_docking_score>
-9.96065163818404

> <r_i_glide_ligand_efficiency>
-0.343470746144277

> <r_i_glide_ligand_efficiency_sa>
-1.05525095132549

> <r_i_glide_ligand_efficiency_ln>
-2.28073664481183

> <r_i_glide_gscore>
-9.96065163818404

> <r_i_glide_lipo>
-6.23248989982305

> <r_i_glide_hbond>
0

> <r_i_glide_metal>
0

> <r_i_glide_rewards>
-1.92424823932875

> <r_i_glide_evdw>
-33.9255104064941

> <r_i_glide_ecoul>
-2.48003721237183

> <r_i_glide_erotb>
0.264367603148246

> <r_i_glide_esite>
0

> <r_i_glide_emodel>
-48.6230029584742

> <r_i_glide_energy>
-36.405547618866

> <r_i_glide_einternal>
14.8629970550537

> <i_i_glide_confnum>
3

> <i_i_glide_posenum>
79

> <r_i_glide_eff_state_penalty>
0

> <s_user_duplicate_titles>
CHEMBL1966_lig700,173645

> <i_f3d_flags>
0

> <s_m_subgroup_title>
dock_pv

> <s_m_subgroupid>
dock_pv

> <b_m_subgroup_collapsed>
1

$$$$
CHEMBL1966_lig445
                    3D
 Schrodinger Suite 2021-1.
 50 53  0  0  1  0            999 V2000
   51.8161   46.3470    0.1681 C   0  0  0  0  0  0
   52.1241   45.6537   -1.1520 C   0  0  0  0  0  0
   51.2312   44.6772   -1.6136 C   0  0  0  0  0  0
   51.5026   44.0023   -2.8102 C   0  0  0  0  0  0
   50.7071   43.0004   -3.3550 N   0  0  0  0  0  0
   49.9146   41.9987   -2.7969 C   0  0  0  0  0  0
   50.0199   41.7428   -1.4265 C   0  0  0  0  0  0
   49.2230   40.7835   -0.8226 C   0  0  0  0  0  0
   48.3544   40.0106   -1.5920 C   0  0  0  0  0  0
   48.3064   40.2058   -2.9761 C   0  0  0  0  0  0
   49.0518   41.2151   -3.6059 C   0  0  0  0  0  0
   48.8231   41.4478   -5.0973 C   0  0  0  0  0  0
   47.9938   40.8098   -5.7426 O   0  0  0  0  0  0
   49.5784   42.4084   -5.6974 O   0  0  0  0  0  0
   47.4415   39.0159   -0.8939 C   0  0  0  0  0  0
   46.1912   38.4549   -1.5310 C   0  0  0  0  0  0
   47.3903   37.5608   -1.2737 C   0  0  0  0  0  0
   52.6186   44.3701   -3.5397 C   0  0  0  0  0  0
   53.4992   45.3018   -3.1197 N   0  0  0  0  0  0
   53.2762   45.9194   -1.9294 C   0  0  0  0  0  0
   54.4081   46.7926   -1.5316 C   0  0  0  0  0  0
   55.0931   46.5489   -0.3387 C   0  0  0  0  0  0
   56.2329   47.2732   -0.0230 C   0  0  0  0  0  0
   56.7148   48.2431   -0.8992 C   0  0  0  0  0  0
   56.0496   48.5125   -2.1038 C   0  0  0  0  0  0
   56.4718   49.4399   -3.0415 O   0  0  0  0  0  0
   57.7574   50.0561   -2.9210 C   0  0  0  0  0  0
   58.7393   49.1613   -2.9039 F   0  0  0  0  0  0
   57.9569   50.8105   -4.0016 F   0  0  0  0  0  0
   57.8379   50.8367   -1.8425 F   0  0  0  0  0  0
   54.8909   47.7885   -2.3955 C   0  0  0  0  0  0
   52.7040   46.6361    0.7244 H   0  0  0  0  0  0
   51.2198   47.2364   -0.0124 H   0  0  0  0  0  0
   51.2448   45.6866    0.8241 H   0  0  0  0  0  0
   50.3322   44.4605   -1.0550 H   0  0  0  0  0  0
   50.7893   42.8988   -4.3587 H   0  0  0  0  0  0
   50.7140   42.2851   -0.8061 H   0  0  0  0  0  0
   49.2901   40.6284    0.2441 H   0  0  0  0  0  0
   47.6424   39.5890   -3.5643 H   0  0  0  0  0  0
   49.2896   42.5458   -6.5994 H   0  0  0  0  0  0
   47.3614   39.2085    0.1757 H   0  0  0  0  0  0
   45.9326   38.7106   -2.5574 H   0  0  0  0  0  0
   45.3043   38.4092   -0.9019 H   0  0  0  0  0  0
   47.3422   36.8197   -0.4773 H   0  0  0  0  0  0
   48.0232   37.2363   -2.0990 H   0  0  0  0  0  0
   52.8232   43.8767   -4.4797 H   0  0  0  0  0  0
   54.7679   45.7660    0.3305 H   0  0  0  0  0  0
   56.7635   47.0732    0.8964 H   0  0  0  0  0  0
   57.6218   48.7615   -0.6308 H   0  0  0  0  0  0
   54.3845   47.9707   -3.3340 H   0  0  0  0  0  0
  1  2  1  0  0  0
  1 32  1  0  0  0
  1 33  1  0  0  0
  1 34  1  0  0  0
  2  3  2  0  0  0
  2 20  1  0  0  0
  3  4  1  0  0  0
  3 35  1  0  0  0
  4  5  1  0  0  0
  4 18  2  0  0  0
  5  6  1  0  0  0
  5 36  1  0  0  0
  6  7  2  0  0  0
  6 11  1  0  0  0
  7  8  1  0  0  0
  7 37  1  0  0  0
  8  9  2  0  0  0
  8 38  1  0  0  0
  9 10  1  0  0  0
  9 15  1  0  0  0
 10 11  2  0  0  0
 10 39  1  0  0  0
 11 12  1  0  0  0
 12 13  2  0  0  0
 12 14  1  0  0  0
 14 40  1  0  0  0
 15 16  1  0  0  0
 15 17  1  0  0  0
 15 41  1  0  0  0
 16 17  1  0  0  0
 16 42  1  0  0  0
 16 43  1  0  0  0
 17 44  1  0  0  0
 17 45  1  0  0  0
 18 19  1  0  0  0
 18 46  1  0  0  0
 19 20  2  0  0  0
 20 21  1  0  0  0
 21 22  2  0  0  0
 21 31  1  0  0  0
 22 23  1  0  0  0
 22 47  1  0  0  0
 23 24  2  0  0  0
 23 48  1  0  0  0
 24 25  1  0  0  0
 24 49  1  0  0  0
 25 26  1  0  0  0
 25 31  2  0  0  0
 26 27  1  0  0  0
 27 28  1  0  0  0
 27 29  1  0  0  0
 27 30  1  0  0  0
 31 50  1  0  0  0
M  END
> <s_m_entry_id>
25515

> <s_m_entry_name>
dock_pv.167

> <s_m_Source_Path>
/home/csk/Desktop/cluster/DUD-E-result/pyrd

> <s_m_Source_File>
dock_pv.maegz

> <i_m_Source_File_Index>
167

> <chembl_id>
CHEMBL3674655

> <chembl_pref_name>
None

> <i_lp_mmshare_version>
53161

> <r_lp_tautomer_probability>
0.999999999999999

> <s_lp_Force_Field>
OPLS_2005

> <r_lp_Energy>
36.395003

> <b_lp_Chiralities_Consistent>
1

> <s_lp_Variant>
CHEMBL1966_lig445-1

> <s_i_glide_gridfile>
glide-grid_1d3g

> <i_i_glide_lignum>
495

> <i_i_glide_rotatable_bonds>
8

> <r_i_docking_score>
-9.95852280208822

> <r_i_glide_ligand_efficiency>
-0.321242671035104

> <r_i_glide_ligand_efficiency_sa>
-1.00914551035708

> <r_i_glide_ligand_efficiency_ln>
-2.2459520839426

> <r_i_glide_gscore>
-9.95852280208822

> <r_i_glide_lipo>
-6.20824010189949

> <r_i_glide_hbond>
-0.0678787609057985

> <r_i_glide_metal>
0

> <r_i_glide_rewards>
-1.59010808792776

> <r_i_glide_evdw>
-46.9585571289062

> <r_i_glide_ecoul>
-2.62497901916504

> <r_i_glide_erotb>
0.649378857964907

> <r_i_glide_esite>
0

> <r_i_glide_emodel>
-67.6118024778156

> <r_i_glide_energy>
-49.5835361480713

> <r_i_glide_einternal>
20.1311492919922

> <i_i_glide_confnum>
38

> <i_i_glide_posenum>
331

> <r_i_glide_eff_state_penalty>
0

> <s_user_duplicate_titles>
CHEMBL1966_lig445

> <i_f3d_flags>
0

> <s_m_subgroup_title>
dock_pv

> <s_m_subgroupid>
dock_pv

> <b_m_subgroup_collapsed>
1

$$$$
CHEMBL1966_lig573
                    3D
 Schrodinger Suite 2021-1.
 42 45  0  0  1  0            999 V2000
   48.3219   39.7843   -0.4273 O   0  0  0  0  0  0
   47.6232   39.2731   -1.4751 C   0  0  0  0  0  0
   46.8699   38.3093   -1.3480 O   0  0  0  0  0  0
   47.8102   40.0074   -2.7864 C   0  0  0  0  0  0
   46.8616   39.7643   -3.7924 C   0  0  0  0  0  0
   46.8845   40.4099   -5.0250 C   0  0  0  0  0  0
   47.8978   41.2905   -5.3755 C   0  0  0  0  0  0
   48.8230   41.5875   -4.3814 C   0  0  0  0  0  0
   49.8000   42.5346   -4.3169 N   0  0  0  0  0  0
   50.2597   42.5514   -3.0284 C   0  0  0  0  0  0
   49.7492   41.5925   -2.2890 N   0  0  0  0  0  0
   48.8043   40.9843   -3.0876 C   0  0  0  0  0  0
   51.1755   43.6289   -2.5730 C   0  0  0  0  0  0
   52.2957   43.9258   -3.3577 C   0  0  0  0  0  0
   52.5572   43.2107   -4.4791 F   0  0  0  0  0  0
   53.1863   44.9210   -2.9668 C   0  0  0  0  0  0
   54.3069   45.1221   -3.6986 F   0  0  0  0  0  0
   52.9676   45.6601   -1.7986 C   0  0  0  0  0  0
   51.8095   45.4107   -1.0446 C   0  0  0  0  0  0
   51.5686   46.1232    0.0815 F   0  0  0  0  0  0
   50.9226   44.3941   -1.4226 C   0  0  0  0  0  0
   49.8228   44.1551   -0.6686 F   0  0  0  0  0  0
   54.0211   46.6080   -1.3581 C   0  0  0  0  0  0
   54.6527   46.4441   -0.1207 C   0  0  0  0  0  0
   55.7733   47.2046    0.2034 C   0  0  0  0  0  0
   56.2685   48.1415   -0.7031 C   0  0  0  0  0  0
   55.6259   48.3460   -1.9294 C   0  0  0  0  0  0
   56.0422   49.2611   -2.8690 O   0  0  0  0  0  0
   57.4388   49.4077   -3.1145 C   0  0  0  0  0  0
   58.0229   48.2243   -3.3034 F   0  0  0  0  0  0
   57.5792   50.1030   -4.2413 F   0  0  0  0  0  0
   58.0485   50.0832   -2.1396 F   0  0  0  0  0  0
   54.4956   47.5915   -2.2340 C   0  0  0  0  0  0
   48.1163   39.2884    0.3727 H   0  0  0  0  0  0
   46.0491   39.0728   -3.6129 H   0  0  0  0  0  0
   46.0904   40.2001   -5.7263 H   0  0  0  0  0  0
   47.8841   41.8204   -6.3122 H   0  0  0  0  0  0
   50.0738   43.2119   -5.0138 H   0  0  0  0  0  0
   54.3096   45.6891    0.5726 H   0  0  0  0  0  0
   56.2729   47.0547    1.1491 H   0  0  0  0  0  0
   57.1477   48.7087   -0.4380 H   0  0  0  0  0  0
   54.0202   47.7323   -3.1942 H   0  0  0  0  0  0
  1  2  1  0  0  0
  1 34  1  0  0  0
  2  3  2  0  0  0
  2  4  1  0  0  0
  4  5  2  0  0  0
  4 12  1  0  0  0
  5  6  1  0  0  0
  5 35  1  0  0  0
  6  7  2  0  0  0
  6 36  1  0  0  0
  7  8  1  0  0  0
  7 37  1  0  0  0
  8  9  1  0  0  0
  8 12  2  0  0  0
  9 10  1  0  0  0
  9 38  1  0  0  0
 10 11  2  0  0  0
 10 13  1  0  0  0
 11 12  1  0  0  0
 13 14  2  0  0  0
 13 21  1  0  0  0
 14 15  1  0  0  0
 14 16  1  0  0  0
 16 17  1  0  0  0
 16 18  2  0  0  0
 18 19  1  0  0  0
 18 23  1  0  0  0
 19 20  1  0  0  0
 19 21  2  0  0  0
 21 22  1  0  0  0
 23 24  2  0  0  0
 23 33  1  0  0  0
 24 25  1  0  0  0
 24 39  1  0  0  0
 25 26  2  0  0  0
 25 40  1  0  0  0
 26 27  1  0  0  0
 26 41  1  0  0  0
 27 28  1  0  0  0
 27 33  2  0  0  0
 28 29  1  0  0  0
 29 30  1  0  0  0
 29 31  1  0  0  0
 29 32  1  0  0  0
 33 42  1  0  0  0
M  END
> <s_m_entry_id>
25516

> <s_m_entry_name>
dock_pv.168

> <s_m_Source_Path>
/home/csk/Desktop/cluster/DUD-E-result/pyrd

> <s_m_Source_File>
dock_pv.maegz

> <i_m_Source_File_Index>
168

> <chembl_id>
CHEMBL3677832

> <chembl_pref_name>
None

> <i_lp_mmshare_version>
53161

> <r_lp_tautomer_probability>
1

> <s_lp_Force_Field>
OPLS_2005

> <r_lp_Energy>
30.093523

> <b_lp_Chiralities_Consistent>
1

> <s_lp_Variant>
CHEMBL1966_lig573-1

> <s_i_glide_gridfile>
glide-grid_1d3g

> <i_i_glide_lignum>
627

> <i_i_glide_rotatable_bonds>
6

> <r_i_docking_score>
-9.9420156807501

> <r_i_glide_ligand_efficiency>
-0.301273202446973

> <r_i_glide_ligand_efficiency_sa>
-0.966344138430172

> <r_i_glide_ligand_efficiency_ln>
-2.21105281039662

> <r_i_glide_gscore>
-9.9420156807501

> <r_i_glide_lipo>
-5.03087261967665

> <r_i_glide_hbond>
0

> <r_i_glide_metal>
0

> <r_i_glide_rewards>
-2.30221486897108

> <r_i_glide_evdw>
-48.7900199890137

> <r_i_glide_ecoul>
-3.56543016433716

> <r_i_glide_erotb>
0.365387331998882

> <r_i_glide_esite>
0

> <r_i_glide_emodel>
-67.9632386204189

> <r_i_glide_energy>
-52.3554501533508

> <r_i_glide_einternal>
7.80848598480225

> <i_i_glide_confnum>
24

> <i_i_glide_posenum>
50

> <r_i_glide_eff_state_penalty>
0

> <s_user_duplicate_titles>
CHEMBL1966_lig573

> <i_f3d_flags>
0

> <s_m_subgroup_title>
dock_pv

> <s_m_subgroupid>
dock_pv

> <b_m_subgroup_collapsed>
1

$$$$
CHEMBL1966_lig307
                    3D
 Schrodinger Suite 2021-1.
 39 41  0  0  1  0            999 V2000
   48.4224   40.3618   -4.5716 C   0  0  0  0  0  0
   49.0361   41.5321   -4.9850 C   0  0  0  0  0  0
   49.6228   42.3614   -4.0422 C   0  0  0  0  0  0
   49.5852   42.0641   -2.6655 C   0  0  0  0  0  0
   48.9722   40.8422   -2.2457 C   0  0  0  0  0  0
   48.4081   40.0103   -3.2262 C   0  0  0  0  0  0
   48.8657   40.4099   -0.7869 C   0  0  0  0  0  0
   47.8645   39.5259   -0.5039 O   0  0  0  0  0  0
   49.6231   40.8114    0.0890 O   0  0  0  0  0  0
   50.0662   43.1220   -1.7499 C   0  0  0  0  0  0
   50.9023   44.0098   -2.0957 N   0  0  0  0  0  0
   51.2169   44.9976   -1.1640 N   0  0  0  0  0  0
   52.4095   45.6788   -1.1920 C   0  0  0  0  0  0
   53.2597   45.7344   -2.1847 N   0  0  0  0  0  0
   54.4044   46.2921   -1.8307 C   0  0  0  0  0  0
   54.4804   46.7043   -0.4895 C   0  0  0  0  0  0
   52.9396   46.4100    0.2700 S   0  0  0  0  0  0
   55.6163   47.2871    0.3010 C   0  0  0  0  0  0
   55.5056   46.4199   -2.8357 C   0  0  0  0  0  0
   56.0153   47.7032   -3.0732 C   0  0  0  0  0  0
   57.0567   47.9017   -3.9788 C   0  0  0  0  0  0
   57.6026   46.8159   -4.6595 C   0  0  0  0  0  0
   57.1049   45.5338   -4.4353 C   0  0  0  0  0  0
   56.0599   45.3283   -3.5318 C   0  0  0  0  0  0
   55.4992   43.7075   -3.2990 Cl  0  0  0  0  0  0
   47.9654   39.7089   -5.2966 H   0  0  0  0  0  0
   49.0530   41.8085   -6.0286 H   0  0  0  0  0  0
   50.0604   43.2827   -4.4034 H   0  0  0  0  0  0
   47.9370   39.0746   -2.9566 H   0  0  0  0  0  0
   47.8722   39.2793    0.4279 H   0  0  0  0  0  0
   49.6263   43.1160   -0.7561 H   0  0  0  0  0  0
   50.7113   44.9010   -0.2953 H   0  0  0  0  0  0
   56.3320   47.8370   -0.3088 H   0  0  0  0  0  0
   55.2232   47.9782    1.0476 H   0  0  0  0  0  0
   56.1718   46.5166    0.8362 H   0  0  0  0  0  0
   55.6020   48.5558   -2.5537 H   0  0  0  0  0  0
   57.4401   48.8968   -4.1505 H   0  0  0  0  0  0
   58.4121   46.9658   -5.3587 H   0  0  0  0  0  0
   57.5330   44.6945   -4.9636 H   0  0  0  0  0  0
  1  2  2  0  0  0
  1  6  1  0  0  0
  1 26  1  0  0  0
  2  3  1  0  0  0
  2 27  1  0  0  0
  3  4  2  0  0  0
  3 28  1  0  0  0
  4  5  1  0  0  0
  4 10  1  0  0  0
  5  6  2  0  0  0
  5  7  1  0  0  0
  6 29  1  0  0  0
  7  8  1  0  0  0
  7  9  2  0  0  0
  8 30  1  0  0  0
 10 11  2  0  0  0
 10 31  1  0  0  0
 11 12  1  0  0  0
 12 13  1  0  0  0
 12 32  1  0  0  0
 13 14  2  0  0  0
 13 17  1  0  0  0
 14 15  1  0  0  0
 15 16  2  0  0  0
 15 19  1  0  0  0
 16 17  1  0  0  0
 16 18  1  0  0  0
 18 33  1  0  0  0
 18 34  1  0  0  0
 18 35  1  0  0  0
 19 20  2  0  0  0
 19 24  1  0  0  0
 20 21  1  0  0  0
 20 36  1  0  0  0
 21 22  2  0  0  0
 21 37  1  0  0  0
 22 23  1  0  0  0
 22 38  1  0  0  0
 23 24  2  0  0  0
 23 39  1  0  0  0
 24 25  1  0  0  0
M  END
> <s_m_entry_id>
25517

> <s_m_entry_name>
dock_pv.169

> <s_m_Source_Path>
/home/csk/Desktop/cluster/DUD-E-result/pyrd

> <s_m_Source_File>
dock_pv.maegz

> <i_m_Source_File_Index>
169

> <chembl_id>
CHEMBL3891218

> <chembl_pref_name>
None

> <i_lp_mmshare_version>
53161

> <r_lp_tautomer_probability>
1

> <s_lp_Force_Field>
OPLS_2005

> <r_lp_Energy>
26.328378

> <b_lp_Chiralities_Consistent>
1

> <s_lp_Variant>
CHEMBL1966_lig307-1

> <s_i_glide_gridfile>
glide-grid_1d3g

> <i_i_glide_lignum>
354

> <i_i_glide_rotatable_bonds>
6

> <r_i_docking_score>
-9.94166485455028

> <r_i_glide_ligand_efficiency>
-0.397666594182011

> <r_i_glide_ligand_efficiency_sa>
-1.16278417403528

> <r_i_glide_ligand_efficiency_ln>
-2.35647249818282

> <r_i_glide_gscore>
-9.94166485455028

> <r_i_glide_lipo>
-5.12910687524041

> <r_i_glide_hbond>
0

> <r_i_glide_metal>
0

> <r_i_glide_rewards>
-2.47730565773169

> <r_i_glide_evdw>
-51.2924537658691

> <r_i_glide_ecoul>
-3.12555813789368

> <r_i_glide_erotb>
0.698204087399336

> <r_i_glide_esite>
0

> <r_i_glide_emodel>
-82.3050996839108

> <r_i_glide_energy>
-54.4180119037628

> <r_i_glide_einternal>
4.2255072593689

> <i_i_glide_confnum>
187

> <i_i_glide_posenum>
347

> <r_i_glide_eff_state_penalty>
0

> <s_user_duplicate_titles>
CHEMBL1966_lig307

> <i_f3d_flags>
0

> <s_m_subgroup_title>
dock_pv

> <s_m_subgroupid>
dock_pv

> <b_m_subgroup_collapsed>
1

$$$$
CHEMBL1966_lig289
                    3D
 Schrodinger Suite 2021-1.
 42 45  0  0  1  0            999 V2000
   56.1796   47.7154   -1.7608 C   0  0  0  0  0  0
   56.1665   47.8289   -3.1533 C   0  0  0  0  0  0
   55.2054   47.1704   -3.9245 C   0  0  0  0  0  0
   54.2469   46.4296   -3.2328 C   0  0  0  0  0  0
   54.2037   46.3600   -1.8251 C   0  0  0  0  0  0
   55.2115   46.9786   -1.0602 C   0  0  0  0  0  0
   55.3337   46.8425    0.4261 C   0  0  0  0  0  0
   54.1918   46.7618    1.1010 N   0  0  0  0  0  0
   56.4230   46.8100    0.9887 O   0  0  0  0  0  0
   53.1280   45.6100   -1.4117 N   0  0  0  0  0  0
   52.6175   45.0909   -2.4990 C   0  0  0  0  0  0
   53.2230   45.6055   -3.6237 N   0  0  0  0  0  0
   51.5560   44.0100   -2.5202 C   0  0  0  0  0  0
   51.3242   43.2631   -3.6800 C   0  0  0  0  0  0
   50.4228   42.2023   -3.6693 C   0  0  0  0  0  0
   49.7624   41.8211   -2.4963 C   0  0  0  0  0  0
   50.0152   42.5686   -1.3364 C   0  0  0  0  0  0
   50.8409   43.6848   -1.3616 C   0  0  0  0  0  0
   48.7552   40.7061   -2.4990 C   0  0  0  0  0  0
   48.4230   40.0100   -1.3222 C   0  0  0  0  0  0
   47.3854   39.0830   -1.2943 C   0  0  0  0  0  0
   46.6324   38.8684   -2.4422 C   0  0  0  0  0  0
   46.9320   39.5525   -3.6157 C   0  0  0  0  0  0
   48.0229   40.4100   -3.6585 C   0  0  0  0  0  0
   57.2455   48.6449   -3.8418 C   0  0  0  0  0  0
   56.9705   48.2099   -1.2106 H   0  0  0  0  0  0
   55.2198   47.2100   -5.0020 H   0  0  0  0  0  0
   54.2344   46.6575    2.1065 H   0  0  0  0  0  0
   53.3137   46.6897    0.6087 H   0  0  0  0  0  0
   52.9540   45.3517   -4.5609 H   0  0  0  0  0  0
   51.8534   43.4847   -4.5939 H   0  0  0  0  0  0
   50.2646   41.6563   -4.5842 H   0  0  0  0  0  0
   49.5193   42.3320   -0.4077 H   0  0  0  0  0  0
   50.9931   44.2485   -0.4525 H   0  0  0  0  0  0
   48.9674   40.1876   -0.4069 H   0  0  0  0  0  0
   47.1522   38.5585   -0.3785 H   0  0  0  0  0  0
   45.8069   38.1739   -2.4185 H   0  0  0  0  0  0
   46.3309   39.3960   -4.4988 H   0  0  0  0  0  0
   48.2133   40.9342   -4.5820 H   0  0  0  0  0  0
   57.3714   48.3488   -4.8840 H   0  0  0  0  0  0
   57.0053   49.7079   -3.7988 H   0  0  0  0  0  0
   58.2092   48.4933   -3.3533 H   0  0  0  0  0  0
  1  2  2  0  0  0
  1  6  1  0  0  0
  1 26  1  0  0  0
  2  3  1  0  0  0
  2 25  1  0  0  0
  3  4  2  0  0  0
  3 27  1  0  0  0
  4  5  1  0  0  0
  4 12  1  0  0  0
  5  6  2  0  0  0
  5 10  1  0  0  0
  6  7  1  0  0  0
  7  8  1  0  0  0
  7  9  2  0  0  0
  8 28  1  0  0  0
  8 29  1  0  0  0
 10 11  2  0  0  0
 11 12  1  0  0  0
 11 13  1  0  0  0
 12 30  1  0  0  0
 13 14  2  0  0  0
 13 18  1  0  0  0
 14 15  1  0  0  0
 14 31  1  0  0  0
 15 16  2  0  0  0
 15 32  1  0  0  0
 16 17  1  0  0  0
 16 19  1  0  0  0
 17 18  2  0  0  0
 17 33  1  0  0  0
 18 34  1  0  0  0
 19 20  2  0  0  0
 19 24  1  0  0  0
 20 21  1  0  0  0
 20 35  1  0  0  0
 21 22  2  0  0  0
 21 36  1  0  0  0
 22 23  1  0  0  0
 22 37  1  0  0  0
 23 24  2  0  0  0
 23 38  1  0  0  0
 24 39  1  0  0  0
 25 40  1  0  0  0
 25 41  1  0  0  0
 25 42  1  0  0  0
M  END
> <s_m_entry_id>
25518

> <s_m_entry_name>
dock_pv.170

> <s_m_Source_Path>
/home/csk/Desktop/cluster/DUD-E-result/pyrd

> <s_m_Source_File>
dock_pv.maegz

> <i_m_Source_File_Index>
170

> <chembl_id>
CHEMBL3593808

> <chembl_pref_name>
None

> <i_lp_mmshare_version>
53161

> <r_lp_tautomer_probability>
1

> <s_lp_Force_Field>
OPLS_2005

> <r_lp_Energy>
23.045769

> <b_lp_Chiralities_Consistent>
1

> <s_lp_Variant>
CHEMBL1966_lig289-1

> <s_i_glide_gridfile>
glide-grid_1d3g

> <i_i_glide_lignum>
335

> <i_i_glide_rotatable_bonds>
3

> <r_i_docking_score>
-9.94111069928909

> <r_i_glide_ligand_efficiency>
-0.397644427971564

> <r_i_glide_ligand_efficiency_sa>
-1.16271935964281

> <r_i_glide_ligand_efficiency_ln>
-2.35634114677923

> <r_i_glide_gscore>
-9.94111069928909

> <r_i_glide_lipo>
-5.5751404092567

> <r_i_glide_hbond>
-0.245614320506539

> <r_i_glide_metal>
0

> <r_i_glide_rewards>
-2.56277144618506

> <r_i_glide_evdw>
-35.1081352233887

> <r_i_glide_ecoul>
-1.01593518257141

> <r_i_glide_erotb>
0.35021251521435

> <r_i_glide_esite>
0

> <r_i_glide_emodel>
-45.029727638072

> <r_i_glide_energy>
-36.1240704059601

> <r_i_glide_einternal>
1.6114513874054

> <i_i_glide_confnum>
6

> <i_i_glide_posenum>
128

> <r_i_glide_eff_state_penalty>
0

> <s_user_duplicate_titles>
CHEMBL1966_lig289

> <i_f3d_flags>
0

> <s_m_subgroup_title>
dock_pv

> <s_m_subgroupid>
dock_pv

> <b_m_subgroup_collapsed>
1

$$$$
CHEMBL1966_lig198
                    3D
 Schrodinger Suite 2021-1.
 47 50  0  0  1  0            999 V2000
   49.2230   41.2100   -5.4740 O   0  0  0  0  0  0
   48.1932   40.7665   -4.7009 C   0  0  0  0  0  0
   47.1072   40.4395   -5.1754 O   0  0  0  0  0  0
   48.4940   40.6480   -3.2202 C   0  0  0  0  0  0
   47.8194   39.6654   -2.4762 C   0  0  0  0  0  0
   48.0230   39.5635   -1.0997 C   0  0  0  0  0  0
   48.9473   40.4100   -0.4990 C   0  0  0  0  0  0
   49.6230   41.3532   -1.1869 N   0  0  0  0  0  0
   49.3578   41.5212   -2.5089 C   0  0  0  0  0  0
   49.9491   42.6383   -3.1204 N   0  0  0  0  0  0
   50.8475   43.6064   -2.6336 C   0  0  0  0  0  0
   50.6880   44.3246   -1.4326 C   0  0  0  0  0  0
   49.6267   44.1150   -0.6174 F   0  0  0  0  0  0
   51.6298   45.2932   -1.0668 C   0  0  0  0  0  0
   52.7603   45.5446   -1.8638 C   0  0  0  0  0  0
   52.8935   44.8253   -3.0577 C   0  0  0  0  0  0
   51.9542   43.8776   -3.4357 C   0  0  0  0  0  0
   52.1292   43.2100   -4.5925 F   0  0  0  0  0  0
   53.8672   46.4443   -1.4380 C   0  0  0  0  0  0
   54.2739   46.5054   -0.0995 C   0  0  0  0  0  0
   55.4245   47.2032    0.2604 C   0  0  0  0  0  0
   56.1805   47.8568   -0.7118 C   0  0  0  0  0  0
   55.7710   47.8467   -2.0530 C   0  0  0  0  0  0
   56.4512   48.4374   -3.1000 O   0  0  0  0  0  0
   57.7300   49.0235   -2.8792 C   0  0  0  0  0  0
   58.2375   49.7953   -4.0992 C   0  0  0  0  0  0
   58.7287   50.8830   -3.1330 C   0  0  0  0  0  0
   57.7371   50.3351   -2.0947 C   0  0  0  0  0  0
   54.6083   47.1582   -2.3902 C   0  0  0  0  0  0
   50.0411   41.2658   -4.9746 H   0  0  0  0  0  0
   47.1258   38.9866   -2.9539 H   0  0  0  0  0  0
   47.5080   38.8123   -0.5180 H   0  0  0  0  0  0
   49.1901   40.3177    0.5502 H   0  0  0  0  0  0
   49.6825   42.7886   -4.0828 H   0  0  0  0  0  0
   51.4915   45.8271   -0.1379 H   0  0  0  0  0  0
   53.7518   44.9675   -3.6983 H   0  0  0  0  0  0
   53.7351   45.9643    0.6646 H   0  0  0  0  0  0
   55.7462   47.2100    1.2913 H   0  0  0  0  0  0
   57.0854   48.3572   -0.4047 H   0  0  0  0  0  0
   58.3920   48.2395   -2.5150 H   0  0  0  0  0  0
   59.0073   49.2910   -4.6838 H   0  0  0  0  0  0
   57.4380   50.1366   -4.7592 H   0  0  0  0  0  0
   59.7741   50.7664   -2.8390 H   0  0  0  0  0  0
   58.5515   51.9110   -3.4519 H   0  0  0  0  0  0
   56.7582   50.8100   -2.0987 H   0  0  0  0  0  0
   58.1085   50.2864   -1.0732 H   0  0  0  0  0  0
   54.3136   47.1431   -3.4294 H   0  0  0  0  0  0
  1  2  1  0  0  0
  1 30  1  0  0  0
  2  3  2  0  0  0
  2  4  1  0  0  0
  4  5  2  0  0  0
  4  9  1  0  0  0
  5  6  1  0  0  0
  5 31  1  0  0  0
  6  7  2  0  0  0
  6 32  1  0  0  0
  7  8  1  0  0  0
  7 33  1  0  0  0
  8  9  2  0  0  0
  9 10  1  0  0  0
 10 11  1  0  0  0
 10 34  1  0  0  0
 11 12  2  0  0  0
 11 17  1  0  0  0
 12 13  1  0  0  0
 12 14  1  0  0  0
 14 15  2  0  0  0
 14 35  1  0  0  0
 15 16  1  0  0  0
 15 19  1  0  0  0
 16 17  2  0  0  0
 16 36  1  0  0  0
 17 18  1  0  0  0
 19 20  2  0  0  0
 19 29  1  0  0  0
 20 21  1  0  0  0
 20 37  1  0  0  0
 21 22  2  0  0  0
 21 38  1  0  0  0
 22 23  1  0  0  0
 22 39  1  0  0  0
 23 24  1  0  0  0
 23 29  2  0  0  0
 24 25  1  0  0  0
 25 26  1  0  0  0
 25 28  1  0  0  0
 25 40  1  0  0  0
 26 27  1  0  0  0
 26 41  1  0  0  0
 26 42  1  0  0  0
 27 28  1  0  0  0
 27 43  1  0  0  0
 27 44  1  0  0  0
 28 45  1  0  0  0
 28 46  1  0  0  0
 29 47  1  0  0  0
M  END
> <s_m_entry_id>
25519

> <s_m_entry_name>
dock_pv.171

> <s_m_Source_Path>
/home/csk/Desktop/cluster/DUD-E-result/pyrd

> <s_m_Source_File>
dock_pv.maegz

> <i_m_Source_File_Index>
171

> <chembl_id>
CHEMBL2263630

> <chembl_pref_name>
None

> <i_lp_mmshare_version>
53161

> <r_lp_tautomer_probability>
1

> <s_lp_Force_Field>
OPLS_2005

> <r_lp_Energy>
38.13488

> <b_lp_Chiralities_Consistent>
1

> <s_lp_Variant>
CHEMBL1966_lig198-1

> <s_i_glide_gridfile>
glide-grid_1d3g

> <i_i_glide_lignum>
243

> <i_i_glide_rotatable_bonds>
7

> <r_i_docking_score>
-9.94024429594638

> <r_i_glide_ligand_efficiency>
-0.342767044687806

> <r_i_glide_ligand_efficiency_sa>
-1.05308895750294

> <r_i_glide_ligand_efficiency_ln>
-2.27606388092495

> <r_i_glide_gscore>
-9.94024429594638

> <r_i_glide_lipo>
-5.46229629260634

> <r_i_glide_hbond>
0

> <r_i_glide_metal>
0

> <r_i_glide_rewards>
-2.56762065932728

> <r_i_glide_evdw>
-45.247631072998

> <r_i_glide_ecoul>
-2.63363099098206

> <r_i_glide_erotb>
0.747098858284453

> <r_i_glide_esite>
0

> <r_i_glide_emodel>
-69.049832371243

> <r_i_glide_energy>
-47.8812620639801

> <r_i_glide_einternal>
7.80352449417114

> <i_i_glide_confnum>
85

> <i_i_glide_posenum>
389

> <r_i_glide_eff_state_penalty>
0

> <s_user_duplicate_titles>
CHEMBL1966_lig198

> <i_f3d_flags>
0

> <s_m_subgroup_title>
dock_pv

> <s_m_subgroupid>
dock_pv

> <b_m_subgroup_collapsed>
1

$$$$
CHEMBL1966_lig36
                    3D
 Schrodinger Suite 2021-1.
 47 49  0  0  1  0            999 V2000
   49.8524   41.8450   -2.1343 C   0  0  0  0  0  0
   48.8777   40.9480   -2.7713 C   0  0  0  0  0  0
   51.1880   43.8370   -2.5629 C   0  0  0  0  0  0
   50.2556   42.8545   -2.9229 N   0  0  0  0  0  0
   48.0660   40.0100   -2.1769 C   0  0  0  0  0  0
   51.0654   44.6495   -1.4195 C   0  0  0  0  0  0
   52.2740   44.0100   -3.4191 C   0  0  0  0  0  0
   48.0230   39.6100   -0.7799 C   0  0  0  0  0  0
   53.1465   45.7679   -1.9910 C   0  0  0  0  0  0
   52.0406   45.6100   -1.1455 C   0  0  0  0  0  0
   53.2350   44.9766   -3.1380 C   0  0  0  0  0  0
   54.2688   46.6726   -1.6502 C   0  0  0  0  0  0
   50.2733   41.7494   -0.9854 O   0  0  0  0  0  0
   48.8230   39.9336    0.0853 O   0  0  0  0  0  0
   54.8228   47.5323   -2.6085 C   0  0  0  0  0  0
   52.4224   43.2100   -4.4990 F   0  0  0  0  0  0
   50.0228   44.5155   -0.5689 F   0  0  0  0  0  0
   46.9702   38.8006   -0.4990 O   0  0  0  0  0  0
   55.9568   48.2973   -2.3304 C   0  0  0  0  0  0
   48.5833   41.0124   -4.2693 C   0  0  0  0  0  0
   47.1043   39.4003   -3.1755 C   0  0  0  0  0  0
   56.4390   49.0942   -3.3493 O   0  0  0  0  0  0
   47.2957   40.2333   -4.4225 C   0  0  0  0  0  0
   54.8581   46.6051   -0.3847 C   0  0  0  0  0  0
   55.9977   47.3475   -0.0989 C   0  0  0  0  0  0
   56.5414   48.1960   -1.0592 C   0  0  0  0  0  0
   57.6491   49.8163   -3.1436 C   0  0  0  0  0  0
   58.0249   50.5169   -4.4490 C   0  0  0  0  0  0
   50.0048   42.8118   -3.8984 H   0  0  0  0  0  0
   51.9491   46.2104   -0.2521 H   0  0  0  0  0  0
   54.0975   45.0698   -3.7781 H   0  0  0  0  0  0
   54.3836   47.5940   -3.5939 H   0  0  0  0  0  0
   47.0101   38.6120    0.4469 H   0  0  0  0  0  0
   49.3983   40.5556   -4.8270 H   0  0  0  0  0  0
   48.4433   42.0217   -4.6627 H   0  0  0  0  0  0
   46.0612   39.4295   -2.8544 H   0  0  0  0  0  0
   47.3710   38.3525   -3.2990 H   0  0  0  0  0  0
   47.3278   39.6100   -5.2990 H   0  0  0  0  0  0
   46.4468   40.9066   -4.5510 H   0  0  0  0  0  0
   54.4639   45.9368    0.3678 H   0  0  0  0  0  0
   56.4643   47.2558    0.8714 H   0  0  0  0  0  0
   57.4249   48.7592   -0.8012 H   0  0  0  0  0  0
   57.5210   50.5546   -2.3498 H   0  0  0  0  0  0
   58.4568   49.1417   -2.8529 H   0  0  0  0  0  0
   58.9440   51.0892   -4.3290 H   0  0  0  0  0  0
   58.1759   49.7950   -5.2521 H   0  0  0  0  0  0
   57.2419   51.2099   -4.7574 H   0  0  0  0  0  0
  1  2  1  0  0  0
  1  4  1  0  0  0
  1 13  2  0  0  0
  2  5  2  0  0  0
  2 20  1  0  0  0
  3  4  1  0  0  0
  3  6  2  0  0  0
  3  7  1  0  0  0
  4 29  1  0  0  0
  5  8  1  0  0  0
  5 21  1  0  0  0
  6 10  1  0  0  0
  6 17  1  0  0  0
  7 11  2  0  0  0
  7 16  1  0  0  0
  8 14  2  0  0  0
  8 18  1  0  0  0
  9 11  1  0  0  0
  9 12  1  0  0  0
  9 10  2  0  0  0
 10 30  1  0  0  0
 11 31  1  0  0  0
 12 15  1  0  0  0
 12 24  2  0  0  0
 15 19  2  0  0  0
 15 32  1  0  0  0
 18 33  1  0  0  0
 19 22  1  0  0  0
 19 26  1  0  0  0
 20 23  1  0  0  0
 20 34  1  0  0  0
 20 35  1  0  0  0
 21 23  1  0  0  0
 21 36  1  0  0  0
 21 37  1  0  0  0
 22 27  1  0  0  0
 23 38  1  0  0  0
 23 39  1  0  0  0
 24 25  1  0  0  0
 24 40  1  0  0  0
 25 26  2  0  0  0
 25 41  1  0  0  0
 26 42  1  0  0  0
 27 28  1  0  0  0
 27 43  1  0  0  0
 27 44  1  0  0  0
 28 45  1  0  0  0
 28 46  1  0  0  0
 28 47  1  0  0  0
M  END
> <s_m_entry_id>
25520

> <s_m_entry_name>
dock_pv.172

> <s_m_Source_Path>
/home/csk/Desktop/cluster/DUD-E-result/pyrd

> <s_m_Source_File>
dock_pv.maegz

> <i_m_Source_File_Index>
172

> <chembl_id>
CHEMBL351786

> <chembl_pref_name>
None

> <i_lp_mmshare_version>
53161

> <r_lp_tautomer_probability>
1

> <s_lp_Force_Field>
OPLS_2005

> <r_lp_Energy>
45.77148

> <b_lp_Chiralities_Consistent>
1

> <s_lp_Variant>
CHEMBL1966_lig36-1

> <s_i_glide_gridfile>
glide-grid_1d3g

> <i_i_glide_lignum>
40

> <i_i_glide_rotatable_bonds>
8

> <r_i_docking_score>
-9.93677262642806

> <r_i_glide_ligand_efficiency>
-0.354884736658145

> <r_i_glide_ligand_efficiency_sa>
-1.07763907642615

> <r_i_glide_ligand_efficiency_ln>
-2.29369887850151

> <r_i_glide_gscore>
-9.93677262642806

> <r_i_glide_lipo>
-5.15973173008411

> <r_i_glide_hbond>
0

> <r_i_glide_metal>
0

> <r_i_glide_rewards>
-2.81827090235126

> <r_i_glide_evdw>
-39.2484931945801

> <r_i_glide_ecoul>
-5.16635894775391

> <r_i_glide_erotb>
0.778608507899397

> <r_i_glide_esite>
0

> <r_i_glide_emodel>
-61.2534697750093

> <r_i_glide_energy>
-44.414852142334

> <r_i_glide_einternal>
8.27658271789551

> <i_i_glide_confnum>
9

> <i_i_glide_posenum>
42

> <r_i_glide_eff_state_penalty>
0

> <s_user_duplicate_titles>
CHEMBL1966_lig36,257650

> <i_f3d_flags>
0

> <s_m_subgroup_title>
dock_pv

> <s_m_subgroupid>
dock_pv

> <b_m_subgroup_collapsed>
1

$$$$
CHEMBL1966_lig804
                    3D
 Schrodinger Suite 2021-1.
 39 41  0  0  1  0            999 V2000
   49.2230   41.7151   -4.2277 C   0  0  0  0  0  0
   50.1150   42.7739   -4.0217 C   0  0  0  0  0  0
   50.5932   43.0615   -2.7381 C   0  0  0  0  0  0
   50.1440   42.2811   -1.6778 C   0  0  0  0  0  0
   49.2643   41.2098   -1.8789 C   0  0  0  0  0  0
   48.8231   40.9149   -3.1640 C   0  0  0  0  0  0
   51.5913   44.1340   -2.4989 C   0  0  0  0  0  0
   51.4943   45.0139   -1.4070 C   0  0  0  0  0  0
   52.4611   46.0029   -1.2082 C   0  0  0  0  0  0
   53.5343   46.1233   -2.0981 C   0  0  0  0  0  0
   53.6230   45.2521   -3.1806 C   0  0  0  0  0  0
   52.6659   44.2694   -3.3759 C   0  0  0  0  0  0
   54.6123   47.1207   -1.9116 C   0  0  0  0  0  0
   54.9839   47.9569   -2.9719 C   0  0  0  0  0  0
   56.0726   48.8133   -2.8455 C   0  0  0  0  0  0
   56.7946   48.8346   -1.6570 C   0  0  0  0  0  0
   56.4303   48.0100   -0.5972 C   0  0  0  0  0  0
   55.3303   47.1674   -0.7137 C   0  0  0  0  0  0
   48.7565   41.3731   -5.5918 C   0  0  0  0  0  0
   48.8230   40.4100   -0.6965 C   0  0  0  0  0  0
   49.4518   40.4915    0.3384 O   0  0  0  0  0  0
   47.7609   39.6099   -0.7975 N   0  0  0  0  0  0
   47.4087   41.2098   -5.7052 O   0  0  0  0  0  0
   49.5529   41.2102   -6.5005 O   0  0  0  0  0  0
   50.4463   43.3724   -4.8602 H   0  0  0  0  0  0
   50.5120   42.5015   -0.6850 H   0  0  0  0  0  0
   48.1749   40.0662   -3.3397 H   0  0  0  0  0  0
   50.6669   44.9381   -0.7160 H   0  0  0  0  0  0
   52.3776   46.6691   -0.3616 H   0  0  0  0  0  0
   54.4595   45.3207   -3.8600 H   0  0  0  0  0  0
   52.7783   43.5868   -4.2051 H   0  0  0  0  0  0
   54.4391   47.9280   -3.9051 H   0  0  0  0  0  0
   56.3614   49.4523   -3.6675 H   0  0  0  0  0  0
   57.6516   49.4850   -1.5568 H   0  0  0  0  0  0
   57.0255   48.0100    0.3011 H   0  0  0  0  0  0
   55.0711   46.5132    0.1064 H   0  0  0  0  0  0
   47.4901   39.0810    0.0209 H   0  0  0  0  0  0
   47.2287   39.5425   -1.6486 H   0  0  0  0  0  0
   46.9679   41.5020   -4.9044 H   0  0  0  0  0  0
  1  2  2  0  0  0
  1  6  1  0  0  0
  1 19  1  0  0  0
  2  3  1  0  0  0
  2 25  1  0  0  0
  3  4  2  0  0  0
  3  7  1  0  0  0
  4  5  1  0  0  0
  4 26  1  0  0  0
  5  6  2  0  0  0
  5 20  1  0  0  0
  6 27  1  0  0  0
  7  8  2  0  0  0
  7 12  1  0  0  0
  8  9  1  0  0  0
  8 28  1  0  0  0
  9 10  2  0  0  0
  9 29  1  0  0  0
 10 11  1  0  0  0
 10 13  1  0  0  0
 11 12  2  0  0  0
 11 30  1  0  0  0
 12 31  1  0  0  0
 13 14  2  0  0  0
 13 18  1  0  0  0
 14 15  1  0  0  0
 14 32  1  0  0  0
 15 16  2  0  0  0
 15 33  1  0  0  0
 16 17  1  0  0  0
 16 34  1  0  0  0
 17 18  2  0  0  0
 17 35  1  0  0  0
 18 36  1  0  0  0
 19 23  1  0  0  0
 19 24  2  0  0  0
 20 21  2  0  0  0
 20 22  1  0  0  0
 22 37  1  0  0  0
 22 38  1  0  0  0
 23 39  1  0  0  0
M  END
> <s_m_entry_id>
25521

> <s_m_entry_name>
dock_pv.173

> <s_m_Source_Path>
/home/csk/Desktop/cluster/DUD-E-result/pyrd

> <s_m_Source_File>
dock_pv.maegz

> <i_m_Source_File_Index>
173

> <chembl_id>
CHEMBL203836

> <chembl_pref_name>
None

> <i_lp_mmshare_version>
53161

> <r_lp_tautomer_probability>
1

> <s_lp_Force_Field>
OPLS_2005

> <r_lp_Energy>
22.360028

> <b_lp_Chiralities_Consistent>
1

> <s_lp_Variant>
CHEMBL1966_lig804-1

> <s_i_glide_gridfile>
glide-grid_1d3g

> <i_i_glide_lignum>
875

> <i_i_glide_rotatable_bonds>
5

> <r_i_docking_score>
-9.9218141113485

> <r_i_glide_ligand_efficiency>
-0.413408921306187

> <r_i_glide_ligand_efficiency_sa>
-1.19247767696694

> <r_i_glide_ligand_efficiency_ln>
-2.37474539922867

> <r_i_glide_gscore>
-9.9218141113485

> <r_i_glide_lipo>
-5.24010718158392

> <r_i_glide_hbond>
-0.238741266458491

> <r_i_glide_metal>
0

> <r_i_glide_rewards>
-2.57996591676326

> <r_i_glide_evdw>
-30.1179256439209

> <r_i_glide_ecoul>
-6.08055639266968

> <r_i_glide_erotb>
0.554979994553682

> <r_i_glide_esite>
0

> <r_i_glide_emodel>
-47.7125174312915

> <r_i_glide_energy>
-36.1984820365906

> <r_i_glide_einternal>
7.07125854492188

> <i_i_glide_confnum>
9

> <i_i_glide_posenum>
26

> <r_i_glide_eff_state_penalty>
0

> <s_user_duplicate_titles>
CHEMBL1966_lig804

> <i_f3d_flags>
0

> <s_m_subgroup_title>
dock_pv

> <s_m_subgroupid>
dock_pv

> <b_m_subgroup_collapsed>
1

$$$$
CHEMBL1966_lig448
                    3D
 Schrodinger Suite 2021-1.
 42 44  0  0  1  0            999 V2000
   47.1035   38.5695   -0.8898 C   0  0  0  0  0  0
   47.9287   39.6288   -1.5946 C   0  0  0  0  0  0
   48.8231   40.4099   -0.8644 C   0  0  0  0  0  0
   49.6234   41.3373   -1.5140 C   0  0  0  0  0  0
   49.5218   41.5539   -2.8933 C   0  0  0  0  0  0
   50.3818   42.4848   -3.5069 N   0  0  0  0  0  0
   51.2095   43.4975   -2.9901 C   0  0  0  0  0  0
   52.3554   43.8483   -3.6990 C   0  0  0  0  0  0
   53.2233   44.8098   -3.2923 N   0  0  0  0  0  0
   52.9750   45.4787   -2.1298 C   0  0  0  0  0  0
   51.8055   45.2182   -1.3767 C   0  0  0  0  0  0
   51.4183   46.0039   -0.1352 C   0  0  0  0  0  0
   50.9310   44.2135   -1.8188 C   0  0  0  0  0  0
   54.0731   46.4175   -1.7323 C   0  0  0  0  0  0
   54.6514   46.3502   -0.4555 C   0  0  0  0  0  0
   55.7214   47.1688   -0.0989 C   0  0  0  0  0  0
   56.2546   48.0588   -1.0262 C   0  0  0  0  0  0
   55.7119   48.1332   -2.3073 C   0  0  0  0  0  0
   56.4230   49.1952   -3.4689 Cl  0  0  0  0  0  0
   54.6204   47.3292   -2.6517 C   0  0  0  0  0  0
   48.5703   40.8099   -3.6377 C   0  0  0  0  0  0
   47.7993   39.8402   -2.9684 C   0  0  0  0  0  0
   48.3457   41.0208   -5.1217 C   0  0  0  0  0  0
   49.2230   41.3876   -5.8971 O   0  0  0  0  0  0
   47.0627   40.8053   -5.5288 O   0  0  0  0  0  0
   46.3768   39.0405   -0.2277 H   0  0  0  0  0  0
   47.7476   37.9414   -0.2733 H   0  0  0  0  0  0
   46.5814   37.9180   -1.5903 H   0  0  0  0  0  0
   48.9376   40.2530    0.1985 H   0  0  0  0  0  0
   50.3569   41.8599   -0.9219 H   0  0  0  0  0  0
   50.5097   42.2993   -4.4929 H   0  0  0  0  0  0
   52.6192   43.3142   -4.5983 H   0  0  0  0  0  0
   50.8235   46.8679   -0.4329 H   0  0  0  0  0  0
   50.8319   45.3748    0.5363 H   0  0  0  0  0  0
   52.2575   46.3603    0.4531 H   0  0  0  0  0  0
   50.0198   44.0243   -1.2725 H   0  0  0  0  0  0
   54.2977   45.6267    0.2640 H   0  0  0  0  0  0
   56.1536   47.0955    0.8886 H   0  0  0  0  0  0
   57.1003   48.6756   -0.7554 H   0  0  0  0  0  0
   54.2154   47.3904   -3.6519 H   0  0  0  0  0  0
   47.0979   39.2214   -3.5107 H   0  0  0  0  0  0
   46.4859   40.7036   -4.7694 H   0  0  0  0  0  0
  1  2  1  0  0  0
  1 26  1  0  0  0
  1 27  1  0  0  0
  1 28  1  0  0  0
  2  3  2  0  0  0
  2 22  1  0  0  0
  3  4  1  0  0  0
  3 29  1  0  0  0
  4  5  2  0  0  0
  4 30  1  0  0  0
  5  6  1  0  0  0
  5 21  1  0  0  0
  6  7  1  0  0  0
  6 31  1  0  0  0
  7  8  2  0  0  0
  7 13  1  0  0  0
  8  9  1  0  0  0
  8 32  1  0  0  0
  9 10  2  0  0  0
 10 11  1  0  0  0
 10 14  1  0  0  0
 11 12  1  0  0  0
 11 13  2  0  0  0
 12 33  1  0  0  0
 12 34  1  0  0  0
 12 35  1  0  0  0
 13 36  1  0  0  0
 14 15  2  0  0  0
 14 20  1  0  0  0
 15 16  1  0  0  0
 15 37  1  0  0  0
 16 17  2  0  0  0
 16 38  1  0  0  0
 17 18  1  0  0  0
 17 39  1  0  0  0
 18 19  1  0  0  0
 18 20  2  0  0  0
 20 40  1  0  0  0
 21 22  2  0  0  0
 21 23  1  0  0  0
 22 41  1  0  0  0
 23 24  2  0  0  0
 23 25  1  0  0  0
 25 42  1  0  0  0
M  END
> <s_m_entry_id>
25522

> <s_m_entry_name>
dock_pv.174

> <s_m_Source_Path>
/home/csk/Desktop/cluster/DUD-E-result/pyrd

> <s_m_Source_File>
dock_pv.maegz

> <i_m_Source_File_Index>
174

> <chembl_id>
CHEMBL3674657

> <chembl_pref_name>
None

> <i_lp_mmshare_version>
53161

> <r_lp_tautomer_probability>
0.999999999999999

> <s_lp_Force_Field>
OPLS_2005

> <r_lp_Energy>
28.163774

> <b_lp_Chiralities_Consistent>
1

> <s_lp_Variant>
CHEMBL1966_lig448-1

> <s_i_glide_gridfile>
glide-grid_1d3g

> <i_i_glide_lignum>
498

> <i_i_glide_rotatable_bonds>
5

> <r_i_docking_score>
-9.91915208798026

> <r_i_glide_ligand_efficiency>
-0.396766083519211

> <r_i_glide_ligand_efficiency_sa>
-1.16015106488662

> <r_i_glide_ligand_efficiency_ln>
-2.35113629785255

> <r_i_glide_gscore>
-9.91915208798026

> <r_i_glide_lipo>
-5.73546102893343

> <r_i_glide_hbond>
-0.0175860319119712

> <r_i_glide_metal>
0

> <r_i_glide_rewards>
-2.18150191000967

> <r_i_glide_evdw>
-45.8078880310059

> <r_i_glide_ecoul>
-2.05088400840759

> <r_i_glide_erotb>
0.613423885686233

> <r_i_glide_esite>
0

> <r_i_glide_emodel>
-68.9944704880084

> <r_i_glide_energy>
-47.8587720394135

> <r_i_glide_einternal>
13.568826675415

> <i_i_glide_confnum>
43

> <i_i_glide_posenum>
240

> <r_i_glide_eff_state_penalty>
0

> <s_user_duplicate_titles>
CHEMBL1966_lig448

> <i_f3d_flags>
0

> <s_m_subgroup_title>
dock_pv

> <s_m_subgroupid>
dock_pv

> <b_m_subgroup_collapsed>
1

$$$$
CHEMBL1966_lig502
                    3D
 Schrodinger Suite 2021-1.
 39 42  0  0  1  0            999 V2000
   47.1213   38.6709   -0.4990 O   0  0  0  0  0  0
   48.0230   39.6100   -0.8894 C   0  0  0  0  0  0
   48.8230   40.1084   -0.0999 O   0  0  0  0  0  0
   47.9894   40.0100   -2.3462 C   0  0  0  0  0  0
   46.9656   39.5747   -3.1969 C   0  0  0  0  0  0
   46.8604   40.0100   -4.5124 C   0  0  0  0  0  0
   47.8153   40.8456   -5.0819 C   0  0  0  0  0  0
   48.8230   41.3652   -4.2625 C   0  0  0  0  0  0
   49.8264   42.3604   -4.4536 C   0  0  0  0  0  0
   50.3938   42.6121   -3.2239 C   0  0  0  0  0  0
   49.8857   41.7041   -2.3273 N   0  0  0  0  0  0
   48.8865   40.9455   -2.8990 C   0  0  0  0  0  0
   51.3358   43.6779   -2.8337 C   0  0  0  0  0  0
   51.1289   44.4100   -1.6598 C   0  0  0  0  0  0
   52.0230   45.4164   -1.2990 C   0  0  0  0  0  0
   53.1383   45.6887   -2.0993 C   0  0  0  0  0  0
   53.3011   44.9927   -3.2990 C   0  0  0  0  0  0
   52.4110   43.9871   -3.6645 C   0  0  0  0  0  0
   54.1922   46.6387   -1.6641 C   0  0  0  0  0  0
   54.7418   46.5252   -0.3826 C   0  0  0  0  0  0
   55.8167   47.3218   -0.0073 C   0  0  0  0  0  0
   56.3273   48.2619   -0.8990 C   0  0  0  0  0  0
   55.7694   48.4100   -2.1659 C   0  0  0  0  0  0
   54.7078   47.5943   -2.5492 C   0  0  0  0  0  0
   47.2230   38.5362    0.4523 H   0  0  0  0  0  0
   46.2042   38.9018   -2.8270 H   0  0  0  0  0  0
   46.0299   39.6615   -5.1101 H   0  0  0  0  0  0
   47.7142   41.1856   -6.0990 H   0  0  0  0  0  0
   50.0306   42.9210   -5.3537 H   0  0  0  0  0  0
   50.1651   41.6849   -1.3571 H   0  0  0  0  0  0
   50.2799   44.2031   -1.0243 H   0  0  0  0  0  0
   51.8687   45.9567   -0.3761 H   0  0  0  0  0  0
   54.1558   45.2075   -3.9227 H   0  0  0  0  0  0
   52.5705   43.4181   -4.5665 H   0  0  0  0  0  0
   54.3683   45.7855    0.3110 H   0  0  0  0  0  0
   56.2554   47.2100    0.9739 H   0  0  0  0  0  0
   57.1639   48.8793   -0.6030 H   0  0  0  0  0  0
   56.1686   49.1422   -2.8527 H   0  0  0  0  0  0
   54.2936   47.6958   -3.5424 H   0  0  0  0  0  0
  1  2  1  0  0  0
  1 25  1  0  0  0
  2  3  2  0  0  0
  2  4  1  0  0  0
  4  5  2  0  0  0
  4 12  1  0  0  0
  5  6  1  0  0  0
  5 26  1  0  0  0
  6  7  2  0  0  0
  6 27  1  0  0  0
  7  8  1  0  0  0
  7 28  1  0  0  0
  8  9  1  0  0  0
  8 12  2  0  0  0
  9 10  2  0  0  0
  9 29  1  0  0  0
 10 11  1  0  0  0
 10 13  1  0  0  0
 11 12  1  0  0  0
 11 30  1  0  0  0
 13 14  2  0  0  0
 13 18  1  0  0  0
 14 15  1  0  0  0
 14 31  1  0  0  0
 15 16  2  0  0  0
 15 32  1  0  0  0
 16 17  1  0  0  0
 16 19  1  0  0  0
 17 18  2  0  0  0
 17 33  1  0  0  0
 18 34  1  0  0  0
 19 20  2  0  0  0
 19 24  1  0  0  0
 20 21  1  0  0  0
 20 35  1  0  0  0
 21 22  2  0  0  0
 21 36  1  0  0  0
 22 23  1  0  0  0
 22 37  1  0  0  0
 23 24  2  0  0  0
 23 38  1  0  0  0
 24 39  1  0  0  0
M  END
> <s_m_entry_id>
25523

> <s_m_entry_name>
dock_pv.175

> <s_m_Source_Path>
/home/csk/Desktop/cluster/DUD-E-result/pyrd

> <s_m_Source_File>
dock_pv.maegz

> <i_m_Source_File_Index>
175

> <chembl_id>
CHEMBL3677760

> <chembl_pref_name>
None

> <i_lp_mmshare_version>
53161

> <r_lp_tautomer_probability>
1

> <s_lp_Force_Field>
OPLS_2005

> <r_lp_Energy>
18.856154

> <b_lp_Chiralities_Consistent>
1

> <s_lp_Variant>
CHEMBL1966_lig502-1

> <s_i_glide_gridfile>
glide-grid_1d3g

> <i_i_glide_lignum>
552

> <i_i_glide_rotatable_bonds>
4

> <r_i_docking_score>
-9.91449181166297

> <r_i_glide_ligand_efficiency>
-0.413103825485957

> <r_i_glide_ligand_efficiency_sa>
-1.19159762833662

> <r_i_glide_ligand_efficiency_ln>
-2.37299283691548

> <r_i_glide_gscore>
-9.91449181166297

> <r_i_glide_lipo>
-5.58905967163344

> <r_i_glide_hbond>
0

> <r_i_glide_metal>
0

> <r_i_glide_rewards>
-2.35666330555979

> <r_i_glide_evdw>
-39.9362754821777

> <r_i_glide_ecoul>
-3.59615397453308

> <r_i_glide_erotb>
0.567468035819113

> <r_i_glide_esite>
0

> <r_i_glide_emodel>
-62.2819832178057

> <r_i_glide_energy>
-43.5324294567108

> <r_i_glide_einternal>
2.96831226348877

> <i_i_glide_confnum>
9

> <i_i_glide_posenum>
290

> <r_i_glide_eff_state_penalty>
0

> <s_user_duplicate_titles>
CHEMBL1966_lig502

> <i_f3d_flags>
0

> <s_m_subgroup_title>
dock_pv

> <s_m_subgroupid>
dock_pv

> <b_m_subgroup_collapsed>
1

$$$$
CHEMBL1966_lig440
                    3D
 Schrodinger Suite 2021-1.
 46 48  0  0  1  0            999 V2000
   47.0607   38.5881   -0.9029 C   0  0  0  0  0  0
   47.8955   39.6281   -1.6233 C   0  0  0  0  0  0
   48.8228   40.3936   -0.9135 C   0  0  0  0  0  0
   49.6233   41.2968   -1.5853 C   0  0  0  0  0  0
   49.5076   41.5034   -2.9647 C   0  0  0  0  0  0
   50.3776   42.4169   -3.5883 N   0  0  0  0  0  0
   51.1750   43.4434   -3.0522 C   0  0  0  0  0  0
   52.3465   43.8117   -3.6990 C   0  0  0  0  0  0
   53.1720   44.7942   -3.2599 N   0  0  0  0  0  0
   52.8740   45.4453   -2.0978 C   0  0  0  0  0  0
   51.6769   45.1517   -1.3931 C   0  0  0  0  0  0
   51.2231   45.8294   -0.1141 C   0  0  0  0  0  0
   50.8359   44.1488   -1.8963 C   0  0  0  0  0  0
   53.9807   46.3536   -1.6347 C   0  0  0  0  0  0
   54.4352   46.3432   -0.3080 C   0  0  0  0  0  0
   55.5156   47.1180    0.1005 C   0  0  0  0  0  0
   56.2057   47.8947   -0.8239 C   0  0  0  0  0  0
   55.8249   47.8902   -2.1690 C   0  0  0  0  0  0
   54.6898   47.1536   -2.5512 C   0  0  0  0  0  0
   56.6687   48.6321   -3.1723 C   0  0  0  0  0  0
   57.2392   49.6814   -2.8893 O   0  0  0  0  0  0
   56.8228   48.0535   -4.3615 N   0  0  0  0  0  0
   48.5361   40.7717   -3.6907 C   0  0  0  0  0  0
   47.7476   39.8298   -2.9993 C   0  0  0  0  0  0
   48.3202   40.9503   -5.1779 C   0  0  0  0  0  0
   49.2230   41.2108   -5.9689 O   0  0  0  0  0  0
   47.0229   40.8096   -5.5737 O   0  0  0  0  0  0
   46.7569   37.7842   -1.5755 H   0  0  0  0  0  0
   47.6334   38.1216   -0.0999 H   0  0  0  0  0  0
   46.1711   39.0451   -0.4684 H   0  0  0  0  0  0
   48.9554   40.2424    0.1490 H   0  0  0  0  0  0
   50.3833   41.7996   -1.0089 H   0  0  0  0  0  0
   50.5382   42.2153   -4.5662 H   0  0  0  0  0  0
   52.6562   43.2852   -4.5878 H   0  0  0  0  0  0
   50.4447   45.2101    0.3581 H   0  0  0  0  0  0
   51.9943   45.9454    0.6366 H   0  0  0  0  0  0
   50.8266   46.8160   -0.3532 H   0  0  0  0  0  0
   49.9084   43.9313   -1.3913 H   0  0  0  0  0  0
   54.0043   45.6776    0.4220 H   0  0  0  0  0  0
   55.8457   47.0862    1.1284 H   0  0  0  0  0  0
   57.0718   48.4570   -0.4970 H   0  0  0  0  0  0
   54.3750   47.1575   -3.5853 H   0  0  0  0  0  0
   57.4062   48.5019   -5.0486 H   0  0  0  0  0  0
   56.4195   47.1479   -4.5442 H   0  0  0  0  0  0
   47.0259   39.2201   -3.5257 H   0  0  0  0  0  0
   46.4468   40.7559   -4.8093 H   0  0  0  0  0  0
  1  2  1  0  0  0
  1 28  1  0  0  0
  1 29  1  0  0  0
  1 30  1  0  0  0
  2  3  2  0  0  0
  2 24  1  0  0  0
  3  4  1  0  0  0
  3 31  1  0  0  0
  4  5  2  0  0  0
  4 32  1  0  0  0
  5  6  1  0  0  0
  5 23  1  0  0  0
  6  7  1  0  0  0
  6 33  1  0  0  0
  7  8  2  0  0  0
  7 13  1  0  0  0
  8  9  1  0  0  0
  8 34  1  0  0  0
  9 10  2  0  0  0
 10 11  1  0  0  0
 10 14  1  0  0  0
 11 12  1  0  0  0
 11 13  2  0  0  0
 12 35  1  0  0  0
 12 36  1  0  0  0
 12 37  1  0  0  0
 13 38  1  0  0  0
 14 15  2  0  0  0
 14 19  1  0  0  0
 15 16  1  0  0  0
 15 39  1  0  0  0
 16 17  2  0  0  0
 16 40  1  0  0  0
 17 18  1  0  0  0
 17 41  1  0  0  0
 18 19  2  0  0  0
 18 20  1  0  0  0
 19 42  1  0  0  0
 20 21  2  0  0  0
 20 22  1  0  0  0
 22 43  1  0  0  0
 22 44  1  0  0  0
 23 24  2  0  0  0
 23 25  1  0  0  0
 24 45  1  0  0  0
 25 26  2  0  0  0
 25 27  1  0  0  0
 27 46  1  0  0  0
M  END
> <s_m_entry_id>
25524

> <s_m_entry_name>
dock_pv.176

> <s_m_Source_Path>
/home/csk/Desktop/cluster/DUD-E-result/pyrd

> <s_m_Source_File>
dock_pv.maegz

> <i_m_Source_File_Index>
176

> <chembl_id>
CHEMBL3674650

> <chembl_pref_name>
None

> <i_lp_mmshare_version>
53161

> <r_lp_tautomer_probability>
0.999999999999999

> <s_lp_Force_Field>
OPLS_2005

> <r_lp_Energy>
30.201951

> <b_lp_Chiralities_Consistent>
1

> <s_lp_Variant>
CHEMBL1966_lig440-1

> <s_i_glide_gridfile>
glide-grid_1d3g

> <i_i_glide_lignum>
490

> <i_i_glide_rotatable_bonds>
6

> <r_i_docking_score>
-9.91406978198108

> <r_i_glide_ligand_efficiency>
-0.367187769703003

> <r_i_glide_ligand_efficiency_sa>
-1.10156330789882

> <r_i_glide_ligand_efficiency_ln>
-2.30783199903082

> <r_i_glide_gscore>
-9.91406978198108

> <r_i_glide_lipo>
-5.46741376864169

> <r_i_glide_hbond>
-0.0793072599103308

> <r_i_glide_metal>
0

> <r_i_glide_rewards>
-2.29934726095311

> <r_i_glide_evdw>
-47.2785377502441

> <r_i_glide_ecoul>
-1.94532465934753

> <r_i_glide_erotb>
0.587724093938396

> <r_i_glide_esite>
0

> <r_i_glide_emodel>
-70.0795490254905

> <r_i_glide_energy>
-49.2238624095917

> <r_i_glide_einternal>
14.9148416519165

> <i_i_glide_confnum>
19

> <i_i_glide_posenum>
55

> <r_i_glide_eff_state_penalty>
0

> <s_user_duplicate_titles>
CHEMBL1966_lig440

> <i_f3d_flags>
0

> <s_m_subgroup_title>
dock_pv

> <s_m_subgroupid>
dock_pv

> <b_m_subgroup_collapsed>
1

$$$$
CHEMBL1966_lig480
                    3D
 Schrodinger Suite 2021-1.
 46 49  0  0  1  0            999 V2000
   55.7127   44.4313   -3.4566 C   0  0  0  0  0  0
   54.6748   45.3750   -3.6989 O   0  0  0  0  0  0
   53.5428   45.2106   -2.9375 C   0  0  0  0  0  0
   52.6005   44.2518   -3.2990 C   0  0  0  0  0  0
   51.4814   44.0101   -2.4983 C   0  0  0  0  0  0
   51.2829   44.7952   -1.3527 C   0  0  0  0  0  0
   52.2106   45.7902   -1.0057 C   0  0  0  0  0  0
   52.0201   46.5736    0.1065 O   0  0  0  0  0  0
   52.0640   45.8913    1.3493 C   0  0  0  0  0  0
   53.3441   46.0059   -1.8064 C   0  0  0  0  0  0
   54.3954   46.9897   -1.4613 C   0  0  0  0  0  0
   55.1847   46.7922   -0.3273 C   0  0  0  0  0  0
   56.2817   47.6099   -0.0994 C   0  0  0  0  0  0
   56.5729   48.6459   -0.9834 C   0  0  0  0  0  0
   55.7807   48.8655   -2.1037 C   0  0  0  0  0  0
   54.6915   48.0348   -2.3428 C   0  0  0  0  0  0
   50.5479   42.9265   -2.8965 C   0  0  0  0  0  0
   50.0234   42.0167   -2.1045 N   0  0  0  0  0  0
   49.1550   41.2947   -2.8987 C   0  0  0  0  0  0
   48.2342   40.2547   -2.5801 C   0  0  0  0  0  0
   47.3834   39.8518   -3.6242 C   0  0  0  0  0  0
   47.4279   40.4099   -4.8990 C   0  0  0  0  0  0
   48.3634   41.3729   -5.2488 C   0  0  0  0  0  0
   49.1977   41.8126   -4.2289 C   0  0  0  0  0  0
   50.1231   42.8139   -4.1918 N   0  0  0  0  0  0
   48.0230   39.6100   -1.2227 C   0  0  0  0  0  0
   47.1885   38.7276   -1.0292 O   0  0  0  0  0  0
   48.8229   40.0680   -0.2216 O   0  0  0  0  0  0
   56.4750   44.5306   -4.2315 H   0  0  0  0  0  0
   56.1983   44.6199   -2.4993 H   0  0  0  0  0  0
   55.3526   43.3981   -3.4809 H   0  0  0  0  0  0
   52.7818   43.6416   -4.1706 H   0  0  0  0  0  0
   50.4097   44.6359   -0.7378 H   0  0  0  0  0  0
   52.0230   46.6263    2.1514 H   0  0  0  0  0  0
   51.2228   45.2082    1.4662 H   0  0  0  0  0  0
   52.9906   45.3307    1.4775 H   0  0  0  0  0  0
   54.9807   45.9744    0.3480 H   0  0  0  0  0  0
   56.9056   47.4462    0.7660 H   0  0  0  0  0  0
   57.4230   49.2857   -0.8029 H   0  0  0  0  0  0
   56.0220   49.6671   -2.7874 H   0  0  0  0  0  0
   54.0951   48.1790   -3.2329 H   0  0  0  0  0  0
   46.6312   39.0952   -3.4431 H   0  0  0  0  0  0
   46.7074   40.0758   -5.6305 H   0  0  0  0  0  0
   48.3761   41.8282   -6.2222 H   0  0  0  0  0  0
   50.4026   43.4477   -4.9258 H   0  0  0  0  0  0
   48.5995   39.5954    0.5854 H   0  0  0  0  0  0
  1  2  1  0  0  0
  1 29  1  0  0  0
  1 30  1  0  0  0
  1 31  1  0  0  0
  2  3  1  0  0  0
  3  4  2  0  0  0
  3 10  1  0  0  0
  4  5  1  0  0  0
  4 32  1  0  0  0
  5  6  2  0  0  0
  5 17  1  0  0  0
  6  7  1  0  0  0
  6 33  1  0  0  0
  7  8  1  0  0  0
  7 10  2  0  0  0
  8  9  1  0  0  0
  9 34  1  0  0  0
  9 35  1  0  0  0
  9 36  1  0  0  0
 10 11  1  0  0  0
 11 12  2  0  0  0
 11 16  1  0  0  0
 12 13  1  0  0  0
 12 37  1  0  0  0
 13 14  2  0  0  0
 13 38  1  0  0  0
 14 15  1  0  0  0
 14 39  1  0  0  0
 15 16  2  0  0  0
 15 40  1  0  0  0
 16 41  1  0  0  0
 17 18  2  0  0  0
 17 25  1  0  0  0
 18 19  1  0  0  0
 19 20  2  0  0  0
 19 24  1  0  0  0
 20 21  1  0  0  0
 20 26  1  0  0  0
 21 22  2  0  0  0
 21 42  1  0  0  0
 22 23  1  0  0  0
 22 43  1  0  0  0
 23 24  2  0  0  0
 23 44  1  0  0  0
 24 25  1  0  0  0
 25 45  1  0  0  0
 26 27  2  0  0  0
 26 28  1  0  0  0
 28 46  1  0  0  0
M  END
> <s_m_entry_id>
25525

> <s_m_entry_name>
dock_pv.177

> <s_m_Source_Path>
/home/csk/Desktop/cluster/DUD-E-result/pyrd

> <s_m_Source_File>
dock_pv.maegz

> <i_m_Source_File_Index>
177

> <chembl_id>
CHEMBL3677737

> <chembl_pref_name>
None

> <i_lp_mmshare_version>
53161

> <r_lp_tautomer_probability>
1

> <s_lp_Force_Field>
OPLS_2005

> <r_lp_Energy>
33.022281

> <b_lp_Chiralities_Consistent>
1

> <s_lp_Variant>
CHEMBL1966_lig480-1

> <s_i_glide_gridfile>
glide-grid_1d3g

> <i_i_glide_lignum>
530

> <i_i_glide_rotatable_bonds>
6

> <r_i_docking_score>
-9.91305362963955

> <r_i_glide_ligand_efficiency>
-0.354037629629984

> <r_i_glide_ligand_efficiency_sa>
-1.0750667605693

> <r_i_glide_ligand_efficiency_ln>
-2.28822383762272

> <r_i_glide_gscore>
-9.91305362963955

> <r_i_glide_lipo>
-5.37544282847393

> <r_i_glide_hbond>
0

> <r_i_glide_metal>
0

> <r_i_glide_rewards>
-2.28777957898261

> <r_i_glide_evdw>
-45.4526138305664

> <r_i_glide_ecoul>
-2.60691475868225

> <r_i_glide_erotb>
0.413836683147648

> <r_i_glide_esite>
0

> <r_i_glide_emodel>
-60.4870020046571

> <r_i_glide_energy>
-48.0595285892487

> <r_i_glide_einternal>
16.7348403930664

> <i_i_glide_confnum>
11

> <i_i_glide_posenum>
4

> <r_i_glide_eff_state_penalty>
0

> <s_user_duplicate_titles>
CHEMBL1966_lig480

> <i_f3d_flags>
0

> <s_m_subgroup_title>
dock_pv

> <s_m_subgroupid>
dock_pv

> <b_m_subgroup_collapsed>
1

$$$$
CHEMBL1966_lig519
                    3D
 Schrodinger Suite 2021-1.
 48 51  0  0  1  0            999 V2000
   45.3416   39.8661   -5.6977 C   0  0  0  0  0  0
   46.5647   40.1843   -4.8742 C   0  0  0  0  0  0
   46.6615   39.6101   -3.6143 C   0  0  0  0  0  0
   47.7089   39.8730   -2.7290 C   0  0  0  0  0  0
   47.6230   39.2102   -1.3714 C   0  0  0  0  0  0
   46.8991   38.2421   -1.1467 O   0  0  0  0  0  0
   48.3890   39.7774   -0.4023 O   0  0  0  0  0  0
   48.6818   40.8102   -3.1807 C   0  0  0  0  0  0
   49.7106   41.4250   -2.5066 N   0  0  0  0  0  0
   50.1596   42.3678   -3.3089 C   0  0  0  0  0  0
   51.0962   43.4503   -2.8646 C   0  0  0  0  0  0
   50.8257   44.1788   -1.6989 C   0  0  0  0  0  0
   51.6812   45.2102   -1.2987 C   0  0  0  0  0  0
   52.8229   45.5211   -2.0539 C   0  0  0  0  0  0
   53.0644   44.8094   -3.2302 C   0  0  0  0  0  0
   52.2242   43.7713   -3.6222 C   0  0  0  0  0  0
   53.8511   46.4884   -1.5880 C   0  0  0  0  0  0
   54.3303   46.4276   -0.2737 C   0  0  0  0  0  0
   55.4124   47.2103    0.1169 C   0  0  0  0  0  0
   56.0015   48.0810   -0.7979 C   0  0  0  0  0  0
   55.5047   48.1900   -2.0931 C   0  0  0  0  0  0
   54.4342   47.3925   -2.4865 C   0  0  0  0  0  0
   49.5675   42.3382   -4.5620 N   0  0  0  0  0  0
   49.7495   43.2922   -5.6703 C   0  0  0  0  0  0
   50.7617   42.8970   -6.7647 C   0  0  0  0  0  0
   50.4230   41.6412   -7.2990 O   0  0  0  0  0  0
   48.5856   41.3668   -4.4949 C   0  0  0  0  0  0
   47.5558   41.0280   -5.3735 C   0  0  0  0  0  0
   45.6231   39.6102   -6.7090 H   0  0  0  0  0  0
   44.8230   38.9881   -5.3142 H   0  0  0  0  0  0
   44.6738   40.7275   -5.6989 H   0  0  0  0  0  0
   45.8632   38.9488   -3.3030 H   0  0  0  0  0  0
   48.2415   39.3101    0.4270 H   0  0  0  0  0  0
   49.9550   43.9472   -1.1022 H   0  0  0  0  0  0
   51.4718   45.7457   -0.3839 H   0  0  0  0  0  0
   53.9593   45.0117   -3.7966 H   0  0  0  0  0  0
   52.4859   43.1917   -4.4887 H   0  0  0  0  0  0
   53.9037   45.7321    0.4346 H   0  0  0  0  0  0
   55.7996   47.1380    1.1224 H   0  0  0  0  0  0
   56.8477   48.6838   -0.4997 H   0  0  0  0  0  0
   55.9614   48.8739   -2.7938 H   0  0  0  0  0  0
   54.0746   47.4584   -3.5038 H   0  0  0  0  0  0
   48.7868   43.5683   -6.0990 H   0  0  0  0  0  0
   50.0956   44.2195   -5.2313 H   0  0  0  0  0  0
   50.8233   43.6473   -7.5527 H   0  0  0  0  0  0
   51.7719   42.8101   -6.3880 H   0  0  0  0  0  0
   51.0978   41.4007   -7.9418 H   0  0  0  0  0  0
   47.4602   41.5164   -6.3292 H   0  0  0  0  0  0
  1  2  1  0  0  0
  1 29  1  0  0  0
  1 30  1  0  0  0
  1 31  1  0  0  0
  2  3  2  0  0  0
  2 28  1  0  0  0
  3  4  1  0  0  0
  3 32  1  0  0  0
  4  5  1  0  0  0
  4  8  2  0  0  0
  5  6  2  0  0  0
  5  7  1  0  0  0
  7 33  1  0  0  0
  8  9  1  0  0  0
  8 27  1  0  0  0
  9 10  2  0  0  0
 10 11  1  0  0  0
 10 23  1  0  0  0
 11 12  2  0  0  0
 11 16  1  0  0  0
 12 13  1  0  0  0
 12 34  1  0  0  0
 13 14  2  0  0  0
 13 35  1  0  0  0
 14 15  1  0  0  0
 14 17  1  0  0  0
 15 16  2  0  0  0
 15 36  1  0  0  0
 16 37  1  0  0  0
 17 18  2  0  0  0
 17 22  1  0  0  0
 18 19  1  0  0  0
 18 38  1  0  0  0
 19 20  2  0  0  0
 19 39  1  0  0  0
 20 21  1  0  0  0
 20 40  1  0  0  0
 21 22  2  0  0  0
 21 41  1  0  0  0
 22 42  1  0  0  0
 23 24  1  0  0  0
 23 27  1  0  0  0
 24 25  1  0  0  0
 24 43  1  0  0  0
 24 44  1  0  0  0
 25 26  1  0  0  0
 25 45  1  0  0  0
 25 46  1  0  0  0
 26 47  1  0  0  0
 27 28  2  0  0  0
 28 48  1  0  0  0
M  END
> <s_m_entry_id>
25526

> <s_m_entry_name>
dock_pv.178

> <s_m_Source_Path>
/home/csk/Desktop/cluster/DUD-E-result/pyrd

> <s_m_Source_File>
dock_pv.maegz

> <i_m_Source_File_Index>
178

> <chembl_id>
CHEMBL3677778

> <chembl_pref_name>
None

> <i_lp_mmshare_version>
53161

> <r_lp_tautomer_probability>
1

> <s_lp_Force_Field>
OPLS_2005

> <r_lp_Energy>
28.406745

> <b_lp_Chiralities_Consistent>
1

> <s_lp_Variant>
CHEMBL1966_lig519-1

> <s_i_glide_gridfile>
glide-grid_1d3g

> <i_i_glide_lignum>
572

> <i_i_glide_rotatable_bonds>
7

> <r_i_docking_score>
-9.907780557157

> <r_i_glide_ligand_efficiency>
-0.35384930561275

> <r_i_glide_ligand_efficiency_sa>
-1.07449489793606

> <r_i_glide_ligand_efficiency_ln>
-2.28700665766961

> <r_i_glide_gscore>
-9.907780557157

> <r_i_glide_lipo>
-5.32900199307626

> <r_i_glide_hbond>
-0.00146690941447383

> <r_i_glide_metal>
0

> <r_i_glide_rewards>
-2.50003865744349

> <r_i_glide_evdw>
-40.478931427002

> <r_i_glide_ecoul>
-4.99735689163208

> <r_i_glide_erotb>
0.696277107872138

> <r_i_glide_esite>
0

> <r_i_glide_emodel>
-44.7266280146953

> <r_i_glide_energy>
-45.476288318634

> <r_i_glide_einternal>
3.25337338447571

> <i_i_glide_confnum>
168

> <i_i_glide_posenum>
194

> <r_i_glide_eff_state_penalty>
0

> <s_user_duplicate_titles>
CHEMBL1966_lig519

> <i_f3d_flags>
0

> <s_m_subgroup_title>
dock_pv

> <s_m_subgroupid>
dock_pv

> <b_m_subgroup_collapsed>
1

$$$$
CHEMBL1966_lig418
                    3D
 Schrodinger Suite 2021-1.
 47 50  0  0  1  0            999 V2000
   52.7631   46.7144    1.3382 C   0  0  0  0  0  0
   53.0797   46.7780   -0.0506 O   0  0  0  0  0  0
   52.4165   45.9349   -0.9221 C   0  0  0  0  0  0
   51.2237   45.4039   -0.5202 N   0  0  0  0  0  0
   50.6521   44.4482   -1.2873 C   0  0  0  0  0  0
   51.2253   43.9769   -2.4712 C   0  0  0  0  0  0
   50.6403   42.9708   -3.2509 N   0  0  0  0  0  0
   49.7524   41.9256   -2.9356 C   0  0  0  0  0  0
   49.6932   41.4384   -1.6252 C   0  0  0  0  0  0
   48.8230   40.4100   -1.2785 C   0  0  0  0  0  0
   48.0225   39.8137   -2.2550 C   0  0  0  0  0  0
   48.0867   40.2779   -3.5630 C   0  0  0  0  0  0
   48.9145   41.3521   -3.9191 C   0  0  0  0  0  0
   48.7939   41.9194   -5.3115 C   0  0  0  0  0  0
   49.6229   42.6736   -5.8138 O   0  0  0  0  0  0
   47.6235   41.6100   -5.9390 O   0  0  0  0  0  0
   47.0448   38.6987   -1.9296 C   0  0  0  0  0  0
   47.2016   37.7661   -0.7549 C   0  0  0  0  0  0
   46.1002   38.8102   -0.7642 C   0  0  0  0  0  0
   52.4231   44.5671   -2.8988 C   0  0  0  0  0  0
   53.0401   45.5680   -2.1301 C   0  0  0  0  0  0
   54.3501   46.1377   -2.5497 C   0  0  0  0  0  0
   55.4021   45.2888   -2.9168 C   0  0  0  0  0  0
   56.6367   45.8122   -3.2911 C   0  0  0  0  0  0
   56.8233   47.1918   -3.3020 C   0  0  0  0  0  0
   55.7870   48.0504   -2.9438 C   0  0  0  0  0  0
   54.5536   47.5225   -2.5701 C   0  0  0  0  0  0
   53.5526   47.2062    1.9005 H   0  0  0  0  0  0
   51.8166   47.2101    1.5538 H   0  0  0  0  0  0
   52.7144   45.6863    1.7019 H   0  0  0  0  0  0
   49.7019   44.0763   -0.9350 H   0  0  0  0  0  0
   50.7994   43.0634   -4.2467 H   0  0  0  0  0  0
   50.3359   41.8419   -0.8591 H   0  0  0  0  0  0
   48.7919   40.0665   -0.2552 H   0  0  0  0  0  0
   47.4394   39.8147   -4.2943 H   0  0  0  0  0  0
   47.4299   42.3402   -6.5362 H   0  0  0  0  0  0
   46.6176   38.2374   -2.8209 H   0  0  0  0  0  0
   48.0336   37.8945   -0.0669 H   0  0  0  0  0  0
   46.9465   36.7158   -0.8956 H   0  0  0  0  0  0
   45.0631   38.5018   -0.9004 H   0  0  0  0  0  0
   46.1832   39.6676   -0.0984 H   0  0  0  0  0  0
   52.8812   44.2308   -3.8180 H   0  0  0  0  0  0
   55.2676   44.2169   -2.8998 H   0  0  0  0  0  0
   57.4476   45.1526   -3.5630 H   0  0  0  0  0  0
   57.7834   47.5972   -3.5864 H   0  0  0  0  0  0
   55.9418   49.1198   -2.9520 H   0  0  0  0  0  0
   53.7528   48.1918   -2.2912 H   0  0  0  0  0  0
  1  2  1  0  0  0
  1 28  1  0  0  0
  1 29  1  0  0  0
  1 30  1  0  0  0
  2  3  1  0  0  0
  3  4  2  0  0  0
  3 21  1  0  0  0
  4  5  1  0  0  0
  5  6  2  0  0  0
  5 31  1  0  0  0
  6  7  1  0  0  0
  6 20  1  0  0  0
  7  8  1  0  0  0
  7 32  1  0  0  0
  8  9  2  0  0  0
  8 13  1  0  0  0
  9 10  1  0  0  0
  9 33  1  0  0  0
 10 11  2  0  0  0
 10 34  1  0  0  0
 11 12  1  0  0  0
 11 17  1  0  0  0
 12 13  2  0  0  0
 12 35  1  0  0  0
 13 14  1  0  0  0
 14 15  2  0  0  0
 14 16  1  0  0  0
 16 36  1  0  0  0
 17 18  1  0  0  0
 17 19  1  0  0  0
 17 37  1  0  0  0
 18 19  1  0  0  0
 18 38  1  0  0  0
 18 39  1  0  0  0
 19 40  1  0  0  0
 19 41  1  0  0  0
 20 21  2  0  0  0
 20 42  1  0  0  0
 21 22  1  0  0  0
 22 23  2  0  0  0
 22 27  1  0  0  0
 23 24  1  0  0  0
 23 43  1  0  0  0
 24 25  2  0  0  0
 24 44  1  0  0  0
 25 26  1  0  0  0
 25 45  1  0  0  0
 26 27  2  0  0  0
 26 46  1  0  0  0
 27 47  1  0  0  0
M  END
> <s_m_entry_id>
25527

> <s_m_entry_name>
dock_pv.179

> <s_m_Source_Path>
/home/csk/Desktop/cluster/DUD-E-result/pyrd

> <s_m_Source_File>
dock_pv.maegz

> <i_m_Source_File_Index>
179

> <chembl_id>
CHEMBL3674628

> <chembl_pref_name>
None

> <i_lp_mmshare_version>
53161

> <r_lp_tautomer_probability>
1

> <s_lp_Force_Field>
OPLS_2005

> <r_lp_Energy>
37.102994

> <b_lp_Chiralities_Consistent>
1

> <s_lp_Variant>
CHEMBL1966_lig418-1

> <s_i_glide_gridfile>
glide-grid_1d3g

> <i_i_glide_lignum>
468

> <i_i_glide_rotatable_bonds>
7

> <r_i_docking_score>
-9.9063524104071

> <r_i_glide_ligand_efficiency>
-0.366901941126189

> <r_i_glide_ligand_efficiency_sa>
-1.10070582216932

> <r_i_glide_ligand_efficiency_ln>
-2.30603552215922

> <r_i_glide_gscore>
-9.9063524104071

> <r_i_glide_lipo>
-5.85959824083186

> <r_i_glide_hbond>
0

> <r_i_glide_metal>
0

> <r_i_glide_rewards>
-2.03045485429504

> <r_i_glide_evdw>
-46.3173179626465

> <r_i_glide_ecoul>
-2.92455697059631

> <r_i_glide_erotb>
0.738250128441572

> <r_i_glide_esite>
0

> <r_i_glide_emodel>
-72.7834170569006

> <r_i_glide_energy>
-49.2418749332428

> <r_i_glide_einternal>
7.16889238357544

> <i_i_glide_confnum>
29

> <i_i_glide_posenum>
377

> <r_i_glide_eff_state_penalty>
0

> <s_user_duplicate_titles>
CHEMBL1966_lig418

> <i_f3d_flags>
0

> <s_m_subgroup_title>
dock_pv

> <s_m_subgroupid>
dock_pv

> <b_m_subgroup_collapsed>
1

$$$$
CHEMBL1966_lig56
                    3D
 Schrodinger Suite 2021-1.
 44 46  0  0  1  0            999 V2000
   48.9260   40.9254   -2.6492 C   0  0  0  0  0  0
   49.7762   42.0117   -3.1488 C   0  0  0  0  0  0
   47.9917   40.2237   -3.3622 C   0  0  0  0  0  0
   50.2712   42.7984   -2.1718 N   0  0  0  0  0  0
   47.6346   40.4101   -4.7591 C   0  0  0  0  0  0
   51.1926   43.8610   -2.2588 C   0  0  0  0  0  0
   53.1932   45.8462   -2.0984 C   0  0  0  0  0  0
   51.2225   44.7563   -1.1826 C   0  0  0  0  0  0
   52.2050   45.7431   -1.1117 C   0  0  0  0  0  0
   54.3517   46.7652   -1.9344 C   0  0  0  0  0  0
   50.0227   42.1990   -4.3376 O   0  0  0  0  0  0
   48.4233   40.4107   -5.6990 O   0  0  0  0  0  0
   54.8520   47.5172   -3.0074 C   0  0  0  0  0  0
   52.1287   44.0100   -3.2989 C   0  0  0  0  0  0
   53.1183   44.9939   -3.2065 C   0  0  0  0  0  0
   50.3481   44.6233   -0.1582 F   0  0  0  0  0  0
   46.2861   40.5231   -4.9301 O   0  0  0  0  0  0
   55.9951   48.3115   -2.8750 C   0  0  0  0  0  0
   48.9447   40.4479   -1.1925 C   0  0  0  0  0  0
   47.3112   39.1652   -2.5039 C   0  0  0  0  0  0
   56.4148   48.9963   -4.0001 O   0  0  0  0  0  0
   47.8030   39.4461   -1.0915 C   0  0  0  0  0  0
   55.0169   46.8342   -0.7048 C   0  0  0  0  0  0
   56.1619   47.6098   -0.5572 C   0  0  0  0  0  0
   56.6483   48.3508   -1.6321 C   0  0  0  0  0  0
   57.5906   49.7948   -3.9250 C   0  0  0  0  0  0
   49.9012   42.6458   -1.2467 H   0  0  0  0  0  0
   52.2303   46.3920   -0.2484 H   0  0  0  0  0  0
   54.3570   47.4787   -3.9672 H   0  0  0  0  0  0
   52.1547   43.3333   -4.1395 H   0  0  0  0  0  0
   53.8682   45.0657   -3.9770 H   0  0  0  0  0  0
   45.8153   40.5669   -4.0961 H   0  0  0  0  0  0
   48.8237   41.2270   -0.4456 H   0  0  0  0  0  0
   49.9028   40.0101   -0.9490 H   0  0  0  0  0  0
   47.6200   38.1736   -2.8384 H   0  0  0  0  0  0
   46.2214   39.1960   -2.5463 H   0  0  0  0  0  0
   46.9944   39.8671   -0.4929 H   0  0  0  0  0  0
   48.1031   38.5332   -0.5739 H   0  0  0  0  0  0
   54.6726   46.2493    0.1364 H   0  0  0  0  0  0
   56.6867   47.6103    0.3861 H   0  0  0  0  0  0
   57.5426   48.9368   -1.4832 H   0  0  0  0  0  0
   57.7727   50.2600   -4.8940 H   0  0  0  0  0  0
   57.4881   50.5929   -3.1882 H   0  0  0  0  0  0
   58.4668   49.1920   -3.6783 H   0  0  0  0  0  0
  1  2  1  0  0  0
  1  3  2  0  0  0
  1 19  1  0  0  0
  2  4  1  0  0  0
  2 11  2  0  0  0
  3  5  1  0  0  0
  3 20  1  0  0  0
  4  6  1  0  0  0
  4 27  1  0  0  0
  5 12  2  0  0  0
  5 17  1  0  0  0
  6  8  1  0  0  0
  6 14  2  0  0  0
  7 15  2  0  0  0
  7 10  1  0  0  0
  7  9  1  0  0  0
  8  9  2  0  0  0
  8 16  1  0  0  0
  9 28  1  0  0  0
 10 13  1  0  0  0
 10 23  2  0  0  0
 13 18  2  0  0  0
 13 29  1  0  0  0
 14 15  1  0  0  0
 14 30  1  0  0  0
 15 31  1  0  0  0
 17 32  1  0  0  0
 18 21  1  0  0  0
 18 25  1  0  0  0
 19 22  1  0  0  0
 19 33  1  0  0  0
 19 34  1  0  0  0
 20 22  1  0  0  0
 20 35  1  0  0  0
 20 36  1  0  0  0
 21 26  1  0  0  0
 22 37  1  0  0  0
 22 38  1  0  0  0
 23 24  1  0  0  0
 23 39  1  0  0  0
 24 25  2  0  0  0
 24 40  1  0  0  0
 25 41  1  0  0  0
 26 42  1  0  0  0
 26 43  1  0  0  0
 26 44  1  0  0  0
M  END
> <s_m_entry_id>
25528

> <s_m_entry_name>
dock_pv.180

> <s_m_Source_Path>
/home/csk/Desktop/cluster/DUD-E-result/pyrd

> <s_m_Source_File>
dock_pv.maegz

> <i_m_Source_File_Index>
180

> <chembl_id>
CHEMBL197194

> <chembl_pref_name>
VIDOFLUDIMUS

> <i_lp_mmshare_version>
53161

> <r_lp_tautomer_probability>
1

> <s_lp_Force_Field>
OPLS_2005

> <r_lp_Energy>
46.422381

> <b_lp_Chiralities_Consistent>
1

> <s_lp_Variant>
CHEMBL1966_lig56-1

> <s_i_glide_gridfile>
glide-grid_1d3g

> <i_i_glide_lignum>
62

> <i_i_glide_rotatable_bonds>
7

> <r_i_docking_score>
-9.90461264623873

> <r_i_glide_ligand_efficiency>
-0.380946640239951

> <r_i_glide_ligand_efficiency_sa>
-1.12855292275821

> <r_i_glide_ligand_efficiency_ln>
-2.32606578028428

> <r_i_glide_gscore>
-9.90461264623873

> <r_i_glide_lipo>
-5.17863815820518

> <r_i_glide_hbond>
-0.127369626967408

> <r_i_glide_metal>
0

> <r_i_glide_rewards>
-2.84157179311589

> <r_i_glide_evdw>
-42.2915153503418

> <r_i_glide_ecoul>
-2.66325330734253

> <r_i_glide_erotb>
0.75703069566822

> <r_i_glide_esite>
0

> <r_i_glide_emodel>
-65.2761240071507

> <r_i_glide_energy>
-44.9547686576843

> <r_i_glide_einternal>
7.11600494384766

> <i_i_glide_confnum>
129

> <i_i_glide_posenum>
138

> <r_i_glide_eff_state_penalty>
0

> <s_user_duplicate_titles>
CHEMBL1966_lig56,327306

> <i_f3d_flags>
0

> <s_m_subgroup_title>
dock_pv

> <s_m_subgroupid>
dock_pv

> <b_m_subgroup_collapsed>
1

$$$$
CHEMBL1966_lig574
                    3D
 Schrodinger Suite 2021-1.
 38 41  0  0  1  0            999 V2000
   46.8643   38.1001   -1.1277 C   0  0  0  0  0  0
   47.6230   39.2245   -1.7973 C   0  0  0  0  0  0
   47.4402   39.4738   -3.1590 C   0  0  0  0  0  0
   48.1628   40.4633   -3.8410 C   0  0  0  0  0  0
   47.9049   40.7080   -5.2954 C   0  0  0  0  0  0
   48.8230   40.8100   -6.0990 O   0  0  0  0  0  0
   46.5870   40.8100   -5.6320 O   0  0  0  0  0  0
   49.0916   41.2098   -3.0900 C   0  0  0  0  0  0
   49.8888   42.2524   -3.4914 N   0  0  0  0  0  0
   50.4082   42.7282   -2.3895 C   0  0  0  0  0  0
   50.0694   41.9865   -1.2816 N   0  0  0  0  0  0
   49.2230   40.9863   -1.6964 C   0  0  0  0  0  0
   48.4761   40.0100   -1.0218 C   0  0  0  0  0  0
   51.2911   43.9196   -2.3308 C   0  0  0  0  0  0
   51.2089   44.8227   -1.2649 C   0  0  0  0  0  0
   52.1486   45.8451   -1.1379 C   0  0  0  0  0  0
   53.1779   45.9689   -2.0755 C   0  0  0  0  0  0
   53.2230   45.1058   -3.1715 C   0  0  0  0  0  0
   52.2909   44.0753   -3.2990 C   0  0  0  0  0  0
   54.2594   46.9807   -1.9231 C   0  0  0  0  0  0
   54.7427   47.9007   -2.8512 C   0  0  0  0  0  0
   55.8299   48.6454   -2.3793 C   0  0  0  0  0  0
   56.1974   48.2943   -1.0893 C   0  0  0  0  0  0
   55.1824   47.0455   -0.4437 S   0  0  0  0  0  0
   46.8230   38.2696   -0.0549 H   0  0  0  0  0  0
   45.8392   38.0393   -1.4939 H   0  0  0  0  0  0
   47.3610   37.1455   -1.2990 H   0  0  0  0  0  0
   46.7333   38.8586   -3.6979 H   0  0  0  0  0  0
   46.0266   40.8713   -4.8547 H   0  0  0  0  0  0
   50.3871   42.2048   -0.3502 H   0  0  0  0  0  0
   48.5759   39.8503    0.0424 H   0  0  0  0  0  0
   50.4383   44.7178   -0.5149 H   0  0  0  0  0  0
   52.0971   46.5167   -0.2931 H   0  0  0  0  0  0
   54.0137   45.2100   -3.8982 H   0  0  0  0  0  0
   52.3728   43.3780   -4.1208 H   0  0  0  0  0  0
   54.3241   48.0202   -3.8402 H   0  0  0  0  0  0
   56.3347   49.4039   -2.9603 H   0  0  0  0  0  0
   57.0071   48.7010   -0.4990 H   0  0  0  0  0  0
  1  2  1  0  0  0
  1 25  1  0  0  0
  1 26  1  0  0  0
  1 27  1  0  0  0
  2  3  2  0  0  0
  2 13  1  0  0  0
  3  4  1  0  0  0
  3 28  1  0  0  0
  4  5  1  0  0  0
  4  8  2  0  0  0
  5  6  2  0  0  0
  5  7  1  0  0  0
  7 29  1  0  0  0
  8  9  1  0  0  0
  8 12  1  0  0  0
  9 10  2  0  0  0
 10 11  1  0  0  0
 10 14  1  0  0  0
 11 12  1  0  0  0
 11 30  1  0  0  0
 12 13  2  0  0  0
 13 31  1  0  0  0
 14 15  2  0  0  0
 14 19  1  0  0  0
 15 16  1  0  0  0
 15 32  1  0  0  0
 16 17  2  0  0  0
 16 33  1  0  0  0
 17 18  1  0  0  0
 17 20  1  0  0  0
 18 19  2  0  0  0
 18 34  1  0  0  0
 19 35  1  0  0  0
 20 21  2  0  0  0
 20 24  1  0  0  0
 21 22  1  0  0  0
 21 36  1  0  0  0
 22 23  2  0  0  0
 22 37  1  0  0  0
 23 24  1  0  0  0
 23 38  1  0  0  0
M  END
> <s_m_entry_id>
25529

> <s_m_entry_name>
dock_pv.181

> <s_m_Source_Path>
/home/csk/Desktop/cluster/DUD-E-result/pyrd

> <s_m_Source_File>
dock_pv.maegz

> <i_m_Source_File_Index>
181

> <chembl_id>
CHEMBL3677833

> <chembl_pref_name>
None

> <i_lp_mmshare_version>
53161

> <r_lp_tautomer_probability>
1

> <s_lp_Force_Field>
OPLS_2005

> <r_lp_Energy>
17.055864

> <b_lp_Chiralities_Consistent>
1

> <s_lp_Variant>
CHEMBL1966_lig574-1

> <s_i_glide_gridfile>
glide-grid_1d3g

> <i_i_glide_lignum>
628

> <i_i_glide_rotatable_bonds>
4

> <r_i_docking_score>
-9.90352174209442

> <r_i_glide_ligand_efficiency>
-0.412646739253934

> <r_i_glide_ligand_efficiency_sa>
-1.19027916349456

> <r_i_glide_ligand_efficiency_ln>
-2.37036719588404

> <r_i_glide_gscore>
-9.90352174209442

> <r_i_glide_lipo>
-5.13679623929801

> <r_i_glide_hbond>
-0.16

> <r_i_glide_metal>
0

> <r_i_glide_rewards>
-2.39083493656021

> <r_i_glide_evdw>
-41.6906051635742

> <r_i_glide_ecoul>
-4.24905014038086

> <r_i_glide_erotb>
0.505997212999644

> <r_i_glide_esite>
0

> <r_i_glide_emodel>
-65.7946515417037

> <r_i_glide_energy>
-45.9396553039551

> <r_i_glide_einternal>
6.65534019470215

> <i_i_glide_confnum>
7

> <i_i_glide_posenum>
205

> <r_i_glide_eff_state_penalty>
0

> <s_user_duplicate_titles>
CHEMBL1966_lig574

> <i_f3d_flags>
0

> <s_m_subgroup_title>
dock_pv

> <s_m_subgroupid>
dock_pv

> <b_m_subgroup_collapsed>
1

$$$$
CHEMBL1966_lig99
                    3D
 Schrodinger Suite 2021-1.
 42 45  0  0  1  0            999 V2000
   47.3368   38.9783   -1.8114 C   0  0  0  0  0  0
   47.8881   39.3859   -0.6062 C   0  0  0  0  0  0
   48.8284   40.4100   -0.5630 C   0  0  0  0  0  0
   47.6988   39.6100   -2.9953 C   0  0  0  0  0  0
   48.6317   40.6952   -2.9997 C   0  0  0  0  0  0
   49.2230   41.0647   -1.7536 C   0  0  0  0  0  0
   50.1078   42.0862   -1.6408 N   0  0  0  0  0  0
   50.4143   42.8322   -2.7308 C   0  0  0  0  0  0
   49.8609   42.5698   -3.9907 C   0  0  0  0  0  0
   48.9898   41.4732   -4.1534 C   0  0  0  0  0  0
   51.3323   43.9791   -2.4543 C   0  0  0  0  0  0
   51.1463   44.7806   -1.3157 C   0  0  0  0  0  0
   52.0448   45.7969   -1.0090 C   0  0  0  0  0  0
   53.1435   46.0390   -1.8308 C   0  0  0  0  0  0
   53.3011   45.2810   -3.0016 C   0  0  0  0  0  0
   52.4230   44.2455   -3.2990 C   0  0  0  0  0  0
   48.4056   41.1636   -5.5063 C   0  0  0  0  0  0
   49.3302   41.2100   -6.4990 O   0  0  0  0  0  0
   47.2273   40.8752   -5.6990 O   0  0  0  0  0  0
   50.1232   43.4266   -5.0374 O   0  0  0  0  0  0
   54.0055   47.0416   -1.4246 O   0  0  0  0  0  0
   55.1788   47.3263   -2.0865 C   0  0  0  0  0  0
   55.4396   48.6583   -2.3986 C   0  0  0  0  0  0
   56.5870   49.0046   -3.1062 C   0  0  0  0  0  0
   57.4766   48.0064   -3.4949 C   0  0  0  0  0  0
   57.2419   46.6757   -3.1532 C   0  0  0  0  0  0
   56.1121   46.3387   -2.4182 C   0  0  0  0  0  0
   46.6212   38.1691   -1.8280 H   0  0  0  0  0  0
   47.5932   38.8872    0.3010 H   0  0  0  0  0  0
   49.2622   40.7069    0.3807 H   0  0  0  0  0  0
   47.2433   39.2666   -3.9094 H   0  0  0  0  0  0
   50.3095   44.6050   -0.6547 H   0  0  0  0  0  0
   51.8992   46.3901   -0.1182 H   0  0  0  0  0  0
   54.1059   45.4695   -3.6936 H   0  0  0  0  0  0
   52.5925   43.6401   -4.1768 H   0  0  0  0  0  0
   50.1537   41.5859   -6.1729 H   0  0  0  0  0  0
   49.3185   43.7472   -5.4612 H   0  0  0  0  0  0
   54.7372   49.4192   -2.0990 H   0  0  0  0  0  0
   56.7801   50.0381   -3.3566 H   0  0  0  0  0  0
   58.3659   48.2663   -4.0503 H   0  0  0  0  0  0
   57.9520   45.9117   -3.4358 H   0  0  0  0  0  0
   55.9440   45.3096   -2.1378 H   0  0  0  0  0  0
  1  2  2  0  0  0
  1  4  1  0  0  0
  1 28  1  0  0  0
  2  3  1  0  0  0
  2 29  1  0  0  0
  3  6  2  0  0  0
  3 30  1  0  0  0
  4  5  2  0  0  0
  4 31  1  0  0  0
  5 10  1  0  0  0
  5  6  1  0  0  0
  6  7  1  0  0  0
  7  8  2  0  0  0
  8  9  1  0  0  0
  8 11  1  0  0  0
  9 20  1  0  0  0
  9 10  2  0  0  0
 10 17  1  0  0  0
 11 16  1  0  0  0
 11 12  2  0  0  0
 12 13  1  0  0  0
 12 32  1  0  0  0
 13 14  2  0  0  0
 13 33  1  0  0  0
 14 15  1  0  0  0
 14 21  1  0  0  0
 15 16  2  0  0  0
 15 34  1  0  0  0
 16 35  1  0  0  0
 17 18  1  0  0  0
 17 19  2  0  0  0
 18 36  1  0  0  0
 20 37  1  0  0  0
 21 22  1  0  0  0
 22 23  2  0  0  0
 22 27  1  0  0  0
 23 24  1  0  0  0
 23 38  1  0  0  0
 24 25  2  0  0  0
 24 39  1  0  0  0
 25 26  1  0  0  0
 25 40  1  0  0  0
 26 27  2  0  0  0
 26 41  1  0  0  0
 27 42  1  0  0  0
M  END
> <s_m_entry_id>
25530

> <s_m_entry_name>
dock_pv.182

> <s_m_Source_Path>
/home/csk/Desktop/cluster/DUD-E-result/pyrd

> <s_m_Source_File>
dock_pv.maegz

> <i_m_Source_File_Index>
182

> <chembl_id>
CHEMBL218169

> <chembl_pref_name>
None

> <i_lp_mmshare_version>
53161

> <r_lp_tautomer_probability>
1

> <s_lp_Force_Field>
OPLS_2005

> <r_lp_Energy>
34.858525

> <b_lp_Chiralities_Consistent>
1

> <s_lp_Variant>
CHEMBL1966_lig99-1

> <s_i_glide_gridfile>
glide-grid_1d3g

> <i_i_glide_lignum>
108

> <i_i_glide_rotatable_bonds>
6

> <r_i_docking_score>
-9.89728847595611

> <r_i_glide_ligand_efficiency>
-0.366566239850226

> <r_i_glide_ligand_efficiency_sa>
-1.09969871834254

> <r_i_glide_ligand_efficiency_ln>
-2.30392558764966

> <r_i_glide_gscore>
-9.89728847595611

> <r_i_glide_lipo>
-5.76889567643294

> <r_i_glide_hbond>
-0.100323668831138

> <r_i_glide_metal>
0

> <r_i_glide_rewards>
-1.83237543499326

> <r_i_glide_evdw>
-39.7106094360352

> <r_i_glide_ecoul>
-5.39844846725464

> <r_i_glide_erotb>
0.59960404619119

> <r_i_glide_esite>
0

> <r_i_glide_emodel>
-71.5854342317212

> <r_i_glide_energy>
-45.1090579032898

> <r_i_glide_einternal>
2.88515710830688

> <i_i_glide_confnum>
26

> <i_i_glide_posenum>
118

> <r_i_glide_eff_state_penalty>
0

> <s_user_duplicate_titles>
CHEMBL1966_lig99,365560

> <i_f3d_flags>
0

> <s_m_subgroup_title>
dock_pv

> <s_m_subgroupid>
dock_pv

> <b_m_subgroup_collapsed>
1

$$$$
CHEMBL1966_lig149
                    3D
 Schrodinger Suite 2021-1.
 37 40  0  0  1  0            999 V2000
   49.7754   41.6869   -1.9173 N   0  0  0  0  0  0
   50.1231   42.4397   -2.9914 C   0  0  0  0  0  0
   49.5913   42.1956   -4.2751 C   0  0  0  0  0  0
   48.6422   41.1710   -4.4462 C   0  0  0  0  0  0
   48.8503   40.7051   -2.0586 C   0  0  0  0  0  0
   48.2420   40.4102   -3.3115 C   0  0  0  0  0  0
   47.2151   39.4358   -3.2990 C   0  0  0  0  0  0
   46.8025   38.7667   -2.1968 N   0  0  0  0  0  0
   47.4146   39.0548   -1.0238 C   0  0  0  0  0  0
   48.4230   40.0100   -0.8990 C   0  0  0  0  0  0
   51.0694   43.5593   -2.6581 C   0  0  0  0  0  0
   50.8262   44.4100   -1.5680 C   0  0  0  0  0  0
   51.7190   45.4361   -1.2496 C   0  0  0  0  0  0
   52.8749   45.6309   -2.0154 C   0  0  0  0  0  0
   53.1012   44.8100   -3.1178 C   0  0  0  0  0  0
   52.2189   43.7816   -3.4269 C   0  0  0  0  0  0
   53.9073   46.6331   -1.6506 C   0  0  0  0  0  0
   54.4099   47.5344   -2.6015 C   0  0  0  0  0  0
   55.4558   48.3885   -2.2451 C   0  0  0  0  0  0
   55.5265   47.5123   -0.0990 C   0  0  0  0  0  0
   54.4710   46.6409   -0.3687 C   0  0  0  0  0  0
   48.0338   40.9642   -5.6650 O   0  0  0  0  0  0
   50.0322   42.9898   -5.4162 C   0  0  0  0  0  0
   50.4230   43.6100   -6.3069 N   0  0  0  0  0  0
   56.0230   48.3824   -1.0133 N   0  0  0  0  0  0
   46.6835   39.2100   -4.2104 H   0  0  0  0  0  0
   47.0726   38.5092   -0.1557 H   0  0  0  0  0  0
   48.8712   40.2221    0.0606 H   0  0  0  0  0  0
   49.9451   44.2742   -0.9572 H   0  0  0  0  0  0
   51.5217   46.0651   -0.3934 H   0  0  0  0  0  0
   54.0024   44.9296   -3.6990 H   0  0  0  0  0  0
   52.4659   43.1304   -4.2522 H   0  0  0  0  0  0
   54.0079   47.5600   -3.6044 H   0  0  0  0  0  0
   55.8686   49.0866   -2.9589 H   0  0  0  0  0  0
   55.9975   47.5148    0.8721 H   0  0  0  0  0  0
   54.1280   45.9554    0.3928 H   0  0  0  0  0  0
   48.1050   41.7637   -6.1948 H   0  0  0  0  0  0
  1  2  1  0  0  0
  1  5  2  0  0  0
  2 11  1  0  0  0
  2  3  2  0  0  0
  3  4  1  0  0  0
  3 23  1  0  0  0
  4  6  2  0  0  0
  4 22  1  0  0  0
  5 10  1  0  0  0
  5  6  1  0  0  0
  6  7  1  0  0  0
  7  8  2  0  0  0
  7 26  1  0  0  0
  8  9  1  0  0  0
  9 10  2  0  0  0
  9 27  1  0  0  0
 10 28  1  0  0  0
 11 16  1  0  0  0
 11 12  2  0  0  0
 12 13  1  0  0  0
 12 29  1  0  0  0
 13 14  2  0  0  0
 13 30  1  0  0  0
 14 17  1  0  0  0
 14 15  1  0  0  0
 15 16  2  0  0  0
 15 31  1  0  0  0
 16 32  1  0  0  0
 17 18  2  0  0  0
 17 21  1  0  0  0
 18 19  1  0  0  0
 18 33  1  0  0  0
 19 25  2  0  0  0
 19 34  1  0  0  0
 20 25  1  0  0  0
 20 21  2  0  0  0
 20 35  1  0  0  0
 21 36  1  0  0  0
 22 37  1  0  0  0
 23 24  3  0  0  0
M  END
> <s_m_entry_id>
25531

> <s_m_entry_name>
dock_pv.183

> <s_m_Source_Path>
/home/csk/Desktop/cluster/DUD-E-result/pyrd

> <s_m_Source_File>
dock_pv.maegz

> <i_m_Source_File_Index>
183

> <chembl_id>
CHEMBL1957379

> <chembl_pref_name>
None

> <i_lp_mmshare_version>
53161

> <r_lp_tautomer_probability>
1

> <s_lp_Force_Field>
OPLS_2005

> <r_lp_Energy>
13.110578

> <b_lp_Chiralities_Consistent>
1

> <s_lp_Variant>
CHEMBL1966_lig149-1

> <s_i_glide_gridfile>
glide-grid_1d3g

> <i_i_glide_lignum>
194

> <i_i_glide_rotatable_bonds>
3

> <r_i_docking_score>
-9.89546558130725

> <r_i_glide_ligand_efficiency>
-0.39581862325229

> <r_i_glide_ligand_efficiency_sa>
-1.15738067426287

> <r_i_glide_ligand_efficiency_ln>
-2.34552188594373

> <r_i_glide_gscore>
-9.89546558130725

> <r_i_glide_lipo>
-5.58204516347033

> <r_i_glide_hbond>
-0.0212542411455475

> <r_i_glide_metal>
0

> <r_i_glide_rewards>
-2.20543324263946

> <r_i_glide_evdw>
-44.3967247009277

> <r_i_glide_ecoul>
-1.48620903491974

> <r_i_glide_erotb>
0.356034656232429

> <r_i_glide_esite>
0

> <r_i_glide_emodel>
-67.7962954478858

> <r_i_glide_energy>
-45.8829337358475

> <r_i_glide_einternal>
1.96059358119965

> <i_i_glide_confnum>
13

> <i_i_glide_posenum>
60

> <r_i_glide_eff_state_penalty>
0

> <s_user_duplicate_titles>
CHEMBL1966_lig149

> <i_f3d_flags>
0

> <s_m_subgroup_title>
dock_pv

> <s_m_subgroupid>
dock_pv

> <b_m_subgroup_collapsed>
1

$$$$
CHEMBL1966_lig571
                    3D
 Schrodinger Suite 2021-1.
 41 44  0  0  1  0            999 V2000
   46.8484   38.1944   -1.1619 C   0  0  0  0  0  0
   47.6221   39.3040   -1.8407 C   0  0  0  0  0  0
   47.3986   39.5897   -3.1877 C   0  0  0  0  0  0
   48.1363   40.5555   -3.8864 C   0  0  0  0  0  0
   47.7686   40.8601   -5.3037 C   0  0  0  0  0  0
   46.6078   40.8064   -5.6991 O   0  0  0  0  0  0
   48.8233   41.2075   -6.0961 O   0  0  0  0  0  0
   49.0798   41.2935   -3.1486 C   0  0  0  0  0  0
   49.8693   42.3452   -3.5550 N   0  0  0  0  0  0
   50.4254   42.8021   -2.4616 C   0  0  0  0  0  0
   50.1016   42.0380   -1.3598 N   0  0  0  0  0  0
   49.2235   41.0567   -1.7611 C   0  0  0  0  0  0
   48.5112   40.0602   -1.0828 C   0  0  0  0  0  0
   51.3456   43.9851   -2.3972 C   0  0  0  0  0  0
   51.2395   44.9109   -1.3403 C   0  0  0  0  0  0
   50.2238   44.8107   -0.4497 F   0  0  0  0  0  0
   52.1922   45.9303   -1.1852 C   0  0  0  0  0  0
   52.0639   46.8096   -0.1645 F   0  0  0  0  0  0
   53.2954   46.0100   -2.0479 C   0  0  0  0  0  0
   53.4186   45.0462   -3.0504 C   0  0  0  0  0  0
   54.5966   44.9636   -3.6991 F   0  0  0  0  0  0
   52.4229   44.0958   -3.2989 C   0  0  0  0  0  0
   52.5825   43.2049   -4.3040 F   0  0  0  0  0  0
   54.3711   47.0428   -1.9419 C   0  0  0  0  0  0
   54.6404   47.8777   -3.0399 C   0  0  0  0  0  0
   55.7416   48.7348   -3.0375 C   0  0  0  0  0  0
   56.0232   49.5118   -4.0990 F   0  0  0  0  0  0
   56.5827   48.7851   -1.9429 C   0  0  0  0  0  0
   56.3342   47.9676   -0.8562 C   0  0  0  0  0  0
   57.2178   47.9963    0.1506 F   0  0  0  0  0  0
   55.2266   47.1129   -0.8329 C   0  0  0  0  0  0
   46.8228   38.3660   -0.0881 H   0  0  0  0  0  0
   45.8168   38.1565   -1.5136 H   0  0  0  0  0  0
   47.3221   37.2296   -1.3409 H   0  0  0  0  0  0
   46.6195   39.0429   -3.6975 H   0  0  0  0  0  0
   49.6015   41.3905   -5.5625 H   0  0  0  0  0  0
   50.4388   42.2395   -0.4311 H   0  0  0  0  0  0
   48.6469   39.8812   -0.0278 H   0  0  0  0  0  0
   54.0232   47.8306   -3.9242 H   0  0  0  0  0  0
   57.4434   49.4372   -1.9459 H   0  0  0  0  0  0
   55.0740   46.4655    0.0186 H   0  0  0  0  0  0
  1  2  1  0  0  0
  1 32  1  0  0  0
  1 33  1  0  0  0
  1 34  1  0  0  0
  2  3  2  0  0  0
  2 13  1  0  0  0
  3  4  1  0  0  0
  3 35  1  0  0  0
  4  5  1  0  0  0
  4  8  2  0  0  0
  5  6  2  0  0  0
  5  7  1  0  0  0
  7 36  1  0  0  0
  8  9  1  0  0  0
  8 12  1  0  0  0
  9 10  2  0  0  0
 10 11  1  0  0  0
 10 14  1  0  0  0
 11 12  1  0  0  0
 11 37  1  0  0  0
 12 13  2  0  0  0
 13 38  1  0  0  0
 14 15  2  0  0  0
 14 22  1  0  0  0
 15 16  1  0  0  0
 15 17  1  0  0  0
 17 18  1  0  0  0
 17 19  2  0  0  0
 19 20  1  0  0  0
 19 24  1  0  0  0
 20 21  1  0  0  0
 20 22  2  0  0  0
 22 23  1  0  0  0
 24 25  2  0  0  0
 24 31  1  0  0  0
 25 26  1  0  0  0
 25 39  1  0  0  0
 26 27  1  0  0  0
 26 28  2  0  0  0
 28 29  1  0  0  0
 28 40  1  0  0  0
 29 30  1  0  0  0
 29 31  2  0  0  0
 31 41  1  0  0  0
M  END
> <s_m_entry_id>
25532

> <s_m_entry_name>
dock_pv.184

> <s_m_Source_Path>
/home/csk/Desktop/cluster/DUD-E-result/pyrd

> <s_m_Source_File>
dock_pv.maegz

> <i_m_Source_File_Index>
184

> <chembl_id>
CHEMBL3677830

> <chembl_pref_name>
None

> <i_lp_mmshare_version>
53161

> <r_lp_tautomer_probability>
1

> <s_lp_Force_Field>
OPLS_2005

> <r_lp_Energy>
25.897247

> <b_lp_Chiralities_Consistent>
1

> <s_lp_Variant>
CHEMBL1966_lig571-1

> <s_i_glide_gridfile>
glide-grid_1d3g

> <i_i_glide_lignum>
625

> <i_i_glide_rotatable_bonds>
4

> <r_i_docking_score>
-9.89545066012646

> <r_i_glide_ligand_efficiency>
-0.319208085810531

> <r_i_glide_ligand_efficiency_sa>
-1.00275410370428

> <r_i_glide_ligand_efficiency_ln>
-2.2317273830012

> <r_i_glide_gscore>
-9.89545066012646

> <r_i_glide_lipo>
-5.33397698193684

> <r_i_glide_hbond>
-0.143732862817138

> <r_i_glide_metal>
0

> <r_i_glide_rewards>
-2.84322400639356

> <r_i_glide_evdw>
-36.7191352844238

> <r_i_glide_ecoul>
-0.275282293558121

> <r_i_glide_erotb>
0.314110317564149

> <r_i_glide_esite>
-0.0113780182881551

> <r_i_glide_emodel>
-41.1406272707398

> <r_i_glide_energy>
-36.9944175779819

> <r_i_glide_einternal>
5.07499122619629

> <i_i_glide_confnum>
24

> <i_i_glide_posenum>
191

> <r_i_glide_eff_state_penalty>
0

> <s_user_duplicate_titles>
CHEMBL1966_lig571

> <i_f3d_flags>
0

> <s_m_subgroup_title>
dock_pv

> <s_m_subgroupid>
dock_pv

> <b_m_subgroup_collapsed>
1

$$$$
CHEMBL1966_lig547
                    3D
 Schrodinger Suite 2021-1.
 37 40  0  0  1  0            999 V2000
   47.0849   38.7002   -0.4996 O   0  0  0  0  0  0
   48.0176   39.6090   -0.8869 C   0  0  0  0  0  0
   48.8231   40.0805   -0.0990 O   0  0  0  0  0  0
   48.0243   40.0092   -2.3328 C   0  0  0  0  0  0
   47.0379   39.5435   -3.2176 C   0  0  0  0  0  0
   46.9576   40.0100   -4.5302 C   0  0  0  0  0  0
   47.8976   40.9168   -5.0205 C   0  0  0  0  0  0
   48.8538   41.3741   -4.1601 N   0  0  0  0  0  0
   49.7550   42.3563   -4.3839 N   0  0  0  0  0  0
   50.2903   42.5197   -3.1832 C   0  0  0  0  0  0
   49.9171   41.6830   -2.2393 N   0  0  0  0  0  0
   48.9437   40.9565   -2.8348 C   0  0  0  0  0  0
   51.2280   43.6235   -2.8428 C   0  0  0  0  0  0
   51.0436   44.3591   -1.6616 C   0  0  0  0  0  0
   51.9440   45.3621   -1.2995 C   0  0  0  0  0  0
   53.0500   45.6404   -2.1118 C   0  0  0  0  0  0
   53.2133   44.9220   -3.2990 C   0  0  0  0  0  0
   52.3061   43.9310   -3.6737 C   0  0  0  0  0  0
   54.0755   46.6489   -1.7290 C   0  0  0  0  0  0
   54.5969   47.5305   -2.6863 C   0  0  0  0  0  0
   55.6246   48.4099   -2.3569 C   0  0  0  0  0  0
   56.1405   48.4103   -1.0643 C   0  0  0  0  0  0
   55.6211   47.5533   -0.0989 C   0  0  0  0  0  0
   54.5842   46.6846   -0.4259 C   0  0  0  0  0  0
   47.1968   38.5581    0.4499 H   0  0  0  0  0  0
   46.2869   38.8423   -2.8786 H   0  0  0  0  0  0
   46.1499   39.6665   -5.1612 H   0  0  0  0  0  0
   47.8748   41.3637   -6.0026 H   0  0  0  0  0  0
   50.2059   44.1443   -1.0131 H   0  0  0  0  0  0
   51.7889   45.9083   -0.3801 H   0  0  0  0  0  0
   54.0644   45.1335   -3.9273 H   0  0  0  0  0  0
   52.4601   43.3650   -4.5800 H   0  0  0  0  0  0
   54.2128   47.5277   -3.6965 H   0  0  0  0  0  0
   56.0263   49.0807   -3.1022 H   0  0  0  0  0  0
   56.9494   49.0796   -0.8069 H   0  0  0  0  0  0
   56.0267   47.5495    0.9010 H   0  0  0  0  0  0
   54.2067   46.0084    0.3274 H   0  0  0  0  0  0
  1  2  1  0  0  0
  1 25  1  0  0  0
  2  3  2  0  0  0
  2  4  1  0  0  0
  4  5  2  0  0  0
  4 12  1  0  0  0
  5  6  1  0  0  0
  5 26  1  0  0  0
  6  7  2  0  0  0
  6 27  1  0  0  0
  7  8  1  0  0  0
  7 28  1  0  0  0
  8  9  1  0  0  0
  8 12  1  0  0  0
  9 10  2  0  0  0
 10 11  1  0  0  0
 10 13  1  0  0  0
 11 12  2  0  0  0
 13 14  2  0  0  0
 13 18  1  0  0  0
 14 15  1  0  0  0
 14 29  1  0  0  0
 15 16  2  0  0  0
 15 30  1  0  0  0
 16 17  1  0  0  0
 16 19  1  0  0  0
 17 18  2  0  0  0
 17 31  1  0  0  0
 18 32  1  0  0  0
 19 20  2  0  0  0
 19 24  1  0  0  0
 20 21  1  0  0  0
 20 33  1  0  0  0
 21 22  2  0  0  0
 21 34  1  0  0  0
 22 23  1  0  0  0
 22 35  1  0  0  0
 23 24  2  0  0  0
 23 36  1  0  0  0
 24 37  1  0  0  0
M  END
> <s_m_entry_id>
25533

> <s_m_entry_name>
dock_pv.185

> <s_m_Source_Path>
/home/csk/Desktop/cluster/DUD-E-result/pyrd

> <s_m_Source_File>
dock_pv.maegz

> <i_m_Source_File_Index>
185

> <chembl_id>
CHEMBL3677807

> <chembl_pref_name>
None

> <i_lp_mmshare_version>
53161

> <r_lp_tautomer_probability>
1

> <s_lp_Force_Field>
OPLS_2005

> <r_lp_Energy>
23.772122

> <b_lp_Chiralities_Consistent>
1

> <s_lp_Variant>
CHEMBL1966_lig547-1

> <s_i_glide_gridfile>
glide-grid_1d3g

> <i_i_glide_lignum>
601

> <i_i_glide_rotatable_bonds>
4

> <r_i_docking_score>
-9.88962514190709

> <r_i_glide_ligand_efficiency>
-0.412067714246129

> <r_i_glide_ligand_efficiency_sa>
-1.18860896635892

> <r_i_glide_ligand_efficiency_ln>
-2.36704110178578

> <r_i_glide_gscore>
-9.88962514190709

> <r_i_glide_lipo>
-4.36061905908261

> <r_i_glide_hbond>
0

> <r_i_glide_metal>
0

> <r_i_glide_rewards>
-3.46344250585902

> <r_i_glide_evdw>
-41.089298248291

> <r_i_glide_ecoul>
-3.81551551818848

> <r_i_glide_erotb>
0.561228663177365

> <r_i_glide_esite>
0

> <r_i_glide_emodel>
-64.3650941411644

> <r_i_glide_energy>
-44.9048137664795

> <r_i_glide_einternal>
5.70834350585938

> <i_i_glide_confnum>
10

> <i_i_glide_posenum>
86

> <r_i_glide_eff_state_penalty>
0

> <s_user_duplicate_titles>
CHEMBL1966_lig547

> <i_f3d_flags>
0

> <s_m_subgroup_title>
dock_pv

> <s_m_subgroupid>
dock_pv

> <b_m_subgroup_collapsed>
1

$$$$
CHEMBL1966_lig19
                    3D
 Schrodinger Suite 2021-1.
 40 42  0  0  1  0            999 V2000
   49.4365   41.6499   -3.0009 C   0  0  0  0  0  0
   48.5207   40.5614   -2.6056 C   0  0  0  0  0  0
   50.8232   43.4993   -2.0612 C   0  0  0  0  0  0
   50.0210   42.3266   -1.9872 N   0  0  0  0  0  0
   47.5304   40.0298   -3.3986 C   0  0  0  0  0  0
   52.6541   45.6575   -1.7899 C   0  0  0  0  0  0
   50.7169   44.4079   -0.9981 C   0  0  0  0  0  0
   51.8034   43.7503   -3.0485 C   0  0  0  0  0  0
   47.2199   40.4100   -4.7715 C   0  0  0  0  0  0
   51.6114   45.4771   -0.8719 C   0  0  0  0  0  0
   52.7045   44.8100   -2.8991 C   0  0  0  0  0  0
   53.7431   46.6566   -1.5880 C   0  0  0  0  0  0
   49.6230   41.9703   -4.1710 O   0  0  0  0  0  0
   54.4289   46.7516   -0.3650 C   0  0  0  0  0  0
   48.0228   40.4100   -5.7003 O   0  0  0  0  0  0
   52.0043   42.9301   -4.0988 F   0  0  0  0  0  0
   49.7686   44.2282   -0.0493 F   0  0  0  0  0  0
   45.9130   40.7639   -4.9300 O   0  0  0  0  0  0
   48.3646   40.0100   -1.1744 C   0  0  0  0  0  0
   54.0519   46.0101    0.7006 F   0  0  0  0  0  0
   46.6550   39.0546   -2.6235 C   0  0  0  0  0  0
   47.4321   38.8193   -1.3410 C   0  0  0  0  0  0
   54.1770   47.4594   -2.6543 C   0  0  0  0  0  0
   55.5390   47.5845   -0.2337 C   0  0  0  0  0  0
   55.2761   48.3086   -2.5151 C   0  0  0  0  0  0
   55.9659   48.3641   -1.3059 C   0  0  0  0  0  0
   49.7142   42.0808   -1.0586 H   0  0  0  0  0  0
   51.5290   46.1288   -0.0142 H   0  0  0  0  0  0
   53.4904   44.9227   -3.6316 H   0  0  0  0  0  0
   45.4445   40.8402   -4.0969 H   0  0  0  0  0  0
   47.9316   40.7489   -0.5066 H   0  0  0  0  0  0
   49.2472   39.7223   -0.6243 H   0  0  0  0  0  0
   46.4768   38.1143   -3.1446 H   0  0  0  0  0  0
   45.6754   39.4916   -2.4222 H   0  0  0  0  0  0
   46.7830   38.6800   -0.4757 H   0  0  0  0  0  0
   48.0222   37.9056   -1.4385 H   0  0  0  0  0  0
   53.6723   47.4107   -3.6090 H   0  0  0  0  0  0
   56.0748   47.6099    0.7026 H   0  0  0  0  0  0
   55.6061   48.9075   -3.3516 H   0  0  0  0  0  0
   56.8292   49.0055   -1.1981 H   0  0  0  0  0  0
  1  2  1  0  0  0
  1  4  1  0  0  0
  1 13  2  0  0  0
  2  5  2  0  0  0
  2 19  1  0  0  0
  3  4  1  0  0  0
  3  7  2  0  0  0
  3  8  1  0  0  0
  4 27  1  0  0  0
  5  9  1  0  0  0
  5 21  1  0  0  0
  6 11  1  0  0  0
  6 12  1  0  0  0
  6 10  2  0  0  0
  7 10  1  0  0  0
  7 17  1  0  0  0
  8 11  2  0  0  0
  8 16  1  0  0  0
  9 15  2  0  0  0
  9 18  1  0  0  0
 10 28  1  0  0  0
 11 29  1  0  0  0
 12 14  1  0  0  0
 12 23  2  0  0  0
 14 20  1  0  0  0
 14 24  2  0  0  0
 18 30  1  0  0  0
 19 22  1  0  0  0
 19 31  1  0  0  0
 19 32  1  0  0  0
 21 22  1  0  0  0
 21 33  1  0  0  0
 21 34  1  0  0  0
 22 35  1  0  0  0
 22 36  1  0  0  0
 23 25  1  0  0  0
 23 37  1  0  0  0
 24 26  1  0  0  0
 24 38  1  0  0  0
 25 26  2  0  0  0
 25 39  1  0  0  0
 26 40  1  0  0  0
M  END
> <s_m_entry_id>
25534

> <s_m_entry_name>
dock_pv.186

> <s_m_Source_Path>
/home/csk/Desktop/cluster/DUD-E-result/pyrd

> <s_m_Source_File>
dock_pv.maegz

> <i_m_Source_File_Index>
186

> <chembl_id>
CHEMBL154513

> <chembl_pref_name>
None

> <i_lp_mmshare_version>
53161

> <r_lp_tautomer_probability>
1

> <s_lp_Force_Field>
OPLS_2005

> <r_lp_Energy>
44.305748

> <b_lp_Chiralities_Consistent>
1

> <s_lp_Variant>
CHEMBL1966_lig19-1

> <s_i_glide_gridfile>
glide-grid_1d3g

> <i_i_glide_lignum>
22

> <i_i_glide_rotatable_bonds>
6

> <r_i_docking_score>
-9.88037100011286

> <r_i_glide_ligand_efficiency>
-0.38001426923511

> <r_i_glide_ligand_efficiency_sa>
-1.12579077732507

> <r_i_glide_ligand_efficiency_ln>
-2.32037270923495

> <r_i_glide_gscore>
-9.88037100011286

> <r_i_glide_lipo>
-4.92475358688894

> <r_i_glide_hbond>
-0.0984641560902237

> <r_i_glide_metal>
0

> <r_i_glide_rewards>
-3.30917304426926

> <r_i_glide_evdw>
-39.4067993164062

> <r_i_glide_ecoul>
-2.08388590812683

> <r_i_glide_erotb>
0.734942639174897

> <r_i_glide_esite>
0

> <r_i_glide_emodel>
-56.8003816595853

> <r_i_glide_energy>
-41.4906852245331

> <r_i_glide_einternal>
3.61303377151489

> <i_i_glide_confnum>
241

> <i_i_glide_posenum>
241

> <r_i_glide_eff_state_penalty>
0

> <s_user_duplicate_titles>
CHEMBL1966_lig19,257025

> <i_f3d_flags>
0

> <s_m_subgroup_title>
dock_pv

> <s_m_subgroupid>
dock_pv

> <b_m_subgroup_collapsed>
1

$$$$
CHEMBL1966_lig60
                    3D
 Schrodinger Suite 2021-1.
 42 44  0  0  1  0            999 V2000
   48.8350   40.8741   -2.8602 C   0  0  0  0  0  0
   48.0288   39.9892   -2.2122 C   0  0  0  0  0  0
   49.8353   41.7772   -2.2845 C   0  0  0  0  0  0
   51.0623   43.8291   -2.6210 C   0  0  0  0  0  0
   50.1239   42.8609   -3.0224 N   0  0  0  0  0  0
   48.0230   39.6180   -0.8080 C   0  0  0  0  0  0
   57.5442   49.6432   -3.1860 C   0  0  0  0  0  0
   50.9225   44.5958   -1.4482 C   0  0  0  0  0  0
   52.1856   44.0066   -3.4260 C   0  0  0  0  0  0
   53.0300   45.7149   -1.9272 C   0  0  0  0  0  0
   53.1543   44.9464   -3.0869 C   0  0  0  0  0  0
   51.8977   45.5432   -1.1185 C   0  0  0  0  0  0
   54.1380   46.6206   -1.5453 C   0  0  0  0  0  0
   56.1858   49.2100   -3.1356 O   0  0  0  0  0  0
   50.3908   41.6100   -1.2030 O   0  0  0  0  0  0
   47.2404   40.1295   -4.3984 O   0  0  0  0  0  0
   54.6623   47.5353   -2.4671 C   0  0  0  0  0  0
   48.8230   40.0098    0.0333 O   0  0  0  0  0  0
   48.4797   40.8098   -4.3358 C   0  0  0  0  0  0
   55.7722   48.3238   -2.1615 C   0  0  0  0  0  0
   47.0641   39.3912   -3.2020 C   0  0  0  0  0  0
   58.3782   48.6108   -3.2990 F   0  0  0  0  0  0
   57.6833   50.3814   -4.2857 F   0  0  0  0  0  0
   57.8748   50.4100   -2.1455 F   0  0  0  0  0  0
   52.3747   43.2100   -4.4990 F   0  0  0  0  0  0
   49.8684   44.4142   -0.6178 F   0  0  0  0  0  0
   47.0308   38.7451   -0.4990 O   0  0  0  0  0  0
   54.7329   46.5177   -0.2843 C   0  0  0  0  0  0
   55.8505   47.2845    0.0302 C   0  0  0  0  0  0
   56.3683   48.1865   -0.8991 C   0  0  0  0  0  0
   49.7350   42.9495   -3.9485 H   0  0  0  0  0  0
   54.0384   45.0369   -3.6990 H   0  0  0  0  0  0
   51.7865   46.1169   -0.2099 H   0  0  0  0  0  0
   54.2095   47.6310   -3.4439 H   0  0  0  0  0  0
   49.2230   40.2478   -4.8989 H   0  0  0  0  0  0
   48.3701   41.7860   -4.8102 H   0  0  0  0  0  0
   47.2725   38.3278   -3.2990 H   0  0  0  0  0  0
   46.0236   39.4881   -2.8875 H   0  0  0  0  0  0
   47.0970   38.5672    0.4482 H   0  0  0  0  0  0
   54.3549   45.8133    0.4432 H   0  0  0  0  0  0
   56.3138   47.1903    1.0019 H   0  0  0  0  0  0
   57.2231   48.7767   -0.6099 H   0  0  0  0  0  0
  1  2  2  0  0  0
  1  3  1  0  0  0
  1 19  1  0  0  0
  2  6  1  0  0  0
  2 21  1  0  0  0
  3  5  1  0  0  0
  3 15  2  0  0  0
  4  5  1  0  0  0
  4  8  1  0  0  0
  4  9  2  0  0  0
  5 31  1  0  0  0
  6 18  2  0  0  0
  6 27  1  0  0  0
  7 14  1  0  0  0
  7 22  1  0  0  0
  7 23  1  0  0  0
  7 24  1  0  0  0
  8 12  2  0  0  0
  8 26  1  0  0  0
  9 11  1  0  0  0
  9 25  1  0  0  0
 10 11  2  0  0  0
 10 13  1  0  0  0
 10 12  1  0  0  0
 11 32  1  0  0  0
 12 33  1  0  0  0
 13 17  1  0  0  0
 13 28  2  0  0  0
 14 20  1  0  0  0
 16 19  1  0  0  0
 16 21  1  0  0  0
 17 20  2  0  0  0
 17 34  1  0  0  0
 19 35  1  0  0  0
 19 36  1  0  0  0
 20 30  1  0  0  0
 21 37  1  0  0  0
 21 38  1  0  0  0
 27 39  1  0  0  0
 28 29  1  0  0  0
 28 40  1  0  0  0
 29 30  2  0  0  0
 29 41  1  0  0  0
 30 42  1  0  0  0
M  END
> <s_m_entry_id>
25535

> <s_m_entry_name>
dock_pv.187

> <s_m_Source_Path>
/home/csk/Desktop/cluster/DUD-E-result/pyrd

> <s_m_Source_File>
dock_pv.maegz

> <i_m_Source_File_Index>
187

> <chembl_id>
CHEMBL195163

> <chembl_pref_name>
None

> <i_lp_mmshare_version>
53161

> <r_lp_tautomer_probability>
1

> <s_lp_Force_Field>
OPLS_2005

> <r_lp_Energy>
39.241897

> <b_lp_Chiralities_Consistent>
1

> <s_lp_Variant>
CHEMBL1966_lig60-1

> <s_i_glide_gridfile>
glide-grid_1d3g

> <i_i_glide_lignum>
66

> <i_i_glide_rotatable_bonds>
8

> <r_i_docking_score>
-9.87469250534577

> <r_i_glide_ligand_efficiency>
-0.329156416844859

> <r_i_glide_ligand_efficiency_sa>
-1.0227655168041

> <r_i_glide_ligand_efficiency_ln>
-2.24363773060696

> <r_i_glide_gscore>
-9.87469250534577

> <r_i_glide_lipo>
-4.81557559919897

> <r_i_glide_hbond>
0

> <r_i_glide_metal>
0

> <r_i_glide_rewards>
-2.74856754704762

> <r_i_glide_evdw>
-41.8354682922363

> <r_i_glide_ecoul>
-5.77144956588745

> <r_i_glide_erotb>
0.646941490395755

> <r_i_glide_esite>
0

> <r_i_glide_emodel>
-68.1374111035708

> <r_i_glide_energy>
-47.6069178581238

> <r_i_glide_einternal>
8.2455530166626

> <i_i_glide_confnum>
46

> <i_i_glide_posenum>
253

> <r_i_glide_eff_state_penalty>
0

> <s_user_duplicate_titles>
CHEMBL1966_lig60,327329

> <i_f3d_flags>
0

> <s_m_subgroup_title>
dock_pv

> <s_m_subgroupid>
dock_pv

> <b_m_subgroup_collapsed>
1

$$$$
CHEMBL1966_lig288
                    3D
 Schrodinger Suite 2021-1.
 39 42  0  0  1  0            999 V2000
   47.0086   39.7411   -3.5318 C   0  0  0  0  0  0
   46.9029   40.2926   -4.8100 C   0  0  0  0  0  0
   47.8256   41.2101   -5.3019 C   0  0  0  0  0  0
   48.0215   40.1184   -2.6273 C   0  0  0  0  0  0
   48.0193   39.6099   -1.2010 C   0  0  0  0  0  0
   47.2234   38.5848   -0.8988 N   0  0  0  0  0  0
   48.7377   40.1044   -0.3373 O   0  0  0  0  0  0
   48.9343   41.0882   -3.1000 C   0  0  0  0  0  0
   48.8237   41.6088   -4.4192 C   0  0  0  0  0  0
   49.8009   42.5704   -4.4904 N   0  0  0  0  0  0
   50.3840   42.6407   -3.2495 C   0  0  0  0  0  0
   49.9383   41.7330   -2.4236 N   0  0  0  0  0  0
   51.3367   43.6987   -2.8552 C   0  0  0  0  0  0
   51.1380   44.4100   -1.6665 C   0  0  0  0  0  0
   52.0231   45.4247   -1.2997 C   0  0  0  0  0  0
   53.1284   45.7189   -2.1116 C   0  0  0  0  0  0
   53.3076   45.0055   -3.2990 C   0  0  0  0  0  0
   52.4219   44.0039   -3.6723 C   0  0  0  0  0  0
   54.1469   46.7285   -1.7256 C   0  0  0  0  0  0
   54.6666   46.7434   -0.4273 C   0  0  0  0  0  0
   55.7057   47.6053   -0.0990 C   0  0  0  0  0  0
   56.2196   48.4744   -1.0578 C   0  0  0  0  0  0
   55.6912   48.4949   -2.3451 C   0  0  0  0  0  0
   54.6593   47.6225   -2.6768 C   0  0  0  0  0  0
   46.2364   39.0465   -3.2375 H   0  0  0  0  0  0
   46.0683   40.0004   -5.4316 H   0  0  0  0  0  0
   47.7125   41.6693   -6.2715 H   0  0  0  0  0  0
   46.7041   38.0968   -1.6096 H   0  0  0  0  0  0
   47.2207   38.2637    0.0600 H   0  0  0  0  0  0
   49.9975   43.2214   -5.2359 H   0  0  0  0  0  0
   50.2927   44.1843   -1.0328 H   0  0  0  0  0  0
   51.8608   45.9652   -0.3789 H   0  0  0  0  0  0
   54.1647   45.2106   -3.9226 H   0  0  0  0  0  0
   52.5923   43.4292   -4.5678 H   0  0  0  0  0  0
   54.2977   46.0555    0.3202 H   0  0  0  0  0  0
   56.1256   47.5839    0.8942 H   0  0  0  0  0  0
   57.0338   49.1361   -0.7974 H   0  0  0  0  0  0
   56.0898   49.1753   -3.0845 H   0  0  0  0  0  0
   54.2669   47.6320   -3.6838 H   0  0  0  0  0  0
  1  2  2  0  0  0
  1  4  1  0  0  0
  1 25  1  0  0  0
  2  3  1  0  0  0
  2 26  1  0  0  0
  3  9  2  0  0  0
  3 27  1  0  0  0
  4  8  2  0  0  0
  4  5  1  0  0  0
  5  6  1  0  0  0
  5  7  2  0  0  0
  6 28  1  0  0  0
  6 29  1  0  0  0
  8 12  1  0  0  0
  8  9  1  0  0  0
  9 10  1  0  0  0
 10 11  1  0  0  0
 10 30  1  0  0  0
 11 12  2  0  0  0
 11 13  1  0  0  0
 13 14  2  0  0  0
 13 18  1  0  0  0
 14 15  1  0  0  0
 14 31  1  0  0  0
 15 16  2  0  0  0
 15 32  1  0  0  0
 16 17  1  0  0  0
 16 19  1  0  0  0
 17 18  2  0  0  0
 17 33  1  0  0  0
 18 34  1  0  0  0
 19 20  2  0  0  0
 19 24  1  0  0  0
 20 21  1  0  0  0
 20 35  1  0  0  0
 21 22  2  0  0  0
 21 36  1  0  0  0
 22 23  1  0  0  0
 22 37  1  0  0  0
 23 24  2  0  0  0
 23 38  1  0  0  0
 24 39  1  0  0  0
M  END
> <s_m_entry_id>
25536

> <s_m_entry_name>
dock_pv.188

> <s_m_Source_Path>
/home/csk/Desktop/cluster/DUD-E-result/pyrd

> <s_m_Source_File>
dock_pv.maegz

> <i_m_Source_File_Index>
188

> <chembl_id>
CHEMBL578185

> <chembl_pref_name>
None

> <i_lp_mmshare_version>
53161

> <r_lp_tautomer_probability>
1

> <s_lp_Force_Field>
OPLS_2005

> <r_lp_Energy>
23.496122

> <b_lp_Chiralities_Consistent>
1

> <s_lp_Variant>
CHEMBL1966_lig288-1

> <s_i_glide_gridfile>
glide-grid_1d3g

> <i_i_glide_lignum>
334

> <i_i_glide_rotatable_bonds>
3

> <r_i_docking_score>
-9.8729881132067

> <r_i_glide_ligand_efficiency>
-0.411374504716946

> <r_i_glide_ligand_efficiency_sa>
-1.18660940406984

> <r_i_glide_ligand_efficiency_ln>
-2.36305909739427

> <r_i_glide_gscore>
-9.8729881132067

> <r_i_glide_lipo>
-4.98380901038039

> <r_i_glide_hbond>
-0.145604908423832

> <r_i_glide_metal>
0

> <r_i_glide_rewards>
-2.79689783444605

> <r_i_glide_evdw>
-40.0263671875

> <r_i_glide_ecoul>
-2.15775346755981

> <r_i_glide_erotb>
0.378305019552556

> <r_i_glide_esite>
0

> <r_i_glide_emodel>
-59.2002135664224

> <r_i_glide_energy>
-42.1841206550598

> <r_i_glide_einternal>
4.65346908569336

> <i_i_glide_confnum>
3

> <i_i_glide_posenum>
309

> <r_i_glide_eff_state_penalty>
0

> <s_user_duplicate_titles>
CHEMBL1966_lig288

> <i_f3d_flags>
0

> <s_m_subgroup_title>
dock_pv

> <s_m_subgroupid>
dock_pv

> <b_m_subgroup_collapsed>
1

$$$$
CHEMBL1966_lig165
                    3D
 Schrodinger Suite 2021-1.
 44 47  0  0  1  0            999 V2000
   53.5315   46.0528   -1.7114 N   0  0  0  0  0  0
   52.3657   45.9270   -1.0717 N   0  0  0  0  0  0
   51.6907   45.0602   -1.6973 C   0  0  0  0  0  0
   52.4213   44.5752   -2.8283 C   0  0  0  0  0  0
   53.7033   45.2092   -2.7272 C   0  0  0  0  0  0
   54.7347   45.0290   -3.3718 O   0  0  0  0  0  0
   50.3006   44.6377   -1.3258 C   0  0  0  0  0  0
   52.0843   43.7397   -3.8400 C   0  0  0  0  0  0
   50.8218   43.2150   -4.2931 C   0  0  0  0  0  0
   50.0853   43.6064   -5.3970 C   0  0  0  0  0  0
   48.9616   42.8092   -5.4381 C   0  0  0  0  0  0
   49.1134   41.8597   -4.4504 C   0  0  0  0  0  0
   50.2407   42.1229   -3.7263 O   0  0  0  0  0  0
   48.2135   40.7607   -4.0362 C   0  0  0  0  0  0
   47.0697   40.4975   -4.8037 C   0  0  0  0  0  0
   46.1025   39.6129   -4.3448 C   0  0  0  0  0  0
   46.3137   38.9306   -3.1517 C   0  0  0  0  0  0
   47.4391   39.1866   -2.3745 C   0  0  0  0  0  0
   48.3979   40.1000   -2.8219 C   0  0  0  0  0  0
   47.5979   38.4699   -1.0748 C   0  0  0  0  0  0
   48.1004   39.2575   -0.0989 O   0  0  0  0  0  0
   47.2296   37.3117   -0.8986 O   0  0  0  0  0  0
   54.5080   46.9483   -1.2942 C   0  0  0  0  0  0
   55.2291   46.6767   -0.1343 C   0  0  0  0  0  0
   56.3678   47.4204    0.1296 C   0  0  0  0  0  0
   56.7465   48.4437   -0.7377 C   0  0  0  0  0  0
   55.9988   48.7527   -1.8670 C   0  0  0  0  0  0
   54.8712   47.9950   -2.1532 C   0  0  0  0  0  0
   49.6232   45.2063   -1.9476 H   0  0  0  0  0  0
   50.1402   43.5728   -1.4897 H   0  0  0  0  0  0
   50.0722   44.8508   -0.2817 H   0  0  0  0  0  0
   52.8286   43.4362   -4.5418 H   0  0  0  0  0  0
   50.3197   44.4058   -6.0827 H   0  0  0  0  0  0
   48.1186   42.9099   -6.1002 H   0  0  0  0  0  0
   46.8860   41.0291   -5.7230 H   0  0  0  0  0  0
   45.2214   39.4188   -4.9358 H   0  0  0  0  0  0
   45.6227   38.1749   -2.8280 H   0  0  0  0  0  0
   49.2671   40.3251   -2.2182 H   0  0  0  0  0  0
   48.0228   38.8233    0.7662 H   0  0  0  0  0  0
   54.9530   45.8574    0.5149 H   0  0  0  0  0  0
   56.9546   47.2161    1.0142 H   0  0  0  0  0  0
   57.6221   49.0248   -0.5025 H   0  0  0  0  0  0
   56.3024   49.5569   -2.5233 H   0  0  0  0  0  0
   54.3128   48.1865   -3.0606 H   0  0  0  0  0  0
  1  2  1  0  0  0
  1  5  1  0  0  0
  1 23  1  0  0  0
  2  3  2  0  0  0
  3  4  1  0  0  0
  3  7  1  0  0  0
  4  5  1  0  0  0
  4  8  2  0  0  0
  5  6  2  0  0  0
  7 29  1  0  0  0
  7 30  1  0  0  0
  7 31  1  0  0  0
  8  9  1  0  0  0
  8 32  1  0  0  0
  9 10  2  0  0  0
  9 13  1  0  0  0
 10 11  1  0  0  0
 10 33  1  0  0  0
 11 12  2  0  0  0
 11 34  1  0  0  0
 12 13  1  0  0  0
 12 14  1  0  0  0
 14 15  2  0  0  0
 14 19  1  0  0  0
 15 16  1  0  0  0
 15 35  1  0  0  0
 16 17  2  0  0  0
 16 36  1  0  0  0
 17 18  1  0  0  0
 17 37  1  0  0  0
 18 19  2  0  0  0
 18 20  1  0  0  0
 19 38  1  0  0  0
 20 21  1  0  0  0
 20 22  2  0  0  0
 21 39  1  0  0  0
 23 24  2  0  0  0
 23 28  1  0  0  0
 24 25  1  0  0  0
 24 40  1  0  0  0
 25 26  2  0  0  0
 25 41  1  0  0  0
 26 27  1  0  0  0
 26 42  1  0  0  0
 27 28  2  0  0  0
 27 43  1  0  0  0
 28 44  1  0  0  0
M  END
> <s_m_entry_id>
25537

> <s_m_entry_name>
dock_pv.189

> <s_m_Source_Path>
/home/csk/Desktop/cluster/DUD-E-result/pyrd

> <s_m_Source_File>
dock_pv.maegz

> <i_m_Source_File_Index>
189

> <chembl_id>
CHEMBL2178110

> <chembl_pref_name>
None

> <i_lp_mmshare_version>
53161

> <r_lp_tautomer_probability>
1

> <s_lp_Force_Field>
OPLS_2005

> <r_lp_Energy>
36.863566

> <b_lp_Chiralities_Consistent>
1

> <s_lp_Variant>
CHEMBL1966_lig165-1

> <s_i_glide_gridfile>
glide-grid_1d3g

> <i_i_glide_lignum>
210

> <i_i_glide_rotatable_bonds>
5

> <r_i_docking_score>
-9.87121695458686

> <r_i_glide_ligand_efficiency>
-0.352543462663816

> <r_i_glide_ligand_efficiency_sa>
-1.07052958964273

> <r_i_glide_ligand_efficiency_ln>
-2.2785667046424

> <r_i_glide_gscore>
-9.87121695458686

> <r_i_glide_lipo>
-4.30636025297427

> <r_i_glide_hbond>
0

> <r_i_glide_metal>
0

> <r_i_glide_rewards>
-3.20539216268325

> <r_i_glide_evdw>
-35.6268501281738

> <r_i_glide_ecoul>
-7.56839275360107

> <r_i_glide_erotb>
0.557136880519514

> <r_i_glide_esite>
0

> <r_i_glide_emodel>
-51.0600240697926

> <r_i_glide_energy>
-43.1952428817749

> <r_i_glide_einternal>
9.5476131439209

> <i_i_glide_confnum>
5

> <i_i_glide_posenum>
9

> <r_i_glide_eff_state_penalty>
0

> <s_user_duplicate_titles>
CHEMBL1966_lig165

> <i_f3d_flags>
0

> <s_m_subgroup_title>
dock_pv

> <s_m_subgroupid>
dock_pv

> <b_m_subgroup_collapsed>
1

$$$$
CHEMBL1966_lig311
                    3D
 Schrodinger Suite 2021-1.
 45 47  0  0  1  0            999 V2000
   45.6328   38.9176   -3.6995 C   0  0  0  0  0  0
   46.1312   39.8088   -4.6333 C   0  0  0  0  0  0
   47.3592   40.4099   -4.4038 C   0  0  0  0  0  0
   48.0271   40.2628   -3.1795 C   0  0  0  0  0  0
   47.4475   39.4661   -2.1670 C   0  0  0  0  0  0
   46.2583   38.7786   -2.4656 C   0  0  0  0  0  0
   48.0173   39.3551   -0.7695 C   0  0  0  0  0  0
   47.5732   38.2639   -0.1002 O   0  0  0  0  0  0
   48.7895   40.1672   -0.2631 O   0  0  0  0  0  0
   49.3011   40.9600   -3.0897 C   0  0  0  0  0  0
   49.4805   42.0812   -2.4979 N   0  0  0  0  0  0
   50.5702   42.9737   -2.8176 N   0  0  0  0  0  0
   50.9762   44.0100   -1.9761 C   0  0  0  0  0  0
   52.0230   44.7908   -2.1717 N   0  0  0  0  0  0
   52.2617   45.6447   -1.1973 C   0  0  0  0  0  0
   51.2905   45.6092   -0.1978 C   0  0  0  0  0  0
   50.1358   44.3462   -0.4989 S   0  0  0  0  0  0
   53.5267   46.4563   -1.2411 C   0  0  0  0  0  0
   54.0267   46.8661   -2.4882 C   0  0  0  0  0  0
   55.2375   47.5509   -2.5900 C   0  0  0  0  0  0
   55.9822   47.8191   -1.4443 C   0  0  0  0  0  0
   55.5014   47.4213   -0.1993 C   0  0  0  0  0  0
   54.2733   46.7684   -0.0877 C   0  0  0  0  0  0
   53.7460   46.3363    1.5002 Cl  0  0  0  0  0  0
   51.1722   42.8438   -4.1527 C   0  0  0  0  0  0
   50.6863   43.8905   -5.1492 C   0  0  0  0  0  0
   50.9816   43.4979   -6.5990 C   0  0  0  0  0  0
   44.8228   38.2983   -4.0084 H   0  0  0  0  0  0
   45.6321   39.9317   -5.5832 H   0  0  0  0  0  0
   47.7699   41.0400   -5.1814 H   0  0  0  0  0  0
   45.8041   38.1056   -1.7515 H   0  0  0  0  0  0
   47.7007   38.4083    0.8541 H   0  0  0  0  0  0
   50.0894   40.4397   -3.6243 H   0  0  0  0  0  0
   51.2249   46.1995    0.7030 H   0  0  0  0  0  0
   53.4777   46.6477   -3.3935 H   0  0  0  0  0  0
   55.6056   47.8573   -3.5586 H   0  0  0  0  0  0
   56.9315   48.3298   -1.5192 H   0  0  0  0  0  0
   56.0867   47.6095    0.6883 H   0  0  0  0  0  0
   52.2616   42.8007   -4.0988 H   0  0  0  0  0  0
   50.8229   41.9529   -4.6297 H   0  0  0  0  0  0
   49.6228   44.0774   -5.0073 H   0  0  0  0  0  0
   51.2269   44.8085   -4.9542 H   0  0  0  0  0  0
   50.8174   44.3316   -7.2825 H   0  0  0  0  0  0
   52.0201   43.1922   -6.6936 H   0  0  0  0  0  0
   50.3627   42.6602   -6.9181 H   0  0  0  0  0  0
  1  2  2  0  0  0
  1  6  1  0  0  0
  1 28  1  0  0  0
  2  3  1  0  0  0
  2 29  1  0  0  0
  3  4  2  0  0  0
  3 30  1  0  0  0
  4  5  1  0  0  0
  4 10  1  0  0  0
  5  6  2  0  0  0
  5  7  1  0  0  0
  6 31  1  0  0  0
  7  8  1  0  0  0
  7  9  2  0  0  0
  8 32  1  0  0  0
 10 11  2  0  0  0
 10 33  1  0  0  0
 11 12  1  0  0  0
 12 13  1  0  0  0
 12 25  1  0  0  0
 13 14  2  0  0  0
 13 17  1  0  0  0
 14 15  1  0  0  0
 15 16  2  0  0  0
 15 18  1  0  0  0
 16 17  1  0  0  0
 16 34  1  0  0  0
 18 19  2  0  0  0
 18 23  1  0  0  0
 19 20  1  0  0  0
 19 35  1  0  0  0
 20 21  2  0  0  0
 20 36  1  0  0  0
 21 22  1  0  0  0
 21 37  1  0  0  0
 22 23  2  0  0  0
 22 38  1  0  0  0
 23 24  1  0  0  0
 25 26  1  0  0  0
 25 39  1  0  0  0
 25 40  1  0  0  0
 26 27  1  0  0  0
 26 41  1  0  0  0
 26 42  1  0  0  0
 27 43  1  0  0  0
 27 44  1  0  0  0
 27 45  1  0  0  0
M  END
> <s_m_entry_id>
25538

> <s_m_entry_name>
dock_pv.190

> <s_m_Source_Path>
/home/csk/Desktop/cluster/DUD-E-result/pyrd

> <s_m_Source_File>
dock_pv.maegz

> <i_m_Source_File_Index>
190

> <chembl_id>
CHEMBL3909259

> <chembl_pref_name>
None

> <i_lp_mmshare_version>
53161

> <r_lp_tautomer_probability>
1

> <s_lp_Force_Field>
OPLS_2005

> <r_lp_Energy>
29.387382

> <b_lp_Chiralities_Consistent>
1

> <s_lp_Variant>
CHEMBL1966_lig311-1

> <s_i_glide_gridfile>
glide-grid_1d3g

> <i_i_glide_lignum>
358

> <i_i_glide_rotatable_bonds>
8

> <r_i_docking_score>
-9.85837987055679

> <r_i_glide_ligand_efficiency>
-0.365125180390992

> <r_i_glide_ligand_efficiency_sa>
-1.09537553996958

> <r_i_glide_ligand_efficiency_ln>
-2.29486830577119

> <r_i_glide_gscore>
-9.85837987055679

> <r_i_glide_lipo>
-5.48213609878079

> <r_i_glide_hbond>
0

> <r_i_glide_metal>
0

> <r_i_glide_rewards>
-2.52004785737908

> <r_i_glide_evdw>
-25.0165557861328

> <r_i_glide_ecoul>
-8.93811416625977

> <r_i_glide_erotb>
0.735348999848691

> <r_i_glide_esite>
0

> <r_i_glide_emodel>
-36.1802067887382

> <r_i_glide_energy>
-33.9546699523926

> <r_i_glide_einternal>
11.279688835144

> <i_i_glide_confnum>
55

> <i_i_glide_posenum>
18

> <r_i_glide_eff_state_penalty>
0

> <s_user_duplicate_titles>
CHEMBL1966_lig311

> <i_f3d_flags>
0

> <s_m_subgroup_title>
dock_pv

> <s_m_subgroupid>
dock_pv

> <b_m_subgroup_collapsed>
1

$$$$
CHEMBL1966_lig419
                    3D
 Schrodinger Suite 2021-1.
 39 41  0  0  1  0            999 V2000
   47.1691   38.5131   -1.0247 C   0  0  0  0  0  0
   47.9985   39.6152   -1.6584 C   0  0  0  0  0  0
   48.8231   40.4089   -0.8592 C   0  0  0  0  0  0
   49.6231   41.3822   -1.4373 C   0  0  0  0  0  0
   49.5804   41.6289   -2.8120 C   0  0  0  0  0  0
   50.4469   42.5782   -3.3672 N   0  0  0  0  0  0
   51.2393   43.6116   -2.8699 C   0  0  0  0  0  0
   52.3534   43.9839   -3.6221 C   0  0  0  0  0  0
   53.2214   44.9548   -3.2464 N   0  0  0  0  0  0
   52.9860   45.6098   -2.0777 C   0  0  0  0  0  0
   51.8515   45.3400   -1.2930 C   0  0  0  0  0  0
   51.6254   46.0124   -0.1409 F   0  0  0  0  0  0
   50.9704   44.3301   -1.6979 C   0  0  0  0  0  0
   54.0655   46.5406   -1.6570 C   0  0  0  0  0  0
   54.5642   47.5090   -2.5384 C   0  0  0  0  0  0
   55.6253   48.3281   -2.1600 C   0  0  0  0  0  0
   56.1966   48.1748   -0.8992 C   0  0  0  0  0  0
   55.7030   47.2241   -0.0085 C   0  0  0  0  0  0
   54.6342   46.4177   -0.3835 C   0  0  0  0  0  0
   48.6914   40.8880   -3.6325 C   0  0  0  0  0  0
   47.9206   39.8771   -3.0295 C   0  0  0  0  0  0
   48.4244   41.2187   -5.0963 C   0  0  0  0  0  0
   47.4388   40.8045   -5.7000 O   0  0  0  0  0  0
   49.3041   42.0576   -5.7060 O   0  0  0  0  0  0
   46.5806   38.9177   -0.1998 H   0  0  0  0  0  0
   47.8200   37.7417   -0.6112 H   0  0  0  0  0  0
   46.4814   38.0522   -1.7340 H   0  0  0  0  0  0
   48.8856   40.2233    0.2033 H   0  0  0  0  0  0
   50.3061   41.9203   -0.7998 H   0  0  0  0  0  0
   50.5408   42.4424   -4.3654 H   0  0  0  0  0  0
   52.6043   43.4491   -4.5227 H   0  0  0  0  0  0
   50.0925   44.1220   -1.1061 H   0  0  0  0  0  0
   54.1354   47.6160   -3.5250 H   0  0  0  0  0  0
   56.0116   49.0693   -2.8448 H   0  0  0  0  0  0
   57.0291   48.7991   -0.6064 H   0  0  0  0  0  0
   56.1492   47.1143    0.9697 H   0  0  0  0  0  0
   54.2684   45.6741    0.3100 H   0  0  0  0  0  0
   47.2377   39.2880   -3.6265 H   0  0  0  0  0  0
   48.9455   42.3676   -6.5381 H   0  0  0  0  0  0
  1  2  1  0  0  0
  1 25  1  0  0  0
  1 26  1  0  0  0
  1 27  1  0  0  0
  2  3  2  0  0  0
  2 21  1  0  0  0
  3  4  1  0  0  0
  3 28  1  0  0  0
  4  5  2  0  0  0
  4 29  1  0  0  0
  5  6  1  0  0  0
  5 20  1  0  0  0
  6  7  1  0  0  0
  6 30  1  0  0  0
  7  8  2  0  0  0
  7 13  1  0  0  0
  8  9  1  0  0  0
  8 31  1  0  0  0
  9 10  2  0  0  0
 10 11  1  0  0  0
 10 14  1  0  0  0
 11 12  1  0  0  0
 11 13  2  0  0  0
 13 32  1  0  0  0
 14 15  2  0  0  0
 14 19  1  0  0  0
 15 16  1  0  0  0
 15 33  1  0  0  0
 16 17  2  0  0  0
 16 34  1  0  0  0
 17 18  1  0  0  0
 17 35  1  0  0  0
 18 19  2  0  0  0
 18 36  1  0  0  0
 19 37  1  0  0  0
 20 21  2  0  0  0
 20 22  1  0  0  0
 21 38  1  0  0  0
 22 23  2  0  0  0
 22 24  1  0  0  0
 24 39  1  0  0  0
M  END
> <s_m_entry_id>
25539

> <s_m_entry_name>
dock_pv.191

> <s_m_Source_Path>
/home/csk/Desktop/cluster/DUD-E-result/pyrd

> <s_m_Source_File>
dock_pv.maegz

> <i_m_Source_File_Index>
191

> <chembl_id>
CHEMBL3674629

> <chembl_pref_name>
None

> <i_lp_mmshare_version>
53161

> <r_lp_tautomer_probability>
0.999999999999999

> <s_lp_Force_Field>
OPLS_2005

> <r_lp_Energy>
30.422869

> <b_lp_Chiralities_Consistent>
1

> <s_lp_Variant>
CHEMBL1966_lig419-1

> <s_i_glide_gridfile>
glide-grid_1d3g

> <i_i_glide_lignum>
469

> <i_i_glide_rotatable_bonds>
5

> <r_i_docking_score>
-9.85118958750084

> <r_i_glide_ligand_efficiency>
-0.410466232812535

> <r_i_glide_ligand_efficiency_sa>
-1.1839894945449

> <r_i_glide_ligand_efficiency_ln>
-2.3578417099237

> <r_i_glide_gscore>
-9.85118958750084

> <r_i_glide_lipo>
-5.26027324599312

> <r_i_glide_hbond>
-0.0700145053192701

> <r_i_glide_metal>
0

> <r_i_glide_rewards>
-2.83063838739849

> <r_i_glide_evdw>
-44.2751197814941

> <r_i_glide_ecoul>
-1.30931794643402

> <r_i_glide_erotb>
0.719890232249847

> <r_i_glide_esite>
0

> <r_i_glide_emodel>
-64.1218746448983

> <r_i_glide_energy>
-45.5844377279282

> <r_i_glide_einternal>
14.0656251907349

> <i_i_glide_confnum>
57

> <i_i_glide_posenum>
2

> <r_i_glide_eff_state_penalty>
0

> <s_user_duplicate_titles>
CHEMBL1966_lig419

> <i_f3d_flags>
0

> <s_m_subgroup_title>
dock_pv

> <s_m_subgroupid>
dock_pv

> <b_m_subgroup_collapsed>
1

$$$$
CHEMBL1966_lig209
                    3D
 Schrodinger Suite 2021-1.
 34 36  0  0  1  0            999 V2000
   47.7438   39.5150   -1.8200 C   0  0  0  0  0  0
   48.2674   39.8107   -0.5668 C   0  0  0  0  0  0
   49.2230   40.8100   -0.4224 C   0  0  0  0  0  0
   48.1990   40.1808   -2.9551 C   0  0  0  0  0  0
   49.1425   41.2476   -2.8488 C   0  0  0  0  0  0
   49.6230   41.5788   -1.5401 C   0  0  0  0  0  0
   50.4230   42.6526   -1.3039 N   0  0  0  0  0  0
   50.8230   43.4160   -2.3502 C   0  0  0  0  0  0
   50.4529   43.1330   -3.6535 C   0  0  0  0  0  0
   49.5866   42.0747   -3.9383 C   0  0  0  0  0  0
   46.4999   38.3326   -1.9625 Cl  0  0  0  0  0  0
   49.1675   41.8843   -5.3718 C   0  0  0  0  0  0
   49.2229   43.0313   -6.0990 O   0  0  0  0  0  0
   48.8230   40.8100   -5.8568 O   0  0  0  0  0  0
   51.7283   44.5600   -2.0553 C   0  0  0  0  0  0
   51.5592   45.3422   -0.9057 C   0  0  0  0  0  0
   52.4709   46.3468   -0.5930 C   0  0  0  0  0  0
   53.5663   46.5980   -1.4187 C   0  0  0  0  0  0
   53.7294   45.8386   -2.5856 C   0  0  0  0  0  0
   52.8230   44.8302   -2.8990 C   0  0  0  0  0  0
   54.4230   47.6017   -1.0069 O   0  0  0  0  0  0
   55.6385   47.8520   -1.7107 C   0  0  0  0  0  0
   56.4234   46.7730   -1.7327 F   0  0  0  0  0  0
   55.4050   48.2944   -2.9478 F   0  0  0  0  0  0
   56.2899   48.8100   -1.0544 F   0  0  0  0  0  0
   47.9286   39.2627    0.3010 H   0  0  0  0  0  0
   49.6146   41.0478    0.5565 H   0  0  0  0  0  0
   47.7709   39.9138   -3.9075 H   0  0  0  0  0  0
   50.8325   43.7695   -4.4404 H   0  0  0  0  0  0
   49.0518   43.8167   -5.5691 H   0  0  0  0  0  0
   50.7293   45.1583   -0.2385 H   0  0  0  0  0  0
   52.3340   46.9285    0.3070 H   0  0  0  0  0  0
   54.5608   46.0006   -3.2539 H   0  0  0  0  0  0
   52.9978   44.2305   -3.7795 H   0  0  0  0  0  0
  1  2  2  0  0  0
  1  4  1  0  0  0
  1 11  1  0  0  0
  2  3  1  0  0  0
  2 26  1  0  0  0
  3  6  2  0  0  0
  3 27  1  0  0  0
  4  5  2  0  0  0
  4 28  1  0  0  0
  5  6  1  0  0  0
  5 10  1  0  0  0
  6  7  1  0  0  0
  7  8  2  0  0  0
  8  9  1  0  0  0
  8 15  1  0  0  0
  9 10  2  0  0  0
  9 29  1  0  0  0
 10 12  1  0  0  0
 12 13  1  0  0  0
 12 14  2  0  0  0
 13 30  1  0  0  0
 15 16  2  0  0  0
 15 20  1  0  0  0
 16 17  1  0  0  0
 16 31  1  0  0  0
 17 18  2  0  0  0
 17 32  1  0  0  0
 18 19  1  0  0  0
 18 21  1  0  0  0
 19 20  2  0  0  0
 19 33  1  0  0  0
 20 34  1  0  0  0
 21 22  1  0  0  0
 22 23  1  0  0  0
 22 24  1  0  0  0
 22 25  1  0  0  0
M  END
> <s_m_entry_id>
25540

> <s_m_entry_name>
dock_pv.192

> <s_m_Source_Path>
/home/csk/Desktop/cluster/DUD-E-result/pyrd

> <s_m_Source_File>
dock_pv.maegz

> <i_m_Source_File_Index>
192

> <chembl_id>
CHEMBL2385719

> <chembl_pref_name>
None

> <i_lp_mmshare_version>
53161

> <r_lp_tautomer_probability>
1

> <s_lp_Force_Field>
OPLS_2005

> <r_lp_Energy>
20.108454

> <b_lp_Chiralities_Consistent>
1

> <s_lp_Variant>
CHEMBL1966_lig209-1

> <s_i_glide_gridfile>
glide-grid_1d3g

> <i_i_glide_lignum>
254

> <i_i_glide_rotatable_bonds>
5

> <r_i_docking_score>
-9.84612401708514

> <r_i_glide_ligand_efficiency>
-0.393844960683405

> <r_i_glide_ligand_efficiency_sa>
-1.1516096499084

> <r_i_glide_ligand_efficiency_ln>
-2.33382645657572

> <r_i_glide_gscore>
-9.84612401708514

> <r_i_glide_lipo>
-4.9469425487705

> <r_i_glide_hbond>
-0.142216447244642

> <r_i_glide_metal>
0

> <r_i_glide_rewards>
-2.58184823236856

> <r_i_glide_evdw>
-32.678279876709

> <r_i_glide_ecoul>
-6.45721292495728

> <r_i_glide_erotb>
0.42737914387761

> <r_i_glide_esite>
0

> <r_i_glide_emodel>
-58.3021154173632

> <r_i_glide_energy>
-39.1354928016663

> <r_i_glide_einternal>
5.28938055038452

> <i_i_glide_confnum>
17

> <i_i_glide_posenum>
212

> <r_i_glide_eff_state_penalty>
0

> <s_user_duplicate_titles>
CHEMBL1966_lig209

> <i_f3d_flags>
0

> <s_m_subgroup_title>
dock_pv

> <s_m_subgroupid>
dock_pv

> <b_m_subgroup_collapsed>
1

$$$$
CHEMBL1966_lig441
                    3D
 Schrodinger Suite 2021-1.
 46 48  0  0  1  0            999 V2000
   56.5583   48.3603   -4.0147 C   0  0  0  0  0  0
   55.3741   47.5685   -4.0349 O   0  0  0  0  0  0
   54.7855   47.2150   -2.8368 C   0  0  0  0  0  0
   55.2397   47.6366   -1.5806 C   0  0  0  0  0  0
   54.5915   47.2144   -0.4260 C   0  0  0  0  0  0
   53.4819   46.3791   -0.5026 C   0  0  0  0  0  0
   52.9095   46.0100    0.6662 F   0  0  0  0  0  0
   53.0144   45.9048   -1.7476 C   0  0  0  0  0  0
   53.6809   46.3623   -2.8989 C   0  0  0  0  0  0
   51.9306   44.8628   -1.8568 C   0  0  0  0  0  0
   50.9397   44.6850   -0.8843 C   0  0  0  0  0  0
   50.1513   43.5300   -0.8990 C   0  0  0  0  0  0
   49.1707   43.3453    0.2495 C   0  0  0  0  0  0
   50.3114   42.5898   -1.9379 C   0  0  0  0  0  0
   49.6230   41.3592   -1.9270 N   0  0  0  0  0  0
   48.7567   40.7759   -2.8725 C   0  0  0  0  0  0
   48.7721   41.2099   -4.2099 C   0  0  0  0  0  0
   47.7339   40.8893   -5.0844 C   0  0  0  0  0  0
   46.6608   40.1275   -4.6316 C   0  0  0  0  0  0
   45.4216   39.9098   -5.4767 C   0  0  0  0  0  0
   46.7091   39.5742   -3.3622 C   0  0  0  0  0  0
   47.7443   39.8622   -2.4644 C   0  0  0  0  0  0
   47.6229   39.2058   -1.0976 C   0  0  0  0  0  0
   46.8237   38.2947   -0.8989 O   0  0  0  0  0  0
   48.4230   39.6677   -0.0990 O   0  0  0  0  0  0
   51.2232   42.9082   -2.9456 C   0  0  0  0  0  0
   52.0164   44.0100   -2.9200 N   0  0  0  0  0  0
   56.9273   48.4903   -5.0309 H   0  0  0  0  0  0
   56.3679   49.3527   -3.6034 H   0  0  0  0  0  0
   57.3539   47.8811   -3.4414 H   0  0  0  0  0  0
   56.0933   48.2891   -1.4793 H   0  0  0  0  0  0
   54.9459   47.5449    0.5398 H   0  0  0  0  0  0
   53.3581   46.0293   -3.8748 H   0  0  0  0  0  0
   50.8230   45.3905   -0.0767 H   0  0  0  0  0  0
   49.6230   43.6133    1.1942 H   0  0  0  0  0  0
   48.3156   44.0099    0.1183 H   0  0  0  0  0  0
   48.8264   42.3197    0.3632 H   0  0  0  0  0  0
   49.3783   41.0496   -0.9952 H   0  0  0  0  0  0
   49.5145   41.8977   -4.5731 H   0  0  0  0  0  0
   47.7206   41.3251   -6.0719 H   0  0  0  0  0  0
   45.6527   39.6481   -6.4991 H   0  0  0  0  0  0
   44.8225   40.8207   -5.4871 H   0  0  0  0  0  0
   44.8230   39.0816   -5.0969 H   0  0  0  0  0  0
   45.8815   38.9459   -3.0600 H   0  0  0  0  0  0
   48.1963   39.2094    0.7222 H   0  0  0  0  0  0
   51.4334   42.2143   -3.7423 H   0  0  0  0  0  0
  1  2  1  0  0  0
  1 28  1  0  0  0
  1 29  1  0  0  0
  1 30  1  0  0  0
  2  3  1  0  0  0
  3  4  2  0  0  0
  3  9  1  0  0  0
  4  5  1  0  0  0
  4 31  1  0  0  0
  5  6  2  0  0  0
  5 32  1  0  0  0
  6  7  1  0  0  0
  6  8  1  0  0  0
  8  9  2  0  0  0
  8 10  1  0  0  0
  9 33  1  0  0  0
 10 11  2  0  0  0
 10 27  1  0  0  0
 11 12  1  0  0  0
 11 34  1  0  0  0
 12 13  1  0  0  0
 12 14  2  0  0  0
 13 35  1  0  0  0
 13 36  1  0  0  0
 13 37  1  0  0  0
 14 15  1  0  0  0
 14 26  1  0  0  0
 15 16  1  0  0  0
 15 38  1  0  0  0
 16 17  2  0  0  0
 16 22  1  0  0  0
 17 18  1  0  0  0
 17 39  1  0  0  0
 18 19  2  0  0  0
 18 40  1  0  0  0
 19 20  1  0  0  0
 19 21  1  0  0  0
 20 41  1  0  0  0
 20 42  1  0  0  0
 20 43  1  0  0  0
 21 22  2  0  0  0
 21 44  1  0  0  0
 22 23  1  0  0  0
 23 24  2  0  0  0
 23 25  1  0  0  0
 25 45  1  0  0  0
 26 27  2  0  0  0
 26 46  1  0  0  0
M  END
> <s_m_entry_id>
25541

> <s_m_entry_name>
dock_pv.193

> <s_m_Source_Path>
/home/csk/Desktop/cluster/DUD-E-result/pyrd

> <s_m_Source_File>
dock_pv.maegz

> <i_m_Source_File_Index>
193

> <chembl_id>
CHEMBL3674651

> <chembl_pref_name>
None

> <i_lp_mmshare_version>
53161

> <r_lp_tautomer_probability>
0.999999999999999

> <s_lp_Force_Field>
OPLS_2005

> <r_lp_Energy>
31.951231

> <b_lp_Chiralities_Consistent>
1

> <s_lp_Variant>
CHEMBL1966_lig441-1

> <s_i_glide_gridfile>
glide-grid_1d3g

> <i_i_glide_lignum>
491

> <i_i_glide_rotatable_bonds>
6

> <r_i_docking_score>
-9.8405406166302

> <r_i_glide_ligand_efficiency>
-0.3644644672826

> <r_i_glide_ligand_efficiency_sa>
-1.09339340064658

> <r_i_glide_ligand_efficiency_ln>
-2.29071562156017

> <r_i_glide_gscore>
-9.8405406166302

> <r_i_glide_lipo>
-5.356044273227

> <r_i_glide_hbond>
0

> <r_i_glide_metal>
0

> <r_i_glide_rewards>
-2.38369993365727

> <r_i_glide_evdw>
-41.311882019043

> <r_i_glide_ecoul>
-4.05809640884399

> <r_i_glide_erotb>
0.573512152532824

> <r_i_glide_esite>
0

> <r_i_glide_emodel>
-41.152077320048

> <r_i_glide_energy>
-45.369978427887

> <r_i_glide_einternal>
21.3520984649658

> <i_i_glide_confnum>
27

> <i_i_glide_posenum>
162

> <r_i_glide_eff_state_penalty>
0

> <s_user_duplicate_titles>
CHEMBL1966_lig441

> <i_f3d_flags>
0

> <s_m_subgroup_title>
dock_pv

> <s_m_subgroupid>
dock_pv

> <b_m_subgroup_collapsed>
1

$$$$
CHEMBL1966_lig303
                    3D
 Schrodinger Suite 2021-1.
 45 47  0  0  1  0            999 V2000
   48.1791   39.6115   -0.6028 C   0  0  0  0  0  0
   47.5294   39.2641   -1.7750 C   0  0  0  0  0  0
   47.8704   39.8712   -2.9782 C   0  0  0  0  0  0
   49.1927   40.5691   -0.6010 C   0  0  0  0  0  0
   49.5216   41.2427   -1.8017 C   0  0  0  0  0  0
   48.8554   40.9043   -3.0192 C   0  0  0  0  0  0
   49.1882   41.6665   -4.1880 C   0  0  0  0  0  0
   50.1068   42.7346   -4.0807 C   0  0  0  0  0  0
   50.6808   43.0072   -2.8186 C   0  0  0  0  0  0
   50.4117   42.2585   -1.7223 N   0  0  0  0  0  0
   51.6226   44.1282   -2.5173 C   0  0  0  0  0  0
   52.7731   44.3228   -3.2981 C   0  0  0  0  0  0
   53.6924   45.3189   -2.9854 C   0  0  0  0  0  0
   53.4751   46.1693   -1.8982 C   0  0  0  0  0  0
   52.3168   46.0091   -1.1299 C   0  0  0  0  0  0
   51.4060   44.9934   -1.4297 C   0  0  0  0  0  0
   48.5613   41.3152   -5.5153 C   0  0  0  0  0  0
   47.2375   41.6102   -5.6523 O   0  0  0  0  0  0
   49.2235   40.8105   -6.4113 O   0  0  0  0  0  0
   46.1053   38.0142   -1.6993 Br  0  0  0  0  0  0
   50.4219   43.5851   -5.3189 C   0  0  0  0  0  0
   54.5230   47.2212   -1.5048 C   0  0  2  0  0  0
   55.0850   48.0106   -2.7189 C   0  0  0  0  0  0
   55.6312   46.5759   -0.6458 C   0  0  0  0  0  0
   56.0263   49.1741   -2.3568 C   0  0  0  0  0  0
   47.9018   39.1071    0.3011 H   0  0  0  0  0  0
   47.3375   39.5840   -3.8718 H   0  0  0  0  0  0
   49.6947   40.8317    0.3193 H   0  0  0  0  0  0
   52.9930   43.6376   -4.1009 H   0  0  0  0  0  0
   54.5900   45.3980   -3.5796 H   0  0  0  0  0  0
   52.1327   46.6490   -0.2791 H   0  0  0  0  0  0
   50.5273   44.8766   -0.8112 H   0  0  0  0  0  0
   46.8997   42.1700   -4.9497 H   0  0  0  0  0  0
   50.8602   42.9715   -6.1056 H   0  0  0  0  0  0
   49.5045   44.0090   -5.7273 H   0  0  0  0  0  0
   51.0974   44.4085   -5.1421 H   0  0  0  0  0  0
   54.0223   47.9578   -0.8762 H   0  0  0  0  0  0
   54.2507   48.4100   -3.2984 H   0  0  0  0  0  0
   55.6223   47.3421   -3.3918 H   0  0  0  0  0  0
   55.2100   45.9898    0.1724 H   0  0  0  0  0  0
   56.2584   45.9111   -1.2407 H   0  0  0  0  0  0
   56.2801   47.3263   -0.1939 H   0  0  0  0  0  0
   56.3427   49.7096   -3.2527 H   0  0  0  0  0  0
   56.9310   48.8226   -1.8603 H   0  0  0  0  0  0
   55.5441   49.8959   -1.6993 H   0  0  0  0  0  0
  1  2  2  0  0  0
  1  4  1  0  0  0
  1 26  1  0  0  0
  2  3  1  0  0  0
  2 20  1  0  0  0
  3  6  2  0  0  0
  3 27  1  0  0  0
  4  5  2  0  0  0
  4 28  1  0  0  0
  5  6  1  0  0  0
  5 10  1  0  0  0
  6  7  1  0  0  0
  7  8  2  0  0  0
  7 17  1  0  0  0
  8  9  1  0  0  0
  8 21  1  0  0  0
  9 10  2  0  0  0
  9 11  1  0  0  0
 11 12  2  0  0  0
 11 16  1  0  0  0
 12 13  1  0  0  0
 12 29  1  0  0  0
 13 14  2  0  0  0
 13 30  1  0  0  0
 14 15  1  0  0  0
 14 22  1  0  0  0
 15 16  2  0  0  0
 15 31  1  0  0  0
 16 32  1  0  0  0
 17 18  1  0  0  0
 17 19  2  0  0  0
 18 33  1  0  0  0
 21 34  1  0  0  0
 21 35  1  0  0  0
 21 36  1  0  0  0
 22 23  1  0  0  0
 22 24  1  0  0  0
 22 37  1  0  0  0
 23 25  1  0  0  0
 23 38  1  0  0  0
 23 39  1  0  0  0
 24 40  1  0  0  0
 24 41  1  0  0  0
 24 42  1  0  0  0
 25 43  1  0  0  0
 25 44  1  0  0  0
 25 45  1  0  0  0
M  END
> <s_m_entry_id>
25542

> <s_m_entry_name>
dock_pv.194

> <s_m_Source_Path>
/home/csk/Desktop/cluster/DUD-E-result/pyrd

> <s_m_Source_File>
dock_pv.maegz

> <i_m_Source_File_Index>
194

> <chembl_id>
CHEMBL3818031

> <chembl_pref_name>
None

> <i_lp_mmshare_version>
53161

> <r_lp_tautomer_probability>
1

> <s_lp_Force_Field>
OPLS_2005

> <r_lp_Energy>
24.584267

> <b_lp_Chiralities_Consistent>
1

> <s_lp_Variant>
CHEMBL1966_lig303-1

> <s_i_glide_gridfile>
glide-grid_1d3g

> <i_i_glide_lignum>
349

> <i_i_glide_rotatable_bonds>
5

> <r_i_docking_score>
-9.8403226125158

> <r_i_glide_ligand_efficiency>
-0.393612904500632

> <r_i_glide_ligand_efficiency_sa>
-1.15093111351443

> <r_i_glide_ligand_efficiency_ln>
-2.33245134983873

> <r_i_glide_gscore>
-9.8403226125158

> <r_i_glide_lipo>
-5.99993089507306

> <r_i_glide_hbond>
-0.16

> <r_i_glide_metal>
0

> <r_i_glide_rewards>
-1.36451160606633

> <r_i_glide_evdw>
-33.8813629150391

> <r_i_glide_ecoul>
-6.614342212677

> <r_i_glide_erotb>
0.370339366277097

> <r_i_glide_esite>
0

> <r_i_glide_emodel>
-59.3575222256813

> <r_i_glide_energy>
-40.4957051277161

> <r_i_glide_einternal>
3.43916082382202

> <i_i_glide_confnum>
9

> <i_i_glide_posenum>
250

> <r_i_glide_eff_state_penalty>
0

> <s_user_duplicate_titles>
CHEMBL1966_lig303

> <i_f3d_flags>
0

> <s_m_subgroup_title>
dock_pv

> <s_m_subgroupid>
dock_pv

> <b_m_subgroup_collapsed>
1

$$$$
CHEMBL1966_lig308
                    3D
 Schrodinger Suite 2021-1.
 42 44  0  0  1  0            999 V2000
   46.3838   38.7742   -1.9651 C   0  0  0  0  0  0
   47.4456   39.1831   -1.1723 C   0  0  0  0  0  0
   48.4230   40.0100   -1.7128 C   0  0  0  0  0  0
   48.3761   40.4270   -3.0517 C   0  0  0  0  0  0
   47.2599   40.0522   -3.8484 C   0  0  0  0  0  0
   46.2885   39.2100   -3.2838 C   0  0  0  0  0  0
   47.0321   40.5770   -5.2564 C   0  0  0  0  0  0
   45.7228   40.8109   -5.5485 O   0  0  0  0  0  0
   47.9377   40.8100   -6.0573 O   0  0  0  0  0  0
   49.4618   41.2967   -3.5191 C   0  0  0  0  0  0
   49.9053   42.2632   -2.8342 N   0  0  0  0  0  0
   50.9363   42.9943   -3.4097 N   0  0  0  0  0  0
   51.6230   44.0100   -2.7948 C   0  0  0  0  0  0
   52.7243   44.5135   -3.2847 N   0  0  0  0  0  0
   53.2488   45.4499   -2.5035 C   0  0  0  0  0  0
   52.5262   45.7490   -1.3228 C   0  0  0  0  0  0
   51.0999   44.7338   -1.2990 S   0  0  0  0  0  0
   52.8229   46.7054   -0.1773 C   0  0  0  0  0  0
   53.4209   46.0100    1.0529 C   0  0  0  0  0  0
   54.5436   46.0809   -2.9198 C   0  0  0  0  0  0
   54.6112   47.4802   -2.9478 C   0  0  0  0  0  0
   55.7920   48.1325   -3.2996 C   0  0  0  0  0  0
   56.9215   47.3929   -3.6404 C   0  0  0  0  0  0
   56.8668   46.0011   -3.6353 C   0  0  0  0  0  0
   55.6881   45.3410   -3.2833 C   0  0  0  0  0  0
   55.7029   43.6101   -3.2990 Cl  0  0  0  0  0  0
   45.6244   38.1270   -1.5517 H   0  0  0  0  0  0
   47.5141   38.8612   -0.1424 H   0  0  0  0  0  0
   49.2366   40.3158   -1.0695 H   0  0  0  0  0  0
   45.4390   38.8714   -3.8611 H   0  0  0  0  0  0
   45.1901   40.7915   -4.7508 H   0  0  0  0  0  0
   49.8599   41.0480   -4.4988 H   0  0  0  0  0  0
   51.2567   42.6263   -4.2932 H   0  0  0  0  0  0
   53.5114   47.4916   -0.4831 H   0  0  0  0  0  0
   51.9069   47.2100    0.1328 H   0  0  0  0  0  0
   53.6230   46.7295    1.8468 H   0  0  0  0  0  0
   52.7409   45.2601    1.4589 H   0  0  0  0  0  0
   54.3645   45.5202    0.8096 H   0  0  0  0  0  0
   53.7403   48.0703   -2.7016 H   0  0  0  0  0  0
   55.8321   49.2110   -3.3120 H   0  0  0  0  0  0
   57.8384   47.8962   -3.9107 H   0  0  0  0  0  0
   57.7463   45.4320   -3.9009 H   0  0  0  0  0  0
  1  2  2  0  0  0
  1  6  1  0  0  0
  1 27  1  0  0  0
  2  3  1  0  0  0
  2 28  1  0  0  0
  3  4  2  0  0  0
  3 29  1  0  0  0
  4  5  1  0  0  0
  4 10  1  0  0  0
  5  6  2  0  0  0
  5  7  1  0  0  0
  6 30  1  0  0  0
  7  8  1  0  0  0
  7  9  2  0  0  0
  8 31  1  0  0  0
 10 11  2  0  0  0
 10 32  1  0  0  0
 11 12  1  0  0  0
 12 13  1  0  0  0
 12 33  1  0  0  0
 13 14  2  0  0  0
 13 17  1  0  0  0
 14 15  1  0  0  0
 15 16  2  0  0  0
 15 20  1  0  0  0
 16 17  1  0  0  0
 16 18  1  0  0  0
 18 19  1  0  0  0
 18 34  1  0  0  0
 18 35  1  0  0  0
 19 36  1  0  0  0
 19 37  1  0  0  0
 19 38  1  0  0  0
 20 21  2  0  0  0
 20 25  1  0  0  0
 21 22  1  0  0  0
 21 39  1  0  0  0
 22 23  2  0  0  0
 22 40  1  0  0  0
 23 24  1  0  0  0
 23 41  1  0  0  0
 24 25  2  0  0  0
 24 42  1  0  0  0
 25 26  1  0  0  0
M  END
> <s_m_entry_id>
25543

> <s_m_entry_name>
dock_pv.195

> <s_m_Source_Path>
/home/csk/Desktop/cluster/DUD-E-result/pyrd

> <s_m_Source_File>
dock_pv.maegz

> <i_m_Source_File_Index>
195

> <chembl_id>
CHEMBL3919303

> <chembl_pref_name>
None

> <i_lp_mmshare_version>
53161

> <r_lp_tautomer_probability>
1

> <s_lp_Force_Field>
OPLS_2005

> <r_lp_Energy>
22.014006

> <b_lp_Chiralities_Consistent>
1

> <s_lp_Variant>
CHEMBL1966_lig308-1

> <s_i_glide_gridfile>
glide-grid_1d3g

> <i_i_glide_lignum>
355

> <i_i_glide_rotatable_bonds>
7

> <r_i_docking_score>
-9.83836076417211

> <r_i_glide_ligand_efficiency>
-0.378398490929696

> <r_i_glide_ligand_efficiency_sa>
-1.12100404045306

> <r_i_glide_ligand_efficiency_ln>
-2.31050674317109

> <r_i_glide_gscore>
-9.83836076417211

> <r_i_glide_lipo>
-5.44429479880178

> <r_i_glide_hbond>
-0.241528119840233

> <r_i_glide_metal>
0

> <r_i_glide_rewards>
-1.94895852371445

> <r_i_glide_evdw>
-47.5233840942383

> <r_i_glide_ecoul>
-2.93935060501099

> <r_i_glide_erotb>
0.653400028505812

> <r_i_glide_esite>
-0.0399075548578936

> <r_i_glide_emodel>
-78.6622608065984

> <r_i_glide_energy>
-50.4627346992493

> <r_i_glide_einternal>
3.62549448013306

> <i_i_glide_confnum>
130

> <i_i_glide_posenum>
293

> <r_i_glide_eff_state_penalty>
0

> <s_user_duplicate_titles>
CHEMBL1966_lig308

> <i_f3d_flags>
0

> <s_m_subgroup_title>
dock_pv

> <s_m_subgroupid>
dock_pv

> <b_m_subgroup_collapsed>
1

$$$$
CHEMBL1966_lig685
                    3D
 Schrodinger Suite 2021-1.
 45 49  0  0  1  0            999 V2000
   54.2877   46.5122   -1.5111 C   0  0  0  0  0  0
   55.4695   47.2747   -1.6469 C   0  0  0  0  0  0
   53.8844   45.7202   -2.5944 C   0  0  0  0  0  0
   54.6799   45.6027   -3.6935 N   0  0  0  0  0  0
   56.2230   47.2639   -2.8618 C   0  0  0  0  0  0
   53.4227   46.4100    0.0498 S   0  0  0  0  0  0
   52.6385   44.8591   -2.5454 C   0  0  0  0  0  0
   55.8207   46.3241   -3.8404 C   0  0  0  0  0  0
   56.0511   48.0151   -0.4976 C   0  0  0  0  0  0
   51.6546   44.9911   -1.5380 C   0  0  0  0  0  0
   50.5362   42.9644   -2.3505 C   0  0  0  0  0  0
   50.6245   44.0390   -1.4547 C   0  0  0  0  0  0
   49.6360   41.8036   -2.1108 C   0  0  0  0  0  0
   52.4513   43.8536   -3.5004 C   0  0  0  0  0  0
   51.7427   46.1181   -0.5311 C   0  0  0  0  0  0
   57.3662   48.0812   -3.1443 C   0  0  0  0  0  0
   51.4257   42.9309   -3.4110 C   0  0  0  0  0  0
   56.4212   47.2056    0.5344 O   0  0  0  0  0  0
   56.2275   49.2245   -0.5232 O   0  0  0  0  0  0
   56.6384   46.1233   -4.9849 C   0  0  0  0  0  0
   48.8606   41.1788   -3.1156 C   0  0  0  0  0  0
   58.0832   47.9304   -4.3239 C   0  0  0  0  0  0
   57.7405   46.9356   -5.2249 C   0  0  0  0  0  0
   59.1396   48.7354   -4.5771 F   0  0  0  0  0  0
   49.6228   41.2609   -0.8217 C   0  0  0  0  0  0
   48.8158   41.6929   -4.5506 C   0  0  0  0  0  0
   48.0541   40.0802   -2.7885 C   0  0  0  0  0  0
   48.8051   40.1873   -0.4985 C   0  0  0  0  0  0
   48.0069   39.6068   -1.4791 C   0  0  0  0  0  0
   49.9171   44.1035   -0.6407 H   0  0  0  0  0  0
   53.2207   43.6509   -4.2151 H   0  0  0  0  0  0
   51.3099   47.0278   -0.9422 H   0  0  0  0  0  0
   51.2137   45.8709    0.3851 H   0  0  0  0  0  0
   57.7017   48.8322   -2.4462 H   0  0  0  0  0  0
   51.4198   42.0998   -4.0953 H   0  0  0  0  0  0
   56.4030   45.3493   -5.7000 H   0  0  0  0  0  0
   58.3326   46.7982   -6.1183 H   0  0  0  0  0  0
   50.2598   41.6790   -0.0625 H   0  0  0  0  0  0
   49.6017   41.2386   -5.1514 H   0  0  0  0  0  0
   47.8560   41.4692   -5.0165 H   0  0  0  0  0  0
   48.9127   42.7786   -4.5894 H   0  0  0  0  0  0
   47.4482   39.5996   -3.5419 H   0  0  0  0  0  0
   48.8203   39.7815    0.5027 H   0  0  0  0  0  0
   47.3806   38.7627   -1.2315 H   0  0  0  0  0  0
   56.8471   47.7225    1.2220 H   0  0  0  0  0  0
  1  2  2  0  0  0
  1  3  1  0  0  0
  1  6  1  0  0  0
  2  5  1  0  0  0
  2  9  1  0  0  0
  3  4  2  0  0  0
  3  7  1  0  0  0
  4  8  1  0  0  0
  5 16  2  0  0  0
  5  8  1  0  0  0
  6 15  1  0  0  0
  7 14  1  0  0  0
  7 10  2  0  0  0
  8 20  2  0  0  0
  9 18  1  0  0  0
  9 19  2  0  0  0
 10 15  1  0  0  0
 10 12  1  0  0  0
 11 12  2  0  0  0
 11 13  1  0  0  0
 11 17  1  0  0  0
 12 30  1  0  0  0
 13 21  1  0  0  0
 13 25  2  0  0  0
 14 17  2  0  0  0
 14 31  1  0  0  0
 15 32  1  0  0  0
 15 33  1  0  0  0
 16 22  1  0  0  0
 16 34  1  0  0  0
 17 35  1  0  0  0
 18 45  1  0  0  0
 20 23  1  0  0  0
 20 36  1  0  0  0
 21 26  1  0  0  0
 21 27  2  0  0  0
 22 24  1  0  0  0
 22 23  2  0  0  0
 23 37  1  0  0  0
 25 28  1  0  0  0
 25 38  1  0  0  0
 26 39  1  0  0  0
 26 40  1  0  0  0
 26 41  1  0  0  0
 27 29  1  0  0  0
 27 42  1  0  0  0
 28 29  2  0  0  0
 28 43  1  0  0  0
 29 44  1  0  0  0
M  END
> <s_m_entry_id>
25544

> <s_m_entry_name>
dock_pv.196

> <s_m_Source_Path>
/home/csk/Desktop/cluster/DUD-E-result/pyrd

> <s_m_Source_File>
dock_pv.maegz

> <i_m_Source_File_Index>
196

> <chembl_id>
CHEMBL104146

> <chembl_pref_name>
None

> <i_lp_mmshare_version>
53161

> <r_lp_tautomer_probability>
1

> <s_lp_Force_Field>
OPLS_2005

> <r_lp_Energy>
35.188513

> <b_lp_Chiralities_Consistent>
1

> <s_lp_Variant>
CHEMBL1966_lig685-1

> <s_i_glide_gridfile>
glide-grid_1d3g

> <i_i_glide_lignum>
754

> <i_i_glide_rotatable_bonds>
3

> <r_i_docking_score>
-9.83715453142502

> <r_i_glide_ligand_efficiency>
-0.339212225221553

> <r_i_glide_ligand_efficiency_sa>
-1.04216742585675

> <r_i_glide_ligand_efficiency_ln>
-2.25245893898044

> <r_i_glide_gscore>
-9.83715453142502

> <r_i_glide_lipo>
-6.39788657722292

> <r_i_glide_hbond>
0

> <r_i_glide_metal>
0

> <r_i_glide_rewards>
-1.91359131055035

> <r_i_glide_evdw>
-30.0267696380615

> <r_i_glide_ecoul>
-1.78495514392853

> <r_i_glide_erotb>
0.243405109840607

> <r_i_glide_esite>
0

> <r_i_glide_emodel>
-41.0382004567175

> <r_i_glide_energy>
-31.8117247819901

> <r_i_glide_einternal>
0.817231476306915

> <i_i_glide_confnum>
2

> <i_i_glide_posenum>
164

> <r_i_glide_eff_state_penalty>
0

> <s_user_duplicate_titles>
CHEMBL1966_lig685,173402

> <i_f3d_flags>
0

> <s_m_subgroup_title>
dock_pv

> <s_m_subgroupid>
dock_pv

> <b_m_subgroup_collapsed>
1

$$$$
CHEMBL1966_lig310
                    3D
 Schrodinger Suite 2021-1.
 42 44  0  0  1  0            999 V2000
   46.4873   38.6349   -1.7100 C   0  0  0  0  0  0
   47.4877   39.0962   -0.8714 C   0  0  0  0  0  0
   48.4230   40.0100   -1.3416 C   0  0  0  0  0  0
   48.4251   40.4609   -2.6710 C   0  0  0  0  0  0
   47.3700   40.0109   -3.5165 C   0  0  0  0  0  0
   46.4232   39.1016   -3.0159 C   0  0  0  0  0  0
   47.1460   40.5533   -4.9094 C   0  0  0  0  0  0
   45.8372   40.8099   -5.1924 O   0  0  0  0  0  0
   48.0525   40.8100   -5.6994 O   0  0  0  0  0  0
   49.4958   41.4136   -3.0823 C   0  0  0  0  0  0
   49.8952   42.4099   -2.3741 N   0  0  0  0  0  0
   50.9556   43.3329   -2.7619 N   0  0  0  0  0  0
   51.3464   44.4062   -1.9503 C   0  0  0  0  0  0
   52.4230   45.1502   -2.1264 N   0  0  0  0  0  0
   52.6807   45.9833   -1.1379 C   0  0  0  0  0  0
   51.6857   46.0078   -0.1583 C   0  0  0  0  0  0
   50.4855   44.7921   -0.5008 S   0  0  0  0  0  0
   54.0077   46.6750   -1.0877 C   0  0  0  0  0  0
   54.6518   46.6695    0.1567 C   0  0  0  0  0  0
   55.9253   47.2099    0.3009 C   0  0  0  0  0  0
   56.5555   47.8114   -0.7847 C   0  0  0  0  0  0
   55.9349   47.8232   -2.0279 C   0  0  0  0  0  0
   54.6777   47.2424   -2.1922 C   0  0  0  0  0  0
   54.0232   47.2358   -3.7891 Cl  0  0  0  0  0  0
   51.7152   43.0673   -3.9986 C   0  0  0  0  0  0
   51.0334   43.6276   -5.2499 C   0  0  0  0  0  0
   45.7537   37.9314   -1.3452 H   0  0  0  0  0  0
   47.5411   38.7487    0.1481 H   0  0  0  0  0  0
   49.1867   40.3477   -0.6545 H   0  0  0  0  0  0
   45.6139   38.7496   -3.6405 H   0  0  0  0  0  0
   45.7455   41.3970   -5.9434 H   0  0  0  0  0  0
   49.9208   41.1901   -4.0546 H   0  0  0  0  0  0
   51.6460   46.5852    0.7538 H   0  0  0  0  0  0
   54.1814   46.2160    1.0177 H   0  0  0  0  0  0
   56.4180   47.1827    1.2616 H   0  0  0  0  0  0
   57.5356   48.2511   -0.6659 H   0  0  0  0  0  0
   56.4412   48.2675   -2.8725 H   0  0  0  0  0  0
   52.7305   43.4617   -3.9371 H   0  0  0  0  0  0
   51.8726   42.0082   -4.0989 H   0  0  0  0  0  0
   51.4574   43.2099   -6.1616 H   0  0  0  0  0  0
   49.9564   43.4538   -5.2654 H   0  0  0  0  0  0
   51.2229   44.6948   -5.2990 H   0  0  0  0  0  0
  1  2  2  0  0  0
  1  6  1  0  0  0
  1 27  1  0  0  0
  2  3  1  0  0  0
  2 28  1  0  0  0
  3  4  2  0  0  0
  3 29  1  0  0  0
  4  5  1  0  0  0
  4 10  1  0  0  0
  5  6  2  0  0  0
  5  7  1  0  0  0
  6 30  1  0  0  0
  7  8  1  0  0  0
  7  9  2  0  0  0
  8 31  1  0  0  0
 10 11  2  0  0  0
 10 32  1  0  0  0
 11 12  1  0  0  0
 12 13  1  0  0  0
 12 25  1  0  0  0
 13 14  2  0  0  0
 13 17  1  0  0  0
 14 15  1  0  0  0
 15 16  2  0  0  0
 15 18  1  0  0  0
 16 17  1  0  0  0
 16 33  1  0  0  0
 18 19  2  0  0  0
 18 23  1  0  0  0
 19 20  1  0  0  0
 19 34  1  0  0  0
 20 21  2  0  0  0
 20 35  1  0  0  0
 21 22  1  0  0  0
 21 36  1  0  0  0
 22 23  2  0  0  0
 22 37  1  0  0  0
 23 24  1  0  0  0
 25 26  1  0  0  0
 25 38  1  0  0  0
 25 39  1  0  0  0
 26 40  1  0  0  0
 26 41  1  0  0  0
 26 42  1  0  0  0
M  END
> <s_m_entry_id>
25545

> <s_m_entry_name>
dock_pv.197

> <s_m_Source_Path>
/home/csk/Desktop/cluster/DUD-E-result/pyrd

> <s_m_Source_File>
dock_pv.maegz

> <i_m_Source_File_Index>
197

> <chembl_id>
CHEMBL3910373

> <chembl_pref_name>
None

> <i_lp_mmshare_version>
53161

> <r_lp_tautomer_probability>
1

> <s_lp_Force_Field>
OPLS_2005

> <r_lp_Energy>
29.555877

> <b_lp_Chiralities_Consistent>
1

> <s_lp_Variant>
CHEMBL1966_lig310-1

> <s_i_glide_gridfile>
glide-grid_1d3g

> <i_i_glide_lignum>
357

> <i_i_glide_rotatable_bonds>
7

> <r_i_docking_score>
-9.83273518036657

> <r_i_glide_ligand_efficiency>
-0.378182122321791

> <r_i_glide_ligand_efficiency_sa>
-1.12036304930351

> <r_i_glide_ligand_efficiency_ln>
-2.3091855932734

> <r_i_glide_gscore>
-9.83273518036657

> <r_i_glide_lipo>
-5.34961272673029

> <r_i_glide_hbond>
-0.0583588547574474

> <r_i_glide_metal>
0

> <r_i_glide_rewards>
-2.41605726837967

> <r_i_glide_evdw>
-44.4474449157715

> <r_i_glide_ecoul>
-2.931560754776

> <r_i_glide_erotb>
0.653400028505812

> <r_i_glide_esite>
0

> <r_i_glide_emodel>
-62.7615768028807

> <r_i_glide_energy>
-47.3790056705475

> <r_i_glide_einternal>
8.07211971282959

> <i_i_glide_confnum>
74

> <i_i_glide_posenum>
113

> <r_i_glide_eff_state_penalty>
0

> <s_user_duplicate_titles>
CHEMBL1966_lig310

> <i_f3d_flags>
0

> <s_m_subgroup_title>
dock_pv

> <s_m_subgroupid>
dock_pv

> <b_m_subgroup_collapsed>
1

$$$$
CHEMBL1966_lig59
                    3D
 Schrodinger Suite 2021-1.
 44 46  0  0  1  0            999 V2000
   49.6230   42.2476   -3.3844 C   0  0  0  0  0  0
   48.8284   41.0823   -2.9878 C   0  0  0  0  0  0
   51.2232   43.8474   -2.3979 C   0  0  0  0  0  0
   50.3500   42.7521   -2.3694 N   0  0  0  0  0  0
   47.9128   40.4100   -3.7499 C   0  0  0  0  0  0
   52.2075   44.0104   -3.3907 C   0  0  0  0  0  0
   51.2228   44.7160   -1.2984 C   0  0  0  0  0  0
   47.5659   40.7015   -5.1337 C   0  0  0  0  0  0
   53.1999   45.8549   -2.1490 C   0  0  0  0  0  0
   53.1688   45.0158   -3.2650 C   0  0  0  0  0  0
   52.1952   45.7125   -1.1828 C   0  0  0  0  0  0
   54.3332   46.8022   -1.9725 C   0  0  0  0  0  0
   49.6225   42.7447   -4.5094 O   0  0  0  0  0  0
   48.3680   40.8088   -6.0601 O   0  0  0  0  0  0
   54.7950   47.5964   -3.0338 C   0  0  0  0  0  0
   52.2754   43.2100   -4.4714 F   0  0  0  0  0  0
   50.3190   44.5557   -0.3036 F   0  0  0  0  0  0
   46.2181   40.8096   -5.3070 O   0  0  0  0  0  0
   55.9277   48.4063   -2.9042 C   0  0  0  0  0  0
   48.8851   40.4857   -1.5824 C   0  0  0  0  0  0
   47.2290   39.3072   -2.9451 C   0  0  0  0  0  0
   56.3096   49.1379   -4.0125 O   0  0  0  0  0  0
   47.7327   39.4947   -1.5229 C   0  0  0  0  0  0
   55.0235   46.8486   -0.7559 C   0  0  0  0  0  0
   56.1606   47.6387   -0.6179 C   0  0  0  0  0  0
   56.6100   48.4179   -1.6791 C   0  0  0  0  0  0
   57.4871   49.9365   -3.9464 C   0  0  0  0  0  0
   50.1548   42.3827   -1.4526 H   0  0  0  0  0  0
   53.9306   45.1193   -4.0207 H   0  0  0  0  0  0
   52.1921   46.3465   -0.3078 H   0  0  0  0  0  0
   54.2785   47.5766   -3.9834 H   0  0  0  0  0  0
   45.7424   40.7823   -4.4746 H   0  0  0  0  0  0
   48.8227   41.2072   -0.7677 H   0  0  0  0  0  0
   49.8482   40.0110   -1.4678 H   0  0  0  0  0  0
   47.5374   38.3272   -3.2991 H   0  0  0  0  0  0
   46.1390   39.3415   -2.9818 H   0  0  0  0  0  0
   46.9438   39.8728   -0.8740 H   0  0  0  0  0  0
   48.0231   38.5443   -1.0740 H   0  0  0  0  0  0
   54.7097   46.2326    0.0751 H   0  0  0  0  0  0
   56.7176   47.6331    0.3032 H   0  0  0  0  0  0
   57.4991   49.0127   -1.5323 H   0  0  0  0  0  0
   57.6274   50.4558   -4.8941 H   0  0  0  0  0  0
   57.4210   50.6926   -3.1633 H   0  0  0  0  0  0
   58.3730   49.3233   -3.7729 H   0  0  0  0  0  0
  1  2  1  0  0  0
  1  4  1  0  0  0
  1 13  2  0  0  0
  2  5  2  0  0  0
  2 20  1  0  0  0
  3  4  1  0  0  0
  3  6  1  0  0  0
  3  7  2  0  0  0
  4 28  1  0  0  0
  5  8  1  0  0  0
  5 21  1  0  0  0
  6 10  2  0  0  0
  6 16  1  0  0  0
  7 11  1  0  0  0
  7 17  1  0  0  0
  8 14  2  0  0  0
  8 18  1  0  0  0
  9 11  2  0  0  0
  9 12  1  0  0  0
  9 10  1  0  0  0
 10 29  1  0  0  0
 11 30  1  0  0  0
 12 15  1  0  0  0
 12 24  2  0  0  0
 15 19  2  0  0  0
 15 31  1  0  0  0
 18 32  1  0  0  0
 19 22  1  0  0  0
 19 26  1  0  0  0
 20 23  1  0  0  0
 20 33  1  0  0  0
 20 34  1  0  0  0
 21 23  1  0  0  0
 21 35  1  0  0  0
 21 36  1  0  0  0
 22 27  1  0  0  0
 23 37  1  0  0  0
 23 38  1  0  0  0
 24 25  1  0  0  0
 24 39  1  0  0  0
 25 26  2  0  0  0
 25 40  1  0  0  0
 26 41  1  0  0  0
 27 42  1  0  0  0
 27 43  1  0  0  0
 27 44  1  0  0  0
M  END
> <s_m_entry_id>
25546

> <s_m_entry_name>
dock_pv.198

> <s_m_Source_Path>
/home/csk/Desktop/cluster/DUD-E-result/pyrd

> <s_m_Source_File>
dock_pv.maegz

> <i_m_Source_File_Index>
198

> <chembl_id>
CHEMBL195622

> <chembl_pref_name>
None

> <i_lp_mmshare_version>
53161

> <r_lp_tautomer_probability>
1

> <s_lp_Force_Field>
OPLS_2005

> <r_lp_Energy>
46.598361

> <b_lp_Chiralities_Consistent>
1

> <s_lp_Variant>
CHEMBL1966_lig59-1

> <s_i_glide_gridfile>
glide-grid_1d3g

> <i_i_glide_lignum>
65

> <i_i_glide_rotatable_bonds>
7

> <r_i_docking_score>
-9.81939131775329

> <r_i_glide_ligand_efficiency>
-0.363681159916788

> <r_i_glide_ligand_efficiency_sa>
-1.09104347855173

> <r_i_glide_ligand_efficiency_ln>
-2.28579241345507

> <r_i_glide_gscore>
-9.81939131775329

> <r_i_glide_lipo>
-5.10237187332839

> <r_i_glide_hbond>
-0.16

> <r_i_glide_metal>
0

> <r_i_glide_rewards>
-2.80412874602544

> <r_i_glide_evdw>
-40.6235160827637

> <r_i_glide_ecoul>
-2.76587390899658

> <r_i_glide_erotb>
0.69316619208821

> <r_i_glide_esite>
0

> <r_i_glide_emodel>
-58.319210295913

> <r_i_glide_energy>
-43.3893899917603

> <r_i_glide_einternal>
8.04513454437256

> <i_i_glide_confnum>
89

> <i_i_glide_posenum>
107

> <r_i_glide_eff_state_penalty>
0

> <s_user_duplicate_titles>
CHEMBL1966_lig59,327325

> <i_f3d_flags>
0

> <s_m_subgroup_title>
dock_pv

> <s_m_subgroupid>
dock_pv

> <b_m_subgroup_collapsed>
1

$$$$
CHEMBL1966_lig196
                    3D
 Schrodinger Suite 2021-1.
 40 42  0  0  1  0            999 V2000
   57.2393   49.7840   -2.4246 C   0  0  0  0  0  0
   56.1556   48.9354   -2.7895 O   0  0  0  0  0  0
   55.5881   48.1226   -1.8287 C   0  0  0  0  0  0
   56.0494   48.0099   -0.5093 C   0  0  0  0  0  0
   55.3900   47.1891    0.4011 C   0  0  0  0  0  0
   54.2811   46.4507    0.0026 C   0  0  0  0  0  0
   53.8310   46.5047   -1.3207 C   0  0  0  0  0  0
   54.4860   47.3602   -2.2180 C   0  0  0  0  0  0
   52.7554   45.5925   -1.7828 C   0  0  0  0  0  0
   51.6195   45.3123   -1.0087 C   0  0  0  0  0  0
   50.6987   44.3328   -1.4020 C   0  0  0  0  0  0
   49.6230   44.1078   -0.6107 F   0  0  0  0  0  0
   50.9007   43.6100   -2.5953 C   0  0  0  0  0  0
   50.0334   42.6211   -3.0988 N   0  0  0  0  0  0
   49.4036   41.5236   -2.4956 C   0  0  0  0  0  0
   49.6230   41.3558   -1.1645 N   0  0  0  0  0  0
   48.9280   40.4100   -0.4990 C   0  0  0  0  0  0
   48.0230   39.5650   -1.1290 C   0  0  0  0  0  0
   47.8551   39.6758   -2.5091 C   0  0  0  0  0  0
   48.5345   40.6767   -3.2277 C   0  0  0  0  0  0
   48.3159   40.8100   -4.7219 C   0  0  0  0  0  0
   49.1804   41.2220   -5.4921 O   0  0  0  0  0  0
   47.0666   40.4566   -5.1433 O   0  0  0  0  0  0
   52.0230   43.9044   -3.3688 C   0  0  0  0  0  0
   52.2675   43.2100   -4.4990 F   0  0  0  0  0  0
   52.9285   44.8844   -2.9756 C   0  0  0  0  0  0
   57.5333   50.3830   -3.2865 H   0  0  0  0  0  0
   56.9574   50.4732   -1.6273 H   0  0  0  0  0  0
   58.1106   49.2087   -2.1078 H   0  0  0  0  0  0
   56.9178   48.5544   -0.1708 H   0  0  0  0  0  0
   55.7472   47.1166    1.4176 H   0  0  0  0  0  0
   53.8066   45.7960    0.7194 H   0  0  0  0  0  0
   54.1492   47.4271   -3.2425 H   0  0  0  0  0  0
   51.4557   45.8382   -0.0793 H   0  0  0  0  0  0
   49.9285   42.6305   -4.1059 H   0  0  0  0  0  0
   49.1456   40.3081    0.5544 H   0  0  0  0  0  0
   47.5028   38.8035   -0.5659 H   0  0  0  0  0  0
   47.1937   38.9773   -3.0021 H   0  0  0  0  0  0
   46.4668   40.3107   -4.4097 H   0  0  0  0  0  0
   53.8032   45.0512   -3.5872 H   0  0  0  0  0  0
  1  2  1  0  0  0
  1 27  1  0  0  0
  1 28  1  0  0  0
  1 29  1  0  0  0
  2  3  1  0  0  0
  3  4  2  0  0  0
  3  8  1  0  0  0
  4  5  1  0  0  0
  4 30  1  0  0  0
  5  6  2  0  0  0
  5 31  1  0  0  0
  6  7  1  0  0  0
  6 32  1  0  0  0
  7  8  2  0  0  0
  7  9  1  0  0  0
  8 33  1  0  0  0
  9 10  2  0  0  0
  9 26  1  0  0  0
 10 11  1  0  0  0
 10 34  1  0  0  0
 11 12  1  0  0  0
 11 13  2  0  0  0
 13 14  1  0  0  0
 13 24  1  0  0  0
 14 15  1  0  0  0
 14 35  1  0  0  0
 15 16  2  0  0  0
 15 20  1  0  0  0
 16 17  1  0  0  0
 17 18  2  0  0  0
 17 36  1  0  0  0
 18 19  1  0  0  0
 18 37  1  0  0  0
 19 20  2  0  0  0
 19 38  1  0  0  0
 20 21  1  0  0  0
 21 22  2  0  0  0
 21 23  1  0  0  0
 23 39  1  0  0  0
 24 25  1  0  0  0
 24 26  2  0  0  0
 26 40  1  0  0  0
M  END
> <s_m_entry_id>
25547

> <s_m_entry_name>
dock_pv.199

> <s_m_Source_Path>
/home/csk/Desktop/cluster/DUD-E-result/pyrd

> <s_m_Source_File>
dock_pv.maegz

> <i_m_Source_File_Index>
199

> <chembl_id>
CHEMBL2263632

> <chembl_pref_name>
ASLAN-003

> <i_lp_mmshare_version>
53161

> <r_lp_tautomer_probability>
1

> <s_lp_Force_Field>
OPLS_2005

> <r_lp_Energy>
28.85924

> <b_lp_Chiralities_Consistent>
1

> <s_lp_Variant>
CHEMBL1966_lig196-1

> <s_i_glide_gridfile>
glide-grid_1d3g

> <i_i_glide_lignum>
241

> <i_i_glide_rotatable_bonds>
6

> <r_i_docking_score>
-9.81827835447098

> <r_i_glide_ligand_efficiency>
-0.377626090556576

> <r_i_glide_ligand_efficiency_sa>
-1.11871580738694

> <r_i_glide_ligand_efficiency_ln>
-2.30579045514854

> <r_i_glide_gscore>
-9.81827835447098

> <r_i_glide_lipo>
-5.2057559765428

> <r_i_glide_hbond>
0

> <r_i_glide_metal>
0

> <r_i_glide_rewards>
-2.61199155667916

> <r_i_glide_evdw>
-41.6710891723633

> <r_i_glide_ecoul>
-3.46459197998047

> <r_i_glide_erotb>
0.602712434366225

> <r_i_glide_esite>
0

> <r_i_glide_emodel>
-62.2375013229013

> <r_i_glide_energy>
-45.1356811523438

> <r_i_glide_einternal>
10.967945098877

> <i_i_glide_confnum>
15

> <i_i_glide_posenum>
201

> <r_i_glide_eff_state_penalty>
0

> <s_user_duplicate_titles>
CHEMBL1966_lig196

> <i_f3d_flags>
0

> <s_m_subgroup_title>
dock_pv

> <s_m_subgroupid>
dock_pv

> <b_m_subgroup_collapsed>
1

$$$$
CHEMBL1966_lig296
                    3D
 Schrodinger Suite 2021-1.
 42 44  0  0  1  0            999 V2000
   50.0957   42.1084   -1.7207 N   0  0  0  0  0  0
   49.2230   41.0765   -1.8340 C   0  0  0  0  0  0
   50.4196   42.8495   -2.8122 C   0  0  0  0  0  0
   49.8954   42.5731   -4.0892 C   0  0  0  0  0  0
   49.0147   41.4794   -4.2314 C   0  0  0  0  0  0
   48.6465   40.7031   -3.0833 C   0  0  0  0  0  0
   47.7128   39.6180   -3.0922 C   0  0  0  0  0  0
   47.3390   38.9855   -1.9112 C   0  0  0  0  0  0
   47.8813   39.3888   -0.6994 C   0  0  0  0  0  0
   48.8246   40.4098   -0.6482 C   0  0  0  0  0  0
   51.3465   43.9830   -2.5074 C   0  0  0  0  0  0
   51.1216   44.8091   -1.3939 C   0  0  0  0  0  0
   52.0227   45.8154   -1.0605 C   0  0  0  0  0  0
   53.1725   46.0097   -1.8291 C   0  0  0  0  0  0
   53.3921   45.2105   -2.9548 C   0  0  0  0  0  0
   52.4854   44.2092   -3.2990 C   0  0  0  0  0  0
   48.4696   41.1242   -5.5824 C   0  0  0  0  0  0
   47.1131   41.2094   -5.6989 O   0  0  0  0  0  0
   49.2230   40.8105   -6.4981 O   0  0  0  0  0  0
   50.2019   43.4718   -5.2977 C   0  0  0  0  0  0
   54.1909   47.0750   -1.4198 C   0  0  0  0  0  0
   54.4216   48.1201   -2.5276 C   0  0  0  0  0  0
   55.5139   46.4486   -0.9366 C   0  0  0  0  0  0
   47.2708   39.2813   -4.0171 H   0  0  0  0  0  0
   46.6227   38.1767   -1.9355 H   0  0  0  0  0  0
   47.5805   38.8912    0.2087 H   0  0  0  0  0  0
   49.2487   40.7058    0.3005 H   0  0  0  0  0  0
   50.2481   44.6614   -0.7744 H   0  0  0  0  0  0
   51.8330   46.4256   -0.1897 H   0  0  0  0  0  0
   54.2799   45.3471   -3.5539 H   0  0  0  0  0  0
   52.7023   43.5676   -4.1402 H   0  0  0  0  0  0
   46.6989   41.5655   -4.9084 H   0  0  0  0  0  0
   50.8227   42.9474   -6.0234 H   0  0  0  0  0  0
   49.2736   43.7475   -5.8023 H   0  0  0  0  0  0
   50.6868   44.4099   -5.0500 H   0  0  0  0  0  0
   53.7784   47.6110   -0.5645 H   0  0  0  0  0  0
   53.4789   48.5480   -2.8707 H   0  0  0  0  0  0
   54.9223   47.6886   -3.3964 H   0  0  0  0  0  0
   55.0434   48.9416   -2.1672 H   0  0  0  0  0  0
   55.3435   45.7530   -0.1132 H   0  0  0  0  0  0
   56.0171   45.9029   -1.7349 H   0  0  0  0  0  0
   56.2028   47.2135   -0.5763 H   0  0  0  0  0  0
  1  2  1  0  0  0
  1  3  2  0  0  0
  2 10  1  0  0  0
  2  6  2  0  0  0
  3  4  1  0  0  0
  3 11  1  0  0  0
  4  5  2  0  0  0
  4 20  1  0  0  0
  5  6  1  0  0  0
  5 17  1  0  0  0
  6  7  1  0  0  0
  7  8  2  0  0  0
  7 24  1  0  0  0
  8  9  1  0  0  0
  8 25  1  0  0  0
  9 10  2  0  0  0
  9 26  1  0  0  0
 10 27  1  0  0  0
 11 12  2  0  0  0
 11 16  1  0  0  0
 12 13  1  0  0  0
 12 28  1  0  0  0
 13 14  2  0  0  0
 13 29  1  0  0  0
 14 15  1  0  0  0
 14 21  1  0  0  0
 15 16  2  0  0  0
 15 30  1  0  0  0
 16 31  1  0  0  0
 17 18  1  0  0  0
 17 19  2  0  0  0
 18 32  1  0  0  0
 20 33  1  0  0  0
 20 34  1  0  0  0
 20 35  1  0  0  0
 21 22  1  0  0  0
 21 23  1  0  0  0
 21 36  1  0  0  0
 22 37  1  0  0  0
 22 38  1  0  0  0
 22 39  1  0  0  0
 23 40  1  0  0  0
 23 41  1  0  0  0
 23 42  1  0  0  0
M  END
> <s_m_entry_id>
25548

> <s_m_entry_name>
dock_pv.200

> <s_m_Source_Path>
/home/csk/Desktop/cluster/DUD-E-result/pyrd

> <s_m_Source_File>
dock_pv.maegz

> <i_m_Source_File_Index>
200

> <chembl_id>
CHEMBL2335126

> <chembl_pref_name>
None

> <i_lp_mmshare_version>
53161

> <r_lp_tautomer_probability>
1

> <s_lp_Force_Field>
OPLS_2005

> <r_lp_Energy>
25.619544

> <b_lp_Chiralities_Consistent>
1

> <s_lp_Variant>
CHEMBL1966_lig296-1

> <s_i_glide_gridfile>
glide-grid_1d3g

> <i_i_glide_lignum>
342

> <i_i_glide_rotatable_bonds>
4

> <r_i_docking_score>
-9.81505888896485

> <r_i_glide_ligand_efficiency>
-0.426741690824559

> <r_i_glide_ligand_efficiency_sa>
-1.21359660219358

> <r_i_glide_ligand_efficiency_ln>
-2.37337023738519

> <r_i_glide_gscore>
-9.81505888896485

> <r_i_glide_lipo>
-5.55214235717899

> <r_i_glide_hbond>
-0.16

> <r_i_glide_metal>
0

> <r_i_glide_rewards>
-1.94980375173819

> <r_i_glide_evdw>
-31.6830272674561

> <r_i_glide_ecoul>
-6.43199443817139

> <r_i_glide_erotb>
0.395837749050843

> <r_i_glide_esite>
0

> <r_i_glide_emodel>
-59.7618608322142

> <r_i_glide_energy>
-38.1150217056274

> <r_i_glide_einternal>
2.34007787704468

> <i_i_glide_confnum>
14

> <i_i_glide_posenum>
207

> <r_i_glide_eff_state_penalty>
0

> <s_user_duplicate_titles>
CHEMBL1966_lig296

> <i_f3d_flags>
0

> <s_m_subgroup_title>
dock_pv

> <s_m_subgroupid>
dock_pv

> <b_m_subgroup_collapsed>
1

$$$$
CHEMBL1966_lig343
                    3D
 Schrodinger Suite 2021-1.
 41 43  0  0  1  0            999 V2000
   49.9776   42.0867   -3.1498 C   0  0  0  0  0  0
   50.0230   42.7070   -4.4865 C   0  0  0  0  0  0
   49.1388   42.1879   -5.3704 N   0  0  0  0  0  0
   48.2729   41.1542   -5.2213 C   0  0  0  0  0  0
   48.3283   40.5745   -3.9947 N   0  0  0  0  0  0
   49.0951   41.0504   -2.9512 C   0  0  0  0  0  0
   48.8230   40.4100   -1.6594 C   0  0  0  0  0  0
   47.9546   39.3558   -1.7226 O   0  0  0  0  0  0
   49.2458   40.8037   -0.5756 O   0  0  0  0  0  0
   47.4935   40.8100   -6.0990 O   0  0  0  0  0  0
   50.7637   43.6100   -4.8615 O   0  0  0  0  0  0
   50.9954   42.6606   -2.1435 C   0  0  0  0  0  0
   50.7863   44.1438   -1.7078 C   0  0  0  0  0  0
   52.0230   45.0447   -1.7982 C   0  0  0  0  0  0
   52.8859   44.9545   -2.8990 C   0  0  0  0  0  0
   53.9824   45.7947   -3.0095 C   0  0  0  0  0  0
   54.2487   46.7612   -2.0370 C   0  0  0  0  0  0
   53.4150   46.8100   -0.9107 C   0  0  0  0  0  0
   52.2959   45.9850   -0.8020 C   0  0  0  0  0  0
   55.3660   47.7373   -2.2330 C   0  0  0  0  0  0
   55.7641   48.1130   -3.5268 C   0  0  0  0  0  0
   56.7844   49.0380   -3.7259 C   0  0  0  0  0  0
   57.4135   49.6101   -2.6283 C   0  0  0  0  0  0
   57.0299   49.2591   -1.3401 C   0  0  0  0  0  0
   56.0230   48.3198   -1.1412 C   0  0  0  0  0  0
   49.1176   42.6521   -6.2648 H   0  0  0  0  0  0
   47.7189   39.7815   -3.8482 H   0  0  0  0  0  0
   47.8036   39.0101   -0.8390 H   0  0  0  0  0  0
   51.1162   42.0451   -1.2574 H   0  0  0  0  0  0
   51.9595   42.5221   -2.6290 H   0  0  0  0  0  0
   50.0230   44.6188   -2.3208 H   0  0  0  0  0  0
   50.3887   44.1587   -0.6916 H   0  0  0  0  0  0
   52.7282   44.2419   -3.6897 H   0  0  0  0  0  0
   54.6153   45.6915   -3.8777 H   0  0  0  0  0  0
   53.5908   47.5372   -0.1331 H   0  0  0  0  0  0
   51.6466   46.0767    0.0568 H   0  0  0  0  0  0
   55.2726   47.7053   -4.3972 H   0  0  0  0  0  0
   57.0763   49.3192   -4.7270 H   0  0  0  0  0  0
   58.1992   50.3365   -2.7754 H   0  0  0  0  0  0
   57.5256   49.7117   -0.4990 H   0  0  0  0  0  0
   55.7594   48.0521   -0.1289 H   0  0  0  0  0  0
  1  2  1  0  0  0
  1  6  2  0  0  0
  1 12  1  0  0  0
  2  3  1  0  0  0
  2 11  2  0  0  0
  3  4  1  0  0  0
  3 26  1  0  0  0
  4  5  1  0  0  0
  4 10  2  0  0  0
  5  6  1  0  0  0
  5 27  1  0  0  0
  6  7  1  0  0  0
  7  8  1  0  0  0
  7  9  2  0  0  0
  8 28  1  0  0  0
 12 13  1  0  0  0
 12 29  1  0  0  0
 12 30  1  0  0  0
 13 14  1  0  0  0
 13 31  1  0  0  0
 13 32  1  0  0  0
 14 15  2  0  0  0
 14 19  1  0  0  0
 15 16  1  0  0  0
 15 33  1  0  0  0
 16 17  2  0  0  0
 16 34  1  0  0  0
 17 18  1  0  0  0
 17 20  1  0  0  0
 18 19  2  0  0  0
 18 35  1  0  0  0
 19 36  1  0  0  0
 20 21  2  0  0  0
 20 25  1  0  0  0
 21 22  1  0  0  0
 21 37  1  0  0  0
 22 23  2  0  0  0
 22 38  1  0  0  0
 23 24  1  0  0  0
 23 39  1  0  0  0
 24 25  2  0  0  0
 24 40  1  0  0  0
 25 41  1  0  0  0
M  END
> <s_m_entry_id>
25549

> <s_m_entry_name>
dock_pv.201

> <s_m_Source_Path>
/home/csk/Desktop/cluster/DUD-E-result/pyrd

> <s_m_Source_File>
dock_pv.maegz

> <i_m_Source_File_Index>
201

> <chembl_id>
CHEMBL3974614

> <chembl_pref_name>
None

> <i_lp_mmshare_version>
53161

> <r_lp_tautomer_probability>
1

> <s_lp_Force_Field>
OPLS_2005

> <r_lp_Energy>
21.942267

> <b_lp_Chiralities_Consistent>
1

> <s_lp_Variant>
CHEMBL1966_lig343-1

> <s_i_glide_gridfile>
glide-grid_1d3g

> <i_i_glide_lignum>
393

> <i_i_glide_rotatable_bonds>
6

> <r_i_docking_score>
-9.81426231014701

> <r_i_glide_ligand_efficiency>
-0.39257049240588

> <r_i_glide_ligand_efficiency_sa>
-1.14788308206212

> <r_i_glide_ligand_efficiency_ln>
-2.32627427721308

> <r_i_glide_gscore>
-9.81426231014701

> <r_i_glide_lipo>
-4.8349621459205

> <r_i_glide_hbond>
-0.247227138931936

> <r_i_glide_metal>
0

> <r_i_glide_rewards>
-2.78777659473664

> <r_i_glide_evdw>
-41.2920112609863

> <r_i_glide_ecoul>
-4.76262712478638

> <r_i_glide_erotb>
0.83469820120934

> <r_i_glide_esite>
0

> <r_i_glide_emodel>
-68.8116083946068

> <r_i_glide_energy>
-46.0546383857727

> <r_i_glide_einternal>
4.11065626144409

> <i_i_glide_confnum>
82

> <i_i_glide_posenum>
224

> <r_i_glide_eff_state_penalty>
0

> <s_user_duplicate_titles>
CHEMBL1966_lig343

> <i_f3d_flags>
0

> <s_m_subgroup_title>
dock_pv

> <s_m_subgroupid>
dock_pv

> <b_m_subgroup_collapsed>
1

$$$$
CHEMBL1966_lig57
                    3D
 Schrodinger Suite 2021-1.
 42 44  0  0  1  0            999 V2000
   48.1373   40.2504   -2.9957 C   0  0  0  0  0  0
   47.3292   39.3165   -2.4134 C   0  0  0  0  0  0
   49.2182   41.0342   -2.3816 C   0  0  0  0  0  0
   49.6399   42.0890   -3.1163 N   0  0  0  0  0  0
   47.4049   38.7107   -1.1006 C   0  0  0  0  0  0
   50.5534   43.0888   -2.7159 C   0  0  0  0  0  0
   52.4230   45.1491   -2.0990 C   0  0  0  0  0  0
   50.4292   43.8440   -1.5322 C   0  0  0  0  0  0
   51.3347   44.8703   -1.2546 C   0  0  0  0  0  0
   53.5249   46.0877   -1.6943 C   0  0  0  0  0  0
   49.6230   40.8307   -1.2412 O   0  0  0  0  0  0
   46.2672   40.0100   -4.3584 O   0  0  0  0  0  0
   47.2723   37.5072   -0.8990 O   0  0  0  0  0  0
   54.4268   46.6063   -2.6388 C   0  0  0  0  0  0
   47.6190   40.4269   -4.4134 C   0  0  0  0  0  0
   46.1403   39.0643   -3.3097 C   0  0  0  0  0  0
   51.5727   43.4141   -3.6094 C   0  0  0  0  0  0
   52.4987   44.4100   -3.2983 C   0  0  0  0  0  0
   49.4511   43.6100   -0.6293 F   0  0  0  0  0  0
   47.5302   39.6100   -0.0990 O   0  0  0  0  0  0
   55.5319   47.3854   -2.2604 C   0  0  0  0  0  0
   56.4782   47.8654   -3.1426 O   0  0  0  0  0  0
   53.7476   46.4103   -0.3446 C   0  0  0  0  0  0
   54.8230   47.2072    0.0432 C   0  0  0  0  0  0
   55.7067   47.6963   -0.9136 C   0  0  0  0  0  0
   56.6636   47.1802   -4.3784 C   0  0  0  0  0  0
   49.4021   42.0885   -4.0952 H   0  0  0  0  0  0
   51.2002   45.4144   -0.3326 H   0  0  0  0  0  0
   54.2745   46.3960   -3.6834 H   0  0  0  0  0  0
   48.1766   39.7971   -5.1058 H   0  0  0  0  0  0
   47.6578   41.4439   -4.8053 H   0  0  0  0  0  0
   46.0230   38.0477   -3.6757 H   0  0  0  0  0  0
   45.2230   39.2660   -2.7614 H   0  0  0  0  0  0
   51.6834   42.8681   -4.5331 H   0  0  0  0  0  0
   53.3062   44.5622   -3.9914 H   0  0  0  0  0  0
   47.5801   39.1879    0.7782 H   0  0  0  0  0  0
   53.1093   46.0223    0.4342 H   0  0  0  0  0  0
   54.9776   47.4344    1.0882 H   0  0  0  0  0  0
   56.5493   48.3000   -0.6076 H   0  0  0  0  0  0
   57.4847   47.6435   -4.9252 H   0  0  0  0  0  0
   56.9283   46.1349   -4.2107 H   0  0  0  0  0  0
   55.7829   47.2162   -5.0188 H   0  0  0  0  0  0
  1  2  2  0  0  0
  1  3  1  0  0  0
  1 15  1  0  0  0
  2  5  1  0  0  0
  2 16  1  0  0  0
  3  4  1  0  0  0
  3 11  2  0  0  0
  4  6  1  0  0  0
  4 27  1  0  0  0
  5 13  2  0  0  0
  5 20  1  0  0  0
  6  8  1  0  0  0
  6 17  2  0  0  0
  7 18  2  0  0  0
  7 10  1  0  0  0
  7  9  1  0  0  0
  8  9  2  0  0  0
  8 19  1  0  0  0
  9 28  1  0  0  0
 10 14  1  0  0  0
 10 23  2  0  0  0
 12 15  1  0  0  0
 12 16  1  0  0  0
 14 21  2  0  0  0
 14 29  1  0  0  0
 15 30  1  0  0  0
 15 31  1  0  0  0
 16 32  1  0  0  0
 16 33  1  0  0  0
 17 18  1  0  0  0
 17 34  1  0  0  0
 18 35  1  0  0  0
 20 36  1  0  0  0
 21 22  1  0  0  0
 21 25  1  0  0  0
 22 26  1  0  0  0
 23 24  1  0  0  0
 23 37  1  0  0  0
 24 25  2  0  0  0
 24 38  1  0  0  0
 25 39  1  0  0  0
 26 40  1  0  0  0
 26 41  1  0  0  0
 26 42  1  0  0  0
M  END
> <s_m_entry_id>
25550

> <s_m_entry_name>
dock_pv.202

> <s_m_Source_Path>
/home/csk/Desktop/cluster/DUD-E-result/pyrd

> <s_m_Source_File>
dock_pv.maegz

> <i_m_Source_File_Index>
202

> <chembl_id>
CHEMBL197455

> <chembl_pref_name>
None

> <i_lp_mmshare_version>
53161

> <r_lp_tautomer_probability>
1

> <s_lp_Force_Field>
OPLS_2005

> <r_lp_Energy>
43.646667

> <b_lp_Chiralities_Consistent>
1

> <s_lp_Variant>
CHEMBL1966_lig57-1

> <s_i_glide_gridfile>
glide-grid_1d3g

> <i_i_glide_lignum>
63

> <i_i_glide_rotatable_bonds>
7

> <r_i_docking_score>
-9.81060456177383

> <r_i_glide_ligand_efficiency>
-0.377330944683609

> <r_i_glide_ligand_efficiency_sa>
-1.11784143889962

> <r_i_glide_ligand_efficiency_ln>
-2.30398829011338

> <r_i_glide_gscore>
-9.81060456177383

> <r_i_glide_lipo>
-5.00677626169191

> <r_i_glide_hbond>
0

> <r_i_glide_metal>
0

> <r_i_glide_rewards>
-2.60889379540687

> <r_i_glide_evdw>
-38.7419738769531

> <r_i_glide_ecoul>
-6.71626234054565

> <r_i_glide_erotb>
0.749603540254444

> <r_i_glide_esite>
0

> <r_i_glide_emodel>
-65.5284113122483

> <r_i_glide_energy>
-45.4582362174988

> <r_i_glide_einternal>
8.46293544769287

> <i_i_glide_confnum>
211

> <i_i_glide_posenum>
56

> <r_i_glide_eff_state_penalty>
0

> <s_user_duplicate_titles>
CHEMBL1966_lig57,327314

> <i_f3d_flags>
0

> <s_m_subgroup_title>
dock_pv

> <s_m_subgroupid>
dock_pv

> <b_m_subgroup_collapsed>
1

$$$$
CHEMBL1966_lig808
                    3D
 Schrodinger Suite 2021-1.
 42 44  0  0  1  0            999 V2000
   51.2230   45.2050   -0.4209 C   0  0  0  0  0  0
   52.0230   46.1601    0.2049 C   0  0  0  0  0  0
   53.1788   46.6200   -0.4206 C   0  0  0  0  0  0
   53.5313   46.1699   -1.6971 C   0  0  0  0  0  0
   52.7129   45.2100   -2.3062 C   0  0  0  0  0  0
   51.5752   44.6751   -1.6690 C   0  0  0  0  0  0
   50.8078   43.5164   -2.2488 C   0  0  0  0  0  0
   50.6136   43.3960   -3.6300 C   0  0  0  0  0  0
   49.8676   42.3449   -4.1828 C   0  0  0  0  0  0
   49.3371   41.3722   -3.3337 C   0  0  0  0  0  0
   49.5205   41.4358   -1.9555 C   0  0  0  0  0  0
   50.2591   42.5114   -1.4278 C   0  0  0  0  0  0
   48.8269   40.4100   -1.0800 C   0  0  0  0  0  0
   49.2230   40.4100    0.2182 O   0  0  0  0  0  0
   47.9987   39.6101   -1.5104 O   0  0  0  0  0  0
   49.6230   42.2191   -5.6631 C   0  0  0  0  0  0
   50.4230   42.9208   -6.4751 N   0  0  0  0  0  0
   48.8144   41.4005   -6.0990 O   0  0  0  0  0  0
   54.7569   46.6786   -2.3779 C   0  0  0  0  0  0
   55.1160   48.0289   -2.2810 C   0  0  0  0  0  0
   56.2537   48.5113   -2.9220 C   0  0  0  0  0  0
   57.0507   47.6442   -3.6679 C   0  0  0  0  0  0
   56.7132   46.2941   -3.7641 C   0  0  0  0  0  0
   55.5718   45.8172   -3.1249 C   0  0  0  0  0  0
   58.2904   48.1752   -4.3632 C   0  0  0  0  0  0
   50.3508   44.8352    0.0984 H   0  0  0  0  0  0
   51.7547   46.5306    1.1836 H   0  0  0  0  0  0
   53.8002   47.3382    0.0931 H   0  0  0  0  0  0
   52.9955   44.8262   -3.2751 H   0  0  0  0  0  0
   51.0347   44.1473   -4.2782 H   0  0  0  0  0  0
   48.7571   40.5572   -3.7501 H   0  0  0  0  0  0
   50.3929   42.5830   -0.3606 H   0  0  0  0  0  0
   48.7565   39.7117    0.6873 H   0  0  0  0  0  0
   51.0735   43.5909   -6.0995 H   0  0  0  0  0  0
   50.3387   42.8100   -7.4731 H   0  0  0  0  0  0
   54.5043   48.7178   -1.7175 H   0  0  0  0  0  0
   56.5107   49.5579   -2.8413 H   0  0  0  0  0  0
   57.3310   45.6130   -4.3316 H   0  0  0  0  0  0
   55.3308   44.7672   -3.2057 H   0  0  0  0  0  0
   58.0103   48.8392   -5.1815 H   0  0  0  0  0  0
   58.8951   48.7517   -3.6623 H   0  0  0  0  0  0
   58.9160   47.3722   -4.7552 H   0  0  0  0  0  0
  1  6  1  0  0  0
  1  2  2  0  0  0
  1 26  1  0  0  0
  2  3  1  0  0  0
  2 27  1  0  0  0
  3  4  2  0  0  0
  3 28  1  0  0  0
  4  5  1  0  0  0
  4 19  1  0  0  0
  5  6  2  0  0  0
  5 29  1  0  0  0
  6  7  1  0  0  0
  7  8  2  0  0  0
  7 12  1  0  0  0
  8  9  1  0  0  0
  8 30  1  0  0  0
  9 16  1  0  0  0
  9 10  2  0  0  0
 10 11  1  0  0  0
 10 31  1  0  0  0
 11 13  1  0  0  0
 11 12  2  0  0  0
 12 32  1  0  0  0
 13 14  1  0  0  0
 13 15  2  0  0  0
 14 33  1  0  0  0
 16 17  1  0  0  0
 16 18  2  0  0  0
 17 34  1  0  0  0
 17 35  1  0  0  0
 19 20  2  0  0  0
 19 24  1  0  0  0
 20 21  1  0  0  0
 20 36  1  0  0  0
 21 22  2  0  0  0
 21 37  1  0  0  0
 22 23  1  0  0  0
 22 25  1  0  0  0
 23 24  2  0  0  0
 23 38  1  0  0  0
 24 39  1  0  0  0
 25 40  1  0  0  0
 25 41  1  0  0  0
 25 42  1  0  0  0
M  END
> <s_m_entry_id>
25551

> <s_m_entry_name>
dock_pv.203

> <s_m_Source_Path>
/home/csk/Desktop/cluster/DUD-E-result/pyrd

> <s_m_Source_File>
dock_pv.maegz

> <i_m_Source_File_Index>
203

> <chembl_id>
CHEMBL205773

> <chembl_pref_name>
None

> <i_lp_mmshare_version>
53161

> <r_lp_tautomer_probability>
1

> <s_lp_Force_Field>
OPLS_2005

> <r_lp_Energy>
22.325377

> <b_lp_Chiralities_Consistent>
1

> <s_lp_Variant>
CHEMBL1966_lig808-1

> <s_i_glide_gridfile>
glide-grid_1d3g

> <i_i_glide_lignum>
879

> <i_i_glide_rotatable_bonds>
5

> <r_i_docking_score>
-9.8096677769781

> <r_i_glide_ligand_efficiency>
-0.392386711079124

> <r_i_glide_ligand_efficiency_sa>
-1.14734570220331

> <r_i_glide_ligand_efficiency_ln>
-2.325185235165

> <r_i_glide_gscore>
-9.8096677769781

> <r_i_glide_lipo>
-5.28863570615965

> <r_i_glide_hbond>
-0.104573953153418

> <r_i_glide_metal>
0

> <r_i_glide_rewards>
-2.73430330998388

> <r_i_glide_evdw>
-34.4479560852051

> <r_i_glide_ecoul>
-3.15975046157837

> <r_i_glide_erotb>
0.514205565815865

> <r_i_glide_esite>
0

> <r_i_glide_emodel>
-58.012421200289

> <r_i_glide_energy>
-37.6077065467834

> <r_i_glide_einternal>
0.25464141368866

> <i_i_glide_confnum>
1

> <i_i_glide_posenum>
45

> <r_i_glide_eff_state_penalty>
0

> <s_user_duplicate_titles>
CHEMBL1966_lig808

> <i_f3d_flags>
0

> <s_m_subgroup_title>
dock_pv

> <s_m_subgroupid>
dock_pv

> <b_m_subgroup_collapsed>
1

$$$$
CHEMBL1966_lig707
                    3D
 Schrodinger Suite 2021-1.
 42 46  0  0  1  0            999 V2000
   53.3496   46.0454   -1.0762 C   0  0  0  0  0  0
   54.5864   46.7008   -0.8463 C   0  0  0  0  0  0
   53.1611   45.3899   -2.3090 C   0  0  0  0  0  0
   54.0957   45.4940   -3.2990 N   0  0  0  0  0  0
   55.4439   46.9904   -1.9564 C   0  0  0  0  0  0
   52.1085   46.0049    0.2113 S   0  0  0  0  0  0
   52.0230   44.4100   -2.5564 C   0  0  0  0  0  0
   55.1864   46.2936   -3.1666 C   0  0  0  0  0  0
   55.0897   46.9767    0.5537 C   0  0  0  0  0  0
   50.9899   44.1801   -1.6301 C   0  0  0  0  0  0
   50.1085   43.1069   -1.8291 C   0  0  0  0  0  0
   50.0647   42.4068   -3.0386 C   0  0  0  0  0  0
   51.9732   43.6846   -3.7525 C   0  0  0  0  0  0
   50.7173   45.1458   -0.5110 C   0  0  0  0  0  0
   56.5381   47.9128   -1.9292 C   0  0  0  0  0  0
   56.4230   46.8100    0.7308 O   0  0  0  0  0  0
   50.9374   42.8100   -4.0357 C   0  0  0  0  0  0
   54.3641   47.2100    1.5010 O   0  0  0  0  0  0
   56.1122   46.4117   -4.2411 C   0  0  0  0  0  0
   49.0702   41.3295   -3.2985 C   0  0  0  0  0  0
   57.3609   48.0823   -3.0350 C   0  0  0  0  0  0
   57.1706   47.3105   -4.1701 C   0  0  0  0  0  0
   58.3668   48.9849   -2.9958 F   0  0  0  0  0  0
   48.7043   40.4381   -2.2832 C   0  0  0  0  0  0
   48.4230   41.2458   -4.5410 C   0  0  0  0  0  0
   47.3264   40.4100   -4.7089 C   0  0  0  0  0  0
   47.6228   39.5822   -2.4559 C   0  0  0  0  0  0
   46.9112   39.6095   -3.6508 C   0  0  0  0  0  0
   49.3607   42.9005   -1.0788 H   0  0  0  0  0  0
   52.7256   43.8313   -4.4990 H   0  0  0  0  0  0
   50.0710   45.9262   -0.8999 H   0  0  0  0  0  0
   50.1863   44.6654    0.3113 H   0  0  0  0  0  0
   56.7337   48.5074   -1.0493 H   0  0  0  0  0  0
   50.8232   42.4100   -5.0262 H   0  0  0  0  0  0
   56.0230   45.8084   -5.1304 H   0  0  0  0  0  0
   57.8490   47.4148   -5.0042 H   0  0  0  0  0  0
   49.2147   40.4524   -1.3310 H   0  0  0  0  0  0
   48.6817   41.9191   -5.3449 H   0  0  0  0  0  0
   46.7763   40.4089   -5.6373 H   0  0  0  0  0  0
   47.3163   38.9275   -1.6532 H   0  0  0  0  0  0
   46.0454   38.9735   -3.7664 H   0  0  0  0  0  0
   56.6381   46.9670    1.6531 H   0  0  0  0  0  0
  1  2  2  0  0  0
  1  3  1  0  0  0
  1  6  1  0  0  0
  2  5  1  0  0  0
  2  9  1  0  0  0
  3  4  2  0  0  0
  3  7  1  0  0  0
  4  8  1  0  0  0
  5 15  2  0  0  0
  5  8  1  0  0  0
  6 14  1  0  0  0
  7 13  1  0  0  0
  7 10  2  0  0  0
  8 19  2  0  0  0
  9 16  1  0  0  0
  9 18  2  0  0  0
 10 14  1  0  0  0
 10 11  1  0  0  0
 11 12  2  0  0  0
 11 29  1  0  0  0
 12 20  1  0  0  0
 12 17  1  0  0  0
 13 17  2  0  0  0
 13 30  1  0  0  0
 14 31  1  0  0  0
 14 32  1  0  0  0
 15 21  1  0  0  0
 15 33  1  0  0  0
 16 42  1  0  0  0
 17 34  1  0  0  0
 19 22  1  0  0  0
 19 35  1  0  0  0
 20 24  1  0  0  0
 20 25  2  0  0  0
 21 23  1  0  0  0
 21 22  2  0  0  0
 22 36  1  0  0  0
 24 27  2  0  0  0
 24 37  1  0  0  0
 25 26  1  0  0  0
 25 38  1  0  0  0
 26 28  2  0  0  0
 26 39  1  0  0  0
 27 28  1  0  0  0
 27 40  1  0  0  0
 28 41  1  0  0  0
M  END
> <s_m_entry_id>
25552

> <s_m_entry_name>
dock_pv.204

> <s_m_Source_Path>
/home/csk/Desktop/cluster/DUD-E-result/pyrd

> <s_m_Source_File>
dock_pv.maegz

> <i_m_Source_File_Index>
204

> <chembl_id>
CHEMBL320245

> <chembl_pref_name>
None

> <i_lp_mmshare_version>
53161

> <r_lp_tautomer_probability>
1

> <s_lp_Force_Field>
OPLS_2005

> <r_lp_Energy>
33.413493

> <b_lp_Chiralities_Consistent>
1

> <s_lp_Variant>
CHEMBL1966_lig707-1

> <s_i_glide_gridfile>
glide-grid_1d3g

> <i_i_glide_lignum>
776

> <i_i_glide_rotatable_bonds>
3

> <r_i_docking_score>
-9.80698642729599

> <r_i_glide_ligand_efficiency>
-0.350249515260571

> <r_i_glide_ligand_efficiency_sa>
-1.06356381426371

> <r_i_glide_ligand_efficiency_ln>
-2.26374041305344

> <r_i_glide_gscore>
-9.80698642729599

> <r_i_glide_lipo>
-6.29462163001129

> <r_i_glide_hbond>
0

> <r_i_glide_metal>
0

> <r_i_glide_rewards>
-1.89630743379033

> <r_i_glide_evdw>
-37.1778831481934

> <r_i_glide_ecoul>
-0.110924422740936

> <r_i_glide_erotb>
0.259475457326441

> <r_i_glide_esite>
0

> <r_i_glide_emodel>
-39.9859852102483

> <r_i_glide_energy>
-37.2888075709343

> <r_i_glide_einternal>
12.6338901519775

> <i_i_glide_confnum>
16

> <i_i_glide_posenum>
21

> <r_i_glide_eff_state_penalty>
0

> <s_user_duplicate_titles>
CHEMBL1966_lig707,173680

> <i_f3d_flags>
0

> <s_m_subgroup_title>
dock_pv

> <s_m_subgroupid>
dock_pv

> <b_m_subgroup_collapsed>
1

$$$$
CHEMBL1966_lig582
                    3D
 Schrodinger Suite 2021-1.
 47 50  0  0  1  0            999 V2000
   48.5125   40.6332   -2.5296 C   0  0  0  0  0  0
   48.0766   39.8502   -1.4384 C   0  0  0  0  0  0
   47.0626   38.9108   -1.6233 C   0  0  0  0  0  0
   46.4186   38.8102   -2.8519 C   0  0  0  0  0  0
   46.8119   39.6098   -3.9207 C   0  0  0  0  0  0
   47.9007   40.4099   -3.7688 N   0  0  0  0  0  0
   48.4237   41.1605   -4.7521 N   0  0  0  0  0  0
   49.2703   41.9596   -4.1529 C   0  0  0  0  0  0
   49.3633   41.7481   -2.7545 C   0  0  0  0  0  0
   50.1337   42.4906   -1.7952 C   0  0  0  0  0  0
   50.4230   42.0103   -0.7050 O   0  0  0  0  0  0
   50.4227   43.7346   -2.2007 N   0  0  0  0  0  0
   49.8626   42.9508   -4.8823 O   0  0  0  0  0  0
   51.3908   44.5931   -1.6992 C   0  0  0  0  0  0
   52.5144   44.8100   -2.4970 C   0  0  0  0  0  0
   53.5085   45.6758   -2.0805 C   0  0  0  0  0  0
   53.3991   46.3676   -0.8720 C   0  0  0  0  0  0
   52.3026   46.0828   -0.0358 C   0  0  0  0  0  0
   51.2755   45.2283   -0.4659 C   0  0  0  0  0  0
   54.3891   47.2385   -0.4527 O   0  0  0  0  0  0
   55.2491   47.8734   -1.3333 C   0  0  0  0  0  0
   54.8905   48.2511   -2.6361 C   0  0  0  0  0  0
   55.8369   48.8101   -3.4881 C   0  0  0  0  0  0
   57.1080   49.1052   -3.0136 C   0  0  0  0  0  0
   57.4468   48.8093   -1.6995 C   0  0  0  0  0  0
   56.5277   48.1725   -0.8722 C   0  0  0  0  0  0
   52.2396   46.6286    1.3720 C   0  0  0  0  0  0
   52.7813   43.9132   -3.6806 C   0  0  0  0  0  0
   48.5201   39.9876   -0.4625 H   0  0  0  0  0  0
   46.7452   38.2937   -0.7942 H   0  0  0  0  0  0
   45.6229   38.0963   -2.9802 H   0  0  0  0  0  0
   46.3491   39.5867   -4.8952 H   0  0  0  0  0  0
   50.1506   43.9239   -3.1537 H   0  0  0  0  0  0
   49.1714   43.5312   -5.2191 H   0  0  0  0  0  0
   54.3992   45.7620   -2.6841 H   0  0  0  0  0  0
   50.4253   45.0164    0.1674 H   0  0  0  0  0  0
   53.8899   48.0853   -3.0064 H   0  0  0  0  0  0
   55.5710   49.0737   -4.4985 H   0  0  0  0  0  0
   57.8284   49.5811   -3.6627 H   0  0  0  0  0  0
   58.4235   49.0614   -1.3202 H   0  0  0  0  0  0
   56.8086   47.9127    0.1376 H   0  0  0  0  0  0
   53.1010   47.2382    1.6345 H   0  0  0  0  0  0
   51.3336   47.2098    1.4933 H   0  0  0  0  0  0
   52.1985   45.7971    2.0738 H   0  0  0  0  0  0
   52.2010   44.3005   -4.4989 H   0  0  0  0  0  0
   53.8470   43.8341   -3.8568 H   0  0  0  0  0  0
   52.4550   42.8883   -3.5033 H   0  0  0  0  0  0
  1  2  1  0  0  0
  1  6  1  0  0  0
  1  9  2  0  0  0
  2  3  2  0  0  0
  2 29  1  0  0  0
  3  4  1  0  0  0
  3 30  1  0  0  0
  4  5  2  0  0  0
  4 31  1  0  0  0
  5  6  1  0  0  0
  5 32  1  0  0  0
  6  7  1  0  0  0
  7  8  2  0  0  0
  8  9  1  0  0  0
  8 13  1  0  0  0
  9 10  1  0  0  0
 10 11  2  0  0  0
 10 12  1  0  0  0
 12 14  1  0  0  0
 12 33  1  0  0  0
 13 34  1  0  0  0
 14 15  1  0  0  0
 14 19  2  0  0  0
 15 16  2  0  0  0
 15 28  1  0  0  0
 16 17  1  0  0  0
 16 35  1  0  0  0
 17 18  2  0  0  0
 17 20  1  0  0  0
 18 19  1  0  0  0
 18 27  1  0  0  0
 19 36  1  0  0  0
 20 21  1  0  0  0
 21 22  1  0  0  0
 21 26  2  0  0  0
 22 23  2  0  0  0
 22 37  1  0  0  0
 23 24  1  0  0  0
 23 38  1  0  0  0
 24 25  2  0  0  0
 24 39  1  0  0  0
 25 26  1  0  0  0
 25 40  1  0  0  0
 26 41  1  0  0  0
 27 42  1  0  0  0
 27 43  1  0  0  0
 27 44  1  0  0  0
 28 45  1  0  0  0
 28 46  1  0  0  0
 28 47  1  0  0  0
M  END
> <s_m_entry_id>
25553

> <s_m_entry_name>
dock_pv.205

> <s_m_Source_Path>
/home/csk/Desktop/cluster/DUD-E-result/pyrd

> <s_m_Source_File>
dock_pv.maegz

> <i_m_Source_File_Index>
205

> <chembl_id>
CHEMBL4165815

> <chembl_pref_name>
None

> <i_lp_mmshare_version>
53161

> <r_lp_tautomer_probability>
1

> <s_lp_Force_Field>
OPLS_2005

> <r_lp_Energy>
25.470818

> <b_lp_Chiralities_Consistent>
1

> <s_lp_Variant>
CHEMBL1966_lig582-1

> <s_i_glide_gridfile>
glide-grid_1d3g

> <i_i_glide_lignum>
636

> <i_i_glide_rotatable_bonds>
6

> <r_i_docking_score>
-9.80297494153543

> <r_i_glide_ligand_efficiency>
-0.35010624791198

> <r_i_glide_ligand_efficiency_sa>
-1.06312877021343

> <r_i_glide_ligand_efficiency_ln>
-2.26281444435756

> <r_i_glide_gscore>
-9.80297494153543

> <r_i_glide_lipo>
-5.29545712514907

> <r_i_glide_hbond>
-0.145993075176028

> <r_i_glide_metal>
0

> <r_i_glide_rewards>
-2.41965133349674

> <r_i_glide_evdw>
-38.778636932373

> <r_i_glide_ecoul>
-4.63951253890991

> <r_i_glide_erotb>
0.692985319741545

> <r_i_glide_esite>
0

> <r_i_glide_emodel>
-48.1788919627682

> <r_i_glide_energy>
-43.418149471283

> <r_i_glide_einternal>
9.82446765899658

> <i_i_glide_confnum>
11

> <i_i_glide_posenum>
62

> <r_i_glide_eff_state_penalty>
0

> <s_user_duplicate_titles>
CHEMBL1966_lig582

> <i_f3d_flags>
0

> <s_m_subgroup_title>
dock_pv

> <s_m_subgroupid>
dock_pv

> <b_m_subgroup_collapsed>
1

$$$$
CHEMBL1966_lig449
                    3D
 Schrodinger Suite 2021-1.
 42 44  0  0  1  0            999 V2000
   47.1433   38.5440   -1.0218 C   0  0  0  0  0  0
   47.9915   39.6332   -1.6540 C   0  0  0  0  0  0
   48.8234   40.4097   -0.8534 C   0  0  0  0  0  0
   49.6242   41.3890   -1.4281 C   0  0  0  0  0  0
   49.6005   41.6357   -2.8053 C   0  0  0  0  0  0
   50.4893   42.5723   -3.3611 N   0  0  0  0  0  0
   51.2933   43.6112   -2.8747 C   0  0  0  0  0  0
   52.3914   44.0054   -3.6369 C   0  0  0  0  0  0
   53.2567   44.9846   -3.2712 N   0  0  0  0  0  0
   53.0550   45.6265   -2.0856 C   0  0  0  0  0  0
   51.9245   45.3407   -1.2870 C   0  0  0  0  0  0
   51.6212   46.0472    0.0249 C   0  0  0  0  0  0
   51.0474   44.3230   -1.6971 C   0  0  0  0  0  0
   54.1623   46.5575   -1.6887 C   0  0  0  0  0  0
   54.8260   46.3858   -0.4641 C   0  0  0  0  0  0
   55.8873   47.2085   -0.0893 C   0  0  0  0  0  0
   56.3160   48.2208   -0.9410 C   0  0  0  0  0  0
   55.6750   48.4101   -2.1618 C   0  0  0  0  0  0
   54.6105   47.5874   -2.5333 C   0  0  0  0  0  0
   54.0231   47.8012   -3.7289 F   0  0  0  0  0  0
   48.7052   40.8971   -3.6244 C   0  0  0  0  0  0
   47.9260   39.8920   -3.0237 C   0  0  0  0  0  0
   48.4246   41.2274   -5.0855 C   0  0  0  0  0  0
   47.4826   40.7365   -5.7001 O   0  0  0  0  0  0
   49.2377   42.1437   -5.6776 O   0  0  0  0  0  0
   46.5262   38.9655   -0.2266 H   0  0  0  0  0  0
   47.7829   37.7856   -0.5685 H   0  0  0  0  0  0
   46.4841   38.0594   -1.7437 H   0  0  0  0  0  0
   48.8826   40.2238    0.2095 H   0  0  0  0  0  0
   50.3079   41.9225   -0.7879 H   0  0  0  0  0  0
   50.5749   42.4381   -4.3588 H   0  0  0  0  0  0
   52.6282   43.4778   -4.5457 H   0  0  0  0  0  0
   50.8275   46.7752   -0.1377 H   0  0  0  0  0  0
   51.2781   45.3096    0.7562 H   0  0  0  0  0  0
   52.4639   46.5671    0.4734 H   0  0  0  0  0  0
   50.1745   44.1004   -1.1030 H   0  0  0  0  0  0
   54.5284   45.5913    0.2035 H   0  0  0  0  0  0
   56.3839   47.0549    0.8574 H   0  0  0  0  0  0
   57.1460   48.8519   -0.6561 H   0  0  0  0  0  0
   56.0066   49.1927   -2.8282 H   0  0  0  0  0  0
   47.2362   39.3084   -3.6183 H   0  0  0  0  0  0
   48.8739   42.4301   -6.5137 H   0  0  0  0  0  0
  1  2  1  0  0  0
  1 26  1  0  0  0
  1 27  1  0  0  0
  1 28  1  0  0  0
  2  3  2  0  0  0
  2 22  1  0  0  0
  3  4  1  0  0  0
  3 29  1  0  0  0
  4  5  2  0  0  0
  4 30  1  0  0  0
  5  6  1  0  0  0
  5 21  1  0  0  0
  6  7  1  0  0  0
  6 31  1  0  0  0
  7  8  2  0  0  0
  7 13  1  0  0  0
  8  9  1  0  0  0
  8 32  1  0  0  0
  9 10  2  0  0  0
 10 11  1  0  0  0
 10 14  1  0  0  0
 11 12  1  0  0  0
 11 13  2  0  0  0
 12 33  1  0  0  0
 12 34  1  0  0  0
 12 35  1  0  0  0
 13 36  1  0  0  0
 14 15  2  0  0  0
 14 19  1  0  0  0
 15 16  1  0  0  0
 15 37  1  0  0  0
 16 17  2  0  0  0
 16 38  1  0  0  0
 17 18  1  0  0  0
 17 39  1  0  0  0
 18 19  2  0  0  0
 18 40  1  0  0  0
 19 20  1  0  0  0
 21 22  2  0  0  0
 21 23  1  0  0  0
 22 41  1  0  0  0
 23 24  2  0  0  0
 23 25  1  0  0  0
 25 42  1  0  0  0
M  END
> <s_m_entry_id>
25554

> <s_m_entry_name>
dock_pv.206

> <s_m_Source_Path>
/home/csk/Desktop/cluster/DUD-E-result/pyrd

> <s_m_Source_File>
dock_pv.maegz

> <i_m_Source_File_Index>
206

> <chembl_id>
CHEMBL3674658

> <chembl_pref_name>
None

> <i_lp_mmshare_version>
53161

> <r_lp_tautomer_probability>
0.999999999999999

> <s_lp_Force_Field>
OPLS_2005

> <r_lp_Energy>
30.472858

> <b_lp_Chiralities_Consistent>
1

> <s_lp_Variant>
CHEMBL1966_lig449-1

> <s_i_glide_gridfile>
glide-grid_1d3g

> <i_i_glide_lignum>
499

> <i_i_glide_rotatable_bonds>
5

> <r_i_docking_score>
-9.79643006721945

> <r_i_glide_ligand_efficiency>
-0.391857202688778

> <r_i_glide_ligand_efficiency_sa>
-1.14579741027907

> <r_i_glide_ligand_efficiency_ln>
-2.32204750125005

> <r_i_glide_gscore>
-9.79643006721945

> <r_i_glide_lipo>
-5.54769011054118

> <r_i_glide_hbond>
-0.0614435543279378

> <r_i_glide_metal>
0

> <r_i_glide_rewards>
-2.47926515609106

> <r_i_glide_evdw>
-44.196346282959

> <r_i_glide_ecoul>
-1.10605573654175

> <r_i_glide_erotb>
0.667694428369942

> <r_i_glide_esite>
0

> <r_i_glide_emodel>
-62.1908683865005

> <r_i_glide_energy>
-45.3024020195007

> <r_i_glide_einternal>
13.386438369751

> <i_i_glide_confnum>
22

> <i_i_glide_posenum>
14

> <r_i_glide_eff_state_penalty>
0

> <s_user_duplicate_titles>
CHEMBL1966_lig449

> <i_f3d_flags>
0

> <s_m_subgroup_title>
dock_pv

> <s_m_subgroupid>
dock_pv

> <b_m_subgroup_collapsed>
1

$$$$
CHEMBL1966_lig197
                    3D
 Schrodinger Suite 2021-1.
 43 45  0  0  1  0            999 V2000
   57.9205   50.0899   -4.0321 C   0  0  0  0  0  0
   57.4048   49.5202   -2.7078 C   0  0  0  0  0  0
   56.1913   48.8223   -2.9642 O   0  0  0  0  0  0
   55.6143   48.0771   -1.9557 C   0  0  0  0  0  0
   56.0931   48.0054   -0.6401 C   0  0  0  0  0  0
   55.4464   47.2091    0.3027 C   0  0  0  0  0  0
   54.3192   46.4756   -0.0517 C   0  0  0  0  0  0
   53.8417   46.5050   -1.3648 C   0  0  0  0  0  0
   54.4870   47.3304   -2.2961 C   0  0  0  0  0  0
   52.7628   45.5813   -1.7939 C   0  0  0  0  0  0
   51.6233   45.3187   -1.0175 C   0  0  0  0  0  0
   50.6996   44.3369   -1.4003 C   0  0  0  0  0  0
   49.6289   44.1168   -0.6016 F   0  0  0  0  0  0
   50.8940   43.6089   -2.5926 C   0  0  0  0  0  0
   50.0224   42.6236   -3.0984 N   0  0  0  0  0  0
   49.3978   41.5221   -2.4967 C   0  0  0  0  0  0
   49.6231   41.3562   -1.1670 N   0  0  0  0  0  0
   48.9314   40.4106   -0.4987 C   0  0  0  0  0  0
   48.0230   39.5639   -1.1205 C   0  0  0  0  0  0
   47.8526   39.6700   -2.4996 C   0  0  0  0  0  0
   48.5296   40.6691   -3.2238 C   0  0  0  0  0  0
   48.3077   40.7944   -4.7178 C   0  0  0  0  0  0
   49.1671   41.2118   -5.4907 O   0  0  0  0  0  0
   47.0598   40.4326   -5.1345 O   0  0  0  0  0  0
   52.0209   43.8879   -3.3626 C   0  0  0  0  0  0
   52.2529   43.2101   -4.5007 F   0  0  0  0  0  0
   52.9398   44.8476   -2.9690 C   0  0  0  0  0  0
   58.8578   50.6256   -3.8889 H   0  0  0  0  0  0
   58.0940   49.2961   -4.7580 H   0  0  0  0  0  0
   57.2014   50.7849   -4.4646 H   0  0  0  0  0  0
   57.2361   50.3245   -1.9904 H   0  0  0  0  0  0
   58.1573   48.8472   -2.2945 H   0  0  0  0  0  0
   56.9695   48.5551   -0.3313 H   0  0  0  0  0  0
   55.8242   47.1585    1.3126 H   0  0  0  0  0  0
   53.8542   45.8397    0.6876 H   0  0  0  0  0  0
   54.1353   47.3692   -3.3168 H   0  0  0  0  0  0
   51.4614   45.8576   -0.0953 H   0  0  0  0  0  0
   49.9203   42.6338   -4.1056 H   0  0  0  0  0  0
   49.1535   40.3116    0.5540 H   0  0  0  0  0  0
   47.5064   38.8031   -0.5529 H   0  0  0  0  0  0
   47.1920   38.9675   -2.9881 H   0  0  0  0  0  0
   46.4619   40.2832   -4.3997 H   0  0  0  0  0  0
   53.8165   44.9997   -3.5808 H   0  0  0  0  0  0
  1  2  1  0  0  0
  1 28  1  0  0  0
  1 29  1  0  0  0
  1 30  1  0  0  0
  2  3  1  0  0  0
  2 31  1  0  0  0
  2 32  1  0  0  0
  3  4  1  0  0  0
  4  5  2  0  0  0
  4  9  1  0  0  0
  5  6  1  0  0  0
  5 33  1  0  0  0
  6  7  2  0  0  0
  6 34  1  0  0  0
  7  8  1  0  0  0
  7 35  1  0  0  0
  8  9  2  0  0  0
  8 10  1  0  0  0
  9 36  1  0  0  0
 10 11  2  0  0  0
 10 27  1  0  0  0
 11 12  1  0  0  0
 11 37  1  0  0  0
 12 13  1  0  0  0
 12 14  2  0  0  0
 14 15  1  0  0  0
 14 25  1  0  0  0
 15 16  1  0  0  0
 15 38  1  0  0  0
 16 17  2  0  0  0
 16 21  1  0  0  0
 17 18  1  0  0  0
 18 19  2  0  0  0
 18 39  1  0  0  0
 19 20  1  0  0  0
 19 40  1  0  0  0
 20 21  2  0  0  0
 20 41  1  0  0  0
 21 22  1  0  0  0
 22 23  2  0  0  0
 22 24  1  0  0  0
 24 42  1  0  0  0
 25 26  1  0  0  0
 25 27  2  0  0  0
 27 43  1  0  0  0
M  END
> <s_m_entry_id>
25555

> <s_m_entry_name>
dock_pv.207

> <s_m_Source_Path>
/home/csk/Desktop/cluster/DUD-E-result/pyrd

> <s_m_Source_File>
dock_pv.maegz

> <i_m_Source_File_Index>
207

> <chembl_id>
CHEMBL2263631

> <chembl_pref_name>
None

> <i_lp_mmshare_version>
53161

> <r_lp_tautomer_probability>
1

> <s_lp_Force_Field>
OPLS_2005

> <r_lp_Energy>
28.249219

> <b_lp_Chiralities_Consistent>
1

> <s_lp_Variant>
CHEMBL1966_lig197-1

> <s_i_glide_gridfile>
glide-grid_1d3g

> <i_i_glide_lignum>
242

> <i_i_glide_rotatable_bonds>
7

> <r_i_docking_score>
-9.7905959043272

> <r_i_glide_ligand_efficiency>
-0.36261466312323

> <r_i_glide_ligand_efficiency_sa>
-1.08784398817457

> <r_i_glide_ligand_efficiency_ln>
-2.27908931593897

> <r_i_glide_gscore>
-9.7905959043272

> <r_i_glide_lipo>
-5.20503222606314

> <r_i_glide_hbond>
0

> <r_i_glide_metal>
0

> <r_i_glide_rewards>
-2.55688308355995

> <r_i_glide_evdw>
-44.6495018005371

> <r_i_glide_ecoul>
-3.32963871955872

> <r_i_glide_erotb>
0.703240303256548

> <r_i_glide_esite>
0

> <r_i_glide_emodel>
-66.5952608508177

> <r_i_glide_energy>
-47.9791405200958

> <r_i_glide_einternal>
10.2959403991699

> <i_i_glide_confnum>
33

> <i_i_glide_posenum>
291

> <r_i_glide_eff_state_penalty>
0

> <s_user_duplicate_titles>
CHEMBL1966_lig197

> <i_f3d_flags>
0

> <s_m_subgroup_title>
dock_pv

> <s_m_subgroupid>
dock_pv

> <b_m_subgroup_collapsed>
1

$$$$
CHEMBL1966_lig370
                    3D
 Schrodinger Suite 2021-1.
 37 39  0  0  1  0            999 V2000
   49.9407   42.1607   -3.0730 C   0  0  0  0  0  0
   50.0539   42.7415   -4.4215 C   0  0  0  0  0  0
   49.2085   42.2060   -5.3315 N   0  0  0  0  0  0
   48.3668   41.1501   -5.2061 C   0  0  0  0  0  0
   48.4213   40.5559   -3.9852 N   0  0  0  0  0  0
   49.1133   41.0722   -2.9082 C   0  0  0  0  0  0
   48.8230   40.4100   -1.6299 C   0  0  0  0  0  0
   47.9310   39.3771   -1.7139 O   0  0  0  0  0  0
   49.2635   40.7657   -0.5402 O   0  0  0  0  0  0
   47.6029   40.8100   -6.0990 O   0  0  0  0  0  0
   50.8448   43.6100   -4.7760 O   0  0  0  0  0  0
   50.8389   42.8531   -2.0275 C   0  0  0  0  0  0
   50.4270   44.2988   -1.6322 C   0  0  0  0  0  0
   51.5802   45.1664   -1.1266 C   0  0  0  0  0  0
   51.6230   45.5759    0.2057 C   0  0  0  0  0  0
   52.7187   46.2724    0.7076 C   0  0  0  0  0  0
   52.6206   45.5174   -1.9918 C   0  0  0  0  0  0
   53.7578   46.2092   -1.5138 C   0  0  0  0  0  0
   53.8175   46.5707   -0.1341 C   0  0  0  0  0  0
   54.9790   47.2100    0.3571 C   0  0  0  0  0  0
   56.0343   47.5118   -0.4990 C   0  0  0  0  0  0
   55.9695   47.1755   -1.8470 C   0  0  0  0  0  0
   54.8483   46.5285   -2.3609 C   0  0  0  0  0  0
   49.2144   42.6587   -6.2319 H   0  0  0  0  0  0
   47.8474   39.7326   -3.8636 H   0  0  0  0  0  0
   47.7743   39.0161   -0.8374 H   0  0  0  0  0  0
   51.0055   42.2562   -1.1350 H   0  0  0  0  0  0
   51.8221   42.8847   -2.4990 H   0  0  0  0  0  0
   50.0230   44.8100   -2.4990 H   0  0  0  0  0  0
   49.6150   44.2759   -0.9034 H   0  0  0  0  0  0
   50.8230   45.2963    0.8760 H   0  0  0  0  0  0
   52.7533   46.5498    1.7515 H   0  0  0  0  0  0
   52.5905   45.2100   -3.0279 H   0  0  0  0  0  0
   55.0351   47.4722    1.4036 H   0  0  0  0  0  0
   56.9132   48.0100   -0.1137 H   0  0  0  0  0  0
   56.7986   47.4130   -2.4976 H   0  0  0  0  0  0
   54.8079   46.2591   -3.4067 H   0  0  0  0  0  0
  1  2  1  0  0  0
  1  6  2  0  0  0
  1 12  1  0  0  0
  2  3  1  0  0  0
  2 11  2  0  0  0
  3  4  1  0  0  0
  3 24  1  0  0  0
  4  5  1  0  0  0
  4 10  2  0  0  0
  5  6  1  0  0  0
  5 25  1  0  0  0
  6  7  1  0  0  0
  7  8  1  0  0  0
  7  9  2  0  0  0
  8 26  1  0  0  0
 12 13  1  0  0  0
 12 27  1  0  0  0
 12 28  1  0  0  0
 13 14  1  0  0  0
 13 29  1  0  0  0
 13 30  1  0  0  0
 14 15  2  0  0  0
 14 17  1  0  0  0
 15 16  1  0  0  0
 15 31  1  0  0  0
 16 19  2  0  0  0
 16 32  1  0  0  0
 17 18  2  0  0  0
 17 33  1  0  0  0
 18 19  1  0  0  0
 18 23  1  0  0  0
 19 20  1  0  0  0
 20 21  2  0  0  0
 20 34  1  0  0  0
 21 22  1  0  0  0
 21 35  1  0  0  0
 22 23  2  0  0  0
 22 36  1  0  0  0
 23 37  1  0  0  0
M  END
> <s_m_entry_id>
25556

> <s_m_entry_name>
dock_pv.208

> <s_m_Source_Path>
/home/csk/Desktop/cluster/DUD-E-result/pyrd

> <s_m_Source_File>
dock_pv.maegz

> <i_m_Source_File_Index>
208

> <chembl_id>
CHEMBL3984245

> <chembl_pref_name>
None

> <i_lp_mmshare_version>
53161

> <r_lp_tautomer_probability>
1

> <s_lp_Force_Field>
OPLS_2005

> <r_lp_Energy>
16.483617

> <b_lp_Chiralities_Consistent>
1

> <s_lp_Variant>
CHEMBL1966_lig370-1

> <s_i_glide_gridfile>
glide-grid_1d3g

> <i_i_glide_lignum>
420

> <i_i_glide_rotatable_bonds>
5

> <r_i_docking_score>
-9.78805176594214

> <r_i_glide_ligand_efficiency>
-0.425567468084441

> <r_i_glide_ligand_efficiency_sa>
-1.21025726891946

> <r_i_glide_ligand_efficiency_ln>
-2.36683967015125

> <r_i_glide_gscore>
-9.78805176594214

> <r_i_glide_lipo>
-4.62798511099942

> <r_i_glide_hbond>
-0.26830198939678

> <r_i_glide_metal>
0

> <r_i_glide_rewards>
-2.70593579249393

> <r_i_glide_evdw>
-43.2285118103027

> <r_i_glide_ecoul>
-5.29415559768677

> <r_i_glide_erotb>
0.769720057116136

> <r_i_glide_esite>
0

> <r_i_glide_emodel>
-72.9474435806842

> <r_i_glide_energy>
-48.5226674079895

> <r_i_glide_einternal>
1.89392232894897

> <i_i_glide_confnum>
29

> <i_i_glide_posenum>
190

> <r_i_glide_eff_state_penalty>
0

> <s_user_duplicate_titles>
CHEMBL1966_lig370

> <i_f3d_flags>
0

> <s_m_subgroup_title>
dock_pv

> <s_m_subgroupid>
dock_pv

> <b_m_subgroup_collapsed>
1

$$$$
CHEMBL1966_lig397
                    3D
 Schrodinger Suite 2021-1.
 47 49  0  0  1  0            999 V2000
   48.9437   40.8100   -2.8689 C   0  0  0  0  0  0
   48.8230   40.4100   -1.4578 C   0  0  0  0  0  0
   47.8072   39.5449   -1.2097 N   0  0  0  0  0  0
   46.8671   39.0543   -2.0597 C   0  0  0  0  0  0
   46.9520   39.5624   -3.3207 N   0  0  0  0  0  0
   47.9664   40.4014   -3.7370 C   0  0  0  0  0  0
   47.8838   40.8100   -5.1335 C   0  0  0  0  0  0
   46.6275   41.2020   -5.5082 O   0  0  0  0  0  0
   48.8230   40.8100   -5.9223 O   0  0  0  0  0  0
   46.0230   38.2443   -1.6991 O   0  0  0  0  0  0
   49.5328   40.8100   -0.5341 O   0  0  0  0  0  0
   50.1588   41.6978   -3.1926 C   0  0  0  0  0  0
   49.9250   43.1780   -2.8495 C   0  0  0  0  0  0
   51.1514   44.0100   -2.4984 C   0  0  0  0  0  0
   52.2620   44.0206   -3.3360 C   0  0  0  0  0  0
   53.3556   44.8372   -3.0454 C   0  0  0  0  0  0
   51.1377   44.8129   -1.3519 C   0  0  0  0  0  0
   52.2657   45.5968   -0.9922 C   0  0  0  0  0  0
   53.4167   45.6100   -1.8455 C   0  0  0  0  0  0
   54.5963   46.3093   -1.4080 C   0  0  0  0  0  0
   54.6116   46.8783   -0.1305 C   0  0  0  0  0  0
   53.5024   46.8100    0.7011 C   0  0  0  0  0  0
   52.3190   46.2354    0.2657 C   0  0  0  0  0  0
   55.8555   46.3646   -2.2463 C   0  0  0  0  0  0
   56.3348   47.5791   -2.6234 N   0  0  0  0  0  0
   56.4209   45.3066   -2.5325 O   0  0  0  0  0  0
   57.6230   47.7216   -3.3045 C   0  0  0  0  0  0
   55.6432   48.8561   -2.4397 C   0  0  0  0  0  0
   47.7331   39.2265   -0.2545 H   0  0  0  0  0  0
   46.2671   39.2010   -3.9684 H   0  0  0  0  0  0
   46.0399   41.3794   -4.7691 H   0  0  0  0  0  0
   50.4321   41.6121   -4.2400 H   0  0  0  0  0  0
   51.0260   41.3236   -2.6459 H   0  0  0  0  0  0
   49.2554   43.2100   -1.9886 H   0  0  0  0  0  0
   49.4169   43.6441   -3.6989 H   0  0  0  0  0  0
   52.2756   43.4125   -4.2288 H   0  0  0  0  0  0
   54.2107   44.8090   -3.6990 H   0  0  0  0  0  0
   50.2796   44.8046   -0.6944 H   0  0  0  0  0  0
   55.5062   47.3581    0.2430 H   0  0  0  0  0  0
   53.5565   47.2142    1.6992 H   0  0  0  0  0  0
   51.4671   46.1884    0.9284 H   0  0  0  0  0  0
   58.1568   46.7761   -3.4135 H   0  0  0  0  0  0
   58.2687   48.4056   -2.7525 H   0  0  0  0  0  0
   57.4769   48.1329   -4.3038 H   0  0  0  0  0  0
   54.6121   48.7530   -2.1009 H   0  0  0  0  0  0
   56.1789   49.4765   -1.7202 H   0  0  0  0  0  0
   55.6230   49.3911   -3.3893 H   0  0  0  0  0  0
  1  2  1  0  0  0
  1  6  2  0  0  0
  1 12  1  0  0  0
  2  3  1  0  0  0
  2 11  2  0  0  0
  3  4  1  0  0  0
  3 29  1  0  0  0
  4  5  1  0  0  0
  4 10  2  0  0  0
  5  6  1  0  0  0
  5 30  1  0  0  0
  6  7  1  0  0  0
  7  8  1  0  0  0
  7  9  2  0  0  0
  8 31  1  0  0  0
 12 13  1  0  0  0
 12 32  1  0  0  0
 12 33  1  0  0  0
 13 14  1  0  0  0
 13 34  1  0  0  0
 13 35  1  0  0  0
 14 15  2  0  0  0
 14 17  1  0  0  0
 15 16  1  0  0  0
 15 36  1  0  0  0
 16 19  2  0  0  0
 16 37  1  0  0  0
 17 18  2  0  0  0
 17 38  1  0  0  0
 18 19  1  0  0  0
 18 23  1  0  0  0
 19 20  1  0  0  0
 20 21  2  0  0  0
 20 24  1  0  0  0
 21 22  1  0  0  0
 21 39  1  0  0  0
 22 23  2  0  0  0
 22 40  1  0  0  0
 23 41  1  0  0  0
 24 25  1  0  0  0
 24 26  2  0  0  0
 25 27  1  0  0  0
 25 28  1  0  0  0
 27 42  1  0  0  0
 27 43  1  0  0  0
 27 44  1  0  0  0
 28 45  1  0  0  0
 28 46  1  0  0  0
 28 47  1  0  0  0
M  END
> <s_m_entry_id>
25557

> <s_m_entry_name>
dock_pv.209

> <s_m_Source_Path>
/home/csk/Desktop/cluster/DUD-E-result/pyrd

> <s_m_Source_File>
dock_pv.maegz

> <i_m_Source_File_Index>
209

> <chembl_id>
CHEMBL3928909

> <chembl_pref_name>
None

> <i_lp_mmshare_version>
53161

> <r_lp_tautomer_probability>
1

> <s_lp_Force_Field>
OPLS_2005

> <r_lp_Energy>
29.747046

> <b_lp_Chiralities_Consistent>
1

> <s_lp_Variant>
CHEMBL1966_lig397-1

> <s_i_glide_gridfile>
glide-grid_1d3g

> <i_i_glide_lignum>
447

> <i_i_glide_rotatable_bonds>
7

> <r_i_docking_score>
-9.78421589842239

> <r_i_glide_ligand_efficiency>
-0.349436282086514

> <r_i_glide_ligand_efficiency_sa>
-1.06109435937855

> <r_i_glide_ligand_efficiency_ln>
-2.25848430641763

> <r_i_glide_gscore>
-9.78421589842239

> <r_i_glide_lipo>
-4.76369133327418

> <r_i_glide_hbond>
-0.16

> <r_i_glide_metal>
0

> <r_i_glide_rewards>
-2.40579773792331

> <r_i_glide_evdw>
-44.4227256774902

> <r_i_glide_ecoul>
-6.00557851791382

> <r_i_glide_erotb>
0.667246234336674

> <r_i_glide_esite>
0

> <r_i_glide_emodel>
-70.6310957603051

> <r_i_glide_energy>
-50.4283041954041

> <r_i_glide_einternal>
3.54051089286804

> <i_i_glide_confnum>
107

> <i_i_glide_posenum>
352

> <r_i_glide_eff_state_penalty>
0

> <s_user_duplicate_titles>
CHEMBL1966_lig397

> <i_f3d_flags>
0

> <s_m_subgroup_title>
dock_pv

> <s_m_subgroupid>
dock_pv

> <b_m_subgroup_collapsed>
1

$$$$
CHEMBL1966_lig806
                    3D
 Schrodinger Suite 2021-1.
 51 53  0  0  1  0            999 V2000
   51.2230   45.1616   -0.2876 C   0  0  0  0  0  0
   52.0230   46.0913    0.3648 C   0  0  0  0  0  0
   53.1486   46.6054   -0.2679 C   0  0  0  0  0  0
   53.4800   46.2545   -1.5878 C   0  0  0  0  0  0
   52.6867   45.2577   -2.1903 C   0  0  0  0  0  0
   51.5698   44.6841   -1.5557 C   0  0  0  0  0  0
   50.8221   43.5329   -2.1653 C   0  0  0  0  0  0
   50.2949   42.5065   -1.3668 C   0  0  0  0  0  0
   49.5759   41.4254   -1.9032 C   0  0  0  0  0  0
   49.3864   41.3784   -3.2876 C   0  0  0  0  0  0
   49.8899   42.3873   -4.1139 C   0  0  0  0  0  0
   50.6247   43.4355   -3.5453 C   0  0  0  0  0  0
   49.6230   42.3440   -5.5926 C   0  0  0  0  0  0
   50.3857   43.2097   -6.3233 O   0  0  0  0  0  0
   48.8721   41.5096   -6.0990 O   0  0  0  0  0  0
   48.9354   40.4100   -0.9738 C   0  0  0  0  0  0
   47.9969   39.6036   -1.4625 N   0  0  0  0  0  0
   49.2230   40.4100    0.2168 O   0  0  0  0  0  0
   54.6130   46.9363   -2.3219 C   0  0  0  0  0  0
   55.0211   46.5312   -3.6032 C   0  0  0  0  0  0
   56.0213   47.2055   -4.3020 C   0  0  0  0  0  0
   56.6612   48.3182   -3.7454 C   0  0  0  0  0  0
   56.2778   48.7183   -2.4609 C   0  0  0  0  0  0
   55.2821   48.0387   -1.7664 C   0  0  0  0  0  0
   57.7911   49.0857   -4.4819 C   0  0  0  0  0  0
   58.0563   48.6053   -5.9372 C   0  0  0  0  0  0
   59.0936   48.8402   -3.7196 C   0  0  0  0  0  0
   57.5059   50.6028   -4.4990 C   0  0  0  0  0  0
   50.3603   44.7699    0.2308 H   0  0  0  0  0  0
   51.7723   46.4122    1.3654 H   0  0  0  0  0  0
   53.7324   47.3107    0.2973 H   0  0  0  0  0  0
   52.9300   44.8976   -3.1752 H   0  0  0  0  0  0
   50.4230   42.5640   -0.2981 H   0  0  0  0  0  0
   48.8255   40.5665   -3.7300 H   0  0  0  0  0  0
   51.0329   44.2013   -4.1865 H   0  0  0  0  0  0
   50.2081   43.1059   -7.2584 H   0  0  0  0  0  0
   47.7892   39.5777   -2.4472 H   0  0  0  0  0  0
   47.5384   38.9664   -0.8289 H   0  0  0  0  0  0
   54.5713   45.6880   -4.0989 H   0  0  0  0  0  0
   56.2821   46.8427   -5.2839 H   0  0  0  0  0  0
   56.7565   49.5608   -1.9843 H   0  0  0  0  0  0
   55.0421   48.4102   -0.7859 H   0  0  0  0  0  0
   58.9009   49.1345   -6.3800 H   0  0  0  0  0  0
   57.2230   48.7746   -6.6086 H   0  0  0  0  0  0
   58.3054   47.5441   -5.9798 H   0  0  0  0  0  0
   59.0627   49.2100   -2.6935 H   0  0  0  0  0  0
   59.2230   47.7633   -3.6990 H   0  0  0  0  0  0
   59.9612   49.2878   -4.2067 H   0  0  0  0  0  0
   57.6230   51.0418   -3.5086 H   0  0  0  0  0  0
   58.1900   51.1443   -5.1515 H   0  0  0  0  0  0
   56.4883   50.8100   -4.8310 H   0  0  0  0  0  0
  1  6  1  0  0  0
  1  2  2  0  0  0
  1 29  1  0  0  0
  2  3  1  0  0  0
  2 30  1  0  0  0
  3  4  2  0  0  0
  3 31  1  0  0  0
  4  5  1  0  0  0
  4 19  1  0  0  0
  5  6  2  0  0  0
  5 32  1  0  0  0
  6  7  1  0  0  0
  7  8  2  0  0  0
  7 12  1  0  0  0
  8  9  1  0  0  0
  8 33  1  0  0  0
  9 16  1  0  0  0
  9 10  2  0  0  0
 10 11  1  0  0  0
 10 34  1  0  0  0
 11 13  1  0  0  0
 11 12  2  0  0  0
 12 35  1  0  0  0
 13 14  1  0  0  0
 13 15  2  0  0  0
 14 36  1  0  0  0
 16 17  1  0  0  0
 16 18  2  0  0  0
 17 37  1  0  0  0
 17 38  1  0  0  0
 19 20  2  0  0  0
 19 24  1  0  0  0
 20 21  1  0  0  0
 20 39  1  0  0  0
 21 22  2  0  0  0
 21 40  1  0  0  0
 22 23  1  0  0  0
 22 25  1  0  0  0
 23 24  2  0  0  0
 23 41  1  0  0  0
 24 42  1  0  0  0
 25 26  1  0  0  0
 25 27  1  0  0  0
 25 28  1  0  0  0
 26 43  1  0  0  0
 26 44  1  0  0  0
 26 45  1  0  0  0
 27 46  1  0  0  0
 27 47  1  0  0  0
 27 48  1  0  0  0
 28 49  1  0  0  0
 28 50  1  0  0  0
 28 51  1  0  0  0
M  END
> <s_m_entry_id>
25558

> <s_m_entry_name>
dock_pv.210

> <s_m_Source_Path>
/home/csk/Desktop/cluster/DUD-E-result/pyrd

> <s_m_Source_File>
dock_pv.maegz

> <i_m_Source_File_Index>
210

> <chembl_id>
CHEMBL202667

> <chembl_pref_name>
None

> <i_lp_mmshare_version>
53161

> <r_lp_tautomer_probability>
1

> <s_lp_Force_Field>
OPLS_2005

> <r_lp_Energy>
26.352702

> <b_lp_Chiralities_Consistent>
1

> <s_lp_Variant>
CHEMBL1966_lig806-1

> <s_i_glide_gridfile>
glide-grid_1d3g

> <i_i_glide_lignum>
877

> <i_i_glide_rotatable_bonds>
6

> <r_i_docking_score>
-9.77149684027446

> <r_i_glide_ligand_efficiency>
-0.348982030009802

> <r_i_glide_ligand_efficiency_sa>
-1.05971498253348

> <r_i_glide_ligand_efficiency_ln>
-2.25554837434932

> <r_i_glide_gscore>
-9.77149684027446

> <r_i_glide_lipo>
-5.5539451086519

> <r_i_glide_hbond>
-0.0743842534342271

> <r_i_glide_metal>
0

> <r_i_glide_rewards>
-2.44350927289149

> <r_i_glide_evdw>
-34.6293792724609

> <r_i_glide_ecoul>
-2.55934166908264

> <r_i_glide_erotb>
0.415712008688591

> <r_i_glide_esite>
0

> <r_i_glide_emodel>
-51.4172710709073

> <r_i_glide_energy>
-37.1887209415436

> <r_i_glide_einternal>
2.23418188095093

> <i_i_glide_confnum>
8

> <i_i_glide_posenum>
181

> <r_i_glide_eff_state_penalty>
0

> <s_user_duplicate_titles>
CHEMBL1966_lig806

> <i_f3d_flags>
0

> <s_m_subgroup_title>
dock_pv

> <s_m_subgroupid>
dock_pv

> <b_m_subgroup_collapsed>
1

$$$$
CHEMBL1966_lig494
                    3D
 Schrodinger Suite 2021-1.
 45 48  0  0  1  0            999 V2000
   50.4493   43.4410   -6.0402 C   0  0  0  0  0  0
   51.2997   43.6101   -4.9056 O   0  0  0  0  0  0
   50.8773   43.1572   -3.6770 C   0  0  0  0  0  0
   50.0218   42.0485   -3.5686 C   0  0  0  0  0  0
   49.5608   41.5736   -2.3350 C   0  0  0  0  0  0
   50.0008   42.2639   -1.1950 C   0  0  0  0  0  0
   50.8230   43.3799   -1.2866 C   0  0  0  0  0  0
   51.3337   43.8101   -2.5145 C   0  0  0  0  0  0
   52.4230   44.8785   -2.4990 C   0  0  0  0  0  0
   52.7784   45.5793   -1.4459 N   0  0  0  0  0  0
   53.9413   46.2174   -1.8000 C   0  0  0  0  0  0
   54.8830   46.8724   -0.9905 C   0  0  0  0  0  0
   55.9435   47.5242   -1.6398 C   0  0  0  0  0  0
   56.1021   47.4822   -3.0259 C   0  0  0  0  0  0
   57.2637   48.2208   -3.6655 C   0  0  0  0  0  0
   55.2230   46.7563   -3.8324 C   0  0  0  0  0  0
   54.1701   46.1014   -3.1856 C   0  0  0  0  0  0
   53.2031   45.2100   -3.5838 N   0  0  0  0  0  0
   54.8227   46.8560    0.5022 C   0  0  0  0  0  0
   53.7642   46.8100    1.1205 O   0  0  0  0  0  0
   56.0401   46.8100    1.1010 O   0  0  0  0  0  0
   48.5430   40.4578   -2.2435 C   0  0  0  0  0  0
   47.7573   40.0949   -3.3532 C   0  0  0  0  0  0
   46.6914   39.2100   -3.2260 C   0  0  0  0  0  0
   46.4364   38.6101   -2.0004 C   0  0  0  0  0  0
   47.2230   38.9119   -0.8990 C   0  0  0  0  0  0
   48.2464   39.8481   -1.0117 C   0  0  0  0  0  0
   50.8230   44.0534   -6.8611 H   0  0  0  0  0  0
   50.4230   42.4100   -6.3919 H   0  0  0  0  0  0
   49.4283   43.7642   -5.8311 H   0  0  0  0  0  0
   49.7206   41.5437   -4.4693 H   0  0  0  0  0  0
   49.6594   41.9874   -0.2103 H   0  0  0  0  0  0
   51.1247   43.8725   -0.3735 H   0  0  0  0  0  0
   56.6785   48.0623   -1.0551 H   0  0  0  0  0  0
   57.0184   48.5377   -4.6799 H   0  0  0  0  0  0
   57.5046   49.1266   -3.1074 H   0  0  0  0  0  0
   58.1495   47.5859   -3.6988 H   0  0  0  0  0  0
   55.3796   46.6888   -4.8975 H   0  0  0  0  0  0
   53.0555   44.7984   -4.4946 H   0  0  0  0  0  0
   55.9112   46.8100    2.0563 H   0  0  0  0  0  0
   47.8990   40.5548   -4.3174 H   0  0  0  0  0  0
   46.0594   38.9908   -4.0742 H   0  0  0  0  0  0
   45.6230   37.9077   -1.8984 H   0  0  0  0  0  0
   47.0221   38.4404    0.0493 H   0  0  0  0  0  0
   48.8144   40.0688   -0.1217 H   0  0  0  0  0  0
  1  2  1  0  0  0
  1 28  1  0  0  0
  1 29  1  0  0  0
  1 30  1  0  0  0
  2  3  1  0  0  0
  3  4  2  0  0  0
  3  8  1  0  0  0
  4  5  1  0  0  0
  4 31  1  0  0  0
  5  6  2  0  0  0
  5 22  1  0  0  0
  6  7  1  0  0  0
  6 32  1  0  0  0
  7  8  2  0  0  0
  7 33  1  0  0  0
  8  9  1  0  0  0
  9 10  2  0  0  0
  9 18  1  0  0  0
 10 11  1  0  0  0
 11 12  2  0  0  0
 11 17  1  0  0  0
 12 13  1  0  0  0
 12 19  1  0  0  0
 13 14  2  0  0  0
 13 34  1  0  0  0
 14 15  1  0  0  0
 14 16  1  0  0  0
 15 35  1  0  0  0
 15 36  1  0  0  0
 15 37  1  0  0  0
 16 17  2  0  0  0
 16 38  1  0  0  0
 17 18  1  0  0  0
 18 39  1  0  0  0
 19 20  2  0  0  0
 19 21  1  0  0  0
 21 40  1  0  0  0
 22 23  2  0  0  0
 22 27  1  0  0  0
 23 24  1  0  0  0
 23 41  1  0  0  0
 24 25  2  0  0  0
 24 42  1  0  0  0
 25 26  1  0  0  0
 25 43  1  0  0  0
 26 27  2  0  0  0
 26 44  1  0  0  0
 27 45  1  0  0  0
M  END
> <s_m_entry_id>
25559

> <s_m_entry_name>
dock_pv.211

> <s_m_Source_Path>
/home/csk/Desktop/cluster/DUD-E-result/pyrd

> <s_m_Source_File>
dock_pv.maegz

> <i_m_Source_File_Index>
211

> <chembl_id>
CHEMBL3677751

> <chembl_pref_name>
None

> <i_lp_mmshare_version>
53161

> <r_lp_tautomer_probability>
1

> <s_lp_Force_Field>
OPLS_2005

> <r_lp_Energy>
30.154435

> <b_lp_Chiralities_Consistent>
1

> <s_lp_Variant>
CHEMBL1966_lig494-1

> <s_i_glide_gridfile>
glide-grid_1d3g

> <i_i_glide_lignum>
544

> <i_i_glide_rotatable_bonds>
5

> <r_i_docking_score>
-9.76382554409879

> <r_i_glide_ligand_efficiency>
-0.361623168299955

> <r_i_glide_ligand_efficiency_sa>
-1.08486950370801

> <r_i_glide_ligand_efficiency_ln>
-2.27285761742167

> <r_i_glide_gscore>
-9.76382554409879

> <r_i_glide_lipo>
-5.84360299974857

> <r_i_glide_hbond>
0

> <r_i_glide_metal>
0

> <r_i_glide_rewards>
-2.195479769631

> <r_i_glide_evdw>
-37.2705459594727

> <r_i_glide_ecoul>
-2.05744004249573

> <r_i_glide_erotb>
0.447400529628771

> <r_i_glide_esite>
0

> <r_i_glide_emodel>
-52.2151830282856

> <r_i_glide_energy>
-39.3279860019684

> <r_i_glide_einternal>
5.33147716522217

> <i_i_glide_confnum>
21

> <i_i_glide_posenum>
362

> <r_i_glide_eff_state_penalty>
0

> <s_user_duplicate_titles>
CHEMBL1966_lig494

> <i_f3d_flags>
0

> <s_m_subgroup_title>
dock_pv

> <s_m_subgroupid>
dock_pv

> <b_m_subgroup_collapsed>
1

$$$$
CHEMBL1966_lig446
                    3D
 Schrodinger Suite 2021-1.
 46 49  0  0  1  0            999 V2000
   51.5774   45.9592    0.0280 C   0  0  0  0  0  0
   51.8871   45.2848   -1.2989 C   0  0  0  0  0  0
   51.0220   44.2807   -1.7656 C   0  0  0  0  0  0
   51.2982   43.6106   -2.9656 C   0  0  0  0  0  0
   50.4910   42.6058   -3.5159 N   0  0  0  0  0  0
   49.6382   41.6501   -2.9422 C   0  0  0  0  0  0
   49.7458   41.3721   -1.5730 C   0  0  0  0  0  0
   48.9492   40.4119   -0.9642 C   0  0  0  0  0  0
   48.0154   39.7262   -1.7187 C   0  0  0  0  0  0
   47.9018   39.9823   -3.0870 C   0  0  0  0  0  0
   48.7030   40.9395   -3.7280 C   0  0  0  0  0  0
   48.5084   41.1780   -5.2156 C   0  0  0  0  0  0
   49.3718   41.6657   -5.9377 O   0  0  0  0  0  0
   47.2868   40.8107   -5.6975 O   0  0  0  0  0  0
   47.1249   38.7426   -0.9962 C   0  0  0  0  0  0
   46.1444   37.8522   -1.6996 C   0  0  0  0  0  0
   47.3991   37.2661   -1.0712 C   0  0  0  0  0  0
   52.4224   44.0099   -3.6814 C   0  0  0  0  0  0
   53.2667   44.9858   -3.2627 N   0  0  0  0  0  0
   53.0195   45.6097   -2.0776 C   0  0  0  0  0  0
   54.0841   46.5718   -1.6756 C   0  0  0  0  0  0
   54.7765   46.4114   -0.4686 C   0  0  0  0  0  0
   55.8135   47.2709   -0.1194 C   0  0  0  0  0  0
   56.1741   48.2980   -0.9866 C   0  0  0  0  0  0
   55.4987   48.4747   -2.1902 C   0  0  0  0  0  0
   54.4550   47.6176   -2.5301 C   0  0  0  0  0  0
   52.4436   46.0120    0.6815 H   0  0  0  0  0  0
   51.2234   46.9767   -0.1338 H   0  0  0  0  0  0
   50.8243   45.4001    0.5840 H   0  0  0  0  0  0
   50.1309   44.0426   -1.2052 H   0  0  0  0  0  0
   50.6102   42.4690   -4.5109 H   0  0  0  0  0  0
   50.4846   41.8657   -0.9634 H   0  0  0  0  0  0
   49.0611   40.2116    0.0910 H   0  0  0  0  0  0
   47.1888   39.4168   -3.6594 H   0  0  0  0  0  0
   46.6896   40.6322   -4.9678 H   0  0  0  0  0  0
   46.7976   39.1070   -0.0214 H   0  0  0  0  0  0
   46.0309   37.9601   -2.7739 H   0  0  0  0  0  0
   45.1955   37.6290   -1.2434 H   0  0  0  0  0  0
   47.3392   36.7125   -0.1372 H   0  0  0  0  0  0
   48.2204   36.9232   -1.7010 H   0  0  0  0  0  0
   52.6876   43.5007   -4.5899 H   0  0  0  0  0  0
   54.5379   45.5979    0.1982 H   0  0  0  0  0  0
   56.3429   47.1355    0.8133 H   0  0  0  0  0  0
   56.9864   48.9580   -0.7214 H   0  0  0  0  0  0
   55.7887   49.2714   -2.8601 H   0  0  0  0  0  0
   53.9442   47.7537   -3.4719 H   0  0  0  0  0  0
  1  2  1  0  0  0
  1 27  1  0  0  0
  1 28  1  0  0  0
  1 29  1  0  0  0
  2  3  2  0  0  0
  2 20  1  0  0  0
  3  4  1  0  0  0
  3 30  1  0  0  0
  4  5  1  0  0  0
  4 18  2  0  0  0
  5  6  1  0  0  0
  5 31  1  0  0  0
  6  7  2  0  0  0
  6 11  1  0  0  0
  7  8  1  0  0  0
  7 32  1  0  0  0
  8  9  2  0  0  0
  8 33  1  0  0  0
  9 10  1  0  0  0
  9 15  1  0  0  0
 10 11  2  0  0  0
 10 34  1  0  0  0
 11 12  1  0  0  0
 12 13  2  0  0  0
 12 14  1  0  0  0
 14 35  1  0  0  0
 15 16  1  0  0  0
 15 17  1  0  0  0
 15 36  1  0  0  0
 16 17  1  0  0  0
 16 37  1  0  0  0
 16 38  1  0  0  0
 17 39  1  0  0  0
 17 40  1  0  0  0
 18 19  1  0  0  0
 18 41  1  0  0  0
 19 20  2  0  0  0
 20 21  1  0  0  0
 21 22  2  0  0  0
 21 26  1  0  0  0
 22 23  1  0  0  0
 22 42  1  0  0  0
 23 24  2  0  0  0
 23 43  1  0  0  0
 24 25  1  0  0  0
 24 44  1  0  0  0
 25 26  2  0  0  0
 25 45  1  0  0  0
 26 46  1  0  0  0
M  END
> <s_m_entry_id>
25560

> <s_m_entry_name>
dock_pv.212

> <s_m_Source_Path>
/home/csk/Desktop/cluster/DUD-E-result/pyrd

> <s_m_Source_File>
dock_pv.maegz

> <i_m_Source_File_Index>
212

> <chembl_id>
CHEMBL3674656

> <chembl_pref_name>
None

> <i_lp_mmshare_version>
53161

> <r_lp_tautomer_probability>
0.999999999999999

> <s_lp_Force_Field>
OPLS_2005

> <r_lp_Energy>
37.090523

> <b_lp_Chiralities_Consistent>
1

> <s_lp_Variant>
CHEMBL1966_lig446-1

> <s_i_glide_gridfile>
glide-grid_1d3g

> <i_i_glide_lignum>
496

> <i_i_glide_rotatable_bonds>
6

> <r_i_docking_score>
-9.75073577581126

> <r_i_glide_ligand_efficiency>
-0.375028299069664

> <r_i_glide_ligand_efficiency_sa>
-1.11101986032878

> <r_i_glide_ligand_efficiency_ln>
-2.28992830217558

> <r_i_glide_gscore>
-9.75073577581126

> <r_i_glide_lipo>
-5.92834513495027

> <r_i_glide_hbond>
0

> <r_i_glide_metal>
0

> <r_i_glide_rewards>
-2.25038957201322

> <r_i_glide_evdw>
-42.9784126281738

> <r_i_glide_ecoul>
-1.48959302902222

> <r_i_glide_erotb>
0.800358516914251

> <r_i_glide_esite>
0

> <r_i_glide_emodel>
-62.16859565806

> <r_i_glide_energy>
-44.468005657196

> <r_i_glide_einternal>
14.7975378036499

> <i_i_glide_confnum>
216

> <i_i_glide_posenum>
245

> <r_i_glide_eff_state_penalty>
0

> <s_user_duplicate_titles>
CHEMBL1966_lig446

> <i_f3d_flags>
0

> <s_m_subgroup_title>
dock_pv

> <s_m_subgroupid>
dock_pv

> <b_m_subgroup_collapsed>
1

$$$$
CHEMBL1966_lig742
                    3D
 Schrodinger Suite 2021-1.
 51 53  0  0  1  0            999 V2000
   50.1013   42.1202   -1.7035 N   0  0  0  0  0  0
   49.0004   41.4938   -4.2095 C   0  0  0  0  0  0
   50.4219   42.8616   -2.7957 C   0  0  0  0  0  0
   49.8923   42.5815   -4.0711 C   0  0  0  0  0  0
   48.6283   40.7248   -3.0554 C   0  0  0  0  0  0
   49.2230   41.0905   -1.8124 C   0  0  0  0  0  0
   48.4630   41.1289   -5.5640 C   0  0  0  0  0  0
   51.3621   43.9899   -2.4990 C   0  0  0  0  0  0
   47.6749   39.6552   -3.0488 C   0  0  0  0  0  0
   49.2230   40.8100   -6.4724 O   0  0  0  0  0  0
   48.8531   40.4100   -0.6248 C   0  0  0  0  0  0
   52.4961   44.1965   -3.2990 C   0  0  0  0  0  0
   51.1638   44.8276   -1.3891 C   0  0  0  0  0  0
   47.3097   39.0298   -1.8600 C   0  0  0  0  0  0
   47.1078   41.2100   -5.6990 O   0  0  0  0  0  0
   50.2115   43.4709   -5.2846 C   0  0  0  0  0  0
   47.8930   39.4068   -0.6605 C   0  0  0  0  0  0
   52.0786   45.8361   -1.0829 C   0  0  0  0  0  0
   53.4178   45.1922   -2.9825 C   0  0  0  0  0  0
   46.3713   38.0589   -1.8633 F   0  0  0  0  0  0
   53.2228   46.0100   -1.8679 C   0  0  0  0  0  0
   54.3062   47.0018   -1.4460 C   0  0  0  0  0  0
   54.8425   47.9242   -2.5676 C   0  0  0  0  0  0
   58.2809   49.8196   -3.0659 C   0  0  0  0  0  0
   56.8202   49.4051   -3.3337 C   0  0  0  0  0  0
   56.1579   48.6289   -2.1739 C   0  0  0  0  0  0
   58.4692   50.7931   -1.8903 C   0  0  0  0  0  0
   47.2021   39.3308   -3.9622 H   0  0  0  0  0  0
   49.3039   40.6951    0.3147 H   0  0  0  0  0  0
   52.7012   43.5406   -4.1320 H   0  0  0  0  0  0
   50.2985   44.6943   -0.7555 H   0  0  0  0  0  0
   46.6813   41.5770   -4.9201 H   0  0  0  0  0  0
   50.8338   42.9382   -6.0025 H   0  0  0  0  0  0
   49.2916   43.7456   -5.8022 H   0  0  0  0  0  0
   50.6963   44.4100   -5.0412 H   0  0  0  0  0  0
   47.6011   38.9099    0.2512 H   0  0  0  0  0  0
   51.9142   46.4505   -0.2096 H   0  0  0  0  0  0
   54.3081   45.2820   -3.5862 H   0  0  0  0  0  0
   55.1255   46.4017   -1.0465 H   0  0  0  0  0  0
   53.9544   47.6101   -0.6122 H   0  0  0  0  0  0
   54.0826   48.6597   -2.8350 H   0  0  0  0  0  0
   55.0322   47.3477   -3.4724 H   0  0  0  0  0  0
   58.6901   50.2783   -3.9671 H   0  0  0  0  0  0
   58.8792   48.9238   -2.8984 H   0  0  0  0  0  0
   56.2337   50.2887   -3.5786 H   0  0  0  0  0  0
   56.8084   48.7854   -4.2316 H   0  0  0  0  0  0
   56.8634   47.8780   -1.8132 H   0  0  0  0  0  0
   55.9761   49.2993   -1.3330 H   0  0  0  0  0  0
   59.5284   50.9599   -1.6927 H   0  0  0  0  0  0
   58.0231   50.4100   -0.9729 H   0  0  0  0  0  0
   58.0230   51.7643   -2.0990 H   0  0  0  0  0  0
  1  3  2  0  0  0
  1  6  1  0  0  0
  2  5  1  0  0  0
  2  7  1  0  0  0
  2  4  2  0  0  0
  3  4  1  0  0  0
  3  8  1  0  0  0
  4 16  1  0  0  0
  5  6  1  0  0  0
  5  9  2  0  0  0
  6 11  2  0  0  0
  7 10  2  0  0  0
  7 15  1  0  0  0
  8 12  2  0  0  0
  8 13  1  0  0  0
  9 14  1  0  0  0
  9 28  1  0  0  0
 11 17  1  0  0  0
 11 29  1  0  0  0
 12 19  1  0  0  0
 12 30  1  0  0  0
 13 18  2  0  0  0
 13 31  1  0  0  0
 14 17  2  0  0  0
 14 20  1  0  0  0
 15 32  1  0  0  0
 16 33  1  0  0  0
 16 34  1  0  0  0
 16 35  1  0  0  0
 17 36  1  0  0  0
 18 21  1  0  0  0
 18 37  1  0  0  0
 19 21  2  0  0  0
 19 38  1  0  0  0
 21 22  1  0  0  0
 22 23  1  0  0  0
 22 39  1  0  0  0
 22 40  1  0  0  0
 23 26  1  0  0  0
 23 41  1  0  0  0
 23 42  1  0  0  0
 24 25  1  0  0  0
 24 27  1  0  0  0
 24 43  1  0  0  0
 24 44  1  0  0  0
 25 26  1  0  0  0
 25 45  1  0  0  0
 25 46  1  0  0  0
 26 47  1  0  0  0
 26 48  1  0  0  0
 27 49  1  0  0  0
 27 50  1  0  0  0
 27 51  1  0  0  0
M  END
> <s_m_entry_id>
25561

> <s_m_entry_name>
dock_pv.213

> <s_m_Source_Path>
/home/csk/Desktop/cluster/DUD-E-result/pyrd

> <s_m_Source_File>
dock_pv.maegz

> <i_m_Source_File_Index>
213

> <chembl_id>
CHEMBL36981

> <chembl_pref_name>
None

> <i_lp_mmshare_version>
53161

> <r_lp_tautomer_probability>
1

> <s_lp_Force_Field>
OPLS_2005

> <r_lp_Energy>
24.958839

> <b_lp_Chiralities_Consistent>
1

> <s_lp_Variant>
CHEMBL1966_lig742-1

> <s_i_glide_gridfile>
glide-grid_1d3g

> <i_i_glide_lignum>
813

> <i_i_glide_rotatable_bonds>
8

> <r_i_docking_score>
-9.74241427043133

> <r_i_glide_ligand_efficiency>
-0.360830158164123

> <r_i_glide_ligand_efficiency_sa>
-1.08249047330313

> <r_i_glide_ligand_efficiency_ln>
-2.26787342590432

> <r_i_glide_gscore>
-9.74241427043133

> <r_i_glide_lipo>
-5.71650875385422

> <r_i_glide_hbond>
-0.16

> <r_i_glide_metal>
0

> <r_i_glide_rewards>
-1.92732281207426

> <r_i_glide_evdw>
-35.6853446960449

> <r_i_glide_ecoul>
-6.79039621353149

> <r_i_glide_erotb>
0.864243962329121

> <r_i_glide_esite>
0

> <r_i_glide_emodel>
-64.2894932242763

> <r_i_glide_energy>
-42.4757409095764

> <r_i_glide_einternal>
6.24509525299072

> <i_i_glide_confnum>
69

> <i_i_glide_posenum>
362

> <r_i_glide_eff_state_penalty>
0

> <s_user_duplicate_titles>
CHEMBL1966_lig742,57351

> <i_f3d_flags>
0

> <s_m_subgroup_title>
dock_pv

> <s_m_subgroupid>
dock_pv

> <b_m_subgroup_collapsed>
1

$$$$
CHEMBL1966_lig499
                    3D
 Schrodinger Suite 2021-1.
 39 42  0  0  1  0            999 V2000
   45.6237   40.3857   -5.1854 O   0  0  0  0  0  0
   46.9702   40.4101   -4.9812 C   0  0  0  0  0  0
   47.7645   40.8100   -5.8300 O   0  0  0  0  0  0
   47.3920   40.0101   -3.5968 C   0  0  0  0  0  0
   46.6537   39.0397   -2.8994 C   0  0  0  0  0  0
   46.9138   38.7230   -1.5696 C   0  0  0  0  0  0
   47.9025   39.3782   -0.8412 C   0  0  0  0  0  0
   48.6462   40.3417   -1.5229 C   0  0  0  0  0  0
   49.6230   41.2113   -1.1200 N   0  0  0  0  0  0
   49.9163   42.0179   -2.1916 C   0  0  0  0  0  0
   49.3042   41.6404   -3.2886 N   0  0  0  0  0  0
   48.4444   40.6385   -2.8949 C   0  0  0  0  0  0
   50.7354   43.2494   -2.0506 C   0  0  0  0  0  0
   50.5462   44.0366   -0.9089 C   0  0  0  0  0  0
   51.2692   45.2097   -0.7455 C   0  0  0  0  0  0
   52.2082   45.5829   -1.6990 C   0  0  0  0  0  0
   52.7799   46.8102   -1.5679 O   0  0  0  0  0  0
   54.1364   46.9670   -1.4793 C   0  0  0  0  0  0
   54.8671   47.4210   -2.5828 C   0  0  0  0  0  0
   54.2736   47.5575   -3.7886 F   0  0  0  0  0  0
   56.2065   47.7786   -2.4356 C   0  0  0  0  0  0
   56.8150   47.6944   -1.1849 C   0  0  0  0  0  0
   56.0956   47.2100   -0.0920 C   0  0  0  0  0  0
   54.7604   46.8448   -0.2356 C   0  0  0  0  0  0
   54.0607   46.4222    0.8422 F   0  0  0  0  0  0
   52.4230   44.8013   -2.8355 C   0  0  0  0  0  0
   51.6477   43.6485   -3.0315 C   0  0  0  0  0  0
   45.3787   40.8491   -5.9861 H   0  0  0  0  0  0
   45.8360   38.5281   -3.3884 H   0  0  0  0  0  0
   46.3120   37.9707   -1.0821 H   0  0  0  0  0  0
   48.0710   39.1524    0.2000 H   0  0  0  0  0  0
   50.0115   41.3454   -0.1997 H   0  0  0  0  0  0
   49.8180   43.7631   -0.1589 H   0  0  0  0  0  0
   51.1057   45.8385    0.1161 H   0  0  0  0  0  0
   56.7633   48.1484   -3.2843 H   0  0  0  0  0  0
   57.8406   48.0098   -1.0592 H   0  0  0  0  0  0
   56.5682   47.1457    0.8776 H   0  0  0  0  0  0
   53.1259   45.1175   -3.5921 H   0  0  0  0  0  0
   51.7844   43.0525   -3.9225 H   0  0  0  0  0  0
  1  2  1  0  0  0
  1 28  1  0  0  0
  2  3  2  0  0  0
  2  4  1  0  0  0
  4  5  2  0  0  0
  4 12  1  0  0  0
  5  6  1  0  0  0
  5 29  1  0  0  0
  6  7  2  0  0  0
  6 30  1  0  0  0
  7  8  1  0  0  0
  7 31  1  0  0  0
  8  9  1  0  0  0
  8 12  2  0  0  0
  9 10  1  0  0  0
  9 32  1  0  0  0
 10 11  2  0  0  0
 10 13  1  0  0  0
 11 12  1  0  0  0
 13 14  2  0  0  0
 13 27  1  0  0  0
 14 15  1  0  0  0
 14 33  1  0  0  0
 15 16  2  0  0  0
 15 34  1  0  0  0
 16 17  1  0  0  0
 16 26  1  0  0  0
 17 18  1  0  0  0
 18 19  2  0  0  0
 18 24  1  0  0  0
 19 20  1  0  0  0
 19 21  1  0  0  0
 21 22  2  0  0  0
 21 35  1  0  0  0
 22 23  1  0  0  0
 22 36  1  0  0  0
 23 24  2  0  0  0
 23 37  1  0  0  0
 24 25  1  0  0  0
 26 27  2  0  0  0
 26 38  1  0  0  0
 27 39  1  0  0  0
M  END
> <s_m_entry_id>
25562

> <s_m_entry_name>
dock_pv.214

> <s_m_Source_Path>
/home/csk/Desktop/cluster/DUD-E-result/pyrd

> <s_m_Source_File>
dock_pv.maegz

> <i_m_Source_File_Index>
214

> <chembl_id>
CHEMBL3677757

> <chembl_pref_name>
None

> <i_lp_mmshare_version>
53161

> <r_lp_tautomer_probability>
1

> <s_lp_Force_Field>
OPLS_2005

> <r_lp_Energy>
24.070839

> <b_lp_Chiralities_Consistent>
1

> <s_lp_Variant>
CHEMBL1966_lig499-1

> <s_i_glide_gridfile>
glide-grid_1d3g

> <i_i_glide_lignum>
549

> <i_i_glide_rotatable_bonds>
5

> <r_i_docking_score>
-9.73541438768448

> <r_i_glide_ligand_efficiency>
-0.360570903247573

> <r_i_glide_ligand_efficiency_sa>
-1.08171270855434

> <r_i_glide_ligand_efficiency_ln>
-2.26624396860294

> <r_i_glide_gscore>
-9.73541438768448

> <r_i_glide_lipo>
-5.15447262725807

> <r_i_glide_hbond>
-0.123140739340635

> <r_i_glide_metal>
0

> <r_i_glide_rewards>
-2.81882449573845

> <r_i_glide_evdw>
-39.5072250366211

> <r_i_glide_ecoul>
-1.56378257274628

> <r_i_glide_erotb>
0.573701917372997

> <r_i_glide_esite>
-0.00274980497732317

> <r_i_glide_emodel>
-48.5950140194764

> <r_i_glide_energy>
-41.0710076093674

> <r_i_glide_einternal>
11.1006193161011

> <i_i_glide_confnum>
13

> <i_i_glide_posenum>
69

> <r_i_glide_eff_state_penalty>
0

> <s_user_duplicate_titles>
CHEMBL1966_lig499

> <i_f3d_flags>
0

> <s_m_subgroup_title>
dock_pv

> <s_m_subgroupid>
dock_pv

> <b_m_subgroup_collapsed>
1

$$$$
CHEMBL1966_lig34
                    3D
 Schrodinger Suite 2021-1.
 41 43  0  0  1  0            999 V2000
   48.8236   41.0249   -3.0015 C   0  0  0  0  0  0
   49.7230   42.1052   -3.4162 C   0  0  0  0  0  0
   47.8550   40.4100   -3.7454 C   0  0  0  0  0  0
   50.2018   42.8022   -2.3665 N   0  0  0  0  0  0
   47.5072   40.7088   -5.1285 C   0  0  0  0  0  0
   51.1494   43.8355   -2.3308 C   0  0  0  0  0  0
   53.1293   45.8133   -1.9860 C   0  0  0  0  0  0
   51.1218   44.6782   -1.2144 C   0  0  0  0  0  0
   52.0949   45.6641   -1.0522 C   0  0  0  0  0  0
   54.2565   46.7537   -1.7460 C   0  0  0  0  0  0
   50.0223   42.3599   -4.5802 O   0  0  0  0  0  0
   48.3013   40.8100   -6.0616 O   0  0  0  0  0  0
   54.7625   47.5654   -2.7723 C   0  0  0  0  0  0
   52.1492   44.0100   -3.2990 C   0  0  0  0  0  0
   53.1272   44.9923   -3.1194 C   0  0  0  0  0  0
   50.1849   44.5028   -0.2519 F   0  0  0  0  0  0
   46.1584   40.8100   -5.3003 O   0  0  0  0  0  0
   55.8621   48.3961   -2.5493 C   0  0  0  0  0  0
   48.8541   40.4501   -1.5887 C   0  0  0  0  0  0
   47.0969   39.3736   -2.9130 C   0  0  0  0  0  0
   56.3436   49.1837   -3.5598 O   0  0  0  0  0  0
   47.6963   39.4631   -1.5187 C   0  0  0  0  0  0
   54.8788   46.7979   -0.4911 C   0  0  0  0  0  0
   55.9895   47.6099   -0.2736 C   0  0  0  0  0  0
   56.4773   48.4173   -1.2990 C   0  0  0  0  0  0
   49.7812   42.5998   -1.4733 H   0  0  0  0  0  0
   52.0690   46.2826   -0.1669 H   0  0  0  0  0  0
   54.3034   47.5530   -3.7505 H   0  0  0  0  0  0
   52.2178   43.3628   -4.1605 H   0  0  0  0  0  0
   53.9225   45.0860   -3.8413 H   0  0  0  0  0  0
   45.6816   40.7787   -4.4689 H   0  0  0  0  0  0
   48.8230   41.1902   -0.7894 H   0  0  0  0  0  0
   49.8281   40.0100   -1.4601 H   0  0  0  0  0  0
   47.2462   38.3687   -3.2990 H   0  0  0  0  0  0
   46.0221   39.5570   -2.8870 H   0  0  0  0  0  0
   57.0538   49.7617   -3.2726 H   0  0  0  0  0  0
   46.9546   39.7909   -0.7899 H   0  0  0  0  0  0
   48.0230   38.4838   -1.1664 H   0  0  0  0  0  0
   54.5255   46.1711    0.3154 H   0  0  0  0  0  0
   56.4757   47.6100    0.6909 H   0  0  0  0  0  0
   57.3375   49.0454   -1.1164 H   0  0  0  0  0  0
  1  2  1  0  0  0
  1  3  2  0  0  0
  1 19  1  0  0  0
  2  4  1  0  0  0
  2 11  2  0  0  0
  3  5  1  0  0  0
  3 20  1  0  0  0
  4  6  1  0  0  0
  4 26  1  0  0  0
  5 12  2  0  0  0
  5 17  1  0  0  0
  6  8  1  0  0  0
  6 14  2  0  0  0
  7 15  2  0  0  0
  7 10  1  0  0  0
  7  9  1  0  0  0
  8  9  2  0  0  0
  8 16  1  0  0  0
  9 27  1  0  0  0
 10 13  2  0  0  0
 10 23  1  0  0  0
 13 18  1  0  0  0
 13 28  1  0  0  0
 14 15  1  0  0  0
 14 29  1  0  0  0
 15 30  1  0  0  0
 17 31  1  0  0  0
 18 21  1  0  0  0
 18 25  2  0  0  0
 19 22  1  0  0  0
 19 32  1  0  0  0
 19 33  1  0  0  0
 20 22  1  0  0  0
 20 34  1  0  0  0
 20 35  1  0  0  0
 21 36  1  0  0  0
 22 37  1  0  0  0
 22 38  1  0  0  0
 23 24  2  0  0  0
 23 39  1  0  0  0
 24 25  1  0  0  0
 24 40  1  0  0  0
 25 41  1  0  0  0
M  END
> <s_m_entry_id>
25563

> <s_m_entry_name>
dock_pv.215

> <s_m_Source_Path>
/home/csk/Desktop/cluster/DUD-E-result/pyrd

> <s_m_Source_File>
dock_pv.maegz

> <i_m_Source_File_Index>
215

> <chembl_id>
CHEMBL345685

> <chembl_pref_name>
None

> <i_lp_mmshare_version>
53161

> <r_lp_tautomer_probability>
0.999999999997365

> <s_lp_Force_Field>
OPLS_2005

> <r_lp_Energy>
41.385973

> <b_lp_Chiralities_Consistent>
1

> <s_lp_Variant>
CHEMBL1966_lig34-1

> <s_i_glide_gridfile>
glide-grid_1d3g

> <i_i_glide_lignum>
38

> <i_i_glide_rotatable_bonds>
7

> <r_i_docking_score>
-9.73497047726832

> <r_i_glide_ligand_efficiency>
-0.389398819090733

> <r_i_glide_ligand_efficiency_sa>
-1.13860905303877

> <r_i_glide_ligand_efficiency_ln>
-2.30747973663635

> <r_i_glide_gscore>
-9.73497047726832

> <r_i_glide_lipo>
-5.06068249039348

> <r_i_glide_hbond>
-0.16

> <r_i_glide_metal>
0

> <r_i_glide_rewards>
-2.80031680880519

> <r_i_glide_evdw>
-39.2071914672852

> <r_i_glide_ecoul>
-3.77866840362549

> <r_i_glide_erotb>
0.813188655838433

> <r_i_glide_esite>
0

> <r_i_glide_emodel>
-62.9358750666578

> <r_i_glide_energy>
-42.9858598709106

> <r_i_glide_einternal>
5.36962509155273

> <i_i_glide_confnum>
10

> <i_i_glide_posenum>
132

> <r_i_glide_eff_state_penalty>
0

> <s_user_duplicate_titles>
CHEMBL1966_lig34,257607

> <i_f3d_flags>
0

> <s_m_subgroup_title>
dock_pv

> <s_m_subgroupid>
dock_pv

> <b_m_subgroup_collapsed>
1

$$$$
CHEMBL1966_lig273
                    3D
 Schrodinger Suite 2021-1.
 45 48  0  0  1  0            999 V2000
   47.7792   40.4106   -4.5462 C   0  0  0  0  0  0
   47.5641   39.8943   -3.2495 C   0  0  0  0  0  0
   48.7948   41.3384   -4.7724 C   0  0  0  0  0  0
   50.6191   42.7003   -4.0482 N   0  0  0  0  0  0
   49.6150   41.7751   -3.7331 C   0  0  0  0  0  0
   52.9664   44.9902   -2.8741 C   0  0  0  0  0  0
   50.8229   44.1557   -1.6992 S   0  0  0  0  0  0
   55.9288   46.9162    0.3140 C   0  0  0  0  0  0
   52.2109   45.2102   -1.6991 C   0  0  0  0  0  0
   53.8105   46.2200   -0.4489 O   0  0  0  0  0  0
   51.6484   46.3531    0.3223 O   0  0  0  0  0  0
   48.4230   40.3082   -2.1884 C   0  0  0  0  0  0
   52.4356   44.1052   -3.6990 N   0  0  0  0  0  0
   52.4873   46.0103   -0.5145 C   0  0  0  0  0  0
   49.4549   41.2369   -2.4551 C   0  0  0  0  0  0
   54.4634   46.6958    0.7028 C   0  0  0  0  0  0
   51.3185   43.5884   -3.2696 C   0  0  0  0  0  0
   54.2927   45.5951   -3.2142 C   0  0  0  0  0  0
   55.4244   44.7763   -3.2987 C   0  0  0  0  0  0
   56.6755   45.3340   -3.5482 C   0  0  0  0  0  0
   56.7928   46.7123   -3.7144 C   0  0  0  0  0  0
   55.6717   47.5363   -3.6327 C   0  0  0  0  0  0
   54.4215   46.9773   -3.3789 C   0  0  0  0  0  0
   46.5197   38.9780   -2.9703 C   0  0  0  0  0  0
   46.3836   38.4324   -1.7012 C   0  0  0  0  0  0
   47.2217   38.8306   -0.6747 C   0  0  0  0  0  0
   48.2070   39.7862   -0.8889 C   0  0  0  0  0  0
   47.1289   40.1008   -5.3499 H   0  0  0  0  0  0
   48.9234   41.7461   -5.7643 H   0  0  0  0  0  0
   50.8438   42.6864   -5.0309 H   0  0  0  0  0  0
   56.5274   47.1966    1.1799 H   0  0  0  0  0  0
   56.3657   46.0104   -0.1073 H   0  0  0  0  0  0
   56.0243   47.7082   -0.4289 H   0  0  0  0  0  0
   50.1121   41.5134   -1.6460 H   0  0  0  0  0  0
   54.0099   47.6100    1.0708 H   0  0  0  0  0  0
   54.3865   45.9533    1.4988 H   0  0  0  0  0  0
   55.3347   43.7085   -3.1574 H   0  0  0  0  0  0
   57.5509   44.7038   -3.6056 H   0  0  0  0  0  0
   57.7641   47.1460   -3.9031 H   0  0  0  0  0  0
   55.7735   48.6046   -3.7568 H   0  0  0  0  0  0
   53.5550   47.6172   -3.2972 H   0  0  0  0  0  0
   45.8446   38.6763   -3.7565 H   0  0  0  0  0  0
   45.6212   37.6947   -1.5081 H   0  0  0  0  0  0
   47.0947   38.3946    0.3005 H   0  0  0  0  0  0
   48.8475   40.0935   -0.0749 H   0  0  0  0  0  0
  1  2  2  0  0  0
  1  3  1  0  0  0
  1 28  1  0  0  0
  2 12  1  0  0  0
  2 24  1  0  0  0
  3  5  2  0  0  0
  3 29  1  0  0  0
  4 17  1  0  0  0
  4  5  1  0  0  0
  4 30  1  0  0  0
  5 15  1  0  0  0
  6  9  2  0  0  0
  6 13  1  0  0  0
  6 18  1  0  0  0
  7 17  1  0  0  0
  7  9  1  0  0  0
  8 16  1  0  0  0
  8 31  1  0  0  0
  8 32  1  0  0  0
  8 33  1  0  0  0
  9 14  1  0  0  0
 10 14  1  0  0  0
 10 16  1  0  0  0
 11 14  2  0  0  0
 12 15  2  0  0  0
 12 27  1  0  0  0
 13 17  2  0  0  0
 15 34  1  0  0  0
 16 35  1  0  0  0
 16 36  1  0  0  0
 18 19  2  0  0  0
 18 23  1  0  0  0
 19 20  1  0  0  0
 19 37  1  0  0  0
 20 21  2  0  0  0
 20 38  1  0  0  0
 21 22  1  0  0  0
 21 39  1  0  0  0
 22 23  2  0  0  0
 22 40  1  0  0  0
 23 41  1  0  0  0
 24 25  2  0  0  0
 24 42  1  0  0  0
 25 26  1  0  0  0
 25 43  1  0  0  0
 26 27  2  0  0  0
 26 44  1  0  0  0
 27 45  1  0  0  0
M  END
> <s_m_entry_id>
25564

> <s_m_entry_name>
dock_pv.216

> <s_m_Source_Path>
/home/csk/Desktop/cluster/DUD-E-result/pyrd

> <s_m_Source_File>
dock_pv.maegz

> <i_m_Source_File_Index>
216

> <chembl_id>
CHEMBL3410610

> <chembl_pref_name>
None

> <i_lp_mmshare_version>
53161

> <r_lp_tautomer_probability>
1

> <s_lp_Force_Field>
OPLS_2005

> <r_lp_Energy>
20.57526

> <b_lp_Chiralities_Consistent>
1

> <s_lp_Variant>
CHEMBL1966_lig273-1

> <s_i_glide_gridfile>
glide-grid_1d3g

> <i_i_glide_lignum>
319

> <i_i_glide_rotatable_bonds>
6

> <r_i_docking_score>
-9.7330087642264

> <r_i_glide_ligand_efficiency>
-0.360481806082459

> <r_i_glide_ligand_efficiency_sa>
-1.08144541705929

> <r_i_glide_ligand_efficiency_ln>
-2.2656839791217

> <r_i_glide_gscore>
-9.7330087642264

> <r_i_glide_lipo>
-6.25456288910599

> <r_i_glide_hbond>
0

> <r_i_glide_metal>
0

> <r_i_glide_rewards>
-1.85200807834247

> <r_i_glide_evdw>
-45.965648651123

> <r_i_glide_ecoul>
-0.117744788527489

> <r_i_glide_erotb>
0.689506354057341

> <r_i_glide_esite>
0

> <r_i_glide_emodel>
-60.0714067578215

> <r_i_glide_energy>
-46.0833934396505

> <r_i_glide_einternal>
10.7366552352905

> <i_i_glide_confnum>
40

> <i_i_glide_posenum>
323

> <r_i_glide_eff_state_penalty>
0

> <s_user_duplicate_titles>
CHEMBL1966_lig273

> <i_f3d_flags>
0

> <s_m_subgroup_title>
dock_pv

> <s_m_subgroupid>
dock_pv

> <b_m_subgroup_collapsed>
1

$$$$
CHEMBL1966_lig263
                    3D
 Schrodinger Suite 2021-1.
 40 43  0  0  1  0            999 V2000
   48.6406   40.8555   -4.4990 C   0  0  0  0  0  0
   47.8839   39.9407   -3.5403 C   0  0  0  0  0  0
   49.8550   42.0134   -2.2434 S   0  0  0  0  0  0
   50.8152   43.4094   -2.5691 C   0  0  0  0  0  0
   51.0284   43.6100   -3.8394 N   0  0  0  0  0  0
   50.3028   42.8405   -4.6174 C   0  0  0  0  0  0
   49.5681   41.8478   -3.9615 C   0  0  0  0  0  0
   50.3445   43.2051   -6.0851 C   0  0  0  0  0  0
   51.1734   44.2300   -1.5226 N   0  0  0  0  0  0
   52.1211   45.2692   -1.4606 C   0  0  0  0  0  0
   52.2429   45.9434   -0.2447 C   0  0  0  0  0  0
   53.3081   46.8032   -0.0037 C   0  0  0  0  0  0
   54.2329   47.1001   -1.0325 C   0  0  0  0  0  0
   54.0768   46.4813   -2.3034 C   0  0  0  0  0  0
   53.0272   45.5527   -2.4925 C   0  0  0  0  0  0
   48.4231   40.7526   -5.7063 O   0  0  0  0  0  0
   55.3028   48.0006   -0.8455 C   0  0  0  0  0  0
   56.1945   48.3499   -1.8821 C   0  0  0  0  0  0
   56.0437   47.7256   -3.1534 C   0  0  0  0  0  0
   54.9925   46.7991   -3.3315 C   0  0  0  0  0  0
   57.2240   49.3031   -1.6990 C   0  0  0  0  0  0
   58.0867   49.6168   -2.7460 C   0  0  0  0  0  0
   57.9520   48.9942   -3.9828 C   0  0  0  0  0  0
   56.9463   48.0541   -4.1947 C   0  0  0  0  0  0
   48.5830   39.3962   -2.9060 H   0  0  0  0  0  0
   47.2902   39.2108   -4.0901 H   0  0  0  0  0  0
   47.2197   40.5181   -2.9002 H   0  0  0  0  0  0
   50.3224   42.3291   -6.7322 H   0  0  0  0  0  0
   49.4806   43.8203   -6.3307 H   0  0  0  0  0  0
   51.2230   43.7768   -6.3744 H   0  0  0  0  0  0
   50.6906   44.1148   -0.6449 H   0  0  0  0  0  0
   51.5632   45.7250    0.5668 H   0  0  0  0  0  0
   53.4312   47.2351    0.9776 H   0  0  0  0  0  0
   52.9755   45.0495   -3.4439 H   0  0  0  0  0  0
   55.4246   48.4589    0.1240 H   0  0  0  0  0  0
   54.8772   46.3251   -4.2948 H   0  0  0  0  0  0
   57.3406   49.7824   -0.7386 H   0  0  0  0  0  0
   58.8711   50.3436   -2.5930 H   0  0  0  0  0  0
   58.6326   49.2414   -4.7842 H   0  0  0  0  0  0
   56.8436   47.5776   -5.1590 H   0  0  0  0  0  0
  1  2  1  0  0  0
  1  7  1  0  0  0
  1 16  2  0  0  0
  2 25  1  0  0  0
  2 26  1  0  0  0
  2 27  1  0  0  0
  3  4  1  0  0  0
  3  7  1  0  0  0
  4  5  2  0  0  0
  4  9  1  0  0  0
  5  6  1  0  0  0
  6  7  2  0  0  0
  6  8  1  0  0  0
  8 28  1  0  0  0
  8 29  1  0  0  0
  8 30  1  0  0  0
  9 10  1  0  0  0
  9 31  1  0  0  0
 10 11  2  0  0  0
 10 15  1  0  0  0
 11 12  1  0  0  0
 11 32  1  0  0  0
 12 13  2  0  0  0
 12 33  1  0  0  0
 13 17  1  0  0  0
 13 14  1  0  0  0
 14 15  2  0  0  0
 14 20  1  0  0  0
 15 34  1  0  0  0
 17 18  2  0  0  0
 17 35  1  0  0  0
 18 21  1  0  0  0
 18 19  1  0  0  0
 19 20  2  0  0  0
 19 24  1  0  0  0
 20 36  1  0  0  0
 21 22  2  0  0  0
 21 37  1  0  0  0
 22 23  1  0  0  0
 22 38  1  0  0  0
 23 24  2  0  0  0
 23 39  1  0  0  0
 24 40  1  0  0  0
M  END
> <s_m_entry_id>
25565

> <s_m_entry_name>
dock_pv.217

> <s_m_Source_Path>
/home/csk/Desktop/cluster/DUD-E-result/pyrd

> <s_m_Source_File>
dock_pv.maegz

> <i_m_Source_File_Index>
217

> <chembl_id>
CHEMBL3410577

> <chembl_pref_name>
None

> <i_lp_mmshare_version>
53161

> <r_lp_tautomer_probability>
0.99995

> <s_lp_Force_Field>
OPLS_2005

> <r_lp_Energy>
16.300919

> <b_lp_Chiralities_Consistent>
1

> <s_lp_Variant>
CHEMBL1966_lig263-1

> <s_i_glide_gridfile>
glide-grid_1d3g

> <i_i_glide_lignum>
309

> <i_i_glide_rotatable_bonds>
3

> <r_i_docking_score>
-9.72608037859886

> <r_i_glide_ligand_efficiency>
-0.405253349108286

> <r_i_glide_ligand_efficiency_sa>
-1.16895293599579

> <r_i_glide_ligand_efficiency_ln>
-2.32789733534593

> <r_i_glide_gscore>
-9.72608037859886

> <r_i_glide_lipo>
-5.06532102511761

> <r_i_glide_hbond>
-0.093960264044269

> <r_i_glide_metal>
0

> <r_i_glide_rewards>
-2.46780114314547

> <r_i_glide_evdw>
-43.9419403076172

> <r_i_glide_ecoul>
-1.61855006217957

> <r_i_glide_erotb>
0.340881578416285

> <r_i_glide_esite>
0

> <r_i_glide_emodel>
-64.7790789133374

> <r_i_glide_energy>
-45.5604903697968

> <r_i_glide_einternal>
1.76175820827484

> <i_i_glide_confnum>
1

> <i_i_glide_posenum>
297

> <r_i_glide_eff_state_penalty>
0

> <s_user_duplicate_titles>
CHEMBL1966_lig263

> <i_f3d_flags>
0

> <s_m_subgroup_title>
dock_pv

> <s_m_subgroupid>
dock_pv

> <b_m_subgroup_collapsed>
1

$$$$
CHEMBL1966_lig377
                    3D
 Schrodinger Suite 2021-1.
 41 43  0  0  1  0            999 V2000
   49.9430   42.1617   -3.0716 C   0  0  0  0  0  0
   50.0594   42.7421   -4.4200 C   0  0  0  0  0  0
   49.2177   42.2045   -5.3320 N   0  0  0  0  0  0
   48.3727   41.1511   -5.2064 C   0  0  0  0  0  0
   48.4230   40.5585   -3.9848 N   0  0  0  0  0  0
   49.1143   41.0738   -2.9073 C   0  0  0  0  0  0
   48.8230   40.4100   -1.6298 C   0  0  0  0  0  0
   47.9269   39.3806   -1.7148 O   0  0  0  0  0  0
   49.2626   40.7659   -0.5397 O   0  0  0  0  0  0
   47.6091   40.8100   -6.0990 O   0  0  0  0  0  0
   50.8516   43.6100   -4.7733 O   0  0  0  0  0  0
   50.8413   42.8538   -2.0262 C   0  0  0  0  0  0
   50.4305   44.3007   -1.6326 C   0  0  0  0  0  0
   51.5844   45.1695   -1.1296 C   0  0  0  0  0  0
   51.6230   45.5893    0.1997 C   0  0  0  0  0  0
   52.7175   46.2875    0.7010 C   0  0  0  0  0  0
   52.6308   45.5095   -1.9920 C   0  0  0  0  0  0
   53.7711   46.1957   -1.5121 C   0  0  0  0  0  0
   53.8220   46.5718   -0.1374 C   0  0  0  0  0  0
   54.9810   47.2100    0.3532 C   0  0  0  0  0  0
   56.0435   47.4922   -0.4990 C   0  0  0  0  0  0
   56.0090   47.1385   -1.8446 C   0  0  0  0  0  0
   54.8727   46.4922   -2.3530 C   0  0  0  0  0  0
   57.1284   47.4528   -2.5894 O   0  0  0  0  0  0
   57.1827   47.0704   -3.9591 C   0  0  0  0  0  0
   49.2299   42.6541   -6.2340 H   0  0  0  0  0  0
   47.8487   39.7354   -3.8643 H   0  0  0  0  0  0
   47.7679   39.0200   -0.8386 H   0  0  0  0  0  0
   51.0068   42.2572   -1.1333 H   0  0  0  0  0  0
   51.8242   42.8836   -2.4990 H   0  0  0  0  0  0
   50.0230   44.8100   -2.4990 H   0  0  0  0  0  0
   49.6201   44.2779   -0.9021 H   0  0  0  0  0  0
   50.8230   45.3155    0.8712 H   0  0  0  0  0  0
   52.7474   46.5741    1.7427 H   0  0  0  0  0  0
   52.6045   45.1948   -3.0259 H   0  0  0  0  0  0
   55.0310   47.4872    1.3962 H   0  0  0  0  0  0
   56.9194   47.9905   -0.1072 H   0  0  0  0  0  0
   54.8145   46.1977   -3.3898 H   0  0  0  0  0  0
   58.1404   47.3775   -4.3793 H   0  0  0  0  0  0
   57.1042   45.9883   -4.0759 H   0  0  0  0  0  0
   56.3959   47.5530   -4.5408 H   0  0  0  0  0  0
  1  2  1  0  0  0
  1  6  2  0  0  0
  1 12  1  0  0  0
  2  3  1  0  0  0
  2 11  2  0  0  0
  3  4  1  0  0  0
  3 26  1  0  0  0
  4  5  1  0  0  0
  4 10  2  0  0  0
  5  6  1  0  0  0
  5 27  1  0  0  0
  6  7  1  0  0  0
  7  8  1  0  0  0
  7  9  2  0  0  0
  8 28  1  0  0  0
 12 13  1  0  0  0
 12 29  1  0  0  0
 12 30  1  0  0  0
 13 14  1  0  0  0
 13 31  1  0  0  0
 13 32  1  0  0  0
 14 15  2  0  0  0
 14 17  1  0  0  0
 15 16  1  0  0  0
 15 33  1  0  0  0
 16 19  2  0  0  0
 16 34  1  0  0  0
 17 18  2  0  0  0
 17 35  1  0  0  0
 18 19  1  0  0  0
 18 23  1  0  0  0
 19 20  1  0  0  0
 20 21  2  0  0  0
 20 36  1  0  0  0
 21 22  1  0  0  0
 21 37  1  0  0  0
 22 23  2  0  0  0
 22 24  1  0  0  0
 23 38  1  0  0  0
 24 25  1  0  0  0
 25 39  1  0  0  0
 25 40  1  0  0  0
 25 41  1  0  0  0
M  END
> <s_m_entry_id>
25566

> <s_m_entry_name>
dock_pv.218

> <s_m_Source_Path>
/home/csk/Desktop/cluster/DUD-E-result/pyrd

> <s_m_Source_File>
dock_pv.maegz

> <i_m_Source_File_Index>
218

> <chembl_id>
CHEMBL3962745

> <chembl_pref_name>
None

> <i_lp_mmshare_version>
53161

> <r_lp_tautomer_probability>
1

> <s_lp_Force_Field>
OPLS_2005

> <r_lp_Energy>
20.559419

> <b_lp_Chiralities_Consistent>
1

> <s_lp_Variant>
CHEMBL1966_lig377-1

> <s_i_glide_gridfile>
glide-grid_1d3g

> <i_i_glide_lignum>
427

> <i_i_glide_rotatable_bonds>
6

> <r_i_docking_score>
-9.72595520984868

> <r_i_glide_ligand_efficiency>
-0.389038208393947

> <r_i_glide_ligand_efficiency_sa>
-1.13755462096591

> <r_i_glide_ligand_efficiency_ln>
-2.30534284809213

> <r_i_glide_gscore>
-9.72595520984868

> <r_i_glide_lipo>
-4.82517836447825

> <r_i_glide_hbond>
-0.269399921343781

> <r_i_glide_metal>
0

> <r_i_glide_rewards>
-2.22968384670664

> <r_i_glide_evdw>
-45.8554878234863

> <r_i_glide_ecoul>
-5.08582067489624

> <r_i_glide_erotb>
0.653954415088751

> <r_i_glide_esite>
0

> <r_i_glide_emodel>
-77.2674066154793

> <r_i_glide_energy>
-50.9413084983826

> <r_i_glide_einternal>
2.31423044204712

> <i_i_glide_confnum>
10

> <i_i_glide_posenum>
254

> <r_i_glide_eff_state_penalty>
0

> <s_user_duplicate_titles>
CHEMBL1966_lig377

> <i_f3d_flags>
0

> <s_m_subgroup_title>
dock_pv

> <s_m_subgroupid>
dock_pv

> <b_m_subgroup_collapsed>
1

$$$$
CHEMBL1966_lig689
                    3D
 Schrodinger Suite 2021-1.
 44 48  0  0  1  0            999 V2000
   53.7277   45.7002   -2.6288 C   0  0  0  0  0  0
   54.0649   46.4847   -1.5186 C   0  0  0  0  0  0
   54.5562   45.5940   -3.6990 N   0  0  0  0  0  0
   55.2487   47.2542   -1.6113 C   0  0  0  0  0  0
   56.0616   47.2470   -2.7913 C   0  0  0  0  0  0
   52.5109   44.8100   -2.5903 C   0  0  0  0  0  0
   55.7006   46.3142   -3.7916 C   0  0  0  0  0  0
   55.7690   47.9963   -0.4355 C   0  0  0  0  0  0
   51.6099   44.8563   -1.5066 C   0  0  0  0  0  0
   50.5352   42.7754   -2.2719 C   0  0  0  0  0  0
   53.2022   46.3761   -0.2465 C   0  0  0  0  0  0
   50.6455   43.8360   -1.3547 C   0  0  0  0  0  0
   49.6006   41.6101   -2.1048 C   0  0  0  0  0  0
   52.3089   43.8172   -3.5618 C   0  0  0  0  0  0
   57.2240   48.0566   -3.0214 C   0  0  0  0  0  0
   51.7272   46.0135   -0.5290 C   0  0  0  0  0  0
   51.3584   42.8229   -3.3894 C   0  0  0  0  0  0
   55.9695   47.2100    0.6609 O   0  0  0  0  0  0
   56.0533   49.1853   -0.4990 O   0  0  0  0  0  0
   48.9033   41.0613   -3.2060 C   0  0  0  0  0  0
   56.5665   46.1128   -4.8990 C   0  0  0  0  0  0
   57.9908   47.9090   -4.1701 C   0  0  0  0  0  0
   49.0494   41.5647   -4.4547 F   0  0  0  0  0  0
   57.6823   46.9193   -5.0885 C   0  0  0  0  0  0
   59.0540   48.7177   -4.3807 F   0  0  0  0  0  0
   49.3687   41.0325   -0.8419 C   0  0  0  0  0  0
   48.0010   40.0100   -3.0410 C   0  0  0  0  0  0
   48.4230   40.0100   -0.6762 C   0  0  0  0  0  0
   47.7427   39.4964   -1.7758 C   0  0  0  0  0  0
   53.2325   47.2918    0.3379 H   0  0  0  0  0  0
   53.6422   45.6100    0.3923 H   0  0  0  0  0  0
   49.9854   43.8628   -0.4999 H   0  0  0  0  0  0
   52.9568   43.7126   -4.4112 H   0  0  0  0  0  0
   57.5408   48.8030   -2.3111 H   0  0  0  0  0  0
   51.2230   45.7831    0.4098 H   0  0  0  0  0  0
   51.2062   46.8674   -0.9602 H   0  0  0  0  0  0
   51.3247   42.0179   -4.0990 H   0  0  0  0  0  0
   56.3650   45.3384   -5.6226 H   0  0  0  0  0  0
   58.3106   46.7813   -5.9562 H   0  0  0  0  0  0
   49.8921   41.4048    0.0263 H   0  0  0  0  0  0
   47.4792   39.6106   -3.8977 H   0  0  0  0  0  0
   48.2407   39.5924    0.3010 H   0  0  0  0  0  0
   47.0314   38.6936   -1.6482 H   0  0  0  0  0  0
   56.3539   47.7227    1.3746 H   0  0  0  0  0  0
  1  2  1  0  0  0
  1  3  2  0  0  0
  1  6  1  0  0  0
  2  4  2  0  0  0
  2 11  1  0  0  0
  3  7  1  0  0  0
  4  8  1  0  0  0
  4  5  1  0  0  0
  5  7  1  0  0  0
  5 15  2  0  0  0
  6  9  2  0  0  0
  6 14  1  0  0  0
  7 21  2  0  0  0
  8 18  1  0  0  0
  8 19  2  0  0  0
  9 12  1  0  0  0
  9 16  1  0  0  0
 10 17  1  0  0  0
 10 13  1  0  0  0
 10 12  2  0  0  0
 11 16  1  0  0  0
 11 30  1  0  0  0
 11 31  1  0  0  0
 12 32  1  0  0  0
 13 20  1  0  0  0
 13 26  2  0  0  0
 14 17  2  0  0  0
 14 33  1  0  0  0
 15 22  1  0  0  0
 15 34  1  0  0  0
 16 35  1  0  0  0
 16 36  1  0  0  0
 17 37  1  0  0  0
 18 44  1  0  0  0
 20 23  1  0  0  0
 20 27  2  0  0  0
 21 24  1  0  0  0
 21 38  1  0  0  0
 22 24  2  0  0  0
 22 25  1  0  0  0
 24 39  1  0  0  0
 26 28  1  0  0  0
 26 40  1  0  0  0
 27 29  1  0  0  0
 27 41  1  0  0  0
 28 29  2  0  0  0
 28 42  1  0  0  0
 29 43  1  0  0  0
M  END
> <s_m_entry_id>
25567

> <s_m_entry_name>
dock_pv.219

> <s_m_Source_Path>
/home/csk/Desktop/cluster/DUD-E-result/pyrd

> <s_m_Source_File>
dock_pv.maegz

> <i_m_Source_File_Index>
219

> <chembl_id>
CHEMBL320204

> <chembl_pref_name>
None

> <i_lp_mmshare_version>
53161

> <r_lp_tautomer_probability>
1

> <s_lp_Force_Field>
OPLS_2005

> <r_lp_Energy>
33.199453

> <b_lp_Chiralities_Consistent>
1

> <s_lp_Variant>
CHEMBL1966_lig689-1

> <s_i_glide_gridfile>
glide-grid_1d3g

> <i_i_glide_lignum>
758

> <i_i_glide_rotatable_bonds>
3

> <r_i_docking_score>
-9.722967697877

> <r_i_glide_ligand_efficiency>
-0.335274748202655

> <r_i_glide_ligand_efficiency_sa>
-1.03007024897442

> <r_i_glide_ligand_efficiency_ln>
-2.2263130496262

> <r_i_glide_gscore>
-9.722967697877

> <r_i_glide_lipo>
-5.90495511462033

> <r_i_glide_hbond>
0

> <r_i_glide_metal>
0

> <r_i_glide_rewards>
-2.54760398289168

> <r_i_glide_evdw>
-27.9379482269287

> <r_i_glide_ecoul>
-0.886970043182373

> <r_i_glide_erotb>
0.259534317458811

> <r_i_glide_esite>
0

> <r_i_glide_emodel>
-39.7361681394068

> <r_i_glide_energy>
-28.8249182701111

> <r_i_glide_einternal>
6.77741479873657

> <i_i_glide_confnum>
9

> <i_i_glide_posenum>
4

> <r_i_glide_eff_state_penalty>
0

> <s_user_duplicate_titles>
CHEMBL1966_lig689

> <i_f3d_flags>
0

> <s_m_subgroup_title>
dock_pv

> <s_m_subgroupid>
dock_pv

> <b_m_subgroup_collapsed>
1

$$$$
CHEMBL1966_lig504
                    3D
 Schrodinger Suite 2021-1.
 42 45  0  0  1  0            999 V2000
   46.6979   38.2469   -1.5492 C   0  0  0  0  0  0
   47.6228   39.3390   -2.0419 C   0  0  0  0  0  0
   47.6175   39.7088   -3.3929 C   0  0  0  0  0  0
   48.4240   40.7381   -3.8964 C   0  0  0  0  0  0
   48.3183   41.2130   -5.3231 C   0  0  0  0  0  0
   47.4595   40.8100   -6.0989 O   0  0  0  0  0  0
   49.2233   42.1632   -5.6878 O   0  0  0  0  0  0
   49.2210   41.3896   -2.9508 C   0  0  0  0  0  0
   50.0221   42.4904   -3.0217 N   0  0  0  0  0  0
   50.4018   42.8250   -1.7517 C   0  0  0  0  0  0
   50.0219   41.9372   -0.8649 N   0  0  0  0  0  0
   49.2340   41.0575   -1.5750 C   0  0  0  0  0  0
   48.4230   40.0100   -1.1141 C   0  0  0  0  0  0
   51.1537   44.0752   -1.4924 C   0  0  0  0  0  0
   51.0749   44.8100   -0.3051 C   0  0  0  0  0  0
   51.9386   45.8889   -0.0966 C   0  0  0  0  0  0
   52.8828   46.2284   -1.0675 C   0  0  0  0  0  0
   53.8087   47.2100   -0.7687 O   0  0  0  0  0  0
   54.9066   47.3606   -1.5830 C   0  0  0  0  0  0
   55.9365   46.4200   -1.5660 C   0  0  0  0  0  0
   56.9650   46.5068   -2.4990 C   0  0  0  0  0  0
   56.9952   47.5658   -3.4026 C   0  0  0  0  0  0
   55.9887   48.5275   -3.3964 C   0  0  0  0  0  0
   54.9342   48.4101   -2.4943 C   0  0  0  0  0  0
   52.8763   45.5511   -2.2939 C   0  0  0  0  0  0
   52.0231   44.4790   -2.4990 C   0  0  0  0  0  0
   46.1851   38.5831   -0.6482 H   0  0  0  0  0  0
   45.9319   38.0092   -2.2860 H   0  0  0  0  0  0
   47.2622   37.3478   -1.2988 H   0  0  0  0  0  0
   46.9366   39.2147   -4.0687 H   0  0  0  0  0  0
   49.0032   42.5245   -6.5478 H   0  0  0  0  0  0
   50.2170   43.0555   -3.8352 H   0  0  0  0  0  0
   48.4000   39.7465   -0.0662 H   0  0  0  0  0  0
   50.3870   44.5130    0.4734 H   0  0  0  0  0  0
   51.9158   46.4232    0.8420 H   0  0  0  0  0  0
   55.9099   45.6100   -0.8550 H   0  0  0  0  0  0
   57.7436   45.7597   -2.5139 H   0  0  0  0  0  0
   57.8054   47.6401   -4.1132 H   0  0  0  0  0  0
   56.0171   49.3477   -4.0987 H   0  0  0  0  0  0
   54.1246   49.1227   -2.4988 H   0  0  0  0  0  0
   53.5659   45.8103   -3.0832 H   0  0  0  0  0  0
   52.1074   43.9386   -3.4306 H   0  0  0  0  0  0
  1  2  1  0  0  0
  1 27  1  0  0  0
  1 28  1  0  0  0
  1 29  1  0  0  0
  2  3  2  0  0  0
  2 13  1  0  0  0
  3  4  1  0  0  0
  3 30  1  0  0  0
  4  5  1  0  0  0
  4  8  2  0  0  0
  5  6  2  0  0  0
  5  7  1  0  0  0
  7 31  1  0  0  0
  8  9  1  0  0  0
  8 12  1  0  0  0
  9 10  1  0  0  0
  9 32  1  0  0  0
 10 11  2  0  0  0
 10 14  1  0  0  0
 11 12  1  0  0  0
 12 13  2  0  0  0
 13 33  1  0  0  0
 14 15  2  0  0  0
 14 26  1  0  0  0
 15 16  1  0  0  0
 15 34  1  0  0  0
 16 17  2  0  0  0
 16 35  1  0  0  0
 17 18  1  0  0  0
 17 25  1  0  0  0
 18 19  1  0  0  0
 19 20  2  0  0  0
 19 24  1  0  0  0
 20 21  1  0  0  0
 20 36  1  0  0  0
 21 22  2  0  0  0
 21 37  1  0  0  0
 22 23  1  0  0  0
 22 38  1  0  0  0
 23 24  2  0  0  0
 23 39  1  0  0  0
 24 40  1  0  0  0
 25 26  2  0  0  0
 25 41  1  0  0  0
 26 42  1  0  0  0
M  END
> <s_m_entry_id>
25568

> <s_m_entry_name>
dock_pv.220

> <s_m_Source_Path>
/home/csk/Desktop/cluster/DUD-E-result/pyrd

> <s_m_Source_File>
dock_pv.maegz

> <i_m_Source_File_Index>
220

> <chembl_id>
CHEMBL3677762

> <chembl_pref_name>
None

> <i_lp_mmshare_version>
53161

> <r_lp_tautomer_probability>
1

> <s_lp_Force_Field>
OPLS_2005

> <r_lp_Energy>
20.873521

> <b_lp_Chiralities_Consistent>
1

> <s_lp_Variant>
CHEMBL1966_lig504-1

> <s_i_glide_gridfile>
glide-grid_1d3g

> <i_i_glide_lignum>
554

> <i_i_glide_rotatable_bonds>
5

> <r_i_docking_score>
-9.72182469708758

> <r_i_glide_ligand_efficiency>
-0.373916334503368

> <r_i_glide_ligand_efficiency_sa>
-1.1077256696765

> <r_i_glide_ligand_efficiency_ln>
-2.28313863020231

> <r_i_glide_gscore>
-9.72182469708758

> <r_i_glide_lipo>
-5.1393109331024

> <r_i_glide_hbond>
-0.240065236068568

> <r_i_glide_metal>
0

> <r_i_glide_rewards>
-2.6191093331017

> <r_i_glide_evdw>
-37.3720474243164

> <r_i_glide_ecoul>
-3.30110502243042

> <r_i_glide_erotb>
0.640428929765465

> <r_i_glide_esite>
0

> <r_i_glide_emodel>
-56.2869755570503

> <r_i_glide_energy>
-40.6731524467468

> <r_i_glide_einternal>
7.04070806503296

> <i_i_glide_confnum>
16

> <i_i_glide_posenum>
29

> <r_i_glide_eff_state_penalty>
0

> <s_user_duplicate_titles>
CHEMBL1966_lig504

> <i_f3d_flags>
0

> <s_m_subgroup_title>
dock_pv

> <s_m_subgroupid>
dock_pv

> <b_m_subgroup_collapsed>
1

$$$$
CHEMBL1966_lig805
                    3D
 Schrodinger Suite 2021-1.
 42 44  0  0  1  0            999 V2000
   51.2230   45.1328   -0.5990 C   0  0  0  0  0  0
   52.0280   46.1259   -0.0464 C   0  0  0  0  0  0
   53.1756   46.5442   -0.7171 C   0  0  0  0  0  0
   53.5123   46.0074   -1.9635 C   0  0  0  0  0  0
   52.6913   45.0065   -2.4990 C   0  0  0  0  0  0
   51.5553   44.5311   -1.8202 C   0  0  0  0  0  0
   50.7521   43.3863   -2.3566 C   0  0  0  0  0  0
   50.2351   42.4185   -1.4912 C   0  0  0  0  0  0
   49.4565   41.3461   -1.9467 C   0  0  0  0  0  0
   49.2230   41.2238   -3.3185 C   0  0  0  0  0  0
   49.7206   42.1741   -4.2161 C   0  0  0  0  0  0
   50.4840   43.2453   -3.7223 C   0  0  0  0  0  0
   49.4077   42.0324   -5.6809 C   0  0  0  0  0  0
   50.1731   42.8100   -6.4990 O   0  0  0  0  0  0
   48.5916   41.2100   -6.0990 O   0  0  0  0  0  0
   48.8326   40.4100   -0.9382 C   0  0  0  0  0  0
   47.8430   39.6100   -1.3342 N   0  0  0  0  0  0
   49.2230   40.4100    0.2235 O   0  0  0  0  0  0
   54.7179   46.4749   -2.7000 C   0  0  0  0  0  0
   55.6015   45.5548   -3.2759 C   0  0  0  0  0  0
   56.7112   45.9905   -3.9948 C   0  0  0  0  0  0
   56.9530   47.3594   -4.1512 C   0  0  0  0  0  0
   56.0861   48.2825   -3.5593 C   0  0  0  0  0  0
   54.9783   47.8423   -2.8397 C   0  0  0  0  0  0
   58.1427   47.8608   -4.9705 C   0  0  0  0  0  0
   58.9817   46.8774   -5.2990 F   0  0  0  0  0  0
   57.6984   48.4100   -6.0998 F   0  0  0  0  0  0
   58.8229   48.7834   -4.2875 F   0  0  0  0  0  0
   50.3472   44.8100   -0.0545 H   0  0  0  0  0  0
   51.7684   46.5623    0.9075 H   0  0  0  0  0  0
   53.7983   47.3044   -0.2680 H   0  0  0  0  0  0
   52.9611   44.5636   -3.4466 H   0  0  0  0  0  0
   50.4232   42.5215   -0.4343 H   0  0  0  0  0  0
   48.6340   40.3971   -3.6936 H   0  0  0  0  0  0
   50.8599   44.0100   -4.3846 H   0  0  0  0  0  0
   50.7829   43.3523   -6.0015 H   0  0  0  0  0  0
   47.5239   39.6055   -2.2891 H   0  0  0  0  0  0
   47.4246   38.9935   -0.6540 H   0  0  0  0  0  0
   55.4276   44.4934   -3.1708 H   0  0  0  0  0  0
   57.3716   45.2577   -4.4362 H   0  0  0  0  0  0
   56.2619   49.3436   -3.6691 H   0  0  0  0  0  0
   54.3085   48.5703   -2.4054 H   0  0  0  0  0  0
  1  6  1  0  0  0
  1  2  2  0  0  0
  1 29  1  0  0  0
  2  3  1  0  0  0
  2 30  1  0  0  0
  3  4  2  0  0  0
  3 31  1  0  0  0
  4  5  1  0  0  0
  4 19  1  0  0  0
  5  6  2  0  0  0
  5 32  1  0  0  0
  6  7  1  0  0  0
  7  8  2  0  0  0
  7 12  1  0  0  0
  8  9  1  0  0  0
  8 33  1  0  0  0
  9 16  1  0  0  0
  9 10  2  0  0  0
 10 11  1  0  0  0
 10 34  1  0  0  0
 11 13  1  0  0  0
 11 12  2  0  0  0
 12 35  1  0  0  0
 13 14  1  0  0  0
 13 15  2  0  0  0
 14 36  1  0  0  0
 16 17  1  0  0  0
 16 18  2  0  0  0
 17 37  1  0  0  0
 17 38  1  0  0  0
 19 20  2  0  0  0
 19 24  1  0  0  0
 20 21  1  0  0  0
 20 39  1  0  0  0
 21 22  2  0  0  0
 21 40  1  0  0  0
 22 23  1  0  0  0
 22 25  1  0  0  0
 23 24  2  0  0  0
 23 41  1  0  0  0
 24 42  1  0  0  0
 25 26  1  0  0  0
 25 27  1  0  0  0
 25 28  1  0  0  0
M  END
> <s_m_entry_id>
25569

> <s_m_entry_name>
dock_pv.221

> <s_m_Source_Path>
/home/csk/Desktop/cluster/DUD-E-result/pyrd

> <s_m_Source_File>
dock_pv.maegz

> <i_m_Source_File_Index>
221

> <chembl_id>
CHEMBL264901

> <chembl_pref_name>
None

> <i_lp_mmshare_version>
53161

> <r_lp_tautomer_probability>
1

> <s_lp_Force_Field>
OPLS_2005

> <r_lp_Energy>
23.529605

> <b_lp_Chiralities_Consistent>
1

> <s_lp_Variant>
CHEMBL1966_lig805-1

> <s_i_glide_gridfile>
glide-grid_1d3g

> <i_i_glide_lignum>
876

> <i_i_glide_rotatable_bonds>
6

> <r_i_docking_score>
-9.71685305302058

> <r_i_glide_ligand_efficiency>
-0.347030466179306

> <r_i_glide_ligand_efficiency_sa>
-1.05378888533447

> <r_i_glide_ligand_efficiency_ln>
-2.24293498383981

> <r_i_glide_gscore>
-9.71685305302058

> <r_i_glide_lipo>
-5.21714541635108

> <r_i_glide_hbond>
-0.153446286452033

> <r_i_glide_metal>
0

> <r_i_glide_rewards>
-2.50391095153104

> <r_i_glide_evdw>
-34.7298698425293

> <r_i_glide_ecoul>
-3.3257896900177

> <r_i_glide_erotb>
0.393011546942693

> <r_i_glide_esite>
0

> <r_i_glide_emodel>
-58.3140806337057

> <r_i_glide_energy>
-38.055659532547

> <r_i_glide_einternal>
2.29369139671326

> <i_i_glide_confnum>
23

> <i_i_glide_posenum>
189

> <r_i_glide_eff_state_penalty>
0

> <s_user_duplicate_titles>
CHEMBL1966_lig805

> <i_f3d_flags>
0

> <s_m_subgroup_title>
dock_pv

> <s_m_subgroupid>
dock_pv

> <b_m_subgroup_collapsed>
1

$$$$
CHEMBL1966_lig201
                    3D
 Schrodinger Suite 2021-1.
 43 45  0  0  1  0            999 V2000
   57.4147   46.9341   -4.4813 C   0  0  0  0  0  0
   56.8718   48.3127   -4.0679 C   0  0  0  0  0  0
   56.8484   48.4826   -2.6529 O   0  0  0  0  0  0
   55.9281   47.8017   -1.8792 C   0  0  0  0  0  0
   56.1301   47.8493   -0.5027 C   0  0  0  0  0  0
   55.2709   47.1843    0.3656 C   0  0  0  0  0  0
   54.1984   46.4581   -0.1387 C   0  0  0  0  0  0
   53.9643   46.3780   -1.5189 C   0  0  0  0  0  0
   54.8300   47.0781   -2.3756 C   0  0  0  0  0  0
   52.8848   45.4901   -2.0498 C   0  0  0  0  0  0
   53.0549   44.8104   -3.2644 C   0  0  0  0  0  0
   52.1364   43.8527   -3.6956 C   0  0  0  0  0  0
   51.0343   43.5243   -2.9047 C   0  0  0  0  0  0
   50.1419   42.5834   -3.4491 N   0  0  0  0  0  0
   49.4332   41.5177   -2.8709 C   0  0  0  0  0  0
   49.6229   41.3030   -1.5409 N   0  0  0  0  0  0
   48.8268   40.4099   -0.9053 C   0  0  0  0  0  0
   47.9058   39.6099   -1.5752 C   0  0  0  0  0  0
   47.7623   39.7770   -2.9509 C   0  0  0  0  0  0
   48.5109   40.7541   -3.6296 C   0  0  0  0  0  0
   48.3049   40.9432   -5.1165 C   0  0  0  0  0  0
   49.2222   41.2101   -5.8890 O   0  0  0  0  0  0
   47.0109   40.8100   -5.5297 O   0  0  0  0  0  0
   50.8235   44.2297   -1.6998 C   0  0  0  0  0  0
   49.7549   43.9959   -0.8990 F   0  0  0  0  0  0
   51.7322   45.2100   -1.2987 C   0  0  0  0  0  0
   57.4676   46.8473   -5.5666 H   0  0  0  0  0  0
   58.4199   46.7796   -4.0881 H   0  0  0  0  0  0
   56.7905   46.1189   -4.1169 H   0  0  0  0  0  0
   55.8904   48.5026   -4.4987 H   0  0  0  0  0  0
   57.5239   49.0865   -4.4749 H   0  0  0  0  0  0
   56.9746   48.3968   -0.1086 H   0  0  0  0  0  0
   55.4451   47.2098    1.4312 H   0  0  0  0  0  0
   53.5758   45.9231    0.5629 H   0  0  0  0  0  0
   54.6511   47.0387   -3.4376 H   0  0  0  0  0  0
   53.9372   44.9884   -3.8556 H   0  0  0  0  0  0
   52.3109   43.3326   -4.6256 H   0  0  0  0  0  0
   50.0945   42.5797   -4.4591 H   0  0  0  0  0  0
   48.9854   40.2916    0.1571 H   0  0  0  0  0  0
   47.3251   38.8723   -1.0406 H   0  0  0  0  0  0
   47.0609   39.1436   -3.4755 H   0  0  0  0  0  0
   46.3995   40.7728   -4.7909 H   0  0  0  0  0  0
   51.5487   45.7218   -0.3658 H   0  0  0  0  0  0
  1  2  1  0  0  0
  1 27  1  0  0  0
  1 28  1  0  0  0
  1 29  1  0  0  0
  2  3  1  0  0  0
  2 30  1  0  0  0
  2 31  1  0  0  0
  3  4  1  0  0  0
  4  5  2  0  0  0
  4  9  1  0  0  0
  5  6  1  0  0  0
  5 32  1  0  0  0
  6  7  2  0  0  0
  6 33  1  0  0  0
  7  8  1  0  0  0
  7 34  1  0  0  0
  8  9  2  0  0  0
  8 10  1  0  0  0
  9 35  1  0  0  0
 10 11  2  0  0  0
 10 26  1  0  0  0
 11 12  1  0  0  0
 11 36  1  0  0  0
 12 13  2  0  0  0
 12 37  1  0  0  0
 13 14  1  0  0  0
 13 24  1  0  0  0
 14 15  1  0  0  0
 14 38  1  0  0  0
 15 16  2  0  0  0
 15 20  1  0  0  0
 16 17  1  0  0  0
 17 18  2  0  0  0
 17 39  1  0  0  0
 18 19  1  0  0  0
 18 40  1  0  0  0
 19 20  2  0  0  0
 19 41  1  0  0  0
 20 21  1  0  0  0
 21 22  2  0  0  0
 21 23  1  0  0  0
 23 42  1  0  0  0
 24 25  1  0  0  0
 24 26  2  0  0  0
 26 43  1  0  0  0
M  END
> <s_m_entry_id>
25570

> <s_m_entry_name>
dock_pv.222

> <s_m_Source_Path>
/home/csk/Desktop/cluster/DUD-E-result/pyrd

> <s_m_Source_File>
dock_pv.maegz

> <i_m_Source_File_Index>
222

> <chembl_id>
CHEMBL2263627

> <chembl_pref_name>
None

> <i_lp_mmshare_version>
53161

> <r_lp_tautomer_probability>
1

> <s_lp_Force_Field>
OPLS_2005

> <r_lp_Energy>
29.004568

> <b_lp_Chiralities_Consistent>
1

> <s_lp_Variant>
CHEMBL1966_lig201-1

> <s_i_glide_gridfile>
glide-grid_1d3g

> <i_i_glide_lignum>
246

> <i_i_glide_rotatable_bonds>
7

> <r_i_docking_score>
-9.69729383252327

> <r_i_glide_ligand_efficiency>
-0.372972839712433

> <r_i_glide_ligand_efficiency_sa>
-1.10493057007083

> <r_i_glide_ligand_efficiency_ln>
-2.27737763715172

> <r_i_glide_gscore>
-9.69729383252327

> <r_i_glide_lipo>
-5.29409625853391

> <r_i_glide_hbond>
-0.0535015850681308

> <r_i_glide_metal>
0

> <r_i_glide_rewards>
-2.39355327934726

> <r_i_glide_evdw>
-43.529369354248

> <r_i_glide_ecoul>
-3.65477395057678

> <r_i_glide_erotb>
0.76854185072495

> <r_i_glide_esite>
0

> <r_i_glide_emodel>
-70.0225805327254

> <r_i_glide_energy>
-47.1841433048248

> <r_i_glide_einternal>
7.07076501846313

> <i_i_glide_confnum>
16

> <i_i_glide_posenum>
83

> <r_i_glide_eff_state_penalty>
0

> <s_user_duplicate_titles>
CHEMBL1966_lig201

> <i_f3d_flags>
0

> <s_m_subgroup_title>
dock_pv

> <s_m_subgroupid>
dock_pv

> <b_m_subgroup_collapsed>
1

$$$$
CHEMBL1966_lig471
                    3D
 Schrodinger Suite 2021-1.
 38 41  0  0  1  0            999 V2000
   49.6229   42.4436   -5.8783 O   0  0  0  0  0  0
   48.8286   41.4837   -5.3302 C   0  0  0  0  0  0
   48.0522   40.8114   -6.0099 O   0  0  0  0  0  0
   49.0094   41.2944   -3.8424 C   0  0  0  0  0  0
   48.3386   40.2371   -3.2058 C   0  0  0  0  0  0
   48.4230   40.0124   -1.8319 C   0  0  0  0  0  0
   47.4569   38.5632   -1.0625 Br  0  0  0  0  0  0
   49.2230   40.8099   -1.0055 C   0  0  0  0  0  0
   49.8467   41.9032   -1.6074 C   0  0  0  0  0  0
   50.5931   42.9511   -1.1156 N   0  0  0  0  0  0
   50.9962   43.7142   -2.1837 C   0  0  0  0  0  0
   50.5019   43.2648   -3.3130 N   0  0  0  0  0  0
   49.7692   42.1467   -3.0025 C   0  0  0  0  0  0
   52.0231   44.8100   -2.0990 C   0  0  0  0  0  0
   52.9359   44.8625   -3.1542 C   0  0  0  0  0  0
   53.9618   45.7921   -3.1522 C   0  0  0  0  0  0
   54.1116   46.6854   -2.0897 C   0  0  0  0  0  0
   53.2206   46.5939   -1.0087 C   0  0  0  0  0  0
   52.1655   45.6800   -1.0184 C   0  0  0  0  0  0
   55.1938   47.7125   -2.1353 C   0  0  0  0  0  0
   55.8008   48.1704   -0.9611 C   0  0  0  0  0  0
   56.7887   49.1466   -1.0145 C   0  0  0  0  0  0
   57.2057   49.6567   -2.2379 C   0  0  0  0  0  0
   56.6242   49.2084   -3.4173 C   0  0  0  0  0  0
   55.6198   48.2470   -3.3620 C   0  0  0  0  0  0
   49.4316   42.5782   -6.8062 H   0  0  0  0  0  0
   47.7235   39.5605   -3.7835 H   0  0  0  0  0  0
   49.2845   40.6206    0.0562 H   0  0  0  0  0  0
   50.8821   43.1353   -0.1681 H   0  0  0  0  0  0
   52.8583   44.1690   -3.9785 H   0  0  0  0  0  0
   54.6468   45.8014   -3.9867 H   0  0  0  0  0  0
   53.3126   47.2579   -0.1632 H   0  0  0  0  0  0
   51.4794   45.6383   -0.1850 H   0  0  0  0  0  0
   55.5088   47.7813    0.0031 H   0  0  0  0  0  0
   57.2230   49.5117   -0.1009 H   0  0  0  0  0  0
   57.9745   50.4147   -2.2697 H   0  0  0  0  0  0
   56.9372   49.6155   -4.3675 H   0  0  0  0  0  0
   55.1610   47.9335   -4.2873 H   0  0  0  0  0  0
  1  2  1  0  0  0
  1 26  1  0  0  0
  2  3  2  0  0  0
  2  4  1  0  0  0
  4  5  2  0  0  0
  4 13  1  0  0  0
  5  6  1  0  0  0
  5 27  1  0  0  0
  6  7  1  0  0  0
  6  8  2  0  0  0
  8  9  1  0  0  0
  8 28  1  0  0  0
  9 10  1  0  0  0
  9 13  2  0  0  0
 10 11  1  0  0  0
 10 29  1  0  0  0
 11 12  2  0  0  0
 11 14  1  0  0  0
 12 13  1  0  0  0
 14 15  2  0  0  0
 14 19  1  0  0  0
 15 16  1  0  0  0
 15 30  1  0  0  0
 16 17  2  0  0  0
 16 31  1  0  0  0
 17 18  1  0  0  0
 17 20  1  0  0  0
 18 19  2  0  0  0
 18 32  1  0  0  0
 19 33  1  0  0  0
 20 21  2  0  0  0
 20 25  1  0  0  0
 21 22  1  0  0  0
 21 34  1  0  0  0
 22 23  2  0  0  0
 22 35  1  0  0  0
 23 24  1  0  0  0
 23 36  1  0  0  0
 24 25  2  0  0  0
 24 37  1  0  0  0
 25 38  1  0  0  0
M  END
> <s_m_entry_id>
25571

> <s_m_entry_name>
dock_pv.223

> <s_m_Source_Path>
/home/csk/Desktop/cluster/DUD-E-result/pyrd

> <s_m_Source_File>
dock_pv.maegz

> <i_m_Source_File_Index>
223

> <chembl_id>
CHEMBL3677728

> <chembl_pref_name>
None

> <i_lp_mmshare_version>
53161

> <r_lp_tautomer_probability>
1

> <s_lp_Force_Field>
OPLS_2005

> <r_lp_Energy>
21.351153

> <b_lp_Chiralities_Consistent>
1

> <s_lp_Variant>
CHEMBL1966_lig471-1

> <s_i_glide_gridfile>
glide-grid_1d3g

> <i_i_glide_lignum>
521

> <i_i_glide_rotatable_bonds>
4

> <r_i_docking_score>
-9.6918820240486

> <r_i_glide_ligand_efficiency>
-0.387675280961944

> <r_i_glide_ligand_efficiency_sa>
-1.13356939698311

> <r_i_glide_ligand_efficiency_ln>
-2.29726648196653

> <r_i_glide_gscore>
-9.6918820240486

> <r_i_glide_lipo>
-5.27186674831993

> <r_i_glide_hbond>
-0.201539347098144

> <r_i_glide_metal>
0

> <r_i_glide_rewards>
-2.46870539310864

> <r_i_glide_evdw>
-39.9522247314453

> <r_i_glide_ecoul>
-0.87407660484314

> <r_i_glide_erotb>
0.378952191776853

> <r_i_glide_esite>
0

> <r_i_glide_emodel>
-60.4299100424924

> <r_i_glide_energy>
-40.8263013362885

> <r_i_glide_einternal>
2.15411806106567

> <i_i_glide_confnum>
9

> <i_i_glide_posenum>
216

> <r_i_glide_eff_state_penalty>
0

> <s_user_duplicate_titles>
CHEMBL1966_lig471

> <i_f3d_flags>
0

> <s_m_subgroup_title>
dock_pv

> <s_m_subgroupid>
dock_pv

> <b_m_subgroup_collapsed>
1

$$$$
CHEMBL1966_lig72
                    3D
 Schrodinger Suite 2021-1.
 45 47  0  0  1  0            999 V2000
   48.1541   40.0444   -2.6862 C   0  0  0  0  0  0
   49.2511   40.9731   -2.9386 C   0  0  0  0  0  0
   47.0977   39.8277   -3.5363 C   0  0  0  0  0  0
   49.6214   41.7507   -1.9015 N   0  0  0  0  0  0
   46.7694   40.4099   -4.8488 C   0  0  0  0  0  0
   50.4069   42.9216   -1.9130 C   0  0  0  0  0  0
   46.1232   38.8836   -2.8626 C   0  0  0  0  0  0
   52.0409   45.2112   -1.6990 C   0  0  0  0  0  0
   50.2616   43.8026   -0.8323 C   0  0  0  0  0  0
   47.9830   39.1733   -1.4256 C   0  0  2  0  0  0
   51.0768   44.9275   -0.7260 C   0  0  0  0  0  0
   53.1177   46.2228   -1.4620 C   0  0  0  0  0  0
   49.7462   41.0775   -4.0525 O   0  0  0  0  0  0
   45.6259   40.4306   -5.2938 O   0  0  0  0  0  0
   53.7067   46.9243   -2.5238 C   0  0  0  0  0  0
   46.5124   38.8651   -1.4046 C   0  0  0  0  0  0
   51.2795   43.2740   -2.9532 C   0  0  0  0  0  0
   52.0777   44.4101   -2.8493 C   0  0  0  0  0  0
   49.3443   43.5703    0.1385 F   0  0  0  0  0  0
   47.8253   40.8095   -5.6085 O   0  0  0  0  0  0
   54.8155   47.7524   -2.3389 C   0  0  0  0  0  0
   48.4230   39.7358   -0.2057 O   0  0  0  0  0  0
   55.3109   48.3832   -3.4623 O   0  0  0  0  0  0
   53.6551   46.4082   -0.1790 C   0  0  0  0  0  0
   54.7760   47.2101    0.0238 C   0  0  0  0  0  0
   55.3566   47.8796   -1.0506 C   0  0  0  0  0  0
   56.4512   49.2256   -3.3378 C   0  0  0  0  0  0
   49.1783   41.5271   -1.0188 H   0  0  0  0  0  0
   46.1581   37.8991   -3.2988 H   0  0  0  0  0  0
   45.1143   39.2097   -2.9435 H   0  0  0  0  0  0
   48.4207   38.1921   -1.5895 H   0  0  0  0  0  0
   50.9937   45.5471    0.1541 H   0  0  0  0  0  0
   53.3166   46.8136   -3.5253 H   0  0  0  0  0  0
   45.9491   39.6100   -0.8429 H   0  0  0  0  0  0
   46.3038   37.9029   -0.9361 H   0  0  0  0  0  0
   51.4310   42.6537   -3.8210 H   0  0  0  0  0  0
   52.8062   44.5934   -3.6257 H   0  0  0  0  0  0
   48.6401   40.8380   -5.0763 H   0  0  0  0  0  0
   48.1225   39.1784    0.5237 H   0  0  0  0  0  0
   53.2463   45.8798    0.6699 H   0  0  0  0  0  0
   55.1933   47.3124    1.0152 H   0  0  0  0  0  0
   56.2230   48.4954   -0.8625 H   0  0  0  0  0  0
   56.6662   49.6821   -4.3022 H   0  0  0  0  0  0
   56.2813   50.0333   -2.6251 H   0  0  0  0  0  0
   57.3328   48.6601   -3.0308 H   0  0  0  0  0  0
  1  2  1  0  0  0
  1  3  2  0  0  0
  1 10  1  0  0  0
  2  4  1  0  0  0
  2 13  2  0  0  0
  3  5  1  0  0  0
  3  7  1  0  0  0
  4  6  1  0  0  0
  4 28  1  0  0  0
  5 14  2  0  0  0
  5 20  1  0  0  0
  6  9  1  0  0  0
  6 17  2  0  0  0
  7 16  1  0  0  0
  7 29  1  0  0  0
  7 30  1  0  0  0
  8 18  2  0  0  0
  8 12  1  0  0  0
  8 11  1  0  0  0
  9 11  2  0  0  0
  9 19  1  0  0  0
 10 16  1  0  0  0
 10 22  1  0  0  0
 10 31  1  0  0  0
 11 32  1  0  0  0
 12 15  1  0  0  0
 12 24  2  0  0  0
 15 21  2  0  0  0
 15 33  1  0  0  0
 16 34  1  0  0  0
 16 35  1  0  0  0
 17 18  1  0  0  0
 17 36  1  0  0  0
 18 37  1  0  0  0
 20 38  1  0  0  0
 21 23  1  0  0  0
 21 26  1  0  0  0
 22 39  1  0  0  0
 23 27  1  0  0  0
 24 25  1  0  0  0
 24 40  1  0  0  0
 25 26  2  0  0  0
 25 41  1  0  0  0
 26 42  1  0  0  0
 27 43  1  0  0  0
 27 44  1  0  0  0
 27 45  1  0  0  0
M  END
> <s_m_entry_id>
25572

> <s_m_entry_name>
dock_pv.224

> <s_m_Source_Path>
/home/csk/Desktop/cluster/DUD-E-result/pyrd

> <s_m_Source_File>
dock_pv.maegz

> <i_m_Source_File_Index>
224

> <chembl_id>
CHEMBL196256

> <chembl_pref_name>
None

> <i_lp_mmshare_version>
53161

> <r_lp_tautomer_probability>
1

> <s_lp_Force_Field>
OPLS_2005

> <r_lp_Energy>
46.723376

> <b_lp_Chiralities_Consistent>
1

> <s_lp_Variant>
CHEMBL1966_lig72-1

> <s_i_glide_gridfile>
glide-grid_1d3g

> <i_i_glide_lignum>
79

> <i_i_glide_rotatable_bonds>
8

> <r_i_docking_score>
-9.68966712290687

> <r_i_glide_ligand_efficiency>
-0.358876560107662

> <r_i_glide_ligand_efficiency_sa>
-1.07662967914019

> <r_i_glide_ligand_efficiency_ln>
-2.25559475956532

> <r_i_glide_gscore>
-9.68966712290687

> <r_i_glide_lipo>
-5.25996385670283

> <r_i_glide_hbond>
-0.32

> <r_i_glide_metal>
0

> <r_i_glide_rewards>
-2.18605483942029

> <r_i_glide_evdw>
-38.1144828796387

> <r_i_glide_ecoul>
-4.78500413894653

> <r_i_glide_erotb>
0.69982633804017

> <r_i_glide_esite>
0

> <r_i_glide_emodel>
-54.9521401418709

> <r_i_glide_energy>
-42.8994870185852

> <r_i_glide_einternal>
9.67576217651367

> <i_i_glide_confnum>
4

> <i_i_glide_posenum>
252

> <r_i_glide_eff_state_penalty>
0

> <s_user_duplicate_titles>
CHEMBL1966_lig72

> <i_f3d_flags>
0

> <s_m_subgroup_title>
dock_pv

> <s_m_subgroupid>
dock_pv

> <b_m_subgroup_collapsed>
1

$$$$
CHEMBL1966_lig420
                    3D
 Schrodinger Suite 2021-1.
 49 53  0  0  1  0            999 V2000
   47.3526   40.8101   -5.6885 O   0  0  0  0  0  0
   48.5836   41.2237   -5.2683 C   0  0  0  0  0  0
   49.4225   41.6666   -6.0485 O   0  0  0  0  0  0
   48.8233   41.0853   -3.7740 C   0  0  0  0  0  0
   48.0524   40.1723   -3.0428 C   0  0  0  0  0  0
   48.2301   40.0100   -1.6684 C   0  0  0  0  0  0
   49.2228   40.7226   -0.9989 C   0  0  0  0  0  0
   50.0093   41.6102   -1.7017 C   0  0  0  0  0  0
   49.8123   41.8146   -3.0726 C   0  0  0  0  0  0
   50.6391   42.7303   -3.7183 N   0  0  0  0  0  0
   51.5599   43.6098   -3.1559 C   0  0  0  0  0  0
   52.8233   43.6905   -3.7003 C   0  0  0  0  0  0
   53.7528   44.5823   -3.2990 N   0  0  0  0  0  0
   53.4225   45.4002   -2.2696 C   0  0  0  0  0  0
   52.2081   45.3602   -1.6318 N   0  0  0  0  0  0
   51.2993   44.4384   -2.0645 C   0  0  0  0  0  0
   54.5058   46.2949   -1.7197 C   0  0  0  0  0  0
   54.3445   46.7895   -0.4150 C   0  0  0  0  0  0
   55.2910   47.6099    0.1772 C   0  0  0  0  0  0
   56.4218   47.9981   -0.5281 C   0  0  0  0  0  0
   56.6198   47.5266   -1.8130 C   0  0  0  0  0  0
   55.7035   46.6549   -2.4089 C   0  0  0  0  0  0
   56.0671   46.1482   -3.8040 C   0  0  0  0  0  0
   57.4865   46.0797   -4.3477 C   0  0  0  0  0  0
   56.7546   44.8103   -4.0032 C   0  0  0  0  0  0
   47.3670   39.0454   -0.8834 C   0  0  0  0  0  0
   46.3506   38.1190   -1.5010 C   0  0  0  0  0  0
   47.6229   37.5602   -0.8991 C   0  0  0  0  0  0
   46.7770   40.6743   -4.9332 H   0  0  0  0  0  0
   47.3067   39.5744   -3.5395 H   0  0  0  0  0  0
   49.3841   40.5785    0.0598 H   0  0  0  0  0  0
   50.7898   42.1140   -1.1547 H   0  0  0  0  0  0
   50.6775   42.6155   -4.7228 H   0  0  0  0  0  0
   53.1145   43.0277   -4.4991 H   0  0  0  0  0  0
   50.3337   44.4465   -1.5810 H   0  0  0  0  0  0
   53.4766   46.5335    0.1751 H   0  0  0  0  0  0
   55.1232   47.9646    1.1792 H   0  0  0  0  0  0
   57.1601   48.6580   -0.0990 H   0  0  0  0  0  0
   57.5106   47.8423   -2.3339 H   0  0  0  0  0  0
   55.3178   46.4264   -4.5419 H   0  0  0  0  0  0
   57.6471   46.3320   -5.3969 H   0  0  0  0  0  0
   58.3386   46.3529   -3.7270 H   0  0  0  0  0  0
   57.0464   44.2497   -3.1143 H   0  0  0  0  0  0
   56.4229   44.1597   -4.8117 H   0  0  0  0  0  0
   47.0840   39.4474    0.0895 H   0  0  0  0  0  0
   46.2226   38.0331   -2.5785 H   0  0  0  0  0  0
   45.3983   38.0231   -0.9850 H   0  0  0  0  0  0
   47.6119   37.0399    0.0580 H   0  0  0  0  0  0
   48.3940   37.1696   -1.5650 H   0  0  0  0  0  0
  1  2  1  0  0  0
  1 29  1  0  0  0
  2  3  2  0  0  0
  2  4  1  0  0  0
  4  5  2  0  0  0
  4  9  1  0  0  0
  5  6  1  0  0  0
  5 30  1  0  0  0
  6  7  2  0  0  0
  6 26  1  0  0  0
  7  8  1  0  0  0
  7 31  1  0  0  0
  8  9  2  0  0  0
  8 32  1  0  0  0
  9 10  1  0  0  0
 10 11  1  0  0  0
 10 33  1  0  0  0
 11 12  2  0  0  0
 11 16  1  0  0  0
 12 13  1  0  0  0
 12 34  1  0  0  0
 13 14  2  0  0  0
 14 15  1  0  0  0
 14 17  1  0  0  0
 15 16  2  0  0  0
 16 35  1  0  0  0
 17 18  2  0  0  0
 17 22  1  0  0  0
 18 19  1  0  0  0
 18 36  1  0  0  0
 19 20  2  0  0  0
 19 37  1  0  0  0
 20 21  1  0  0  0
 20 38  1  0  0  0
 21 22  2  0  0  0
 21 39  1  0  0  0
 22 23  1  0  0  0
 23 24  1  0  0  0
 23 25  1  0  0  0
 23 40  1  0  0  0
 24 25  1  0  0  0
 24 41  1  0  0  0
 24 42  1  0  0  0
 25 43  1  0  0  0
 25 44  1  0  0  0
 26 27  1  0  0  0
 26 28  1  0  0  0
 26 45  1  0  0  0
 27 28  1  0  0  0
 27 46  1  0  0  0
 27 47  1  0  0  0
 28 48  1  0  0  0
 28 49  1  0  0  0
M  END
> <s_m_entry_id>
25573

> <s_m_entry_name>
dock_pv.225

> <s_m_Source_Path>
/home/csk/Desktop/cluster/DUD-E-result/pyrd

> <s_m_Source_File>
dock_pv.maegz

> <i_m_Source_File_Index>
225

> <chembl_id>
CHEMBL3674630

> <chembl_pref_name>
None

> <i_lp_mmshare_version>
53161

> <r_lp_tautomer_probability>
1

> <s_lp_Force_Field>
OPLS_2005

> <r_lp_Energy>
42.205963

> <b_lp_Chiralities_Consistent>
1

> <s_lp_Variant>
CHEMBL1966_lig420-1

> <s_i_glide_gridfile>
glide-grid_1d3g

> <i_i_glide_lignum>
470

> <i_i_glide_rotatable_bonds>
7

> <r_i_docking_score>
-9.68941236291039

> <r_i_glide_ligand_efficiency>
-0.346050441532514

> <r_i_glide_ligand_efficiency_sa>
-1.05081295330316

> <r_i_glide_ligand_efficiency_ln>
-2.23660086686871

> <r_i_glide_gscore>
-9.68941236291039

> <r_i_glide_lipo>
-5.54898992983546

> <r_i_glide_hbond>
0

> <r_i_glide_metal>
0

> <r_i_glide_rewards>
-2.61387752839295

> <r_i_glide_evdw>
-39.8699684143066

> <r_i_glide_ecoul>
-2.4836277961731

> <r_i_glide_erotb>
0.839497685459311

> <r_i_glide_esite>
0

> <r_i_glide_emodel>
-57.9520302729704

> <r_i_glide_energy>
-42.3535962104797

> <r_i_glide_einternal>
11.2563438415527

> <i_i_glide_confnum>
19

> <i_i_glide_posenum>
378

> <r_i_glide_eff_state_penalty>
0

> <s_user_duplicate_titles>
CHEMBL1966_lig420

> <i_f3d_flags>
0

> <s_m_subgroup_title>
dock_pv

> <s_m_subgroupid>
dock_pv

> <b_m_subgroup_collapsed>
1

$$$$
CHEMBL1966_lig436
                    3D
 Schrodinger Suite 2021-1.
 42 44  0  0  1  0            999 V2000
   47.1728   38.5138   -1.0106 C   0  0  0  0  0  0
   48.0015   39.6141   -1.6446 C   0  0  0  0  0  0
   48.8240   40.4098   -0.8493 C   0  0  0  0  0  0
   49.6237   41.3825   -1.4331 C   0  0  0  0  0  0
   49.5889   41.6273   -2.8104 C   0  0  0  0  0  0
   50.4634   42.5694   -3.3750 N   0  0  0  0  0  0
   51.2640   43.6074   -2.8900 C   0  0  0  0  0  0
   52.3593   44.0023   -3.6547 C   0  0  0  0  0  0
   53.2225   44.9762   -3.2738 N   0  0  0  0  0  0
   53.0136   45.6097   -2.0854 C   0  0  0  0  0  0
   51.8980   45.3030   -1.2735 C   0  0  0  0  0  0
   51.6214   45.9924    0.0553 C   0  0  0  0  0  0
   51.0187   44.2958   -1.6972 C   0  0  0  0  0  0
   54.0963   46.5694   -1.7218 C   0  0  0  0  0  0
   54.8205   46.4122   -0.5324 C   0  0  0  0  0  0
   55.8775   47.2621   -0.2233 C   0  0  0  0  0  0
   56.2254   48.2776   -1.1087 C   0  0  0  0  0  0
   55.5167   48.4506   -2.2947 C   0  0  0  0  0  0
   54.4527   47.6033   -2.5965 C   0  0  0  0  0  0
   48.6987   40.8793   -3.6237 C   0  0  0  0  0  0
   47.9310   39.8683   -3.0157 C   0  0  0  0  0  0
   48.4312   41.1842   -5.0915 C   0  0  0  0  0  0
   47.5014   40.6681   -5.7037 O   0  0  0  0  0  0
   49.2460   42.0939   -5.6936 O   0  0  0  0  0  0
   46.6079   38.9128   -0.1656 H   0  0  0  0  0  0
   47.8227   37.7261   -0.6286 H   0  0  0  0  0  0
   46.4603   38.0782   -1.7096 H   0  0  0  0  0  0
   48.8884   40.2274    0.2135 H   0  0  0  0  0  0
   50.3108   41.9150   -0.7966 H   0  0  0  0  0  0
   50.5352   42.4418   -4.3756 H   0  0  0  0  0  0
   52.5902   43.4835   -4.5700 H   0  0  0  0  0  0
   52.5148   46.0829    0.6663 H   0  0  0  0  0  0
   51.2281   46.9953   -0.1036 H   0  0  0  0  0  0
   50.9204   45.4096    0.6551 H   0  0  0  0  0  0
   50.1487   44.0630   -1.1029 H   0  0  0  0  0  0
   54.5835   45.6086    0.1481 H   0  0  0  0  0  0
   56.4298   47.1282    0.6957 H   0  0  0  0  0  0
   57.0528   48.9323   -0.8726 H   0  0  0  0  0  0
   55.7978   49.2354   -2.9802 H   0  0  0  0  0  0
   53.9150   47.7365   -3.5253 H   0  0  0  0  0  0
   47.2517   39.2719   -3.6080 H   0  0  0  0  0  0
   48.8842   42.3660   -6.5365 H   0  0  0  0  0  0
  1  2  1  0  0  0
  1 25  1  0  0  0
  1 26  1  0  0  0
  1 27  1  0  0  0
  2  3  2  0  0  0
  2 21  1  0  0  0
  3  4  1  0  0  0
  3 28  1  0  0  0
  4  5  2  0  0  0
  4 29  1  0  0  0
  5  6  1  0  0  0
  5 20  1  0  0  0
  6  7  1  0  0  0
  6 30  1  0  0  0
  7  8  2  0  0  0
  7 13  1  0  0  0
  8  9  1  0  0  0
  8 31  1  0  0  0
  9 10  2  0  0  0
 10 11  1  0  0  0
 10 14  1  0  0  0
 11 12  1  0  0  0
 11 13  2  0  0  0
 12 32  1  0  0  0
 12 33  1  0  0  0
 12 34  1  0  0  0
 13 35  1  0  0  0
 14 15  2  0  0  0
 14 19  1  0  0  0
 15 16  1  0  0  0
 15 36  1  0  0  0
 16 17  2  0  0  0
 16 37  1  0  0  0
 17 18  1  0  0  0
 17 38  1  0  0  0
 18 19  2  0  0  0
 18 39  1  0  0  0
 19 40  1  0  0  0
 20 21  2  0  0  0
 20 22  1  0  0  0
 21 41  1  0  0  0
 22 23  2  0  0  0
 22 24  1  0  0  0
 24 42  1  0  0  0
M  END
> <s_m_entry_id>
25574

> <s_m_entry_name>
dock_pv.226

> <s_m_Source_Path>
/home/csk/Desktop/cluster/DUD-E-result/pyrd

> <s_m_Source_File>
dock_pv.maegz

> <i_m_Source_File_Index>
226

> <chembl_id>
CHEMBL3674646

> <chembl_pref_name>
None

> <i_lp_mmshare_version>
53161

> <r_lp_tautomer_probability>
0.999999999999999

> <s_lp_Force_Field>
OPLS_2005

> <r_lp_Energy>
29.298816

> <b_lp_Chiralities_Consistent>
1

> <s_lp_Variant>
CHEMBL1966_lig436-1

> <s_i_glide_gridfile>
glide-grid_1d3g

> <i_i_glide_lignum>
486

> <i_i_glide_rotatable_bonds>
5

> <r_i_docking_score>
-9.68504265222932

> <r_i_glide_ligand_efficiency>
-0.403543443842888

> <r_i_glide_ligand_efficiency_sa>
-1.16402071573245

> <r_i_glide_ligand_efficiency_ln>
-2.31807512432714

> <r_i_glide_gscore>
-9.68504265222932

> <r_i_glide_lipo>
-5.58999625989865

> <r_i_glide_hbond>
-0.0572580229150774

> <r_i_glide_metal>
0

> <r_i_glide_rewards>
-2.40034380697865

> <r_i_glide_evdw>
-44.250373840332

> <r_i_glide_ecoul>
-1.07123172283173

> <r_i_glide_erotb>
0.735758888004422

> <r_i_glide_esite>
0

> <r_i_glide_emodel>
-63.8922896866666

> <r_i_glide_energy>
-45.3216055631638

> <r_i_glide_einternal>
14.6556396484375

> <i_i_glide_confnum>
43

> <i_i_glide_posenum>
218

> <r_i_glide_eff_state_penalty>
0

> <s_user_duplicate_titles>
CHEMBL1966_lig436

> <i_f3d_flags>
0

> <s_m_subgroup_title>
dock_pv

> <s_m_subgroupid>
dock_pv

> <b_m_subgroup_collapsed>
1

$$$$
CHEMBL1966_lig600
                    3D
 Schrodinger Suite 2021-1.
 37 40  0  0  1  0            999 V2000
   47.8871   39.3826   -0.6542 C   0  0  0  0  0  0
   47.3570   38.9895   -1.8763 C   0  0  0  0  0  0
   47.7368   39.6349   -3.0493 C   0  0  0  0  0  0
   48.8231   40.4099   -0.5794 C   0  0  0  0  0  0
   49.2230   41.0891   -1.7524 C   0  0  0  0  0  0
   48.6549   40.7279   -3.0165 C   0  0  0  0  0  0
   49.0263   41.5276   -4.1495 C   0  0  0  0  0  0
   49.9250   42.5843   -3.9626 C   0  0  0  0  0  0
   50.4215   42.8651   -2.6914 C   0  0  0  0  0  0
   50.0842   42.1284   -1.6070 N   0  0  0  0  0  0
   51.3501   43.9982   -2.4349 C   0  0  0  0  0  0
   51.2204   44.8119   -1.2978 C   0  0  0  0  0  0
   52.1459   45.8211   -1.0342 C   0  0  0  0  0  0
   53.2285   46.0051   -1.8991 C   0  0  0  0  0  0
   53.3595   45.2110   -3.0375 C   0  0  0  0  0  0
   52.4230   44.2196   -3.3037 C   0  0  0  0  0  0
   48.4849   41.2846   -5.5283 C   0  0  0  0  0  0
   47.1262   41.2083   -5.6297 O   0  0  0  0  0  0
   49.2280   41.2086   -6.4966 O   0  0  0  0  0  0
   54.2357   46.9405   -1.6141 N   0  0  0  0  0  0
   54.8969   47.1362   -0.4245 C   0  0  0  0  0  0
   55.8714   48.0122   -0.4988 N   0  0  0  0  0  0
   55.8403   48.4471   -1.7443 C   0  0  0  0  0  0
   54.8534   47.8108   -2.4813 C   0  0  0  0  0  0
   47.5825   38.8707    0.2450 H   0  0  0  0  0  0
   46.6480   38.1756   -1.9129 H   0  0  0  0  0  0
   47.3188   39.3011   -3.9863 H   0  0  0  0  0  0
   49.2402   40.6973    0.3764 H   0  0  0  0  0  0
   50.2091   43.2097   -4.7981 H   0  0  0  0  0  0
   50.4043   44.6544   -0.6069 H   0  0  0  0  0  0
   52.0311   46.4285   -0.1473 H   0  0  0  0  0  0
   54.2028   45.3354   -3.7012 H   0  0  0  0  0  0
   52.5619   43.5903   -4.1713 H   0  0  0  0  0  0
   46.6784   41.4295   -4.8106 H   0  0  0  0  0  0
   54.6239   46.5577    0.4440 H   0  0  0  0  0  0
   56.5245   49.2018   -2.1054 H   0  0  0  0  0  0
   54.5447   47.8841   -3.5146 H   0  0  0  0  0  0
  1  2  2  0  0  0
  1  4  1  0  0  0
  1 25  1  0  0  0
  2  3  1  0  0  0
  2 26  1  0  0  0
  3  6  2  0  0  0
  3 27  1  0  0  0
  4  5  2  0  0  0
  4 28  1  0  0  0
  5  6  1  0  0  0
  5 10  1  0  0  0
  6  7  1  0  0  0
  7  8  2  0  0  0
  7 17  1  0  0  0
  8  9  1  0  0  0
  8 29  1  0  0  0
  9 10  2  0  0  0
  9 11  1  0  0  0
 11 12  2  0  0  0
 11 16  1  0  0  0
 12 13  1  0  0  0
 12 30  1  0  0  0
 13 14  2  0  0  0
 13 31  1  0  0  0
 14 15  1  0  0  0
 14 20  1  0  0  0
 15 16  2  0  0  0
 15 32  1  0  0  0
 16 33  1  0  0  0
 17 18  1  0  0  0
 17 19  2  0  0  0
 18 34  1  0  0  0
 20 21  1  0  0  0
 20 24  1  0  0  0
 21 22  2  0  0  0
 21 35  1  0  0  0
 22 23  1  0  0  0
 23 24  2  0  0  0
 23 36  1  0  0  0
 24 37  1  0  0  0
M  END
> <s_m_entry_id>
25575

> <s_m_entry_name>
dock_pv.227

> <s_m_Source_Path>
/home/csk/Desktop/cluster/DUD-E-result/pyrd

> <s_m_Source_File>
dock_pv.maegz

> <i_m_Source_File_Index>
227

> <chembl_id>
CHEMBL4225229

> <chembl_pref_name>
None

> <i_lp_mmshare_version>
53161

> <r_lp_tautomer_probability>
1

> <s_lp_Force_Field>
OPLS_2005

> <r_lp_Energy>
23.448753

> <b_lp_Chiralities_Consistent>
1

> <s_lp_Variant>
CHEMBL1966_lig600-1

> <s_i_glide_gridfile>
glide-grid_1d3g

> <i_i_glide_lignum>
654

> <i_i_glide_rotatable_bonds>
4

> <r_i_docking_score>
-9.68374430646429

> <r_i_glide_ligand_efficiency>
-0.403489346102679

> <r_i_glide_ligand_efficiency_sa>
-1.16386467084747

> <r_i_glide_ligand_efficiency_ln>
-2.31776437060837

> <r_i_glide_gscore>
-9.68374430646429

> <r_i_glide_lipo>
-4.95026603273217

> <r_i_glide_hbond>
-0.16

> <r_i_glide_metal>
0

> <r_i_glide_rewards>
-2.54801984889679

> <r_i_glide_evdw>
-37.2586822509766

> <r_i_glide_ecoul>
-4.82501983642578

> <r_i_glide_erotb>
0.561228663177365

> <r_i_glide_esite>
0

> <r_i_glide_emodel>
-64.3178126000857

> <r_i_glide_energy>
-42.0837020874023

> <r_i_glide_einternal>
4.47406339645386

> <i_i_glide_confnum>
5

> <i_i_glide_posenum>
43

> <r_i_glide_eff_state_penalty>
0

> <s_user_duplicate_titles>
CHEMBL1966_lig600

> <i_f3d_flags>
0

> <s_m_subgroup_title>
dock_pv

> <s_m_subgroupid>
dock_pv

> <b_m_subgroup_collapsed>
1

$$$$
CHEMBL1966_lig71
                    3D
 Schrodinger Suite 2021-1.
 45 47  0  0  1  0            999 V2000
   54.9785   47.1433   -1.0661 C   0  0  0  0  0  0
   53.8639   46.9004   -1.8239 C   0  0  0  0  0  0
   52.6802   46.1421   -1.4321 C   0  0  0  0  0  0
   52.4230   45.1265   -2.2799 N   0  0  0  0  0  0
   55.2341   46.7258    0.3002 C   0  0  0  0  0  0
   51.4635   44.0898   -2.1918 C   0  0  0  0  0  0
   54.0205   47.5064   -3.2113 C   0  0  0  0  0  0
   49.7793   41.8107   -2.1054 C   0  0  0  0  0  0
   51.2545   43.3059   -3.3319 C   0  0  0  0  0  0
   56.0648   47.8500   -1.8702 C   0  0  1  0  0  0
   50.4227   42.1925   -3.2873 C   0  0  0  0  0  0
   48.7848   40.6898   -2.0992 C   0  0  0  0  0  0
   51.9920   46.4098   -0.4484 O   0  0  0  0  0  0
   56.3473   46.4106    0.7010 O   0  0  0  0  0  0
   48.0327   40.4100   -3.2524 C   0  0  0  0  0  0
   55.4842   47.9240   -3.2787 C   0  0  0  0  0  0
   50.8199   43.7263   -1.0028 C   0  0  0  0  0  0
   50.0230   42.5838   -0.9585 C   0  0  0  0  0  0
   51.8654   43.6096   -4.4966 F   0  0  0  0  0  0
   54.1666   46.8096    1.1326 O   0  0  0  0  0  0
   46.9256   39.5518   -3.2252 C   0  0  0  0  0  0
   56.4219   49.1133   -1.3400 O   0  0  0  0  0  0
   46.0228   39.4226   -4.2578 O   0  0  0  0  0  0
   48.4231   40.0100   -0.9229 C   0  0  0  0  0  0
   47.4187   39.0431   -0.9213 C   0  0  0  0  0  0
   46.6718   38.8155   -2.0712 C   0  0  0  0  0  0
   46.0134   40.3938   -5.2983 C   0  0  0  0  0  0
   52.9929   45.0892   -3.1111 H   0  0  0  0  0  0
   53.7741   46.8245   -4.0275 H   0  0  0  0  0  0
   53.3614   48.3717   -3.2986 H   0  0  0  0  0  0
   56.9666   47.2337   -1.8996 H   0  0  0  0  0  0
   50.2900   41.6250   -4.1944 H   0  0  0  0  0  0
   48.2311   40.9731   -4.1484 H   0  0  0  0  0  0
   55.6010   48.9121   -3.7264 H   0  0  0  0  0  0
   56.0252   47.2364   -3.9302 H   0  0  0  0  0  0
   50.9639   44.2801   -0.0880 H   0  0  0  0  0  0
   49.5407   42.3421   -0.0235 H   0  0  0  0  0  0
   54.4220   46.5715    2.0306 H   0  0  0  0  0  0
   56.9657   48.9715   -0.5583 H   0  0  0  0  0  0
   48.9530   40.1912   -0.0004 H   0  0  0  0  0  0
   47.1914   38.4958   -0.0212 H   0  0  0  0  0  0
   45.8494   38.1168   -2.0467 H   0  0  0  0  0  0
   45.2228   40.1417   -6.0030 H   0  0  0  0  0  0
   45.8072   41.3922   -4.9087 H   0  0  0  0  0  0
   46.9511   40.4103   -5.8551 H   0  0  0  0  0  0
  1  2  2  0  0  0
  1  5  1  0  0  0
  1 10  1  0  0  0
  2  3  1  0  0  0
  2  7  1  0  0  0
  3  4  1  0  0  0
  3 13  2  0  0  0
  4  6  1  0  0  0
  4 28  1  0  0  0
  5 14  2  0  0  0
  5 20  1  0  0  0
  6  9  1  0  0  0
  6 17  2  0  0  0
  7 16  1  0  0  0
  7 29  1  0  0  0
  7 30  1  0  0  0
  8 18  2  0  0  0
  8 12  1  0  0  0
  8 11  1  0  0  0
  9 11  2  0  0  0
  9 19  1  0  0  0
 10 16  1  0  0  0
 10 22  1  0  0  0
 10 31  1  0  0  0
 11 32  1  0  0  0
 12 15  1  0  0  0
 12 24  2  0  0  0
 15 21  2  0  0  0
 15 33  1  0  0  0
 16 34  1  0  0  0
 16 35  1  0  0  0
 17 18  1  0  0  0
 17 36  1  0  0  0
 18 37  1  0  0  0
 20 38  1  0  0  0
 21 23  1  0  0  0
 21 26  1  0  0  0
 22 39  1  0  0  0
 23 27  1  0  0  0
 24 25  1  0  0  0
 24 40  1  0  0  0
 25 26  2  0  0  0
 25 41  1  0  0  0
 26 42  1  0  0  0
 27 43  1  0  0  0
 27 44  1  0  0  0
 27 45  1  0  0  0
M  END
> <s_m_entry_id>
25576

> <s_m_entry_name>
dock_pv.228

> <s_m_Source_Path>
/home/csk/Desktop/cluster/DUD-E-result/pyrd

> <s_m_Source_File>
dock_pv.maegz

> <i_m_Source_File_Index>
228

> <chembl_id>
CHEMBL194395

> <chembl_pref_name>
None

> <i_lp_mmshare_version>
53161

> <r_lp_tautomer_probability>
1

> <s_lp_Force_Field>
OPLS_2005

> <r_lp_Energy>
48.00629

> <b_lp_Chiralities_Consistent>
1

> <s_lp_Variant>
CHEMBL1966_lig71-2

> <s_i_glide_gridfile>
glide-grid_1d3g

> <i_i_glide_lignum>
78

> <i_i_glide_rotatable_bonds>
8

> <r_i_docking_score>
-9.68034758132697

> <r_i_glide_ligand_efficiency>
-0.358531391900999

> <r_i_glide_ligand_efficiency_sa>
-1.07559417452134

> <r_i_glide_ligand_efficiency_ln>
-2.25342532393017

> <r_i_glide_gscore>
-9.68034758132697

> <r_i_glide_lipo>
-5.27876520252272

> <r_i_glide_hbond>
-0.0155740419475416

> <r_i_glide_metal>
0

> <r_i_glide_rewards>
-2.41917219644992

> <r_i_glide_evdw>
-41.202075958252

> <r_i_glide_ecoul>
-4.04372453689575

> <r_i_glide_erotb>
0.69982633804017

> <r_i_glide_esite>
0

> <r_i_glide_emodel>
-59.5374046318056

> <r_i_glide_energy>
-45.2458004951477

> <r_i_glide_einternal>
5.42543649673462

> <i_i_glide_confnum>
78

> <i_i_glide_posenum>
89

> <r_i_glide_eff_state_penalty>
0

> <s_user_duplicate_titles>
CHEMBL1966_lig71,327243

> <i_f3d_flags>
0

> <s_m_subgroup_title>
dock_pv

> <s_m_subgroupid>
dock_pv

> <b_m_subgroup_collapsed>
1

$$$$
CHEMBL1966_lig434
                    3D
 Schrodinger Suite 2021-1.
 46 48  0  0  1  0            999 V2000
   56.5675   49.6100   -3.6648 C   0  0  0  0  0  0
   56.6504   48.0827   -3.8037 C   0  0  0  0  0  0
   55.3578   47.4749   -3.8438 O   0  0  0  0  0  0
   54.7030   47.1579   -2.6683 C   0  0  0  0  0  0
   55.1006   47.5942   -1.3992 C   0  0  0  0  0  0
   54.3855   47.2085   -0.2731 C   0  0  0  0  0  0
   53.2766   46.3717   -0.3887 C   0  0  0  0  0  0
   52.6610   46.0100    0.7599 F   0  0  0  0  0  0
   52.8618   45.8766   -1.6462 C   0  0  0  0  0  0
   53.5886   46.3209   -2.7699 C   0  0  0  0  0  0
   51.7945   44.8100   -1.7923 C   0  0  0  0  0  0
   50.8230   44.5343   -0.8170 C   0  0  0  0  0  0
   50.0855   43.3495   -0.8990 C   0  0  0  0  0  0
   50.2796   42.4717   -1.9683 C   0  0  0  0  0  0
   49.6230   41.2276   -1.9609 N   0  0  0  0  0  0
   48.7090   40.6803   -2.8792 C   0  0  0  0  0  0
   48.6963   41.1358   -4.2073 C   0  0  0  0  0  0
   47.6499   40.8100   -5.0655 C   0  0  0  0  0  0
   46.5963   40.0271   -4.6062 C   0  0  0  0  0  0
   45.3720   39.7924   -5.4624 C   0  0  0  0  0  0
   46.6582   39.4701   -3.3375 C   0  0  0  0  0  0
   47.7054   39.7638   -2.4564 C   0  0  0  0  0  0
   47.6230   39.0989   -1.0939 C   0  0  0  0  0  0
   46.8742   38.1453   -0.8990 O   0  0  0  0  0  0
   48.4003   39.6100   -0.0990 O   0  0  0  0  0  0
   51.1734   42.8664   -2.9661 C   0  0  0  0  0  0
   51.9037   44.0100   -2.8990 N   0  0  0  0  0  0
   57.5630   50.0536   -3.6558 H   0  0  0  0  0  0
   56.0230   50.0485   -4.4990 H   0  0  0  0  0  0
   56.0657   49.9153   -2.7478 H   0  0  0  0  0  0
   57.2809   47.6443   -3.0278 H   0  0  0  0  0  0
   57.1445   47.8452   -4.7462 H   0  0  0  0  0  0
   55.9612   48.2295   -1.2620 H   0  0  0  0  0  0
   54.6993   47.5486    0.7034 H   0  0  0  0  0  0
   53.3154   45.9775   -3.7571 H   0  0  0  0  0  0
   50.6762   45.1752    0.0367 H   0  0  0  0  0  0
   49.3887   43.1058   -0.1103 H   0  0  0  0  0  0
   49.3579   40.9331   -1.0291 H   0  0  0  0  0  0
   49.4367   41.8245   -4.5745 H   0  0  0  0  0  0
   47.6207   41.2493   -6.0511 H   0  0  0  0  0  0
   45.6230   39.6100   -6.4990 H   0  0  0  0  0  0
   44.7399   40.6792   -5.4244 H   0  0  0  0  0  0
   44.8230   38.9118   -5.1294 H   0  0  0  0  0  0
   45.8417   38.8305   -3.0284 H   0  0  0  0  0  0
   48.1913   39.1575    0.7303 H   0  0  0  0  0  0
   51.3972   42.2212   -3.7992 H   0  0  0  0  0  0
  1  2  1  0  0  0
  1 28  1  0  0  0
  1 29  1  0  0  0
  1 30  1  0  0  0
  2  3  1  0  0  0
  2 31  1  0  0  0
  2 32  1  0  0  0
  3  4  1  0  0  0
  4  5  2  0  0  0
  4 10  1  0  0  0
  5  6  1  0  0  0
  5 33  1  0  0  0
  6  7  2  0  0  0
  6 34  1  0  0  0
  7  8  1  0  0  0
  7  9  1  0  0  0
  9 10  2  0  0  0
  9 11  1  0  0  0
 10 35  1  0  0  0
 11 12  2  0  0  0
 11 27  1  0  0  0
 12 13  1  0  0  0
 12 36  1  0  0  0
 13 14  2  0  0  0
 13 37  1  0  0  0
 14 15  1  0  0  0
 14 26  1  0  0  0
 15 16  1  0  0  0
 15 38  1  0  0  0
 16 17  2  0  0  0
 16 22  1  0  0  0
 17 18  1  0  0  0
 17 39  1  0  0  0
 18 19  2  0  0  0
 18 40  1  0  0  0
 19 20  1  0  0  0
 19 21  1  0  0  0
 20 41  1  0  0  0
 20 42  1  0  0  0
 20 43  1  0  0  0
 21 22  2  0  0  0
 21 44  1  0  0  0
 22 23  1  0  0  0
 23 24  2  0  0  0
 23 25  1  0  0  0
 25 45  1  0  0  0
 26 27  2  0  0  0
 26 46  1  0  0  0
M  END
> <s_m_entry_id>
25577

> <s_m_entry_name>
dock_pv.229

> <s_m_Source_Path>
/home/csk/Desktop/cluster/DUD-E-result/pyrd

> <s_m_Source_File>
dock_pv.maegz

> <i_m_Source_File_Index>
229

> <chembl_id>
CHEMBL3674644

> <chembl_pref_name>
None

> <i_lp_mmshare_version>
53161

> <r_lp_tautomer_probability>
0.999999999999999

> <s_lp_Force_Field>
OPLS_2005

> <r_lp_Energy>
31.951456

> <b_lp_Chiralities_Consistent>
1

> <s_lp_Variant>
CHEMBL1966_lig434-1

> <s_i_glide_gridfile>
glide-grid_1d3g

> <i_i_glide_lignum>
484

> <i_i_glide_rotatable_bonds>
7

> <r_i_docking_score>
-9.67024924653431

> <r_i_glide_ligand_efficiency>
-0.358157379501271

> <r_i_glide_ligand_efficiency_sa>
-1.07447213732338

> <r_i_glide_ligand_efficiency_ln>
-2.2510745980745

> <r_i_glide_gscore>
-9.67024924653431

> <r_i_glide_lipo>
-5.23000372277978

> <r_i_glide_hbond>
0

> <r_i_glide_metal>
0

> <r_i_glide_rewards>
-2.37525304687905

> <r_i_glide_evdw>
-43.3672637939453

> <r_i_glide_ecoul>
-4.09012985229492

> <r_i_glide_erotb>
0.71689019066603

> <r_i_glide_esite>
0

> <r_i_glide_emodel>
-38.4043294644304

> <r_i_glide_energy>
-47.4573936462402

> <r_i_glide_einternal>
23.9879951477051

> <i_i_glide_confnum>
18

> <i_i_glide_posenum>
189

> <r_i_glide_eff_state_penalty>
0

> <s_user_duplicate_titles>
CHEMBL1966_lig434

> <i_f3d_flags>
0

> <s_m_subgroup_title>
dock_pv

> <s_m_subgroupid>
dock_pv

> <b_m_subgroup_collapsed>
1

$$$$
CHEMBL1966_lig421
                    3D
 Schrodinger Suite 2021-1.
 43 46  0  0  1  0            999 V2000
   47.7222   42.0157   -5.6993 O   0  0  0  0  0  0
   48.9637   42.1631   -5.1575 C   0  0  0  0  0  0
   49.8392   42.8603   -5.6652 O   0  0  0  0  0  0
   49.0750   41.5103   -3.8030 C   0  0  0  0  0  0
   48.2437   40.4100   -3.5428 C   0  0  0  0  0  0
   48.1153   39.8800   -2.2666 C   0  0  0  0  0  0
   48.8798   40.4102   -1.2299 C   0  0  0  0  0  0
   49.7623   41.4597   -1.4840 C   0  0  0  0  0  0
   49.8691   42.0345   -2.7579 C   0  0  0  0  0  0
   50.7400   43.1222   -2.9726 N   0  0  0  0  0  0
   51.2673   44.1002   -2.1125 C   0  0  0  0  0  0
   50.6990   44.4177   -0.8781 C   0  0  0  0  0  0
   51.2230   45.3437   -0.0430 N   0  0  0  0  0  0
   52.3306   46.0116   -0.4375 C   0  0  0  0  0  0
   52.9886   45.7822   -1.6529 C   0  0  0  0  0  0
   52.4228   44.8100   -2.4989 C   0  0  0  0  0  0
   54.2480   46.5105   -1.9964 C   0  0  0  0  0  0
   54.5826   46.7762   -3.3304 C   0  0  0  0  0  0
   55.7667   47.4349   -3.6507 C   0  0  0  0  0  0
   56.6229   47.8518   -2.6358 C   0  0  0  0  0  0
   56.3070   47.6082   -1.3032 C   0  0  0  0  0  0
   55.1298   46.9342   -0.9883 C   0  0  0  0  0  0
   47.1233   38.7564   -2.0344 C   0  0  0  0  0  0
   47.2326   37.7664   -0.8991 C   0  0  0  0  0  0
   46.1404   38.8102   -0.8991 C   0  0  0  0  0  0
   47.5441   42.7231   -6.3306 H   0  0  0  0  0  0
   47.6280   39.9886   -4.3257 H   0  0  0  0  0  0
   48.8082   40.0106   -0.2291 H   0  0  0  0  0  0
   50.3749   41.8125   -0.6697 H   0  0  0  0  0  0
   51.0390   43.2034   -3.9353 H   0  0  0  0  0  0
   49.7863   43.9541   -0.5382 H   0  0  0  0  0  0
   52.6891   46.7482    0.2658 H   0  0  0  0  0  0
   52.8921   44.5728   -3.4422 H   0  0  0  0  0  0
   53.9232   46.4753   -4.1308 H   0  0  0  0  0  0
   56.0213   47.6181   -4.6831 H   0  0  0  0  0  0
   57.5409   48.3645   -2.8837 H   0  0  0  0  0  0
   56.9771   47.9323   -0.5194 H   0  0  0  0  0  0
   54.9177   46.7354    0.0518 H   0  0  0  0  0  0
   46.7246   38.3451   -2.9620 H   0  0  0  0  0  0
   48.0234   37.8597   -0.1577 H   0  0  0  0  0  0
   46.9676   36.7254   -1.0718 H   0  0  0  0  0  0
   45.1123   38.5100   -1.0852 H   0  0  0  0  0  0
   46.2020   39.6128   -0.1647 H   0  0  0  0  0  0
  1  2  1  0  0  0
  1 26  1  0  0  0
  2  3  2  0  0  0
  2  4  1  0  0  0
  4  5  2  0  0  0
  4  9  1  0  0  0
  5  6  1  0  0  0
  5 27  1  0  0  0
  6  7  2  0  0  0
  6 23  1  0  0  0
  7  8  1  0  0  0
  7 28  1  0  0  0
  8  9  2  0  0  0
  8 29  1  0  0  0
  9 10  1  0  0  0
 10 11  1  0  0  0
 10 30  1  0  0  0
 11 12  2  0  0  0
 11 16  1  0  0  0
 12 13  1  0  0  0
 12 31  1  0  0  0
 13 14  2  0  0  0
 14 15  1  0  0  0
 14 32  1  0  0  0
 15 16  2  0  0  0
 15 17  1  0  0  0
 16 33  1  0  0  0
 17 18  2  0  0  0
 17 22  1  0  0  0
 18 19  1  0  0  0
 18 34  1  0  0  0
 19 20  2  0  0  0
 19 35  1  0  0  0
 20 21  1  0  0  0
 20 36  1  0  0  0
 21 22  2  0  0  0
 21 37  1  0  0  0
 22 38  1  0  0  0
 23 24  1  0  0  0
 23 25  1  0  0  0
 23 39  1  0  0  0
 24 25  1  0  0  0
 24 40  1  0  0  0
 24 41  1  0  0  0
 25 42  1  0  0  0
 25 43  1  0  0  0
M  END
> <s_m_entry_id>
25578

> <s_m_entry_name>
dock_pv.230

> <s_m_Source_Path>
/home/csk/Desktop/cluster/DUD-E-result/pyrd

> <s_m_Source_File>
dock_pv.maegz

> <i_m_Source_File_Index>
230

> <chembl_id>
CHEMBL3674631

> <chembl_pref_name>
None

> <i_lp_mmshare_version>
53161

> <r_lp_tautomer_probability>
0.999999999999999

> <s_lp_Force_Field>
OPLS_2005

> <r_lp_Energy>
34.624006

> <b_lp_Chiralities_Consistent>
1

> <s_lp_Variant>
CHEMBL1966_lig421-1

> <s_i_glide_gridfile>
glide-grid_1d3g

> <i_i_glide_lignum>
471

> <i_i_glide_rotatable_bonds>
6

> <r_i_docking_score>
-9.6669170640924

> <r_i_glide_ligand_efficiency>
-0.386676682563696

> <r_i_glide_ligand_efficiency_sa>
-1.13064947755641

> <r_i_glide_ligand_efficiency_ln>
-2.29134903831743

> <r_i_glide_gscore>
-9.6669170640924

> <r_i_glide_lipo>
-5.68367492384158

> <r_i_glide_hbond>
0

> <r_i_glide_metal>
0

> <r_i_glide_rewards>
-2.14417677632144

> <r_i_glide_evdw>
-41.6832466125488

> <r_i_glide_ecoul>
-4.10955715179443

> <r_i_glide_erotb>
0.861530539467224

> <r_i_glide_esite>
0

> <r_i_glide_emodel>
-63.6941523538826

> <r_i_glide_energy>
-45.7928037643433

> <r_i_glide_einternal>
14.6788682937622

> <i_i_glide_confnum>
56

> <i_i_glide_posenum>
150

> <r_i_glide_eff_state_penalty>
0

> <s_user_duplicate_titles>
CHEMBL1966_lig421

> <i_f3d_flags>
0

> <s_m_subgroup_title>
dock_pv

> <s_m_subgroupid>
dock_pv

> <b_m_subgroup_collapsed>
1

$$$$
CHEMBL1966_lig16
                    3D
 Schrodinger Suite 2021-1.
 40 42  0  0  1  0            999 V2000
   52.7319   46.0023   -1.9163 C   0  0  0  0  0  0
   54.0553   46.5772   -2.0633 C   0  0  0  0  0  0
   51.4930   43.9280   -2.4990 C   0  0  0  0  0  0
   52.5967   44.8100   -2.5245 N   0  0  0  0  0  0
   54.9249   46.8722   -1.0500 C   0  0  0  0  0  0
   49.6230   41.7845   -2.4597 C   0  0  0  0  0  0
   50.7026   43.6904   -1.3598 C   0  0  0  0  0  0
   51.3297   43.0835   -3.6006 C   0  0  0  0  0  0
   54.7080   46.6668    0.3788 C   0  0  0  0  0  0
   49.8015   42.6319   -1.3544 C   0  0  0  0  0  0
   50.4131   42.0376   -3.5788 C   0  0  0  0  0  0
   48.6294   40.6585   -2.4114 C   0  0  0  0  0  0
   51.8274   46.5556   -1.2990 O   0  0  0  0  0  0
   47.7947   40.2801   -3.4921 C   0  0  0  0  0  0
   53.6378   46.4100    0.9225 O   0  0  0  0  0  0
   52.1172   43.2100   -4.6827 F   0  0  0  0  0  0
   50.8230   44.4100   -0.2209 F   0  0  0  0  0  0
   55.8527   46.8100    1.1010 O   0  0  0  0  0  0
   54.6636   46.8898   -3.4219 C   0  0  0  0  0  0
   47.8791   40.9968   -5.0688 Cl  0  0  0  0  0  0
   56.2257   47.4312   -1.6143 C   0  0  0  0  0  0
   55.9008   47.7056   -3.0763 C   0  0  0  0  0  0
   48.4230   40.0100   -1.1794 C   0  0  0  0  0  0
   46.7799   39.3395   -3.2990 C   0  0  0  0  0  0
   47.4391   39.0402   -1.0122 C   0  0  0  0  0  0
   46.6041   38.7162   -2.0702 C   0  0  0  0  0  0
   53.3421   44.5417   -3.1488 H   0  0  0  0  0  0
   49.2252   42.4862   -0.4528 H   0  0  0  0  0  0
   50.3584   41.3944   -4.4400 H   0  0  0  0  0  0
   55.6390   46.8100    2.0422 H   0  0  0  0  0  0
   54.0026   47.4546   -4.0810 H   0  0  0  0  0  0
   54.9247   45.9674   -3.9428 H   0  0  0  0  0  0
   57.0234   46.6939   -1.5135 H   0  0  0  0  0  0
   56.5656   48.3400   -1.1137 H   0  0  0  0  0  0
   55.6836   48.7678   -3.2063 H   0  0  0  0  0  0
   56.7411   47.4766   -3.7334 H   0  0  0  0  0  0
   49.0381   40.2485   -0.3240 H   0  0  0  0  0  0
   46.1085   39.0975   -4.1087 H   0  0  0  0  0  0
   47.3141   38.5508   -0.0598 H   0  0  0  0  0  0
   45.8230   37.9835   -1.9366 H   0  0  0  0  0  0
  1  2  1  0  0  0
  1  4  1  0  0  0
  1 13  2  0  0  0
  2  5  2  0  0  0
  2 19  1  0  0  0
  3  4  1  0  0  0
  3  7  2  0  0  0
  3  8  1  0  0  0
  4 27  1  0  0  0
  5  9  1  0  0  0
  5 21  1  0  0  0
  6 11  1  0  0  0
  6 12  1  0  0  0
  6 10  2  0  0  0
  7 10  1  0  0  0
  7 17  1  0  0  0
  8 11  2  0  0  0
  8 16  1  0  0  0
  9 15  2  0  0  0
  9 18  1  0  0  0
 10 28  1  0  0  0
 11 29  1  0  0  0
 12 14  2  0  0  0
 12 23  1  0  0  0
 14 20  1  0  0  0
 14 24  1  0  0  0
 18 30  1  0  0  0
 19 22  1  0  0  0
 19 31  1  0  0  0
 19 32  1  0  0  0
 21 22  1  0  0  0
 21 33  1  0  0  0
 21 34  1  0  0  0
 22 35  1  0  0  0
 22 36  1  0  0  0
 23 25  2  0  0  0
 23 37  1  0  0  0
 24 26  2  0  0  0
 24 38  1  0  0  0
 25 26  1  0  0  0
 25 39  1  0  0  0
 26 40  1  0  0  0
M  END
> <s_m_entry_id>
25579

> <s_m_entry_name>
dock_pv.231

> <s_m_Source_Path>
/home/csk/Desktop/cluster/DUD-E-result/pyrd

> <s_m_Source_File>
dock_pv.maegz

> <i_m_Source_File_Index>
231

> <chembl_id>
CHEMBL345147

> <chembl_pref_name>
None

> <i_lp_mmshare_version>
53161

> <r_lp_tautomer_probability>
1

> <s_lp_Force_Field>
OPLS_2005

> <r_lp_Energy>
44.913713

> <b_lp_Chiralities_Consistent>
1

> <s_lp_Variant>
CHEMBL1966_lig16-1

> <s_i_glide_gridfile>
glide-grid_1d3g

> <i_i_glide_lignum>
19

> <i_i_glide_rotatable_bonds>
6

> <r_i_docking_score>
-9.66499016764797

> <r_i_glide_ligand_efficiency>
-0.371730391063384

> <r_i_glide_ligand_efficiency_sa>
-1.10124982083682

> <r_i_glide_ligand_efficiency_ln>
-2.26979122745272

> <r_i_glide_gscore>
-9.66499016764797

> <r_i_glide_lipo>
-5.25182442982218

> <r_i_glide_hbond>
0

> <r_i_glide_metal>
0

> <r_i_glide_rewards>
-2.95333917561285

> <r_i_glide_evdw>
-34.1831550598145

> <r_i_glide_ecoul>
-2.8626070022583

> <r_i_glide_erotb>
0.67872224111652

> <r_i_glide_esite>
0

> <r_i_glide_emodel>
-50.472852218335

> <r_i_glide_energy>
-37.0457620620728

> <r_i_glide_einternal>
9.3112735748291

> <i_i_glide_confnum>
71

> <i_i_glide_posenum>
283

> <r_i_glide_eff_state_penalty>
0

> <s_user_duplicate_titles>
CHEMBL1966_lig16,257167

> <i_f3d_flags>
0

> <s_m_subgroup_title>
dock_pv

> <s_m_subgroupid>
dock_pv

> <b_m_subgroup_collapsed>
1

$$$$
CHEMBL1966_lig655 
                    3D
 Schrodinger Suite 2021-1.
 34 36  0  0  1  0            999 V2000
   46.3824   38.8068   -2.8897 C   0  0  0  0  0  0
   46.9802   38.8703   -1.6434 C   0  0  0  0  0  0
   48.0234   39.7609   -1.4491 C   0  0  0  0  0  0
   46.8158   39.6100   -3.9329 C   0  0  0  0  0  0
   47.9424   40.4183   -3.7865 C   0  0  0  0  0  0
   48.5410   40.5310   -2.5120 C   0  0  0  0  0  0
   49.6694   41.4949   -2.2480 C   0  0  0  0  0  0
   50.1198   42.2626   -3.4523 C   0  0  0  0  0  0
   49.5354   42.1055   -4.6719 C   0  0  0  0  0  0
   48.4229   41.1916   -4.9787 C   0  0  0  0  0  0
   47.9141   41.0591   -6.0972 O   0  0  0  0  0  0
   50.1266   41.6103   -1.1090 O   0  0  0  0  0  0
   49.9364   42.8105   -5.7762 O   0  0  0  0  0  0
   51.2244   43.1089   -3.3975 N   0  0  0  0  0  0
   51.6203   44.1107   -2.4992 C   0  0  0  0  0  0
   52.7979   44.8124   -2.8121 C   0  0  0  0  0  0
   53.2694   45.8313   -1.9712 C   0  0  0  0  0  0
   52.5502   46.1397   -0.8111 C   0  0  0  0  0  0
   51.3691   45.4655   -0.5110 C   0  0  0  0  0  0
   50.8895   44.4754   -1.3616 C   0  0  0  0  0  0
   54.5602   46.5889   -2.2803 C   0  0  0  0  0  0
   55.2303   46.0521   -3.3018 F   0  0  0  0  0  0
   55.3596   46.5822   -1.2121 F   0  0  0  0  0  0
   54.2664   47.8523   -2.5891 F   0  0  0  0  0  0
   45.6230   38.0750   -3.0695 H   0  0  0  0  0  0
   46.6375   38.2443   -0.8332 H   0  0  0  0  0  0
   48.4563   39.8221   -0.4596 H   0  0  0  0  0  0
   46.3047   39.5357   -4.8825 H   0  0  0  0  0  0
   49.3061   42.6694   -6.4887 H   0  0  0  0  0  0
   51.7316   43.1934   -4.2668 H   0  0  0  0  0  0
   53.3552   44.5509   -3.6989 H   0  0  0  0  0  0
   52.9088   46.9039   -0.1360 H   0  0  0  0  0  0
   50.8259   45.6904    0.3908 H   0  0  0  0  0  0
   49.9507   44.0080   -1.1162 H   0  0  0  0  0  0
  1  2  2  0  0  0
  1  4  1  0  0  0
  1 25  1  0  0  0
  2  3  1  0  0  0
  2 26  1  0  0  0
  3  6  2  0  0  0
  3 27  1  0  0  0
  4  5  2  0  0  0
  4 28  1  0  0  0
  5  6  1  0  0  0
  5 10  1  0  0  0
  6  7  1  0  0  0
  7  8  1  0  0  0
  7 12  2  0  0  0
  8  9  2  0  0  0
  8 14  1  0  0  0
  9 10  1  0  0  0
  9 13  1  0  0  0
 10 11  2  0  0  0
 13 29  1  0  0  0
 14 15  1  0  0  0
 14 30  1  0  0  0
 15 16  2  0  0  0
 15 20  1  0  0  0
 16 17  1  0  0  0
 16 31  1  0  0  0
 17 18  2  0  0  0
 17 21  1  0  0  0
 18 19  1  0  0  0
 18 32  1  0  0  0
 19 20  2  0  0  0
 19 33  1  0  0  0
 20 34  1  0  0  0
 21 22  1  0  0  0
 21 23  1  0  0  0
 21 24  1  0  0  0
M  END
> <s_m_entry_id>
25580

> <s_m_entry_name>
dock_pv.232

> <s_m_Source_Path>
/home/csk/Desktop/cluster/DUD-E-result/pyrd

> <s_m_Source_File>
dock_pv.maegz

> <i_m_Source_File_Index>
232

> <chembl_id>
CHEMBL4472078

> <chembl_pref_name>
None

> <i_lp_mmshare_version>
53161

> <r_lp_tautomer_probability>
1

> <s_lp_Force_Field>
OPLS_2005

> <r_lp_Energy>
32.72223

> <b_lp_Chiralities_Consistent>
1

> <s_lp_Variant>
CHEMBL1966_lig655 -1

> <s_i_glide_gridfile>
glide-grid_1d3g

> <i_i_glide_lignum>
712

> <i_i_glide_rotatable_bonds>
4

> <r_i_docking_score>
-9.66390252597668

> <r_i_glide_ligand_efficiency>
-0.402662605249028

> <r_i_glide_ligand_efficiency_sa>
-1.16147993756813

> <r_i_glide_ligand_efficiency_ln>
-2.31301532205771

> <r_i_glide_gscore>
-9.66390252597668

> <r_i_glide_lipo>
-4.24746886980702

> <r_i_glide_hbond>
-0.24158768100706

> <r_i_glide_metal>
0

> <r_i_glide_rewards>
-3.47699971746066

> <r_i_glide_evdw>
-35.6766166687012

> <r_i_glide_ecoul>
-1.68917155265808

> <r_i_glide_erotb>
0.339360308631829

> <r_i_glide_esite>
0

> <r_i_glide_emodel>
-55.3863338019016

> <r_i_glide_energy>
-37.3657882213593

> <r_i_glide_einternal>
7.0036449432373

> <i_i_glide_confnum>
8

> <i_i_glide_posenum>
46

> <r_i_glide_eff_state_penalty>
0

> <s_user_duplicate_titles>
CHEMBL1966_lig655 

> <i_f3d_flags>
0

> <s_m_subgroup_title>
dock_pv

> <s_m_subgroupid>
dock_pv

> <b_m_subgroup_collapsed>
1

$$$$
CHEMBL1966_lig74
                    3D
 Schrodinger Suite 2021-1.
 39 41  0  0  1  0            999 V2000
   52.4231   44.4314   -2.8993 C   0  0  0  0  0  0
   53.4922   45.3174   -3.0104 C   0  0  0  0  0  0
   53.7105   46.3118   -2.0525 C   0  0  0  0  0  0
   52.8236   46.4100   -0.9779 C   0  0  0  0  0  0
   51.7378   45.5528   -0.8673 C   0  0  0  0  0  0
   51.5439   44.5301   -1.8042 C   0  0  0  0  0  0
   54.8669   47.2453   -2.1713 C   0  0  0  0  0  0
   55.5914   47.6287   -1.0346 C   0  0  0  0  0  0
   56.6684   48.5024   -1.1434 C   0  0  0  0  0  0
   57.0314   49.0033   -2.3893 C   0  0  0  0  0  0
   56.3264   48.6317   -3.5302 C   0  0  0  0  0  0
   55.2488   47.7559   -3.4196 C   0  0  0  0  0  0
   50.4451   43.5206   -1.5780 C   0  0  0  0  0  0
   50.3595   42.5364   -2.5001 N   0  0  0  0  0  0
   49.7112   43.6096   -0.5891 O   0  0  0  0  0  0
   49.4764   41.4518   -2.4888 C   0  0  0  0  0  0
   49.2230   40.8100   -1.2647 C   0  0  0  0  0  0
   48.2288   39.8405   -1.1688 C   0  0  0  0  0  0
   47.5734   39.4118   -2.3169 C   0  0  0  0  0  0
   47.8773   39.9851   -3.5497 C   0  0  0  0  0  0
   48.8231   41.0154   -3.6715 C   0  0  0  0  0  0
   49.0361   41.6093   -5.0565 C   0  0  0  0  0  0
   49.6222   42.8358   -5.1044 O   0  0  0  0  0  0
   48.6746   41.0292   -6.0826 O   0  0  0  0  0  0
   52.3288   43.6638   -3.6534 H   0  0  0  0  0  0
   54.1760   45.2107   -3.8374 H   0  0  0  0  0  0
   52.9632   47.1694   -0.2225 H   0  0  0  0  0  0
   51.0814   45.6575   -0.0149 H   0  0  0  0  0  0
   55.3289   47.2442   -0.0597 H   0  0  0  0  0  0
   57.2229   48.7882   -0.2628 H   0  0  0  0  0  0
   57.8670   49.6827   -2.4698 H   0  0  0  0  0  0
   56.6099   49.0241   -4.4960 H   0  0  0  0  0  0
   54.7008   47.4855   -4.3110 H   0  0  0  0  0  0
   50.8598   42.6753   -3.3631 H   0  0  0  0  0  0
   49.7361   41.1035   -0.3607 H   0  0  0  0  0  0
   48.0025   39.3877   -0.2135 H   0  0  0  0  0  0
   46.8294   38.6310   -2.2532 H   0  0  0  0  0  0
   47.3433   39.6197   -4.4157 H   0  0  0  0  0  0
   49.5963   43.1767   -6.0000 H   0  0  0  0  0  0
  1  6  2  0  0  0
  1  2  1  0  0  0
  1 25  1  0  0  0
  2  3  2  0  0  0
  2 26  1  0  0  0
  3  7  1  0  0  0
  3  4  1  0  0  0
  4  5  2  0  0  0
  4 27  1  0  0  0
  5  6  1  0  0  0
  5 28  1  0  0  0
  6 13  1  0  0  0
  7 12  2  0  0  0
  7  8  1  0  0  0
  8  9  2  0  0  0
  8 29  1  0  0  0
  9 10  1  0  0  0
  9 30  1  0  0  0
 10 11  2  0  0  0
 10 31  1  0  0  0
 11 12  1  0  0  0
 11 32  1  0  0  0
 12 33  1  0  0  0
 13 14  1  0  0  0
 13 15  2  0  0  0
 14 16  1  0  0  0
 14 34  1  0  0  0
 16 17  2  0  0  0
 16 21  1  0  0  0
 17 18  1  0  0  0
 17 35  1  0  0  0
 18 19  2  0  0  0
 18 36  1  0  0  0
 19 20  1  0  0  0
 19 37  1  0  0  0
 20 21  2  0  0  0
 20 38  1  0  0  0
 21 22  1  0  0  0
 22 23  1  0  0  0
 22 24  2  0  0  0
 23 39  1  0  0  0
M  END
> <s_m_entry_id>
25581

> <s_m_entry_name>
dock_pv.233

> <s_m_Source_Path>
/home/csk/Desktop/cluster/DUD-E-result/pyrd

> <s_m_Source_File>
dock_pv.maegz

> <i_m_Source_File_Index>
233

> <chembl_id>
CHEMBL370865

> <chembl_pref_name>
None

> <i_lp_mmshare_version>
53161

> <r_lp_tautomer_probability>
1

> <s_lp_Force_Field>
OPLS_2005

> <r_lp_Energy>
33.013424

> <b_lp_Chiralities_Consistent>
1

> <s_lp_Variant>
CHEMBL1966_lig74-1

> <s_i_glide_gridfile>
glide-grid_1d3g

> <i_i_glide_lignum>
83

> <i_i_glide_rotatable_bonds>
6

> <r_i_docking_score>
-9.65495158037421

> <r_i_glide_ligand_efficiency>
-0.402289649182259

> <r_i_glide_ligand_efficiency_sa>
-1.16040414611519

> <r_i_glide_ligand_efficiency_ln>
-2.3108729500429

> <r_i_glide_gscore>
-9.65495158037421

> <r_i_glide_lipo>
-4.84000648559835

> <r_i_glide_hbond>
-0.16

> <r_i_glide_metal>
0

> <r_i_glide_rewards>
-2.97424699845145

> <r_i_glide_evdw>
-38.4121208190918

> <r_i_glide_ecoul>
-4.56705808639526

> <r_i_glide_erotb>
0.924966657589469

> <r_i_glide_esite>
0

> <r_i_glide_emodel>
-64.1396949521803

> <r_i_glide_energy>
-42.9791789054871

> <r_i_glide_einternal>
3.37787938117981

> <i_i_glide_confnum>
17

> <i_i_glide_posenum>
192

> <r_i_glide_eff_state_penalty>
0

> <s_user_duplicate_titles>
CHEMBL1966_lig74

> <i_f3d_flags>
0

> <s_m_subgroup_title>
dock_pv

> <s_m_subgroupid>
dock_pv

> <b_m_subgroup_collapsed>
1

$$$$
CHEMBL1966_lig439
                    3D
 Schrodinger Suite 2021-1.
 42 44  0  0  1  0            999 V2000
   47.0964   38.5751   -0.8992 C   0  0  0  0  0  0
   47.9284   39.6286   -1.6074 C   0  0  0  0  0  0
   48.8231   40.4097   -0.8789 C   0  0  0  0  0  0
   49.6237   41.3402   -1.5295 C   0  0  0  0  0  0
   49.5242   41.5540   -2.9103 C   0  0  0  0  0  0
   50.3881   42.4783   -3.5318 N   0  0  0  0  0  0
   51.2250   43.4879   -3.0223 C   0  0  0  0  0  0
   52.4053   43.7928   -3.6990 C   0  0  0  0  0  0
   53.2878   44.7373   -3.2744 N   0  0  0  0  0  0
   53.0155   45.4573   -2.1510 C   0  0  0  0  0  0
   51.8121   45.2426   -1.4416 C   0  0  0  0  0  0
   51.3951   46.0543   -0.2358 C   0  0  0  0  0  0
   50.9311   44.2406   -1.8793 C   0  0  0  0  0  0
   54.1297   46.3634   -1.6980 C   0  0  0  0  0  0
   54.5663   46.2889   -0.3645 C   0  0  0  0  0  0
   55.6302   47.0558    0.1037 C   0  0  0  0  0  0
   56.2924   47.9236   -0.7571 C   0  0  0  0  0  0
   55.8825   48.0233   -2.0815 C   0  0  0  0  0  0
   54.8197   47.2516   -2.5561 C   0  0  0  0  0  0
   54.4216   47.4389   -4.2251 Cl  0  0  0  0  0  0
   48.5701   40.8097   -3.6512 C   0  0  0  0  0  0
   47.7980   39.8415   -2.9804 C   0  0  0  0  0  0
   48.3440   41.0158   -5.1348 C   0  0  0  0  0  0
   49.2231   41.3684   -5.9151 O   0  0  0  0  0  0
   47.0574   40.8099   -5.5349 O   0  0  0  0  0  0
   46.4830   39.0428   -0.1280 H   0  0  0  0  0  0
   47.7471   37.8526   -0.4027 H   0  0  0  0  0  0
   46.4388   38.0346   -1.5815 H   0  0  0  0  0  0
   48.9346   40.2552    0.1847 H   0  0  0  0  0  0
   50.3542   41.8710   -0.9398 H   0  0  0  0  0  0
   50.5225   42.2776   -4.5140 H   0  0  0  0  0  0
   52.6930   43.2293   -4.5733 H   0  0  0  0  0  0
   50.4632   46.5518   -0.4996 H   0  0  0  0  0  0
   51.2236   45.3802    0.6088 H   0  0  0  0  0  0
   52.0919   46.8342    0.0574 H   0  0  0  0  0  0
   50.0050   44.0778   -1.3488 H   0  0  0  0  0  0
   54.0892   45.6094    0.3255 H   0  0  0  0  0  0
   55.9485   46.9696    1.1317 H   0  0  0  0  0  0
   57.1263   48.5123   -0.4010 H   0  0  0  0  0  0
   56.4021   48.6957   -2.7486 H   0  0  0  0  0  0
   47.0957   39.2226   -3.5218 H   0  0  0  0  0  0
   46.4822   40.7184   -4.7732 H   0  0  0  0  0  0
  1  2  1  0  0  0
  1 26  1  0  0  0
  1 27  1  0  0  0
  1 28  1  0  0  0
  2  3  2  0  0  0
  2 22  1  0  0  0
  3  4  1  0  0  0
  3 29  1  0  0  0
  4  5  2  0  0  0
  4 30  1  0  0  0
  5  6  1  0  0  0
  5 21  1  0  0  0
  6  7  1  0  0  0
  6 31  1  0  0  0
  7  8  2  0  0  0
  7 13  1  0  0  0
  8  9  1  0  0  0
  8 32  1  0  0  0
  9 10  2  0  0  0
 10 11  1  0  0  0
 10 14  1  0  0  0
 11 12  1  0  0  0
 11 13  2  0  0  0
 12 33  1  0  0  0
 12 34  1  0  0  0
 12 35  1  0  0  0
 13 36  1  0  0  0
 14 15  2  0  0  0
 14 19  1  0  0  0
 15 16  1  0  0  0
 15 37  1  0  0  0
 16 17  2  0  0  0
 16 38  1  0  0  0
 17 18  1  0  0  0
 17 39  1  0  0  0
 18 19  2  0  0  0
 18 40  1  0  0  0
 19 20  1  0  0  0
 21 22  2  0  0  0
 21 23  1  0  0  0
 22 41  1  0  0  0
 23 24  2  0  0  0
 23 25  1  0  0  0
 25 42  1  0  0  0
M  END
> <s_m_entry_id>
25582

> <s_m_entry_name>
dock_pv.234

> <s_m_Source_Path>
/home/csk/Desktop/cluster/DUD-E-result/pyrd

> <s_m_Source_File>
dock_pv.maegz

> <i_m_Source_File_Index>
234

> <chembl_id>
CHEMBL3674649

> <chembl_pref_name>
None

> <i_lp_mmshare_version>
53161

> <r_lp_tautomer_probability>
0.999999999999999

> <s_lp_Force_Field>
OPLS_2005

> <r_lp_Energy>
30.476752

> <b_lp_Chiralities_Consistent>
1

> <s_lp_Variant>
CHEMBL1966_lig439-1

> <s_i_glide_gridfile>
glide-grid_1d3g

> <i_i_glide_lignum>
489

> <i_i_glide_rotatable_bonds>
5

> <r_i_docking_score>
-9.64942693795928

> <r_i_glide_ligand_efficiency>
-0.385977077518371

> <r_i_glide_ligand_efficiency_sa>
-1.12860381999633

> <r_i_glide_ligand_efficiency_ln>
-2.28720335428709

> <r_i_glide_gscore>
-9.64942693795928

> <r_i_glide_lipo>
-5.61438049330497

> <r_i_glide_hbond>
-0.0275646868605309

> <r_i_glide_metal>
0

> <r_i_glide_rewards>
-2.14026587583322

> <r_i_glide_evdw>
-43.1698989868164

> <r_i_glide_ecoul>
-2.14763212203979

> <r_i_glide_erotb>
0.613423885686233

> <r_i_glide_esite>
0

> <r_i_glide_emodel>
-62.2548323070728

> <r_i_glide_energy>
-45.3175311088562

> <r_i_glide_einternal>
13.2396831512451

> <i_i_glide_confnum>
12

> <i_i_glide_posenum>
258

> <r_i_glide_eff_state_penalty>
0

> <s_user_duplicate_titles>
CHEMBL1966_lig439

> <i_f3d_flags>
0

> <s_m_subgroup_title>
dock_pv

> <s_m_subgroupid>
dock_pv

> <b_m_subgroup_collapsed>
1

$$$$
CHEMBL1966_lig783
                    3D
 Schrodinger Suite 2021-1.
 45 48  0  0  1  0            999 V2000
   53.0629   46.3937   -1.4471 C   0  0  0  0  0  0
   53.3115   46.5689   -2.7651 N   0  0  0  0  0  0
   55.3404   46.8927   -0.8941 C   0  0  0  0  0  0
   55.6753   46.7993   -2.2659 C   0  0  0  0  0  0
   54.0230   46.6443   -0.4588 C   0  0  0  0  0  0
   54.5852   46.8113   -3.1615 C   0  0  0  0  0  0
   56.4226   47.3385    0.0154 C   0  0  0  0  0  0
   51.8016   45.9123   -1.0834 N   0  0  0  0  0  0
   57.0070   46.7612   -2.7925 C   0  0  0  0  0  0
   57.1678   48.3748   -0.4990 O   0  0  0  0  0  0
   50.0230   42.2224   -2.0185 C   0  0  0  0  0  0
   56.6050   46.8100    1.1010 O   0  0  0  0  0  0
   54.8523   47.0953   -4.4990 C   0  0  0  0  0  0
   51.2391   44.6803   -1.4453 C   0  0  0  0  0  0
   49.1646   41.0624   -2.3989 C   0  0  0  0  0  0
   49.8609   42.8413   -0.7719 C   0  0  0  0  0  0
   50.8966   42.8061   -2.9379 C   0  0  0  0  0  0
   57.2351   46.8917   -4.1450 C   0  0  0  0  0  0
   56.1627   47.0910   -4.9806 C   0  0  0  0  0  0
   50.4229   44.0767   -0.5012 C   0  0  0  0  0  0
   51.5182   44.0100   -2.6459 C   0  0  0  0  0  0
   58.4886   46.8638   -4.6445 F   0  0  0  0  0  0
   53.6437   46.6426    1.0291 C   0  0  0  0  0  0
   48.7584   40.8962   -3.7300 C   0  0  0  0  0  0
   48.5957   40.2328   -1.4204 C   0  0  0  0  0  0
   47.6230   39.2940   -1.7467 C   0  0  0  0  0  0
   47.7378   40.0100   -4.0509 C   0  0  0  0  0  0
   47.1748   39.2100   -3.0578 C   0  0  0  0  0  0
   51.5832   46.1275   -0.1242 H   0  0  0  0  0  0
   57.8574   46.6604   -2.1400 H   0  0  0  0  0  0
   54.0226   47.2100   -5.1815 H   0  0  0  0  0  0
   49.2229   42.4192   -0.0139 H   0  0  0  0  0  0
   51.0866   42.3479   -3.8963 H   0  0  0  0  0  0
   56.3504   47.2089   -6.0375 H   0  0  0  0  0  0
   50.2244   44.5505    0.4492 H   0  0  0  0  0  0
   52.1822   44.4278   -3.3848 H   0  0  0  0  0  0
   54.1482   47.4558    1.5464 H   0  0  0  0  0  0
   52.5818   46.8104    1.2070 H   0  0  0  0  0  0
   53.9430   45.7062    1.5006 H   0  0  0  0  0  0
   49.1408   41.5327   -4.5133 H   0  0  0  0  0  0
   48.8907   40.3127   -0.3850 H   0  0  0  0  0  0
   47.1930   38.6668   -0.9792 H   0  0  0  0  0  0
   47.3803   39.9480   -5.0665 H   0  0  0  0  0  0
   46.3867   38.5127   -3.2991 H   0  0  0  0  0  0
   57.8946   48.6431    0.0854 H   0  0  0  0  0  0
  1  2  2  0  0  0
  1  5  1  0  0  0
  1  8  1  0  0  0
  2  6  1  0  0  0
  3  5  2  0  0  0
  3  4  1  0  0  0
  3  7  1  0  0  0
  4  9  2  0  0  0
  4  6  1  0  0  0
  5 23  1  0  0  0
  6 13  2  0  0  0
  7 10  1  0  0  0
  7 12  2  0  0  0
  8 14  1  0  0  0
  8 29  1  0  0  0
  9 18  1  0  0  0
  9 30  1  0  0  0
 10 45  1  0  0  0
 11 17  2  0  0  0
 11 15  1  0  0  0
 11 16  1  0  0  0
 13 19  1  0  0  0
 13 31  1  0  0  0
 14 20  1  0  0  0
 14 21  2  0  0  0
 15 24  2  0  0  0
 15 25  1  0  0  0
 16 20  2  0  0  0
 16 32  1  0  0  0
 17 21  1  0  0  0
 17 33  1  0  0  0
 18 22  1  0  0  0
 18 19  2  0  0  0
 19 34  1  0  0  0
 20 35  1  0  0  0
 21 36  1  0  0  0
 23 37  1  0  0  0
 23 38  1  0  0  0
 23 39  1  0  0  0
 24 27  1  0  0  0
 24 40  1  0  0  0
 25 26  2  0  0  0
 25 41  1  0  0  0
 26 28  1  0  0  0
 26 42  1  0  0  0
 27 28  2  0  0  0
 27 43  1  0  0  0
 28 44  1  0  0  0
M  END
> <s_m_entry_id>
25583

> <s_m_entry_name>
dock_pv.235

> <s_m_Source_Path>
/home/csk/Desktop/cluster/DUD-E-result/pyrd

> <s_m_Source_File>
dock_pv.maegz

> <i_m_Source_File_Index>
235

> <chembl_id>
CHEMBL49569

> <chembl_pref_name>
None

> <i_lp_mmshare_version>
53161

> <r_lp_tautomer_probability>
1

> <s_lp_Force_Field>
OPLS_2005

> <r_lp_Energy>
30.769647

> <b_lp_Chiralities_Consistent>
1

> <s_lp_Variant>
CHEMBL1966_lig783-1

> <s_i_glide_gridfile>
glide-grid_1d3g

> <i_i_glide_lignum>
854

> <i_i_glide_rotatable_bonds>
5

> <r_i_docking_score>
-9.6451180340193

> <r_i_glide_ligand_efficiency>
-0.344468501214975

> <r_i_glide_ligand_efficiency_sa>
-1.04600925078609

> <r_i_glide_ligand_efficiency_ln>
-2.22637643522264

> <r_i_glide_gscore>
-9.6451180340193

> <r_i_glide_lipo>
-6.13862222531185

> <r_i_glide_hbond>
-0.00632504493153774

> <r_i_glide_metal>
0

> <r_i_glide_rewards>
-1.97748209611856

> <r_i_glide_evdw>
-24.7144966125488

> <r_i_glide_ecoul>
-5.62701272964478

> <r_i_glide_erotb>
0.557088072416798

> <r_i_glide_esite>
0

> <r_i_glide_emodel>
-48.4026203914391

> <r_i_glide_energy>
-30.3415093421936

> <r_i_glide_einternal>
9.0042896270752

> <i_i_glide_confnum>
87

> <i_i_glide_posenum>
120

> <r_i_glide_eff_state_penalty>
0

> <s_user_duplicate_titles>
CHEMBL1966_lig783

> <i_f3d_flags>
0

> <s_m_subgroup_title>
dock_pv

> <s_m_subgroupid>
dock_pv

> <b_m_subgroup_collapsed>
1

$$$$
CHEMBL1966_lig500
                    3D
 Schrodinger Suite 2021-1.
 37 40  0  0  1  0            999 V2000
   46.5848   40.8100   -5.6425 O   0  0  0  0  0  0
   47.9003   40.6968   -5.2990 C   0  0  0  0  0  0
   48.8229   40.8100   -6.0990 O   0  0  0  0  0  0
   48.1479   40.4405   -3.8439 C   0  0  0  0  0  0
   47.3927   39.4782   -3.1579 C   0  0  0  0  0  0
   47.5463   39.2501   -1.7914 C   0  0  0  0  0  0
   46.7948   38.2993   -1.1952 F   0  0  0  0  0  0
   48.4230   40.0100   -1.0165 C   0  0  0  0  0  0
   49.2065   40.9547   -1.6938 C   0  0  0  0  0  0
   50.0544   41.9515   -1.2779 N   0  0  0  0  0  0
   50.3964   42.6873   -2.3883 C   0  0  0  0  0  0
   49.8936   42.2018   -3.4922 N   0  0  0  0  0  0
   49.0862   41.1706   -3.0900 C   0  0  0  0  0  0
   51.2698   43.8812   -2.3379 C   0  0  0  0  0  0
   52.2768   44.0101   -3.2992 C   0  0  0  0  0  0
   53.2230   45.0274   -3.1781 C   0  0  0  0  0  0
   53.1798   45.9256   -2.1077 C   0  0  0  0  0  0
   52.1321   45.8254   -1.1836 C   0  0  0  0  0  0
   51.1828   44.8100   -1.2959 C   0  0  0  0  0  0
   54.2699   46.9255   -1.9428 C   0  0  0  0  0  0
   54.8046   47.6203   -3.0392 C   0  0  0  0  0  0
   55.8774   48.4964   -2.8622 C   0  0  0  0  0  0
   56.3964   48.6603   -1.5784 C   0  0  0  0  0  0
   55.8973   48.0099   -0.4990 N   0  0  0  0  0  0
   54.8502   47.1682   -0.6900 C   0  0  0  0  0  0
   46.0165   40.8707   -4.8709 H   0  0  0  0  0  0
   46.6654   38.8769   -3.6841 H   0  0  0  0  0  0
   48.4873   39.8553    0.0505 H   0  0  0  0  0  0
   50.3591   42.1805   -0.3446 H   0  0  0  0  0  0
   52.3660   43.2930   -4.1032 H   0  0  0  0  0  0
   54.0301   45.0914   -3.8897 H   0  0  0  0  0  0
   52.0679   46.5158   -0.3551 H   0  0  0  0  0  0
   50.4032   44.7285   -0.5521 H   0  0  0  0  0  0
   54.3952   47.4788   -4.0295 H   0  0  0  0  0  0
   56.2975   49.0321   -3.7009 H   0  0  0  0  0  0
   57.2317   49.3215   -1.3955 H   0  0  0  0  0  0
   54.5007   46.6536    0.1933 H   0  0  0  0  0  0
  1  2  1  0  0  0
  1 26  1  0  0  0
  2  3  2  0  0  0
  2  4  1  0  0  0
  4  5  2  0  0  0
  4 13  1  0  0  0
  5  6  1  0  0  0
  5 27  1  0  0  0
  6  7  1  0  0  0
  6  8  2  0  0  0
  8  9  1  0  0  0
  8 28  1  0  0  0
  9 10  1  0  0  0
  9 13  2  0  0  0
 10 11  1  0  0  0
 10 29  1  0  0  0
 11 12  2  0  0  0
 11 14  1  0  0  0
 12 13  1  0  0  0
 14 15  2  0  0  0
 14 19  1  0  0  0
 15 16  1  0  0  0
 15 30  1  0  0  0
 16 17  2  0  0  0
 16 31  1  0  0  0
 17 18  1  0  0  0
 17 20  1  0  0  0
 18 19  2  0  0  0
 18 32  1  0  0  0
 19 33  1  0  0  0
 20 21  2  0  0  0
 20 25  1  0  0  0
 21 22  1  0  0  0
 21 34  1  0  0  0
 22 23  2  0  0  0
 22 35  1  0  0  0
 23 24  1  0  0  0
 23 36  1  0  0  0
 24 25  2  0  0  0
 25 37  1  0  0  0
M  END
> <s_m_entry_id>
25584

> <s_m_entry_name>
dock_pv.236

> <s_m_Source_Path>
/home/csk/Desktop/cluster/DUD-E-result/pyrd

> <s_m_Source_File>
dock_pv.maegz

> <i_m_Source_File_Index>
236

> <chembl_id>
CHEMBL3677758

> <chembl_pref_name>
None

> <i_lp_mmshare_version>
53161

> <r_lp_tautomer_probability>
1

> <s_lp_Force_Field>
OPLS_2005

> <r_lp_Energy>
22.583883

> <b_lp_Chiralities_Consistent>
1

> <s_lp_Variant>
CHEMBL1966_lig500-1

> <s_i_glide_gridfile>
glide-grid_1d3g

> <i_i_glide_lignum>
550

> <i_i_glide_rotatable_bonds>
4

> <r_i_docking_score>
-9.64369264255493

> <r_i_glide_ligand_efficiency>
-0.385747705702197

> <r_i_glide_ligand_efficiency_sa>
-1.12793313273792

> <r_i_glide_ligand_efficiency_ln>
-2.2858441544333

> <r_i_glide_gscore>
-9.64369264255493

> <r_i_glide_lipo>
-4.79159362064455

> <r_i_glide_hbond>
-0.16

> <r_i_glide_metal>
0

> <r_i_glide_rewards>
-2.55847482565443

> <r_i_glide_evdw>
-41.2832260131836

> <r_i_glide_ecoul>
-3.85570788383484

> <r_i_glide_erotb>
0.508893286978451

> <r_i_glide_esite>
0

> <r_i_glide_emodel>
-63.8323049713035

> <r_i_glide_energy>
-45.1389338970184

> <r_i_glide_einternal>
6.65645360946655

> <i_i_glide_confnum>
3

> <i_i_glide_posenum>
137

> <r_i_glide_eff_state_penalty>
0

> <s_user_duplicate_titles>
CHEMBL1966_lig500

> <i_f3d_flags>
0

> <s_m_subgroup_title>
dock_pv

> <s_m_subgroupid>
dock_pv

> <b_m_subgroup_collapsed>
1

$$$$
CHEMBL1966_lig72
                    3D
 Schrodinger Suite 2021-1.
 45 47  0  0  1  0            999 V2000
   48.1866   40.5299   -3.4955 C   0  0  0  0  0  0
   49.3737   41.2266   -2.9818 C   0  0  0  0  0  0
   47.3976   39.6627   -2.7697 C   0  0  0  0  0  0
   49.6915   42.4177   -3.5294 N   0  0  0  0  0  0
   47.6110   39.1036   -1.4418 C   0  0  0  0  0  0
   50.6810   43.2830   -2.9957 C   0  0  0  0  0  0
   46.0930   39.3585   -3.4796 C   0  0  0  0  0  0
   52.5661   45.2115   -2.0947 C   0  0  0  0  0  0
   50.5714   43.8676   -1.7162 C   0  0  0  0  0  0
   47.5956   40.6499   -4.9136 C   0  0  1  0  0  0
   51.4748   44.8443   -1.2952 C   0  0  0  0  0  0
   53.5849   46.2130   -1.6454 C   0  0  0  0  0  0
   50.0225   40.8110   -2.0329 O   0  0  0  0  0  0
   47.4012   37.9269   -1.1615 O   0  0  0  0  0  0
   54.2430   47.0398   -2.5709 C   0  0  0  0  0  0
   46.1286   40.2748   -4.7027 C   0  0  0  0  0  0
   51.7734   43.6256   -3.7889 C   0  0  0  0  0  0
   52.7152   44.5516   -3.3257 C   0  0  0  0  0  0
   49.5963   43.5108   -0.8597 F   0  0  0  0  0  0
   47.9653   40.0099   -0.4986 O   0  0  0  0  0  0
   55.2538   47.9236   -2.1873 C   0  0  0  0  0  0
   47.8183   41.8353   -5.6697 O   0  0  0  0  0  0
   55.8220   48.6899   -3.1858 O   0  0  0  0  0  0
   53.9509   46.3270   -0.2963 C   0  0  0  0  0  0
   54.9740   47.1823    0.1042 C   0  0  0  0  0  0
   55.6288   47.9745   -0.8360 C   0  0  0  0  0  0
   56.8239   49.6404   -2.8401 C   0  0  0  0  0  0
   49.2917   42.6437   -4.4295 H   0  0  0  0  0  0
   45.2283   39.5646   -2.8420 H   0  0  0  0  0  0
   46.0199   38.2981   -3.6996 H   0  0  0  0  0  0
   48.0761   39.8854   -5.5111 H   0  0  0  0  0  0
   51.3323   45.2970   -0.3252 H   0  0  0  0  0  0
   53.9736   47.0025   -3.6158 H   0  0  0  0  0  0
   45.6764   39.8073   -5.5785 H   0  0  0  0  0  0
   45.5407   41.1717   -4.4898 H   0  0  0  0  0  0
   51.8910   43.2089   -4.7756 H   0  0  0  0  0  0
   53.5446   44.7931   -3.9743 H   0  0  0  0  0  0
   48.0223   39.5670    0.3543 H   0  0  0  0  0  0
   47.2233   42.5345   -5.3717 H   0  0  0  0  0  0
   53.4724   45.7153    0.4542 H   0  0  0  0  0  0
   55.2584   47.2302    1.1465 H   0  0  0  0  0  0
   56.4176   48.6274   -0.4968 H   0  0  0  0  0  0
   57.1299   50.1833   -3.7351 H   0  0  0  0  0  0
   56.4519   50.3750   -2.1250 H   0  0  0  0  0  0
   57.7107   49.1545   -2.4269 H   0  0  0  0  0  0
  1  2  1  0  0  0
  1  3  2  0  0  0
  1 10  1  0  0  0
  2  4  1  0  0  0
  2 13  2  0  0  0
  3  5  1  0  0  0
  3  7  1  0  0  0
  4  6  1  0  0  0
  4 28  1  0  0  0
  5 14  2  0  0  0
  5 20  1  0  0  0
  6  9  1  0  0  0
  6 17  2  0  0  0
  7 16  1  0  0  0
  7 29  1  0  0  0
  7 30  1  0  0  0
  8 18  2  0  0  0
  8 12  1  0  0  0
  8 11  1  0  0  0
  9 11  2  0  0  0
  9 19  1  0  0  0
 10 16  1  0  0  0
 10 22  1  0  0  0
 10 31  1  0  0  0
 11 32  1  0  0  0
 12 15  1  0  0  0
 12 24  2  0  0  0
 15 21  2  0  0  0
 15 33  1  0  0  0
 16 34  1  0  0  0
 16 35  1  0  0  0
 17 18  1  0  0  0
 17 36  1  0  0  0
 18 37  1  0  0  0
 20 38  1  0  0  0
 21 23  1  0  0  0
 21 26  1  0  0  0
 22 39  1  0  0  0
 23 27  1  0  0  0
 24 25  1  0  0  0
 24 40  1  0  0  0
 25 26  2  0  0  0
 25 41  1  0  0  0
 26 42  1  0  0  0
 27 43  1  0  0  0
 27 44  1  0  0  0
 27 45  1  0  0  0
M  END
> <s_m_entry_id>
25585

> <s_m_entry_name>
dock_pv.237

> <s_m_Source_Path>
/home/csk/Desktop/cluster/DUD-E-result/pyrd

> <s_m_Source_File>
dock_pv.maegz

> <i_m_Source_File_Index>
237

> <chembl_id>
CHEMBL196256

> <chembl_pref_name>
None

> <i_lp_mmshare_version>
53161

> <r_lp_tautomer_probability>
1

> <s_lp_Force_Field>
OPLS_2005

> <r_lp_Energy>
47.633222

> <b_lp_Chiralities_Consistent>
1

> <s_lp_Variant>
CHEMBL1966_lig72-2

> <s_i_glide_gridfile>
glide-grid_1d3g

> <i_i_glide_lignum>
80

> <i_i_glide_rotatable_bonds>
8

> <r_i_docking_score>
-9.64065618254376

> <r_i_glide_ligand_efficiency>
-0.357061340094214

> <r_i_glide_ligand_efficiency_sa>
-1.07118401910582

> <r_i_glide_ligand_efficiency_ln>
-2.24418582065729

> <r_i_glide_gscore>
-9.64065618254376

> <r_i_glide_lipo>
-4.897126038791

> <r_i_glide_hbond>
0

> <r_i_glide_metal>
0

> <r_i_glide_rewards>
-2.52977251172305

> <r_i_glide_evdw>
-40.8996925354004

> <r_i_glide_ecoul>
-5.79066228866577

> <r_i_glide_erotb>
0.69982633804017

> <r_i_glide_esite>
0

> <r_i_glide_emodel>
-43.3447345965946

> <r_i_glide_energy>
-46.6903548240662

> <r_i_glide_einternal>
17.0135440826416

> <i_i_glide_confnum>
112

> <i_i_glide_posenum>
228

> <r_i_glide_eff_state_penalty>
0

> <s_user_duplicate_titles>
CHEMBL1966_lig72

> <i_f3d_flags>
0

> <s_m_subgroup_title>
dock_pv

> <s_m_subgroupid>
dock_pv

> <b_m_subgroup_collapsed>
1

$$$$
CHEMBL1966_lig454
                    3D
 Schrodinger Suite 2021-1.
 43 46  0  0  1  0            999 V2000
   47.5018   40.8100   -5.6987 O   0  0  0  0  0  0
   48.7042   41.2558   -5.2335 C   0  0  0  0  0  0
   49.5394   41.7635   -5.9792 O   0  0  0  0  0  0
   48.9090   41.0838   -3.7367 C   0  0  0  0  0  0
   48.1127   40.1675   -3.0311 C   0  0  0  0  0  0
   48.2340   40.0100   -1.6472 C   0  0  0  0  0  0
   49.2155   40.7152   -0.9516 C   0  0  0  0  0  0
   50.0230   41.6045   -1.6277 C   0  0  0  0  0  0
   49.8786   41.8074   -3.0040 C   0  0  0  0  0  0
   50.7436   42.7082   -3.6240 N   0  0  0  0  0  0
   51.5490   43.6952   -3.0611 C   0  0  0  0  0  0
   51.2043   44.4108   -1.9075 C   0  0  0  0  0  0
   52.0411   45.4389   -1.4579 C   0  0  0  0  0  0
   53.2390   45.6852   -2.1487 C   0  0  0  0  0  0
   53.5788   44.9763   -3.2611 N   0  0  0  0  0  0
   52.7372   44.0097   -3.6974 C   0  0  0  0  0  0
   54.2587   46.6886   -1.7242 C   0  0  0  0  0  0
   54.8216   47.5434   -2.6878 C   0  0  0  0  0  0
   55.8648   48.4109   -2.3671 C   0  0  0  0  0  0
   56.3746   48.4311   -1.0729 C   0  0  0  0  0  0
   55.8131   47.6099   -0.0991 C   0  0  0  0  0  0
   54.7479   46.7663   -0.4041 C   0  0  0  0  0  0
   54.1103   45.8173    0.8933 Cl  0  0  0  0  0  0
   47.2905   39.1146   -0.8680 C   0  0  0  0  0  0
   46.1042   38.4099   -1.4783 C   0  0  0  0  0  0
   47.3096   37.6185   -1.0046 C   0  0  0  0  0  0
   46.9177   40.6244   -4.9612 H   0  0  0  0  0  0
   47.3818   39.5722   -3.5526 H   0  0  0  0  0  0
   49.3399   40.5783    0.1129 H   0  0  0  0  0  0
   50.7986   42.0883   -1.0564 H   0  0  0  0  0  0
   50.8759   42.5345   -4.6120 H   0  0  0  0  0  0
   50.2684   44.2375   -1.3988 H   0  0  0  0  0  0
   51.7683   46.0185   -0.5886 H   0  0  0  0  0  0
   53.0745   43.3834   -4.4990 H   0  0  0  0  0  0
   54.4627   47.5174   -3.7073 H   0  0  0  0  0  0
   56.2924   49.0486   -3.1274 H   0  0  0  0  0  0
   57.2028   49.0794   -0.8221 H   0  0  0  0  0  0
   56.2119   47.6100    0.9028 H   0  0  0  0  0  0
   47.1268   39.4738    0.1483 H   0  0  0  0  0  0
   45.9021   38.4551   -2.5464 H   0  0  0  0  0  0
   45.1814   38.4101   -0.8991 H   0  0  0  0  0  0
   47.2356   37.0196   -0.0990 H   0  0  0  0  0  0
   48.0091   37.1916   -1.7247 H   0  0  0  0  0  0
  1  2  1  0  0  0
  1 27  1  0  0  0
  2  3  2  0  0  0
  2  4  1  0  0  0
  4  5  2  0  0  0
  4  9  1  0  0  0
  5  6  1  0  0  0
  5 28  1  0  0  0
  6  7  2  0  0  0
  6 24  1  0  0  0
  7  8  1  0  0  0
  7 29  1  0  0  0
  8  9  2  0  0  0
  8 30  1  0  0  0
  9 10  1  0  0  0
 10 11  1  0  0  0
 10 31  1  0  0  0
 11 12  2  0  0  0
 11 16  1  0  0  0
 12 13  1  0  0  0
 12 32  1  0  0  0
 13 14  2  0  0  0
 13 33  1  0  0  0
 14 15  1  0  0  0
 14 17  1  0  0  0
 15 16  2  0  0  0
 16 34  1  0  0  0
 17 18  2  0  0  0
 17 22  1  0  0  0
 18 19  1  0  0  0
 18 35  1  0  0  0
 19 20  2  0  0  0
 19 36  1  0  0  0
 20 21  1  0  0  0
 20 37  1  0  0  0
 21 22  2  0  0  0
 21 38  1  0  0  0
 22 23  1  0  0  0
 24 25  1  0  0  0
 24 26  1  0  0  0
 24 39  1  0  0  0
 25 26  1  0  0  0
 25 40  1  0  0  0
 25 41  1  0  0  0
 26 42  1  0  0  0
 26 43  1  0  0  0
M  END
> <s_m_entry_id>
25586

> <s_m_entry_name>
dock_pv.238

> <s_m_Source_Path>
/home/csk/Desktop/cluster/DUD-E-result/pyrd

> <s_m_Source_File>
dock_pv.maegz

> <i_m_Source_File_Index>
238

> <chembl_id>
CHEMBL3674663

> <chembl_pref_name>
None

> <i_lp_mmshare_version>
53161

> <r_lp_tautomer_probability>
0.999999999999999

> <s_lp_Force_Field>
OPLS_2005

> <r_lp_Energy>
35.822055

> <b_lp_Chiralities_Consistent>
1

> <s_lp_Variant>
CHEMBL1966_lig454-1

> <s_i_glide_gridfile>
glide-grid_1d3g

> <i_i_glide_lignum>
504

> <i_i_glide_rotatable_bonds>
6

> <r_i_docking_score>
-9.62956261656913

> <r_i_glide_ligand_efficiency>
-0.370367792944966

> <r_i_glide_ligand_efficiency_sa>
-1.09721312927257

> <r_i_glide_ligand_efficiency_ln>
-2.26147118332913

> <r_i_glide_gscore>
-9.62956261656913

> <r_i_glide_lipo>
-5.7999427517851

> <r_i_glide_hbond>
0

> <r_i_glide_metal>
0

> <r_i_glide_rewards>
-2.23240342643011

> <r_i_glide_evdw>
-40.8547744750977

> <r_i_glide_ecoul>
-1.84568703174591

> <r_i_glide_erotb>
0.722375340162856

> <r_i_glide_esite>
0

> <r_i_glide_emodel>
-59.4208400193089

> <r_i_glide_energy>
-42.7004615068436

> <r_i_glide_einternal>
10.6321506500244

> <i_i_glide_confnum>
85

> <i_i_glide_posenum>
241

> <r_i_glide_eff_state_penalty>
0

> <s_user_duplicate_titles>
CHEMBL1966_lig454

> <i_f3d_flags>
0

> <s_m_subgroup_title>
dock_pv

> <s_m_subgroupid>
dock_pv

> <b_m_subgroup_collapsed>
1

$$$$
CHEMBL1966_lig321
                    3D
 Schrodinger Suite 2021-1.
 39 41  0  0  1  0            999 V2000
   46.5775   38.6673   -1.9533 C   0  0  0  0  0  0
   47.4504   39.0634   -0.9583 C   0  0  0  0  0  0
   48.4230   40.0100   -1.2374 C   0  0  0  0  0  0
   48.5922   40.5550   -2.5227 C   0  0  0  0  0  0
   47.6720   40.1535   -3.5445 C   0  0  0  0  0  0
   46.6767   39.2130   -3.2269 C   0  0  0  0  0  0
   47.6334   40.7378   -4.9441 C   0  0  0  0  0  0
   46.4065   41.2138   -5.2997 O   0  0  0  0  0  0
   48.6022   40.7999   -5.6979 O   0  0  0  0  0  0
   49.6772   41.5658   -2.6133 C   0  0  0  0  0  0
   49.9630   42.2249   -3.6556 N   0  0  0  0  0  0
   50.9312   43.2635   -3.7260 N   0  0  0  0  0  0
   51.5636   44.0099   -2.7214 C   0  0  0  0  0  0
   52.6547   44.7384   -2.9106 N   0  0  0  0  0  0
   52.9193   45.6112   -1.9432 C   0  0  0  0  0  0
   51.9668   45.6098   -0.9210 C   0  0  0  0  0  0
   50.7579   44.4006   -1.2253 S   0  0  0  0  0  0
   54.1430   46.4838   -2.0270 C   0  0  0  0  0  0
   54.5500   46.9375   -3.2943 C   0  0  0  0  0  0
   55.6628   47.7641   -3.4373 C   0  0  0  0  0  0
   56.3903   48.1549   -2.3167 C   0  0  0  0  0  0
   56.0149   47.7038   -1.0546 C   0  0  0  0  0  0
   54.9052   46.8688   -0.9009 C   0  0  0  0  0  0
   54.5606   46.3036    0.6995 Cl  0  0  0  0  0  0
   51.2235   43.5567   -5.1238 C   0  0  0  0  0  0
   45.6248   37.7570   -1.6742 F   0  0  0  0  0  0
   47.3660   38.6415    0.0301 H   0  0  0  0  0  0
   49.0719   40.2957   -0.4201 H   0  0  0  0  0  0
   45.9512   38.9008   -3.9655 H   0  0  0  0  0  0
   46.4729   41.8559   -6.0095 H   0  0  0  0  0  0
   50.2399   41.7129   -1.6957 H   0  0  0  0  0  0
   51.9203   46.2228   -0.0334 H   0  0  0  0  0  0
   53.9984   46.6596   -4.1839 H   0  0  0  0  0  0
   55.9605   48.1033   -4.4180 H   0  0  0  0  0  0
   57.2504   48.7984   -2.4257 H   0  0  0  0  0  0
   56.5973   47.9960   -0.1919 H   0  0  0  0  0  0
   51.2230   44.6282   -5.3008 H   0  0  0  0  0  0
   52.2257   43.2098   -5.3628 H   0  0  0  0  0  0
   50.5218   43.1057   -5.8290 H   0  0  0  0  0  0
  1  2  2  0  0  0
  1  6  1  0  0  0
  1 26  1  0  0  0
  2  3  1  0  0  0
  2 27  1  0  0  0
  3  4  2  0  0  0
  3 28  1  0  0  0
  4  5  1  0  0  0
  4 10  1  0  0  0
  5  6  2  0  0  0
  5  7  1  0  0  0
  6 29  1  0  0  0
  7  8  1  0  0  0
  7  9  2  0  0  0
  8 30  1  0  0  0
 10 11  2  0  0  0
 10 31  1  0  0  0
 11 12  1  0  0  0
 12 13  1  0  0  0
 12 25  1  0  0  0
 13 14  2  0  0  0
 13 17  1  0  0  0
 14 15  1  0  0  0
 15 16  2  0  0  0
 15 18  1  0  0  0
 16 17  1  0  0  0
 16 32  1  0  0  0
 18 19  2  0  0  0
 18 23  1  0  0  0
 19 20  1  0  0  0
 19 33  1  0  0  0
 20 21  2  0  0  0
 20 34  1  0  0  0
 21 22  1  0  0  0
 21 35  1  0  0  0
 22 23  2  0  0  0
 22 36  1  0  0  0
 23 24  1  0  0  0
 25 37  1  0  0  0
 25 38  1  0  0  0
 25 39  1  0  0  0
M  END
> <s_m_entry_id>
25587

> <s_m_entry_name>
dock_pv.239

> <s_m_Source_Path>
/home/csk/Desktop/cluster/DUD-E-result/pyrd

> <s_m_Source_File>
dock_pv.maegz

> <i_m_Source_File_Index>
239

> <chembl_id>
CHEMBL3959360

> <chembl_pref_name>
None

> <i_lp_mmshare_version>
53161

> <r_lp_tautomer_probability>
1

> <s_lp_Force_Field>
OPLS_2005

> <r_lp_Energy>
32.672435

> <b_lp_Chiralities_Consistent>
1

> <s_lp_Variant>
CHEMBL1966_lig321-1

> <s_i_glide_gridfile>
glide-grid_1d3g

> <i_i_glide_lignum>
371

> <i_i_glide_rotatable_bonds>
6

> <r_i_docking_score>
-9.62060376688895

> <r_i_glide_ligand_efficiency>
-0.370023221803421

> <r_i_glide_ligand_efficiency_sa>
-1.09619233862156

> <r_i_glide_ligand_efficiency_ln>
-2.25936722687813

> <r_i_glide_gscore>
-9.62060376688895

> <r_i_glide_lipo>
-5.14077963822944

> <r_i_glide_hbond>
-0.0880122726111651

> <r_i_glide_metal>
0

> <r_i_glide_rewards>
-2.4600047153306

> <r_i_glide_evdw>
-42.2892074584961

> <r_i_glide_ecoul>
-3.05912756919861

> <r_i_glide_erotb>
0.641522367586855

> <r_i_glide_esite>
0

> <r_i_glide_emodel>
-54.2632463479483

> <r_i_glide_energy>
-45.3483350276947

> <r_i_glide_einternal>
12.5159502029419

> <i_i_glide_confnum>
50

> <i_i_glide_posenum>
107

> <r_i_glide_eff_state_penalty>
0

> <s_user_duplicate_titles>
CHEMBL1966_lig321

> <i_f3d_flags>
0

> <s_m_subgroup_title>
dock_pv

> <s_m_subgroupid>
dock_pv

> <b_m_subgroup_collapsed>
1

$$$$
CHEMBL1966_lig433
                    3D
 Schrodinger Suite 2021-1.
 46 48  0  0  1  0            999 V2000
   57.1377   49.8399   -2.8750 C   0  0  0  0  0  0
   56.0228   49.0075   -3.1761 O   0  0  0  0  0  0
   55.5271   48.1674   -2.1980 C   0  0  0  0  0  0
   56.0495   48.0725   -0.8993 C   0  0  0  0  0  0
   55.5106   47.1677    0.0101 C   0  0  0  0  0  0
   54.4538   46.3454   -0.3693 C   0  0  0  0  0  0
   53.8994   46.4181   -1.6548 C   0  0  0  0  0  0
   54.4486   47.3504   -2.5505 C   0  0  0  0  0  0
   52.8360   45.4616   -2.0984 C   0  0  0  0  0  0
   53.1462   44.8111   -3.2566 N   0  0  0  0  0  0
   52.3245   43.8265   -3.6990 C   0  0  0  0  0  0
   51.1592   43.4480   -3.0432 C   0  0  0  0  0  0
   50.3679   42.4222   -3.5864 N   0  0  0  0  0  0
   49.5029   41.5011   -2.9700 C   0  0  0  0  0  0
   49.6230   41.2844   -1.5928 C   0  0  0  0  0  0
   48.8229   40.3731   -0.9291 C   0  0  0  0  0  0
   47.8974   39.6101   -1.6443 C   0  0  0  0  0  0
   47.0553   38.5754   -0.9200 C   0  0  0  0  0  0
   47.7467   39.8255   -3.0179 C   0  0  0  0  0  0
   48.5315   40.7745   -3.7020 C   0  0  0  0  0  0
   48.3195   40.9636   -5.1904 C   0  0  0  0  0  0
   49.2228   41.2461   -5.9722 O   0  0  0  0  0  0
   47.0282   40.8100   -5.5996 O   0  0  0  0  0  0
   50.8229   44.1416   -1.8771 C   0  0  0  0  0  0
   51.6541   45.1543   -1.3818 C   0  0  0  0  0  0
   51.2266   45.8396   -0.0995 C   0  0  0  0  0  0
   57.3878   50.4375   -3.7513 H   0  0  0  0  0  0
   56.9153   50.5267   -2.0574 H   0  0  0  0  0  0
   58.0174   49.2499   -2.6145 H   0  0  0  0  0  0
   56.8843   48.6797   -0.5824 H   0  0  0  0  0  0
   55.9300   47.0866    1.0029 H   0  0  0  0  0  0
   54.1079   45.6102    0.3398 H   0  0  0  0  0  0
   54.0555   47.4191   -3.5547 H   0  0  0  0  0  0
   52.6375   43.3063   -4.5904 H   0  0  0  0  0  0
   50.5236   42.2286   -4.5663 H   0  0  0  0  0  0
   50.3803   41.7853   -1.0125 H   0  0  0  0  0  0
   48.9519   40.2163    0.1324 H   0  0  0  0  0  0
   46.5120   39.0476   -0.1001 H   0  0  0  0  0  0
   47.6945   37.8040   -0.4859 H   0  0  0  0  0  0
   46.3262   38.0983   -1.5766 H   0  0  0  0  0  0
   47.0251   39.2219   -3.5509 H   0  0  0  0  0  0
   46.4361   40.7563   -4.8474 H   0  0  0  0  0  0
   49.9016   43.9158   -1.3625 H   0  0  0  0  0  0
   52.0400   45.9781    0.6054 H   0  0  0  0  0  0
   50.8230   46.8247   -0.3306 H   0  0  0  0  0  0
   50.4993   45.2100    0.4221 H   0  0  0  0  0  0
  1  2  1  0  0  0
  1 27  1  0  0  0
  1 28  1  0  0  0
  1 29  1  0  0  0
  2  3  1  0  0  0
  3  4  2  0  0  0
  3  8  1  0  0  0
  4  5  1  0  0  0
  4 30  1  0  0  0
  5  6  2  0  0  0
  5 31  1  0  0  0
  6  7  1  0  0  0
  6 32  1  0  0  0
  7  8  2  0  0  0
  7  9  1  0  0  0
  8 33  1  0  0  0
  9 10  2  0  0  0
  9 25  1  0  0  0
 10 11  1  0  0  0
 11 12  2  0  0  0
 11 34  1  0  0  0
 12 13  1  0  0  0
 12 24  1  0  0  0
 13 14  1  0  0  0
 13 35  1  0  0  0
 14 15  2  0  0  0
 14 20  1  0  0  0
 15 16  1  0  0  0
 15 36  1  0  0  0
 16 17  2  0  0  0
 16 37  1  0  0  0
 17 18  1  0  0  0
 17 19  1  0  0  0
 18 38  1  0  0  0
 18 39  1  0  0  0
 18 40  1  0  0  0
 19 20  2  0  0  0
 19 41  1  0  0  0
 20 21  1  0  0  0
 21 22  2  0  0  0
 21 23  1  0  0  0
 23 42  1  0  0  0
 24 25  2  0  0  0
 24 43  1  0  0  0
 25 26  1  0  0  0
 26 44  1  0  0  0
 26 45  1  0  0  0
 26 46  1  0  0  0
M  END
> <s_m_entry_id>
25588

> <s_m_entry_name>
dock_pv.240

> <s_m_Source_Path>
/home/csk/Desktop/cluster/DUD-E-result/pyrd

> <s_m_Source_File>
dock_pv.maegz

> <i_m_Source_File_Index>
240

> <chembl_id>
CHEMBL3674643

> <chembl_pref_name>
None

> <i_lp_mmshare_version>
53161

> <r_lp_tautomer_probability>
0.999999999999999

> <s_lp_Force_Field>
OPLS_2005

> <r_lp_Energy>
32.573795

> <b_lp_Chiralities_Consistent>
1

> <s_lp_Variant>
CHEMBL1966_lig433-1

> <s_i_glide_gridfile>
glide-grid_1d3g

> <i_i_glide_lignum>
483

> <i_i_glide_rotatable_bonds>
6

> <r_i_docking_score>
-9.61325758344789

> <r_i_glide_ligand_efficiency>
-0.369740676286457

> <r_i_glide_ligand_efficiency_sa>
-1.09535529863932

> <r_i_glide_ligand_efficiency_ln>
-2.25764199980179

> <r_i_glide_gscore>
-9.61325758344789

> <r_i_glide_lipo>
-5.70504277424749

> <r_i_glide_hbond>
-0.0728274697399881

> <r_i_glide_metal>
0

> <r_i_glide_rewards>
-1.75033671980351

> <r_i_glide_evdw>
-45.676700592041

> <r_i_glide_ecoul>
-2.85694289207458

> <r_i_glide_erotb>
0.627325843756344

> <r_i_glide_esite>
0

> <r_i_glide_emodel>
-69.4668287982679

> <r_i_glide_energy>
-48.5336434841156

> <r_i_glide_einternal>
13.4634819030762

> <i_i_glide_confnum>
10

> <i_i_glide_posenum>
292

> <r_i_glide_eff_state_penalty>
0

> <s_user_duplicate_titles>
CHEMBL1966_lig433

> <i_f3d_flags>
0

> <s_m_subgroup_title>
dock_pv

> <s_m_subgroupid>
dock_pv

> <b_m_subgroup_collapsed>
1

$$$$
CHEMBL1966_lig195
                    3D
 Schrodinger Suite 2021-1.
 43 45  0  0  1  0            999 V2000
   47.0140   40.8097   -5.4577 O   0  0  0  0  0  0
   48.3135   40.9354   -5.0557 C   0  0  0  0  0  0
   49.2220   41.2101   -5.8375 O   0  0  0  0  0  0
   48.5334   40.7373   -3.5703 C   0  0  0  0  0  0
   47.7797   39.7630   -2.8916 C   0  0  0  0  0  0
   47.9430   39.6101   -1.5145 C   0  0  0  0  0  0
   48.8231   40.3494   -0.7941 N   0  0  0  0  0  0
   49.6229   41.2125   -1.4645 C   0  0  0  0  0  0
   49.4748   41.4971   -2.8284 C   0  0  0  0  0  0
   50.2107   42.5359   -3.4206 N   0  0  0  0  0  0
   51.0668   43.5124   -2.8872 C   0  0  0  0  0  0
   52.1796   43.8380   -3.6623 C   0  0  0  0  0  0
   53.0787   44.8143   -3.2363 C   0  0  0  0  0  0
   52.8729   45.5119   -2.0382 C   0  0  0  0  0  0
   51.7161   45.2295   -1.2986 C   0  0  0  0  0  0
   50.8228   44.2369   -1.6992 C   0  0  0  0  0  0
   49.7477   44.0040   -0.9065 F   0  0  0  0  0  0
   53.9196   46.4320   -1.5150 C   0  0  0  0  0  0
   54.2338   46.4367   -0.1495 C   0  0  0  0  0  0
   55.2821   47.2098    0.3350 C   0  0  0  0  0  0
   56.0263   48.0033   -0.5329 C   0  0  0  0  0  0
   55.7172   48.0408   -1.9016 C   0  0  0  0  0  0
   56.3893   48.8002   -2.8378 O   0  0  0  0  0  0
   57.4868   49.6094   -2.4242 C   0  0  0  0  0  0
   58.1367   50.2115   -3.6717 C   0  0  0  0  0  0
   54.6646   47.2533   -2.3724 C   0  0  0  0  0  0
   47.0696   39.1314   -3.4068 H   0  0  0  0  0  0
   47.3622   38.8858   -0.9608 H   0  0  0  0  0  0
   50.3530   41.7211   -0.8559 H   0  0  0  0  0  0
   50.1404   42.5470   -4.4311 H   0  0  0  0  0  0
   52.3798   43.3006   -4.5780 H   0  0  0  0  0  0
   53.9720   45.0015   -3.8098 H   0  0  0  0  0  0
   51.5207   45.7573   -0.3764 H   0  0  0  0  0  0
   53.6911   45.8122    0.5463 H   0  0  0  0  0  0
   55.5242   47.1912    1.3876 H   0  0  0  0  0  0
   56.8421   48.5763   -0.1167 H   0  0  0  0  0  0
   57.1378   50.4038   -1.7634 H   0  0  0  0  0  0
   58.2288   49.0191   -1.8828 H   0  0  0  0  0  0
   58.9728   50.8575   -3.4033 H   0  0  0  0  0  0
   58.5152   49.4295   -4.3324 H   0  0  0  0  0  0
   57.4195   50.8079   -4.2372 H   0  0  0  0  0  0
   54.4379   47.2763   -3.4295 H   0  0  0  0  0  0
   46.4114   40.7548   -4.7126 H   0  0  0  0  0  0
  1  2  1  0  0  0
  1 43  1  0  0  0
  2  3  2  0  0  0
  2  4  1  0  0  0
  4  5  2  0  0  0
  4  9  1  0  0  0
  5  6  1  0  0  0
  5 27  1  0  0  0
  6  7  2  0  0  0
  6 28  1  0  0  0
  7  8  1  0  0  0
  8  9  2  0  0  0
  8 29  1  0  0  0
  9 10  1  0  0  0
 10 11  1  0  0  0
 10 30  1  0  0  0
 11 12  2  0  0  0
 11 16  1  0  0  0
 12 13  1  0  0  0
 12 31  1  0  0  0
 13 14  2  0  0  0
 13 32  1  0  0  0
 14 15  1  0  0  0
 14 18  1  0  0  0
 15 16  2  0  0  0
 15 33  1  0  0  0
 16 17  1  0  0  0
 18 19  2  0  0  0
 18 26  1  0  0  0
 19 20  1  0  0  0
 19 34  1  0  0  0
 20 21  2  0  0  0
 20 35  1  0  0  0
 21 22  1  0  0  0
 21 36  1  0  0  0
 22 23  1  0  0  0
 22 26  2  0  0  0
 23 24  1  0  0  0
 24 25  1  0  0  0
 24 37  1  0  0  0
 24 38  1  0  0  0
 25 39  1  0  0  0
 25 40  1  0  0  0
 25 41  1  0  0  0
 26 42  1  0  0  0
M  END
> <s_m_entry_id>
25589

> <s_m_entry_name>
dock_pv.241

> <s_m_Source_Path>
/home/csk/Desktop/cluster/DUD-E-result/pyrd

> <s_m_Source_File>
dock_pv.maegz

> <i_m_Source_File_Index>
241

> <chembl_id>
CHEMBL2263633

> <chembl_pref_name>
None

> <i_lp_mmshare_version>
53161

> <r_lp_tautomer_probability>
1

> <s_lp_Force_Field>
OPLS_2005

> <r_lp_Energy>
31.775295

> <b_lp_Chiralities_Consistent>
1

> <s_lp_Variant>
CHEMBL1966_lig195-1

> <s_i_glide_gridfile>
glide-grid_1d3g

> <i_i_glide_lignum>
240

> <i_i_glide_rotatable_bonds>
7

> <r_i_docking_score>
-9.60406846673461

> <r_i_glide_ligand_efficiency>
-0.369387248720562

> <r_i_glide_ligand_efficiency_sa>
-1.09430827086603

> <r_i_glide_ligand_efficiency_ln>
-2.25548396589363

> <r_i_glide_gscore>
-9.60406846673461

> <r_i_glide_lipo>
-5.21493283771604

> <r_i_glide_hbond>
-0.0365626060542889

> <r_i_glide_metal>
0

> <r_i_glide_rewards>
-2.35470472554546

> <r_i_glide_evdw>
-45.1341285705566

> <r_i_glide_ecoul>
-3.39802479743958

> <r_i_glide_erotb>
0.76854185072495

> <r_i_glide_esite>
0

> <r_i_glide_emodel>
-68.9306832048259

> <r_i_glide_energy>
-48.5321533679962

> <r_i_glide_einternal>
11.2237644195557

> <i_i_glide_confnum>
60

> <i_i_glide_posenum>
306

> <r_i_glide_eff_state_penalty>
0

> <s_user_duplicate_titles>
CHEMBL1966_lig195

> <i_f3d_flags>
0

> <s_m_subgroup_title>
dock_pv

> <s_m_subgroupid>
dock_pv

> <b_m_subgroup_collapsed>
1

$$$$
CHEMBL1966_lig450
                    3D
 Schrodinger Suite 2021-1.
 41 43  0  0  1  0            999 V2000
   47.5142   38.9163   -0.8797 C   0  0  0  0  0  0
   48.3542   40.0100   -1.5156 C   0  0  0  0  0  0
   49.2230   40.7691   -0.7329 C   0  0  0  0  0  0
   50.0009   41.7523   -1.3249 C   0  0  0  0  0  0
   49.8960   42.0121   -2.6945 C   0  0  0  0  0  0
   50.6994   43.0096   -3.2409 N   0  0  0  0  0  0
   51.5025   44.0100   -2.7003 C   0  0  0  0  0  0
   52.6265   44.3422   -3.4349 C   0  0  0  0  0  0
   53.4912   45.3115   -3.0767 N   0  0  0  0  0  0
   53.2386   46.0177   -1.9460 C   0  0  0  0  0  0
   52.0972   45.7729   -1.1492 C   0  0  0  0  0  0
   51.7659   46.5792    0.0958 C   0  0  0  0  0  0
   51.2240   44.7428   -1.5384 C   0  0  0  0  0  0
   54.3164   46.9999   -1.6623 C   0  0  0  0  0  0
   54.6342   47.9958   -2.6001 C   0  0  0  0  0  0
   55.7476   48.8092   -2.3807 C   0  0  0  0  0  0
   56.5528   48.6764   -1.2990 N   0  0  0  0  0  0
   56.2333   47.7163   -0.3960 C   0  0  0  0  0  0
   55.1232   46.8866   -0.5223 C   0  0  0  0  0  0
   54.8651   45.9703    0.4355 F   0  0  0  0  0  0
   49.0331   41.2374   -3.5141 C   0  0  0  0  0  0
   48.2821   40.2285   -2.8926 C   0  0  0  0  0  0
   48.8230   41.4648   -5.0097 C   0  0  0  0  0  0
   48.0214   40.8100   -5.6749 O   0  0  0  0  0  0
   49.5696   42.4424   -5.5943 O   0  0  0  0  0  0
   46.6123   39.3329   -0.4309 H   0  0  0  0  0  0
   48.0749   38.4047   -0.0989 H   0  0  0  0  0  0
   47.2338   38.1529   -1.6064 H   0  0  0  0  0  0
   49.3060   40.5825    0.3275 H   0  0  0  0  0  0
   50.6907   42.2997   -0.7031 H   0  0  0  0  0  0
   50.7758   42.9135   -4.2452 H   0  0  0  0  0  0
   52.8431   43.7935   -4.3364 H   0  0  0  0  0  0
   52.5858   47.2100    0.4330 H   0  0  0  0  0  0
   50.8975   47.2099   -0.0989 H   0  0  0  0  0  0
   51.5184   45.9098    0.9205 H   0  0  0  0  0  0
   50.3271   44.5463   -0.9697 H   0  0  0  0  0  0
   54.0451   48.1113   -3.4992 H   0  0  0  0  0  0
   56.0233   49.5755   -3.0908 H   0  0  0  0  0  0
   56.8887   47.6101    0.4559 H   0  0  0  0  0  0
   47.6078   39.6134   -3.4736 H   0  0  0  0  0  0
   49.2889   42.5824   -6.4990 H   0  0  0  0  0  0
  1  2  1  0  0  0
  1 26  1  0  0  0
  1 27  1  0  0  0
  1 28  1  0  0  0
  2  3  2  0  0  0
  2 22  1  0  0  0
  3  4  1  0  0  0
  3 29  1  0  0  0
  4  5  2  0  0  0
  4 30  1  0  0  0
  5  6  1  0  0  0
  5 21  1  0  0  0
  6  7  1  0  0  0
  6 31  1  0  0  0
  7  8  2  0  0  0
  7 13  1  0  0  0
  8  9  1  0  0  0
  8 32  1  0  0  0
  9 10  2  0  0  0
 10 11  1  0  0  0
 10 14  1  0  0  0
 11 12  1  0  0  0
 11 13  2  0  0  0
 12 33  1  0  0  0
 12 34  1  0  0  0
 12 35  1  0  0  0
 13 36  1  0  0  0
 14 15  2  0  0  0
 14 19  1  0  0  0
 15 16  1  0  0  0
 15 37  1  0  0  0
 16 17  2  0  0  0
 16 38  1  0  0  0
 17 18  1  0  0  0
 18 19  2  0  0  0
 18 39  1  0  0  0
 19 20  1  0  0  0
 21 22  2  0  0  0
 21 23  1  0  0  0
 22 40  1  0  0  0
 23 24  2  0  0  0
 23 25  1  0  0  0
 25 41  1  0  0  0
M  END
> <s_m_entry_id>
25590

> <s_m_entry_name>
dock_pv.242

> <s_m_Source_Path>
/home/csk/Desktop/cluster/DUD-E-result/pyrd

> <s_m_Source_File>
dock_pv.maegz

> <i_m_Source_File_Index>
242

> <chembl_id>
CHEMBL3674659

> <chembl_pref_name>
None

> <i_lp_mmshare_version>
53161

> <r_lp_tautomer_probability>
0.999999999999999

> <s_lp_Force_Field>
OPLS_2005

> <r_lp_Energy>
29.157476

> <b_lp_Chiralities_Consistent>
1

> <s_lp_Variant>
CHEMBL1966_lig450-1

> <s_i_glide_gridfile>
glide-grid_1d3g

> <i_i_glide_lignum>
500

> <i_i_glide_rotatable_bonds>
5

> <r_i_docking_score>
-9.59302152080171

> <r_i_glide_ligand_efficiency>
-0.383720860832069

> <r_i_glide_ligand_efficiency_sa>
-1.12200660239141

> <r_i_glide_ligand_efficiency_ln>
-2.2738335800868

> <r_i_glide_gscore>
-9.59302152080171

> <r_i_glide_lipo>
-5.15031992666686

> <r_i_glide_hbond>
-0.0464122684531885

> <r_i_glide_metal>
0

> <r_i_glide_rewards>
-2.65116523036482

> <r_i_glide_evdw>
-42.9326171875

> <r_i_glide_ecoul>
-1.75152003765106

> <r_i_glide_erotb>
0.664234769705809

> <r_i_glide_esite>
0

> <r_i_glide_emodel>
-60.6848109942

> <r_i_glide_energy>
-44.6841372251511

> <r_i_glide_einternal>
14.0041275024414

> <i_i_glide_confnum>
55

> <i_i_glide_posenum>
165

> <r_i_glide_eff_state_penalty>
0

> <s_user_duplicate_titles>
CHEMBL1966_lig450

> <i_f3d_flags>
0

> <s_m_subgroup_title>
dock_pv

> <s_m_subgroupid>
dock_pv

> <b_m_subgroup_collapsed>
1

$$$$
CHEMBL1966_lig295
                    3D
 Schrodinger Suite 2021-1.
 39 41  0  0  1  0            999 V2000
   48.4231   40.0100   -0.5678 C   0  0  0  0  0  0
   47.9164   39.6892   -1.8187 C   0  0  0  0  0  0
   48.3520   40.3640   -2.9524 C   0  0  0  0  0  0
   49.3803   41.0127   -0.4312 C   0  0  0  0  0  0
   49.7804   41.7783   -1.5576 C   0  0  0  0  0  0
   49.2774   41.4453   -2.8565 C   0  0  0  0  0  0
   49.6972   42.2673   -3.9558 C   0  0  0  0  0  0
   50.5921   43.3157   -3.6966 C   0  0  0  0  0  0
   50.9936   43.6100   -2.3987 C   0  0  0  0  0  0
   50.5926   42.8510   -1.3444 N   0  0  0  0  0  0
   51.9318   44.7431   -2.0945 C   0  0  0  0  0  0
   51.7824   45.5046   -0.9269 C   0  0  0  0  0  0
   52.7673   46.4100   -0.5451 C   0  0  0  0  0  0
   53.8980   46.6010   -1.3444 C   0  0  0  0  0  0
   54.0205   45.8953   -2.5429 C   0  0  0  0  0  0
   53.0454   44.9751   -2.9109 C   0  0  0  0  0  0
   54.9907   47.5778   -0.9088 C   0  0  0  0  0  0
   55.1584   48.7319   -1.9122 C   0  0  0  0  0  0
   56.3331   46.8843   -0.6282 C   0  0  0  0  0  0
   49.2230   42.0616   -5.3733 C   0  0  0  0  0  0
   49.2230   43.2099   -6.0987 O   0  0  0  0  0  0
   48.8723   40.9794   -5.8441 O   0  0  0  0  0  0
   46.5250   38.4079   -1.9709 Br  0  0  0  0  0  0
   48.0752   39.4704    0.3009 H   0  0  0  0  0  0
   47.9088   40.0890   -3.8948 H   0  0  0  0  0  0
   49.7660   41.2575    0.5470 H   0  0  0  0  0  0
   50.9614   43.9401   -4.4983 H   0  0  0  0  0  0
   50.9310   45.3484   -0.2797 H   0  0  0  0  0  0
   52.6516   46.9536    0.3814 H   0  0  0  0  0  0
   54.8860   46.0329   -3.1743 H   0  0  0  0  0  0
   53.1949   44.3891   -3.8045 H   0  0  0  0  0  0
   54.6803   48.0101    0.0418 H   0  0  0  0  0  0
   54.1991   49.2098   -2.1021 H   0  0  0  0  0  0
   55.5506   48.3861   -2.8695 H   0  0  0  0  0  0
   55.8410   49.4941   -1.5339 H   0  0  0  0  0  0
   56.2260   46.1030    0.1259 H   0  0  0  0  0  0
   56.7536   46.4289   -1.5259 H   0  0  0  0  0  0
   57.0585   47.6098   -0.2539 H   0  0  0  0  0  0
   49.0172   43.9850   -5.5644 H   0  0  0  0  0  0
  1  2  2  0  0  0
  1  4  1  0  0  0
  1 24  1  0  0  0
  2  3  1  0  0  0
  2 23  1  0  0  0
  3  6  2  0  0  0
  3 25  1  0  0  0
  4  5  2  0  0  0
  4 26  1  0  0  0
  5  6  1  0  0  0
  5 10  1  0  0  0
  6  7  1  0  0  0
  7  8  2  0  0  0
  7 20  1  0  0  0
  8  9  1  0  0  0
  8 27  1  0  0  0
  9 10  2  0  0  0
  9 11  1  0  0  0
 11 12  2  0  0  0
 11 16  1  0  0  0
 12 13  1  0  0  0
 12 28  1  0  0  0
 13 14  2  0  0  0
 13 29  1  0  0  0
 14 15  1  0  0  0
 14 17  1  0  0  0
 15 16  2  0  0  0
 15 30  1  0  0  0
 16 31  1  0  0  0
 17 18  1  0  0  0
 17 19  1  0  0  0
 17 32  1  0  0  0
 18 33  1  0  0  0
 18 34  1  0  0  0
 18 35  1  0  0  0
 19 36  1  0  0  0
 19 37  1  0  0  0
 19 38  1  0  0  0
 20 21  1  0  0  0
 20 22  2  0  0  0
 21 39  1  0  0  0
M  END
> <s_m_entry_id>
25591

> <s_m_entry_name>
dock_pv.243

> <s_m_Source_Path>
/home/csk/Desktop/cluster/DUD-E-result/pyrd

> <s_m_Source_File>
dock_pv.maegz

> <i_m_Source_File_Index>
243

> <chembl_id>
CHEMBL3818257

> <chembl_pref_name>
None

> <i_lp_mmshare_version>
53161

> <r_lp_tautomer_probability>
1

> <s_lp_Force_Field>
OPLS_2005

> <r_lp_Energy>
20.6247

> <b_lp_Chiralities_Consistent>
1

> <s_lp_Variant>
CHEMBL1966_lig295-1

> <s_i_glide_gridfile>
glide-grid_1d3g

> <i_i_glide_lignum>
341

> <i_i_glide_rotatable_bonds>
4

> <r_i_docking_score>
-9.59064944557641

> <r_i_glide_ligand_efficiency>
-0.416984758503322

> <r_i_glide_ligand_efficiency_sa>
-1.18584918456957

> <r_i_glide_ligand_efficiency_ln>
-2.31910599914153

> <r_i_glide_gscore>
-9.59064944557641

> <r_i_glide_lipo>
-5.4545750501115

> <r_i_glide_hbond>
-0.107748341085488

> <r_i_glide_metal>
0

> <r_i_glide_rewards>
-1.81503817939006

> <r_i_glide_evdw>
-31.6105690002441

> <r_i_glide_ecoul>
-6.09469604492188

> <r_i_glide_erotb>
0.281444981761123

> <r_i_glide_esite>
0

> <r_i_glide_emodel>
-55.084791014344

> <r_i_glide_energy>
-37.705265045166

> <r_i_glide_einternal>
4.25144004821777

> <i_i_glide_confnum>
13

> <i_i_glide_posenum>
193

> <r_i_glide_eff_state_penalty>
0

> <s_user_duplicate_titles>
CHEMBL1966_lig295

> <i_f3d_flags>
0

> <s_m_subgroup_title>
dock_pv

> <s_m_subgroupid>
dock_pv

> <b_m_subgroup_collapsed>
1

$$$$
CHEMBL1966_lig498
                    3D
 Schrodinger Suite 2021-1.
 40 43  0  0  1  0            999 V2000
   45.3035   39.7321   -5.4530 C   0  0  0  0  0  0
   46.5027   40.0101   -4.5869 C   0  0  0  0  0  0
   46.6013   39.4227   -3.3244 C   0  0  0  0  0  0
   47.6504   39.7054   -2.4390 C   0  0  0  0  0  0
   47.6230   39.0130   -1.0966 C   0  0  0  0  0  0
   46.9976   37.9736   -0.9094 O   0  0  0  0  0  0
   48.3351   39.6122   -0.1049 O   0  0  0  0  0  0
   48.5944   40.6745   -2.8830 C   0  0  0  0  0  0
   49.6203   41.3126   -2.2170 N   0  0  0  0  0  0
   50.0607   42.2304   -3.0514 C   0  0  0  0  0  0
   49.4848   42.1397   -4.2901 N   0  0  0  0  0  0
   48.4927   41.2031   -4.2047 C   0  0  0  0  0  0
   47.4926   40.8415   -5.0939 C   0  0  0  0  0  0
   51.0132   43.3284   -2.7400 C   0  0  0  0  0  0
   52.0399   43.6564   -3.6279 C   0  0  0  0  0  0
   52.8981   44.7067   -3.2926 C   0  0  0  0  0  0
   52.7258   45.4176   -2.0957 C   0  0  0  0  0  0
   51.6237   45.0630   -1.2998 C   0  0  0  0  0  0
   50.7936   44.0248   -1.5909 N   0  0  0  0  0  0
   53.7388   46.4183   -1.6612 C   0  0  0  0  0  0
   54.2216   46.4055   -0.3461 C   0  0  0  0  0  0
   55.2702   47.2366    0.0330 C   0  0  0  0  0  0
   55.8287   48.1077   -0.8986 C   0  0  0  0  0  0
   55.3330   48.1662   -2.1986 C   0  0  0  0  0  0
   54.2911   47.3232   -2.5772 C   0  0  0  0  0  0
   44.6281   40.5856   -5.3884 H   0  0  0  0  0  0
   45.6224   39.6130   -6.4863 H   0  0  0  0  0  0
   44.8169   38.8046   -5.1619 H   0  0  0  0  0  0
   45.8136   38.7464   -3.0194 H   0  0  0  0  0  0
   48.1776   39.1554    0.7329 H   0  0  0  0  0  0
   49.6854   42.7823   -5.0420 H   0  0  0  0  0  0
   47.4074   41.3108   -6.0615 H   0  0  0  0  0  0
   52.1962   43.0969   -4.5370 H   0  0  0  0  0  0
   53.7295   44.9441   -3.9356 H   0  0  0  0  0  0
   51.4286   45.5699   -0.3663 H   0  0  0  0  0  0
   53.8248   45.7028    0.3737 H   0  0  0  0  0  0
   55.6550   47.2019    1.0421 H   0  0  0  0  0  0
   56.6474   48.7501   -0.6064 H   0  0  0  0  0  0
   55.7657   48.8504   -2.9143 H   0  0  0  0  0  0
   53.9306   47.3567   -3.5954 H   0  0  0  0  0  0
  1  2  1  0  0  0
  1 26  1  0  0  0
  1 27  1  0  0  0
  1 28  1  0  0  0
  2  3  2  0  0  0
  2 13  1  0  0  0
  3  4  1  0  0  0
  3 29  1  0  0  0
  4  5  1  0  0  0
  4  8  2  0  0  0
  5  6  2  0  0  0
  5  7  1  0  0  0
  7 30  1  0  0  0
  8  9  1  0  0  0
  8 12  1  0  0  0
  9 10  2  0  0  0
 10 11  1  0  0  0
 10 14  1  0  0  0
 11 12  1  0  0  0
 11 31  1  0  0  0
 12 13  2  0  0  0
 13 32  1  0  0  0
 14 15  2  0  0  0
 14 19  1  0  0  0
 15 16  1  0  0  0
 15 33  1  0  0  0
 16 17  2  0  0  0
 16 34  1  0  0  0
 17 18  1  0  0  0
 17 20  1  0  0  0
 18 19  2  0  0  0
 18 35  1  0  0  0
 20 21  2  0  0  0
 20 25  1  0  0  0
 21 22  1  0  0  0
 21 36  1  0  0  0
 22 23  2  0  0  0
 22 37  1  0  0  0
 23 24  1  0  0  0
 23 38  1  0  0  0
 24 25  2  0  0  0
 24 39  1  0  0  0
 25 40  1  0  0  0
M  END
> <s_m_entry_id>
25592

> <s_m_entry_name>
dock_pv.244

> <s_m_Source_Path>
/home/csk/Desktop/cluster/DUD-E-result/pyrd

> <s_m_Source_File>
dock_pv.maegz

> <i_m_Source_File_Index>
244

> <chembl_id>
CHEMBL3677755

> <chembl_pref_name>
None

> <i_lp_mmshare_version>
53161

> <r_lp_tautomer_probability>
1

> <s_lp_Force_Field>
OPLS_2005

> <r_lp_Energy>
19.453521

> <b_lp_Chiralities_Consistent>
1

> <s_lp_Variant>
CHEMBL1966_lig498-1

> <s_i_glide_gridfile>
glide-grid_1d3g

> <i_i_glide_lignum>
548

> <i_i_glide_rotatable_bonds>
4

> <r_i_docking_score>
-9.58891293730651

> <r_i_glide_ligand_efficiency>
-0.383556517492261

> <r_i_glide_ligand_efficiency_sa>
-1.12152605955117

> <r_i_glide_ligand_efficiency_ln>
-2.27285972267413

> <r_i_glide_gscore>
-9.58891293730651

> <r_i_glide_lipo>
-4.79961247904231

> <r_i_glide_hbond>
0

> <r_i_glide_metal>
0

> <r_i_glide_rewards>
-2.48098997539048

> <r_i_glide_evdw>
-42.0605163574219

> <r_i_glide_ecoul>
-4.83371639251709

> <r_i_glide_erotb>
0.519772793874928

> <r_i_glide_esite>
0

> <r_i_glide_emodel>
-66.7957291252766

> <r_i_glide_energy>
-46.894232749939

> <r_i_glide_einternal>
5.15660285949707

> <i_i_glide_confnum>
7

> <i_i_glide_posenum>
58

> <r_i_glide_eff_state_penalty>
0

> <s_user_duplicate_titles>
CHEMBL1966_lig498

> <i_f3d_flags>
0

> <s_m_subgroup_title>
dock_pv

> <s_m_subgroupid>
dock_pv

> <b_m_subgroup_collapsed>
1

$$$$
CHEMBL1966_lig575
                    3D
 Schrodinger Suite 2021-1.
 36 38  0  0  1  0            999 V2000
   47.7701   40.4062   -4.7308 N   0  0  0  0  0  0
   47.4711   39.9020   -3.5307 N   0  0  3  0  0  0
   48.2198   40.3168   -2.5101 N   0  0  0  0  0  0
   49.0284   41.1884   -3.0668 C   0  0  0  0  0  0
   48.8004   41.1703   -4.4671 C   0  0  0  0  0  0
   49.9562   41.9890   -2.3102 C   0  0  0  0  0  0
   50.3168   41.6749   -1.1751 O   0  0  0  0  0  0
   50.3224   43.1108   -2.9440 N   0  0  0  0  0  0
   53.2173   45.9374   -1.8381 C   0  0  0  0  0  0
   52.0765   45.7736   -1.0343 C   0  0  0  0  0  0
   51.1135   44.8098   -1.3558 C   0  0  0  0  0  0
   51.2866   44.0099   -2.4994 C   0  0  0  0  0  0
   52.4229   44.1640   -3.2990 C   0  0  0  0  0  0
   53.3835   45.1151   -2.9582 C   0  0  0  0  0  0
   54.2830   46.9157   -1.5143 C   0  0  0  0  0  0
   55.0169   46.7812   -0.3341 C   0  0  0  0  0  0
   56.1076   47.6088   -0.0990 C   0  0  0  0  0  0
   56.4487   48.5929   -1.0223 C   0  0  0  0  0  0
   55.7090   48.7554   -2.1882 C   0  0  0  0  0  0
   54.6274   47.9144   -2.4348 C   0  0  0  0  0  0
   54.5115   45.2102   -3.6990 F   0  0  0  0  0  0
   52.6006   43.3717   -4.3851 F   0  0  0  0  0  0
   50.0088   44.6820   -0.5825 F   0  0  0  0  0  0
   51.8986   46.5516    0.0603 F   0  0  0  0  0  0
   46.2825   39.0994   -3.2992 C   0  0  0  0  0  0
   49.4349   41.8799   -5.4536 O   0  0  0  0  0  0
   49.9251   43.2846   -3.8559 H   0  0  0  0  0  0
   54.7728   46.0068    0.3791 H   0  0  0  0  0  0
   56.6995   47.4793    0.7943 H   0  0  0  0  0  0
   57.3006   49.2303   -0.8357 H   0  0  0  0  0  0
   55.9902   49.5147   -2.9038 H   0  0  0  0  0  0
   54.0727   48.0192   -3.3568 H   0  0  0  0  0  0
   45.6678   39.0529   -4.1989 H   0  0  0  0  0  0
   45.6916   39.5443   -2.4980 H   0  0  0  0  0  0
   46.5817   38.0924   -3.0104 H   0  0  0  0  0  0
   50.3662   41.9935   -5.2537 H   0  0  0  0  0  0
  1  2  1  0  0  0
  1  5  2  0  0  0
  2  3  1  0  0  0
  2 25  1  0  0  0
  3  4  2  0  0  0
  4  5  1  0  0  0
  4  6  1  0  0  0
  5 26  1  0  0  0
  6  7  2  0  0  0
  6  8  1  0  0  0
  8 12  1  0  0  0
  8 27  1  0  0  0
  9 10  1  0  0  0
  9 14  2  0  0  0
  9 15  1  0  0  0
 10 11  2  0  0  0
 10 24  1  0  0  0
 11 12  1  0  0  0
 11 23  1  0  0  0
 12 13  2  0  0  0
 13 14  1  0  0  0
 13 22  1  0  0  0
 14 21  1  0  0  0
 15 16  1  0  0  0
 15 20  2  0  0  0
 16 17  2  0  0  0
 16 28  1  0  0  0
 17 18  1  0  0  0
 17 29  1  0  0  0
 18 19  2  0  0  0
 18 30  1  0  0  0
 19 20  1  0  0  0
 19 31  1  0  0  0
 20 32  1  0  0  0
 25 33  1  0  0  0
 25 34  1  0  0  0
 25 35  1  0  0  0
 26 36  1  0  0  0
M  END
> <s_m_entry_id>
25593

> <s_m_entry_name>
dock_pv.245

> <s_m_Source_Path>
/home/csk/Desktop/cluster/DUD-E-result/pyrd

> <s_m_Source_File>
dock_pv.maegz

> <i_m_Source_File_Index>
245

> <chembl_id>
CHEMBL4062046

> <chembl_pref_name>
None

> <i_lp_mmshare_version>
53161

> <r_lp_tautomer_probability>
0.999989807936523

> <s_lp_Force_Field>
OPLS_2005

> <r_lp_Energy>
27.189

> <b_lp_Chiralities_Consistent>
1

> <s_lp_Variant>
CHEMBL1966_lig575-1

> <s_i_glide_gridfile>
glide-grid_1d3g

> <i_i_glide_lignum>
629

> <i_i_glide_rotatable_bonds>
5

> <r_i_docking_score>
-9.58668835717909

> <r_i_glide_ligand_efficiency>
-0.368718782968426

> <r_i_glide_ligand_efficiency_sa>
-1.09232794370561

> <r_i_glide_ligand_efficiency_ln>
-2.2514023041933

> <r_i_glide_gscore>
-9.58668835717909

> <r_i_glide_lipo>
-4.37339688124571

> <r_i_glide_hbond>
0

> <r_i_glide_metal>
0

> <r_i_glide_rewards>
-3.53046779652037

> <r_i_glide_evdw>
-41.2728080749512

> <r_i_glide_ecoul>
-1.28679394721985

> <r_i_glide_erotb>
0.573835816417525

> <r_i_glide_esite>
0

> <r_i_glide_emodel>
-60.3607020146153

> <r_i_glide_energy>
-42.559602022171

> <r_i_glide_einternal>
5.91753530502319

> <i_i_glide_confnum>
69

> <i_i_glide_posenum>
184

> <r_i_glide_eff_state_penalty>
0

> <s_user_duplicate_titles>
CHEMBL1966_lig575

> <i_f3d_flags>
0

> <s_m_subgroup_title>
dock_pv

> <s_m_subgroupid>
dock_pv

> <b_m_subgroup_collapsed>
1

$$$$
CHEMBL1966_lig435
                    3D
 Schrodinger Suite 2021-1.
 39 41  0  0  1  0            999 V2000
   47.1440   38.5317   -0.8181 C   0  0  0  0  0  0
   47.9501   39.6110   -1.5152 C   0  0  0  0  0  0
   48.8233   40.4096   -0.7767 C   0  0  0  0  0  0
   49.6230   41.3467   -1.4181 C   0  0  0  0  0  0
   49.5078   41.5742   -2.7931 C   0  0  0  0  0  0
   50.3226   42.5457   -3.4000 N   0  0  0  0  0  0
   51.1186   43.5856   -2.8926 C   0  0  0  0  0  0
   50.8570   44.2889   -1.7030 C   0  0  0  0  0  0
   51.7233   45.3151   -1.2994 C   0  0  0  0  0  0
   52.8473   45.6092   -2.0939 C   0  0  0  0  0  0
   53.0933   44.9357   -3.2531 N   0  0  0  0  0  0
   52.2331   43.9623   -3.6386 C   0  0  0  0  0  0
   53.8922   46.6104   -1.7194 C   0  0  0  0  0  0
   54.4860   47.4180   -2.7051 C   0  0  0  0  0  0
   55.5380   48.2817   -2.3972 C   0  0  0  0  0  0
   56.0230   48.3490   -1.0939 C   0  0  0  0  0  0
   55.4319   47.5729   -0.0998 C   0  0  0  0  0  0
   54.3648   46.7288   -0.4002 C   0  0  0  0  0  0
   53.8217   46.0100    0.6082 F   0  0  0  0  0  0
   48.5801   40.8101   -3.5483 C   0  0  0  0  0  0
   47.8296   39.8183   -2.8908 C   0  0  0  0  0  0
   48.3536   41.0328   -5.0302 C   0  0  0  0  0  0
   49.2229   41.4302   -5.7996 O   0  0  0  0  0  0
   47.0733   40.8069   -5.4399 O   0  0  0  0  0  0
   46.4058   38.9838   -0.1554 H   0  0  0  0  0  0
   47.7979   37.9144   -0.2004 H   0  0  0  0  0  0
   46.6395   37.8716   -1.5232 H   0  0  0  0  0  0
   48.9325   40.2508    0.2865 H   0  0  0  0  0  0
   50.3427   41.8866   -0.8243 H   0  0  0  0  0  0
   50.4484   42.3711   -4.3883 H   0  0  0  0  0  0
   49.9836   44.0698   -1.1087 H   0  0  0  0  0  0
   51.5273   45.8601   -0.3875 H   0  0  0  0  0  0
   52.4802   43.4413   -4.5495 H   0  0  0  0  0  0
   54.1440   47.3613   -3.7290 H   0  0  0  0  0  0
   55.9899   48.8834   -3.1727 H   0  0  0  0  0  0
   56.8525   48.9996   -0.8541 H   0  0  0  0  0  0
   55.7989   47.6099    0.9143 H   0  0  0  0  0  0
   47.1450   39.1873   -3.4401 H   0  0  0  0  0  0
   46.4985   40.6837   -4.6820 H   0  0  0  0  0  0
  1  2  1  0  0  0
  1 25  1  0  0  0
  1 26  1  0  0  0
  1 27  1  0  0  0
  2  3  2  0  0  0
  2 21  1  0  0  0
  3  4  1  0  0  0
  3 28  1  0  0  0
  4  5  2  0  0  0
  4 29  1  0  0  0
  5  6  1  0  0  0
  5 20  1  0  0  0
  6  7  1  0  0  0
  6 30  1  0  0  0
  7  8  2  0  0  0
  7 12  1  0  0  0
  8  9  1  0  0  0
  8 31  1  0  0  0
  9 10  2  0  0  0
  9 32  1  0  0  0
 10 11  1  0  0  0
 10 13  1  0  0  0
 11 12  2  0  0  0
 12 33  1  0  0  0
 13 14  2  0  0  0
 13 18  1  0  0  0
 14 15  1  0  0  0
 14 34  1  0  0  0
 15 16  2  0  0  0
 15 35  1  0  0  0
 16 17  1  0  0  0
 16 36  1  0  0  0
 17 18  2  0  0  0
 17 37  1  0  0  0
 18 19  1  0  0  0
 20 21  2  0  0  0
 20 22  1  0  0  0
 21 38  1  0  0  0
 22 23  2  0  0  0
 22 24  1  0  0  0
 24 39  1  0  0  0
M  END
> <s_m_entry_id>
25594

> <s_m_entry_name>
dock_pv.246

> <s_m_Source_Path>
/home/csk/Desktop/cluster/DUD-E-result/pyrd

> <s_m_Source_File>
dock_pv.maegz

> <i_m_Source_File_Index>
246

> <chembl_id>
CHEMBL3674645

> <chembl_pref_name>
None

> <i_lp_mmshare_version>
53161

> <r_lp_tautomer_probability>
0.999999999999999

> <s_lp_Force_Field>
OPLS_2005

> <r_lp_Energy>
28.822833

> <b_lp_Chiralities_Consistent>
1

> <s_lp_Variant>
CHEMBL1966_lig435-1

> <s_i_glide_gridfile>
glide-grid_1d3g

> <i_i_glide_lignum>
485

> <i_i_glide_rotatable_bonds>
5

> <r_i_docking_score>
-9.58621360411604

> <r_i_glide_ligand_efficiency>
-0.399425566838168

> <r_i_glide_ligand_efficiency_sa>
-1.15214270306376

> <r_i_glide_ligand_efficiency_ln>
-2.29442079814412

> <r_i_glide_gscore>
-9.58621360411604

> <r_i_glide_lipo>
-5.27246115812257

> <r_i_glide_hbond>
0

> <r_i_glide_metal>
0

> <r_i_glide_rewards>
-2.59023228166739

> <r_i_glide_evdw>
-42.8328628540039

> <r_i_glide_ecoul>
-2.01178169250488

> <r_i_glide_erotb>
0.719890232249847

> <r_i_glide_esite>
0

> <r_i_glide_emodel>
-62.2338968228077

> <r_i_glide_energy>
-44.8446445465088

> <r_i_glide_einternal>
14.0389986038208

> <i_i_glide_confnum>
44

> <i_i_glide_posenum>
58

> <r_i_glide_eff_state_penalty>
0

> <s_user_duplicate_titles>
CHEMBL1966_lig435

> <i_f3d_flags>
0

> <s_m_subgroup_title>
dock_pv

> <s_m_subgroupid>
dock_pv

> <b_m_subgroup_collapsed>
1

$$$$
CHEMBL1966_lig479
                    3D
 Schrodinger Suite 2021-1.
 37 40  0  0  1  0            999 V2000
   46.4423   40.8559   -5.6466 O   0  0  0  0  0  0
   47.7528   40.7131   -5.2991 C   0  0  0  0  0  0
   48.6809   40.8107   -6.0981 O   0  0  0  0  0  0
   47.9787   40.4077   -3.8521 C   0  0  0  0  0  0
   47.1806   39.4727   -3.1711 C   0  0  0  0  0  0
   47.3439   39.2098   -1.8055 C   0  0  0  0  0  0
   48.2961   39.8907   -1.0381 C   0  0  0  0  0  0
   49.1219   40.8101   -1.6956 C   0  0  0  0  0  0
   50.0228   41.7108   -1.2002 N   0  0  0  0  0  0
   50.3495   42.4311   -2.2559 C   0  0  0  0  0  0
   49.7891   42.0406   -3.4357 O   0  0  0  0  0  0
   48.9560   41.0319   -3.0729 C   0  0  0  0  0  0
   51.2020   43.6448   -2.2820 C   0  0  0  0  0  0
   51.1807   44.5620   -1.2270 C   0  0  0  0  0  0
   52.0992   45.6101   -1.1957 C   0  0  0  0  0  0
   53.0589   45.7395   -2.2072 C   0  0  0  0  0  0
   53.0116   44.8628   -3.2982 C   0  0  0  0  0  0
   52.0766   43.8338   -3.3499 C   0  0  0  0  0  0
   54.1442   46.7557   -2.1122 C   0  0  0  0  0  0
   54.5651   47.4659   -3.2447 C   0  0  0  0  0  0
   55.6220   48.3686   -3.1628 C   0  0  0  0  0  0
   56.2689   48.5658   -1.9461 C   0  0  0  0  0  0
   55.8638   47.8688   -0.8120 C   0  0  0  0  0  0
   54.8000   46.9752   -0.8932 C   0  0  0  0  0  0
   45.8755   40.9277   -4.8751 H   0  0  0  0  0  0
   46.4081   38.9298   -3.6985 H   0  0  0  0  0  0
   46.7018   38.4831   -1.3276 H   0  0  0  0  0  0
   48.3869   39.7140    0.0249 H   0  0  0  0  0  0
   50.4860   44.4377   -0.4084 H   0  0  0  0  0  0
   52.0949   46.2895   -0.3553 H   0  0  0  0  0  0
   53.7318   44.9651   -4.0906 H   0  0  0  0  0  0
   52.0936   43.1399   -4.1784 H   0  0  0  0  0  0
   54.0725   47.3199   -4.1954 H   0  0  0  0  0  0
   55.9409   48.9119   -4.0403 H   0  0  0  0  0  0
   57.0940   49.2606   -1.8814 H   0  0  0  0  0  0
   56.3779   48.0106    0.1264 H   0  0  0  0  0  0
   54.5088   46.4278   -0.0080 H   0  0  0  0  0  0
  1  2  1  0  0  0
  1 25  1  0  0  0
  2  3  2  0  0  0
  2  4  1  0  0  0
  4  5  2  0  0  0
  4 12  1  0  0  0
  5  6  1  0  0  0
  5 26  1  0  0  0
  6  7  2  0  0  0
  6 27  1  0  0  0
  7  8  1  0  0  0
  7 28  1  0  0  0
  8  9  1  0  0  0
  8 12  2  0  0  0
  9 10  2  0  0  0
 10 11  1  0  0  0
 10 13  1  0  0  0
 11 12  1  0  0  0
 13 14  2  0  0  0
 13 18  1  0  0  0
 14 15  1  0  0  0
 14 29  1  0  0  0
 15 16  2  0  0  0
 15 30  1  0  0  0
 16 17  1  0  0  0
 16 19  1  0  0  0
 17 18  2  0  0  0
 17 31  1  0  0  0
 18 32  1  0  0  0
 19 20  2  0  0  0
 19 24  1  0  0  0
 20 21  1  0  0  0
 20 33  1  0  0  0
 21 22  2  0  0  0
 21 34  1  0  0  0
 22 23  1  0  0  0
 22 35  1  0  0  0
 23 24  2  0  0  0
 23 36  1  0  0  0
 24 37  1  0  0  0
M  END
> <s_m_entry_id>
25595

> <s_m_entry_name>
dock_pv.247

> <s_m_Source_Path>
/home/csk/Desktop/cluster/DUD-E-result/pyrd

> <s_m_Source_File>
dock_pv.maegz

> <i_m_Source_File_Index>
247

> <chembl_id>
CHEMBL3677736

> <chembl_pref_name>
None

> <i_lp_mmshare_version>
53161

> <r_lp_tautomer_probability>
1

> <s_lp_Force_Field>
OPLS_2005

> <r_lp_Energy>
21.374997

> <b_lp_Chiralities_Consistent>
1

> <s_lp_Variant>
CHEMBL1966_lig479-1

> <s_i_glide_gridfile>
glide-grid_1d3g

> <i_i_glide_lignum>
529

> <i_i_glide_rotatable_bonds>
4

> <r_i_docking_score>
-9.58511298517547

> <r_i_glide_ligand_efficiency>
-0.399379707715645

> <r_i_glide_ligand_efficiency_sa>
-1.15201042246439

> <r_i_glide_ligand_efficiency_ln>
-2.29415736952753

> <r_i_glide_gscore>
-9.58511298517547

> <r_i_glide_lipo>
-5.44657303984453

> <r_i_glide_hbond>
-0.16

> <r_i_glide_metal>
0

> <r_i_glide_rewards>
-1.90711635901044

> <r_i_glide_evdw>
-36.8324127197266

> <r_i_glide_ecoul>
-5.27361297607422

> <r_i_glide_erotb>
0.561238996076965

> <r_i_glide_esite>
0

> <r_i_glide_emodel>
-58.3240044005933

> <r_i_glide_energy>
-42.1060256958008

> <r_i_glide_einternal>
7.74681186676025

> <i_i_glide_confnum>
7

> <i_i_glide_posenum>
79

> <r_i_glide_eff_state_penalty>
0

> <s_user_duplicate_titles>
CHEMBL1966_lig479

> <i_f3d_flags>
0

> <s_m_subgroup_title>
dock_pv

> <s_m_subgroupid>
dock_pv

> <b_m_subgroup_collapsed>
1

$$$$
CHEMBL1966_lig178
                    3D
 Schrodinger Suite 2021-1.
 36 38  0  0  1  0            999 V2000
   46.5950   40.8100   -5.4359 O   0  0  0  0  0  0
   47.9130   40.7701   -5.0843 C   0  0  0  0  0  0
   48.8230   40.9622   -5.8845 O   0  0  0  0  0  0
   48.1568   40.4724   -3.6247 C   0  0  0  0  0  0
   47.4291   39.4440   -3.0077 C   0  0  0  0  0  0
   47.5909   39.1942   -1.6490 C   0  0  0  0  0  0
   46.8230   37.8525   -0.8990 Cl  0  0  0  0  0  0
   48.4406   40.0100   -0.9178 C   0  0  0  0  0  0
   49.2230   40.9493   -1.5030 N   0  0  0  0  0  0
   49.0710   41.2100   -2.8293 C   0  0  0  0  0  0
   49.7784   42.3041   -3.3658 N   0  0  0  0  0  0
   50.7086   43.2360   -2.8514 C   0  0  0  0  0  0
   50.6116   43.8756   -1.6015 C   0  0  0  0  0  0
   49.6230   43.5904   -0.7278 F   0  0  0  0  0  0
   51.5291   44.8677   -1.2420 C   0  0  0  0  0  0
   52.6079   45.2100   -2.0712 C   0  0  0  0  0  0
   52.7129   44.5487   -3.2990 C   0  0  0  0  0  0
   51.7485   43.6253   -3.6990 C   0  0  0  0  0  0
   51.7687   43.2100   -4.9758 F   0  0  0  0  0  0
   53.6330   46.2187   -1.6560 C   0  0  0  0  0  0
   54.2572   47.0418   -2.6057 C   0  0  0  0  0  0
   55.2611   47.9315   -2.2312 C   0  0  0  0  0  0
   55.6567   48.0034   -0.8990 C   0  0  0  0  0  0
   55.0385   47.2100    0.0631 C   0  0  0  0  0  0
   54.0229   46.3361   -0.3134 C   0  0  0  0  0  0
   46.0120   40.8319   -4.6731 H   0  0  0  0  0  0
   46.7511   38.8206   -3.5732 H   0  0  0  0  0  0
   48.6021   39.8302    0.1359 H   0  0  0  0  0  0
   49.6430   42.3961   -4.3645 H   0  0  0  0  0  0
   51.4034   45.3585   -0.2879 H   0  0  0  0  0  0
   53.5095   44.8010   -3.9792 H   0  0  0  0  0  0
   53.9690   46.9969   -3.6460 H   0  0  0  0  0  0
   55.7383   48.5552   -2.9731 H   0  0  0  0  0  0
   56.4463   48.6819   -0.6083 H   0  0  0  0  0  0
   55.3447   47.2697    1.0977 H   0  0  0  0  0  0
   53.5697   45.7183    0.4478 H   0  0  0  0  0  0
  1  2  1  0  0  0
  1 26  1  0  0  0
  2  3  2  0  0  0
  2  4  1  0  0  0
  4  5  2  0  0  0
  4 10  1  0  0  0
  5  6  1  0  0  0
  5 27  1  0  0  0
  6  7  1  0  0  0
  6  8  2  0  0  0
  8  9  1  0  0  0
  8 28  1  0  0  0
  9 10  2  0  0  0
 10 11  1  0  0  0
 11 12  1  0  0  0
 11 29  1  0  0  0
 12 13  2  0  0  0
 12 18  1  0  0  0
 13 14  1  0  0  0
 13 15  1  0  0  0
 15 16  2  0  0  0
 15 30  1  0  0  0
 16 17  1  0  0  0
 16 20  1  0  0  0
 17 18  2  0  0  0
 17 31  1  0  0  0
 18 19  1  0  0  0
 20 21  2  0  0  0
 20 25  1  0  0  0
 21 22  1  0  0  0
 21 32  1  0  0  0
 22 23  2  0  0  0
 22 33  1  0  0  0
 23 24  1  0  0  0
 23 34  1  0  0  0
 24 25  2  0  0  0
 24 35  1  0  0  0
 25 36  1  0  0  0
M  END
> <s_m_entry_id>
25596

> <s_m_entry_name>
dock_pv.248

> <s_m_Source_Path>
/home/csk/Desktop/cluster/DUD-E-result/pyrd

> <s_m_Source_File>
dock_pv.maegz

> <i_m_Source_File_Index>
248

> <chembl_id>
CHEMBL2259675

> <chembl_pref_name>
None

> <i_lp_mmshare_version>
53161

> <r_lp_tautomer_probability>
1

> <s_lp_Force_Field>
OPLS_2005

> <r_lp_Energy>
25.296851

> <b_lp_Chiralities_Consistent>
1

> <s_lp_Variant>
CHEMBL1966_lig178-1

> <s_i_glide_gridfile>
glide-grid_1d3g

> <i_i_glide_lignum>
223

> <i_i_glide_rotatable_bonds>
5

> <r_i_docking_score>
-9.58240595119418

> <r_i_glide_ligand_efficiency>
-0.383296238047767

> <r_i_glide_ligand_efficiency_sa>
-1.1207649978394

> <r_i_glide_ligand_efficiency_ln>
-2.27131737196686

> <r_i_glide_gscore>
-9.58240595119418

> <r_i_glide_lipo>
-5.0991105791169

> <r_i_glide_hbond>
-0.12714704165486

> <r_i_glide_metal>
0

> <r_i_glide_rewards>
-2.43153909654364

> <r_i_glide_evdw>
-36.9967498779297

> <r_i_glide_ecoul>
-4.42927932739258

> <r_i_glide_erotb>
0.589620159126584

> <r_i_glide_esite>
0

> <r_i_glide_emodel>
-51.2848066391468

> <r_i_glide_energy>
-41.4260292053223

> <r_i_glide_einternal>
9.32129573822021

> <i_i_glide_confnum>
37

> <i_i_glide_posenum>
149

> <r_i_glide_eff_state_penalty>
0

> <s_user_duplicate_titles>
CHEMBL1966_lig178

> <i_f3d_flags>
0

> <s_m_subgroup_title>
dock_pv

> <s_m_subgroupid>
dock_pv

> <b_m_subgroup_collapsed>
1

$$$$
CHEMBL1966_lig394
                    3D
 Schrodinger Suite 2021-1.
 47 49  0  0  1  0            999 V2000
   49.3955   41.1909   -2.0332 C   0  0  0  0  0  0
   49.0554   40.5148   -0.7680 C   0  0  0  0  0  0
   48.0263   39.6164   -0.8733 N   0  0  0  0  0  0
   47.3509   39.2097   -1.9854 C   0  0  0  0  0  0
   47.7695   39.8167   -3.1295 N   0  0  0  0  0  0
   48.7231   40.8100   -3.1695 C   0  0  0  0  0  0
   48.8575   41.4050   -4.4991 C   0  0  0  0  0  0
   49.1327   42.7380   -4.4773 O   0  0  0  0  0  0
   48.6553   40.8090   -5.5581 O   0  0  0  0  0  0
   46.4234   38.4102   -1.9504 O   0  0  0  0  0  0
   49.6196   40.7572    0.3008 O   0  0  0  0  0  0
   50.4952   42.2671   -1.9138 C   0  0  0  0  0  0
   50.1562   43.5049   -1.0245 C   0  0  0  0  0  0
   51.2231   44.5924   -0.9833 C   0  0  0  0  0  0
   51.4852   45.2788    0.2061 C   0  0  0  0  0  0
   52.5598   46.1662    0.3137 C   0  0  0  0  0  0
   52.0230   44.8496   -2.0990 C   0  0  0  0  0  0
   53.0882   45.7737   -2.0354 C   0  0  0  0  0  0
   53.3978   46.4143   -0.8049 C   0  0  0  0  0  0
   54.5194   47.2899   -0.7568 C   0  0  0  0  0  0
   55.2662   47.5957   -1.9107 C   0  0  0  0  0  0
   54.8708   47.0104   -3.1208 C   0  0  0  0  0  0
   53.8420   46.0830   -3.1772 C   0  0  0  0  0  0
   56.4026   48.6125   -1.8385 C   0  0  0  0  0  0
   56.4226   49.4102   -0.8992 O   0  0  0  0  0  0
   57.3487   48.6795   -2.8169 N   0  0  0  0  0  0
   57.7586   47.5828   -3.6965 C   0  0  0  0  0  0
   58.1325   49.9003   -3.0347 C   0  0  0  0  0  0
   47.7450   39.1793   -0.0074 H   0  0  0  0  0  0
   47.3247   39.4960   -3.9769 H   0  0  0  0  0  0
   49.0685   43.1309   -5.3507 H   0  0  0  0  0  0
   50.8367   42.5561   -2.8989 H   0  0  0  0  0  0
   51.3823   41.7989   -1.4952 H   0  0  0  0  0  0
   49.9940   43.1698   -0.0044 H   0  0  0  0  0  0
   49.2230   43.9673   -1.2989 H   0  0  0  0  0  0
   50.8814   45.0847    1.0809 H   0  0  0  0  0  0
   52.7654   46.6585    1.2534 H   0  0  0  0  0  0
   51.8366   44.3705   -3.0461 H   0  0  0  0  0  0
   54.7662   47.7532    0.1887 H   0  0  0  0  0  0
   55.3384   47.2658   -4.0576 H   0  0  0  0  0  0
   53.5774   45.6157   -4.1066 H   0  0  0  0  0  0
   57.4459   47.7761   -4.7229 H   0  0  0  0  0  0
   57.3713   46.6137   -3.3821 H   0  0  0  0  0  0
   58.8399   47.4926   -3.7000 H   0  0  0  0  0  0
   57.8004   50.7382   -2.4180 H   0  0  0  0  0  0
   59.1844   49.7196   -2.8086 H   0  0  0  0  0  0
   58.0585   50.2158   -4.0760 H   0  0  0  0  0  0
  1  2  1  0  0  0
  1  6  2  0  0  0
  1 12  1  0  0  0
  2  3  1  0  0  0
  2 11  2  0  0  0
  3  4  1  0  0  0
  3 29  1  0  0  0
  4  5  1  0  0  0
  4 10  2  0  0  0
  5  6  1  0  0  0
  5 30  1  0  0  0
  6  7  1  0  0  0
  7  8  1  0  0  0
  7  9  2  0  0  0
  8 31  1  0  0  0
 12 13  1  0  0  0
 12 32  1  0  0  0
 12 33  1  0  0  0
 13 14  1  0  0  0
 13 34  1  0  0  0
 13 35  1  0  0  0
 14 15  2  0  0  0
 14 17  1  0  0  0
 15 16  1  0  0  0
 15 36  1  0  0  0
 16 19  2  0  0  0
 16 37  1  0  0  0
 17 18  2  0  0  0
 17 38  1  0  0  0
 18 19  1  0  0  0
 18 23  1  0  0  0
 19 20  1  0  0  0
 20 21  2  0  0  0
 20 39  1  0  0  0
 21 22  1  0  0  0
 21 24  1  0  0  0
 22 23  2  0  0  0
 22 40  1  0  0  0
 23 41  1  0  0  0
 24 25  2  0  0  0
 24 26  1  0  0  0
 26 27  1  0  0  0
 26 28  1  0  0  0
 27 42  1  0  0  0
 27 43  1  0  0  0
 27 44  1  0  0  0
 28 45  1  0  0  0
 28 46  1  0  0  0
 28 47  1  0  0  0
M  END
> <s_m_entry_id>
25597

> <s_m_entry_name>
dock_pv.249

> <s_m_Source_Path>
/home/csk/Desktop/cluster/DUD-E-result/pyrd

> <s_m_Source_File>
dock_pv.maegz

> <i_m_Source_File_Index>
249

> <chembl_id>
CHEMBL3979005

> <chembl_pref_name>
None

> <i_lp_mmshare_version>
53161

> <r_lp_tautomer_probability>
1

> <s_lp_Force_Field>
OPLS_2005

> <r_lp_Energy>
27.384994

> <b_lp_Chiralities_Consistent>
1

> <s_lp_Variant>
CHEMBL1966_lig394-1

> <s_i_glide_gridfile>
glide-grid_1d3g

> <i_i_glide_lignum>
444

> <i_i_glide_rotatable_bonds>
7

> <r_i_docking_score>
-9.58192609521675

> <r_i_glide_ligand_efficiency>
-0.342211646257741

> <r_i_glide_ligand_efficiency_sa>
-1.03915610991945

> <r_i_glide_ligand_efficiency_ln>
-2.21178988035106

> <r_i_glide_gscore>
-9.58192609521675

> <r_i_glide_lipo>
-4.56894435820836

> <r_i_glide_hbond>
-0.0503430488395925

> <r_i_glide_metal>
0

> <r_i_glide_rewards>
-2.69683223962889

> <r_i_glide_evdw>
-40.66650390625

> <r_i_glide_ecoul>
-5.99818325042725

> <r_i_glide_erotb>
0.667246234336674

> <r_i_glide_esite>
0

> <r_i_glide_emodel>
-67.4546313020754

> <r_i_glide_energy>
-46.6646871566772

> <r_i_glide_einternal>
6.54824304580688

> <i_i_glide_confnum>
114

> <i_i_glide_posenum>
249

> <r_i_glide_eff_state_penalty>
0

> <s_user_duplicate_titles>
CHEMBL1966_lig394

> <i_f3d_flags>
0

> <s_m_subgroup_title>
dock_pv

> <s_m_subgroupid>
dock_pv

> <b_m_subgroup_collapsed>
1

$$$$
CHEMBL1966_lig532
                    3D
 Schrodinger Suite 2021-1.
 55 59  0  0  1  0            999 V2000
   47.2877   38.5178   -0.9297 C   0  0  0  0  0  0
   48.0230   39.6108   -1.6835 C   0  0  0  0  0  0
   47.7990   39.8016   -3.0494 C   0  0  0  0  0  0
   48.4566   40.7924   -3.7952 C   0  0  0  0  0  0
   48.1432   40.9777   -5.2522 C   0  0  0  0  0  0
   47.0152   40.8101   -5.7059 O   0  0  0  0  0  0
   49.2226   41.2852   -6.0217 O   0  0  0  0  0  0
   49.3166   41.6395   -3.0728 C   0  0  0  0  0  0
   50.0271   42.7819   -3.3826 N   0  0  0  0  0  0
   50.6609   43.2236   -2.2389 C   0  0  0  0  0  0
   50.4195   42.4402   -1.2118 N   0  0  0  0  0  0
   49.5844   41.4567   -1.6908 C   0  0  0  0  0  0
   48.9412   40.4104   -0.9960 C   0  0  0  0  0  0
   51.6230   44.3795   -2.2273 C   0  0  0  0  0  0
   51.7944   45.2853   -1.1728 C   0  0  0  0  0  0
   52.8912   46.1640   -1.1708 C   0  0  0  0  0  0
   53.8276   46.1689   -2.2224 C   0  0  0  0  0  0
   53.5868   45.2967   -3.2787 C   0  0  0  0  0  0
   52.5202   44.4099   -3.2976 C   0  0  0  0  0  0
   55.0441   47.0704   -2.2550 C   0  0  0  0  0  0
   54.9538   48.3574   -1.7123 C   0  0  0  0  0  0
   56.0229   49.2516   -1.7177 C   0  0  0  0  0  0
   57.2254   48.8821   -2.2903 C   0  0  0  0  0  0
   57.3468   47.6229   -2.8579 C   0  0  0  0  0  0
   56.2821   46.7049   -2.8472 C   0  0  0  0  0  0
   56.4091   45.4561   -3.4291 O   0  0  0  0  0  0
   57.6099   45.0519   -4.0943 C   0  0  0  0  0  0
   57.9040   45.7611   -5.4194 C   0  0  0  0  0  0
   56.9782   46.6145   -6.0277 C   0  0  0  0  0  0
   57.2716   47.2106   -7.2517 C   0  0  0  0  0  0
   58.4954   46.9595   -7.8663 C   0  0  0  0  0  0
   59.4260   46.1138   -7.2686 C   0  0  0  0  0  0
   59.1283   45.5139   -6.0480 C   0  0  0  0  0  0
   46.5372   38.9534   -0.2709 H   0  0  0  0  0  0
   46.8092   37.8060   -1.6003 H   0  0  0  0  0  0
   47.9859   37.9570   -0.3048 H   0  0  0  0  0  0
   47.0886   39.1568   -3.5488 H   0  0  0  0  0  0
   50.0233   41.3062   -5.4959 H   0  0  0  0  0  0
   50.0774   43.2808   -4.2590 H   0  0  0  0  0  0
   49.1160   40.2636    0.0599 H   0  0  0  0  0  0
   51.1214   45.2614   -0.3274 H   0  0  0  0  0  0
   53.0291   46.8175   -0.3225 H   0  0  0  0  0  0
   54.2664   45.2873   -4.0991 H   0  0  0  0  0  0
   52.4387   43.7126   -4.1186 H   0  0  0  0  0  0
   54.0232   48.6835   -1.2991 H   0  0  0  0  0  0
   55.9191   50.2414   -1.2993 H   0  0  0  0  0  0
   58.0584   49.5697   -2.3039 H   0  0  0  0  0  0
   58.2961   47.3779   -3.3068 H   0  0  0  0  0  0
   58.4595   45.1013   -3.4140 H   0  0  0  0  0  0
   57.4637   44.0101   -4.3462 H   0  0  0  0  0  0
   56.0255   46.8114   -5.5615 H   0  0  0  0  0  0
   56.5524   47.8641   -7.7238 H   0  0  0  0  0  0
   58.7225   47.4216   -8.8165 H   0  0  0  0  0  0
   60.3714   45.9198   -7.7536 H   0  0  0  0  0  0
   59.8493   44.8504   -5.5929 H   0  0  0  0  0  0
  1  2  1  0  0  0
  1 34  1  0  0  0
  1 35  1  0  0  0
  1 36  1  0  0  0
  2  3  2  0  0  0
  2 13  1  0  0  0
  3  4  1  0  0  0
  3 37  1  0  0  0
  4  5  1  0  0  0
  4  8  2  0  0  0
  5  6  2  0  0  0
  5  7  1  0  0  0
  7 38  1  0  0  0
  8  9  1  0  0  0
  8 12  1  0  0  0
  9 10  1  0  0  0
  9 39  1  0  0  0
 10 11  2  0  0  0
 10 14  1  0  0  0
 11 12  1  0  0  0
 12 13  2  0  0  0
 13 40  1  0  0  0
 14 15  2  0  0  0
 14 19  1  0  0  0
 15 16  1  0  0  0
 15 41  1  0  0  0
 16 17  2  0  0  0
 16 42  1  0  0  0
 17 18  1  0  0  0
 17 20  1  0  0  0
 18 19  2  0  0  0
 18 43  1  0  0  0
 19 44  1  0  0  0
 20 21  2  0  0  0
 20 25  1  0  0  0
 21 22  1  0  0  0
 21 45  1  0  0  0
 22 23  2  0  0  0
 22 46  1  0  0  0
 23 24  1  0  0  0
 23 47  1  0  0  0
 24 25  2  0  0  0
 24 48  1  0  0  0
 25 26  1  0  0  0
 26 27  1  0  0  0
 27 28  1  0  0  0
 27 49  1  0  0  0
 27 50  1  0  0  0
 28 29  2  0  0  0
 28 33  1  0  0  0
 29 30  1  0  0  0
 29 51  1  0  0  0
 30 31  2  0  0  0
 30 52  1  0  0  0
 31 32  1  0  0  0
 31 53  1  0  0  0
 32 33  2  0  0  0
 32 54  1  0  0  0
 33 55  1  0  0  0
M  END
> <s_m_entry_id>
25598

> <s_m_entry_name>
dock_pv.250

> <s_m_Source_Path>
/home/csk/Desktop/cluster/DUD-E-result/pyrd

> <s_m_Source_File>
dock_pv.maegz

> <i_m_Source_File_Index>
250

> <chembl_id>
CHEMBL3677791

> <chembl_pref_name>
None

> <i_lp_mmshare_version>
53161

> <r_lp_tautomer_probability>
1

> <s_lp_Force_Field>
OPLS_2005

> <r_lp_Energy>
32.386726

> <b_lp_Chiralities_Consistent>
1

> <s_lp_Variant>
CHEMBL1966_lig532-1

> <s_i_glide_gridfile>
glide-grid_1d3g

> <i_i_glide_lignum>
586

> <i_i_glide_rotatable_bonds>
7

> <r_i_docking_score>
-9.57589157939716

> <r_i_glide_ligand_efficiency>
-0.290178532709005

> <r_i_glide_ligand_efficiency_sa>
-0.930757604407149

> <r_i_glide_ligand_efficiency_ln>
-2.12962870594486

> <r_i_glide_gscore>
-9.57589157939716

> <r_i_glide_lipo>
-5.87839336593738

> <r_i_glide_hbond>
-0.124980936896668

> <r_i_glide_metal>
0

> <r_i_glide_rewards>
-1.57123242758935

> <r_i_glide_evdw>
-45.4063262939453

> <r_i_glide_ecoul>
-2.42647361755371

> <r_i_glide_erotb>
0.633002508356563

> <r_i_glide_esite>
0

> <r_i_glide_emodel>
-58.3795830731808

> <r_i_glide_energy>
-47.832799911499

> <r_i_glide_einternal>
8.66157341003418

> <i_i_glide_confnum>
6

> <i_i_glide_posenum>
6

> <r_i_glide_eff_state_penalty>
0

> <s_user_duplicate_titles>
CHEMBL1966_lig532

> <i_f3d_flags>
0

> <s_m_subgroup_title>
dock_pv

> <s_m_subgroupid>
dock_pv

> <b_m_subgroup_collapsed>
1

$$$$
CHEMBL1966_lig690
                    3D
 Schrodinger Suite 2021-1.
 45 49  0  0  1  0            999 V2000
   53.7922   45.7149   -2.5820 C   0  0  0  0  0  0
   54.1880   46.5023   -1.4894 C   0  0  0  0  0  0
   54.5876   45.6028   -3.6780 N   0  0  0  0  0  0
   55.3699   47.2693   -1.6400 C   0  0  0  0  0  0
   52.5764   44.8100   -2.5285 C   0  0  0  0  0  0
   56.1356   47.2521   -2.8454 C   0  0  0  0  0  0
   51.6229   44.8544   -1.4914 C   0  0  0  0  0  0
   55.7340   46.3116   -3.8186 C   0  0  0  0  0  0
   51.6229   46.1900   -0.3511 S   0  0  0  0  0  0
   55.9533   48.0093   -0.4948 C   0  0  0  0  0  0
   53.4086   46.4187   -0.1703 C   0  0  0  0  0  0
   52.4156   43.7879   -3.4757 C   0  0  0  0  0  0
   50.6484   43.8453   -1.3587 C   0  0  0  0  0  0
   50.5642   42.7780   -2.2687 C   0  0  0  0  0  0
   57.2924   48.0544   -3.1225 C   0  0  0  0  0  0
   49.6233   41.6157   -2.1042 C   0  0  0  0  0  0
   56.2555   47.2103    0.5663 O   0  0  0  0  0  0
   51.4264   42.8160   -3.3629 C   0  0  0  0  0  0
   56.1720   49.2112   -0.5299 O   0  0  0  0  0  0
   56.5619   46.0877   -4.9473 C   0  0  0  0  0  0
   48.9812   41.0615   -3.2238 C   0  0  0  0  0  0
   49.3608   41.0422   -0.8459 C   0  0  0  0  0  0
   58.0239   47.8806   -4.2900 C   0  0  0  0  0  0
   57.6795   46.8796   -5.1835 C   0  0  0  0  0  0
   48.4230   40.0103   -0.7068 C   0  0  0  0  0  0
   48.0581   40.0249   -3.0909 C   0  0  0  0  0  0
   47.7614   39.5161   -1.8280 C   0  0  0  0  0  0
   59.0919   48.6718   -4.5398 F   0  0  0  0  0  0
   46.7278   38.4202   -1.6578 C   0  0  0  0  0  0
   53.5106   47.3262    0.4176 H   0  0  0  0  0  0
   53.7994   45.6166    0.4505 H   0  0  0  0  0  0
   53.1516   43.6368   -4.2347 H   0  0  0  0  0  0
   49.9580   43.8892   -0.5287 H   0  0  0  0  0  0
   57.6295   48.8086   -2.4284 H   0  0  0  0  0  0
   51.4028   42.0175   -4.0872 H   0  0  0  0  0  0
   56.3198   45.3047   -5.6495 H   0  0  0  0  0  0
   49.1619   41.4656   -4.2090 H   0  0  0  0  0  0
   49.8584   41.4193    0.0348 H   0  0  0  0  0  0
   58.2794   46.7221   -6.0675 H   0  0  0  0  0  0
   48.2167   39.6031    0.2731 H   0  0  0  0  0  0
   47.5623   39.6346   -3.9672 H   0  0  0  0  0  0
   45.9901   38.7129   -0.9118 H   0  0  0  0  0  0
   47.2096   37.5082   -1.3048 H   0  0  0  0  0  0
   46.2015   38.1993   -2.5877 H   0  0  0  0  0  0
   56.6772   47.7246    1.2583 H   0  0  0  0  0  0
  1  2  1  0  0  0
  1  3  2  0  0  0
  1  5  1  0  0  0
  2  4  2  0  0  0
  2 11  1  0  0  0
  3  8  1  0  0  0
  4 10  1  0  0  0
  4  6  1  0  0  0
  5  7  2  0  0  0
  5 12  1  0  0  0
  6  8  1  0  0  0
  6 15  2  0  0  0
  7  9  1  0  0  0
  7 13  1  0  0  0
  8 20  2  0  0  0
  9 11  1  0  0  0
 10 17  1  0  0  0
 10 19  2  0  0  0
 11 30  1  0  0  0
 11 31  1  0  0  0
 12 18  2  0  0  0
 12 32  1  0  0  0
 13 14  2  0  0  0
 13 33  1  0  0  0
 14 18  1  0  0  0
 14 16  1  0  0  0
 15 23  1  0  0  0
 15 34  1  0  0  0
 16 21  2  0  0  0
 16 22  1  0  0  0
 17 45  1  0  0  0
 18 35  1  0  0  0
 20 24  1  0  0  0
 20 36  1  0  0  0
 21 26  1  0  0  0
 21 37  1  0  0  0
 22 25  2  0  0  0
 22 38  1  0  0  0
 23 24  2  0  0  0
 23 28  1  0  0  0
 24 39  1  0  0  0
 25 27  1  0  0  0
 25 40  1  0  0  0
 26 27  2  0  0  0
 26 41  1  0  0  0
 27 29  1  0  0  0
 29 42  1  0  0  0
 29 43  1  0  0  0
 29 44  1  0  0  0
M  END
> <s_m_entry_id>
25599

> <s_m_entry_name>
dock_pv.251

> <s_m_Source_Path>
/home/csk/Desktop/cluster/DUD-E-result/pyrd

> <s_m_Source_File>
dock_pv.maegz

> <i_m_Source_File_Index>
251

> <chembl_id>
CHEMBL106467

> <chembl_pref_name>
None

> <i_lp_mmshare_version>
53161

> <r_lp_tautomer_probability>
1

> <s_lp_Force_Field>
OPLS_2005

> <r_lp_Energy>
31.537461

> <b_lp_Chiralities_Consistent>
1

> <s_lp_Variant>
CHEMBL1966_lig690-1

> <s_i_glide_gridfile>
glide-grid_1d3g

> <i_i_glide_lignum>
759

> <i_i_glide_rotatable_bonds>
3

> <r_i_docking_score>
-9.56788624729992

> <r_i_glide_ligand_efficiency>
-0.329927111975859

> <r_i_glide_ligand_efficiency_sa>
-1.01364061623563

> <r_i_glide_ligand_efficiency_ln>
-2.19080332997033

> <r_i_glide_gscore>
-9.56788624729992

> <r_i_glide_lipo>
-6.21698780201349

> <r_i_glide_hbond>
0

> <r_i_glide_metal>
0

> <r_i_glide_rewards>
-1.96189828598107

> <r_i_glide_evdw>
-29.6220321655273

> <r_i_glide_ecoul>
-1.00869107246399

> <r_i_glide_erotb>
0.243405109840607

> <r_i_glide_esite>
0

> <r_i_glide_emodel>
-47.8927610346685

> <r_i_glide_energy>
-30.6307232379913

> <r_i_glide_einternal>
3.98616433143616

> <i_i_glide_confnum>
1

> <i_i_glide_posenum>
124

> <r_i_glide_eff_state_penalty>
0

> <s_user_duplicate_titles>
CHEMBL1966_lig690,173690

> <i_f3d_flags>
0

> <s_m_subgroup_title>
dock_pv

> <s_m_subgroupid>
dock_pv

> <b_m_subgroup_collapsed>
1

$$$$
CHEMBL1966_lig457
                    3D
 Schrodinger Suite 2021-1.
 42 45  0  0  1  0            999 V2000
   49.0885   42.5718   -5.6990 O   0  0  0  0  0  0
   48.5034   41.4684   -5.1624 C   0  0  0  0  0  0
   47.6848   40.8099   -5.7998 O   0  0  0  0  0  0
   48.8451   41.1734   -3.7089 C   0  0  0  0  0  0
   48.0672   40.2324   -3.0225 C   0  0  0  0  0  0
   48.2384   40.0099   -1.6525 C   0  0  0  0  0  0
   49.2229   40.7003   -0.9477 C   0  0  0  0  0  0
   50.0230   41.6066   -1.6110 C   0  0  0  0  0  0
   49.8548   41.8385   -2.9790 C   0  0  0  0  0  0
   50.7570   42.6879   -3.6050 N   0  0  0  0  0  0
   51.5759   43.6620   -3.0639 C   0  0  0  0  0  0
   52.7721   43.9410   -3.6990 C   0  0  0  0  0  0
   53.6130   44.9079   -3.2684 N   0  0  0  0  0  0
   53.2247   45.6123   -2.1694 C   0  0  0  0  0  0
   52.0584   45.4195   -1.4841 N   0  0  0  0  0  0
   51.2511   44.4181   -1.9324 C   0  0  0  0  0  0
   54.2229   46.6105   -1.6783 C   0  0  0  0  0  0
   54.9513   47.3607   -2.6210 C   0  0  0  0  0  0
   56.0028   48.1917   -2.2395 C   0  0  0  0  0  0
   56.3611   48.2765   -0.8994 C   0  0  0  0  0  0
   55.6315   47.5675    0.0501 C   0  0  0  0  0  0
   54.5491   46.7754   -0.3154 C   0  0  0  0  0  0
   53.6931   46.0098    0.9791 Cl  0  0  0  0  0  0
   47.3537   39.0403   -0.8993 C   0  0  0  0  0  0
   46.3773   38.1073   -1.5658 C   0  0  0  0  0  0
   47.6227   37.5576   -0.9002 C   0  0  0  0  0  0
   48.6338   42.8380   -6.4993 H   0  0  0  0  0  0
   47.2835   39.7097   -3.5493 H   0  0  0  0  0  0
   49.3707   40.5187    0.1072 H   0  0  0  0  0  0
   50.8174   42.0696   -1.0479 H   0  0  0  0  0  0
   50.7045   42.6742   -4.6145 H   0  0  0  0  0  0
   53.1068   43.3059   -4.4990 H   0  0  0  0  0  0
   50.3148   44.2931   -1.4100 H   0  0  0  0  0  0
   54.7198   47.2772   -3.6735 H   0  0  0  0  0  0
   56.5564   48.7438   -2.9851 H   0  0  0  0  0  0
   57.1991   48.8882   -0.5949 H   0  0  0  0  0  0
   55.9078   47.6091    1.0922 H   0  0  0  0  0  0
   47.0212   39.4439    0.0574 H   0  0  0  0  0  0
   46.3086   38.0305   -2.6495 H   0  0  0  0  0  0
   45.3992   38.0104   -1.1008 H   0  0  0  0  0  0
   47.5645   37.0350    0.0528 H   0  0  0  0  0  0
   48.4223   37.1679   -1.5311 H   0  0  0  0  0  0
  1  2  1  0  0  0
  1 27  1  0  0  0
  2  3  2  0  0  0
  2  4  1  0  0  0
  4  5  2  0  0  0
  4  9  1  0  0  0
  5  6  1  0  0  0
  5 28  1  0  0  0
  6  7  2  0  0  0
  6 24  1  0  0  0
  7  8  1  0  0  0
  7 29  1  0  0  0
  8  9  2  0  0  0
  8 30  1  0  0  0
  9 10  1  0  0  0
 10 11  1  0  0  0
 10 31  1  0  0  0
 11 12  2  0  0  0
 11 16  1  0  0  0
 12 13  1  0  0  0
 12 32  1  0  0  0
 13 14  2  0  0  0
 14 15  1  0  0  0
 14 17  1  0  0  0
 15 16  2  0  0  0
 16 33  1  0  0  0
 17 18  2  0  0  0
 17 22  1  0  0  0
 18 19  1  0  0  0
 18 34  1  0  0  0
 19 20  2  0  0  0
 19 35  1  0  0  0
 20 21  1  0  0  0
 20 36  1  0  0  0
 21 22  2  0  0  0
 21 37  1  0  0  0
 22 23  1  0  0  0
 24 25  1  0  0  0
 24 26  1  0  0  0
 24 38  1  0  0  0
 25 26  1  0  0  0
 25 39  1  0  0  0
 25 40  1  0  0  0
 26 41  1  0  0  0
 26 42  1  0  0  0
M  END
> <s_m_entry_id>
25600

> <s_m_entry_name>
dock_pv.252

> <s_m_Source_Path>
/home/csk/Desktop/cluster/DUD-E-result/pyrd

> <s_m_Source_File>
dock_pv.maegz

> <i_m_Source_File_Index>
252

> <chembl_id>
CHEMBL3674666

> <chembl_pref_name>
None

> <i_lp_mmshare_version>
53161

> <r_lp_tautomer_probability>
1

> <s_lp_Force_Field>
OPLS_2005

> <r_lp_Energy>
36.235977

> <b_lp_Chiralities_Consistent>
1

> <s_lp_Variant>
CHEMBL1966_lig457-1

> <s_i_glide_gridfile>
glide-grid_1d3g

> <i_i_glide_lignum>
507

> <i_i_glide_rotatable_bonds>
6

> <r_i_docking_score>
-9.56281993573288

> <r_i_glide_ligand_efficiency>
-0.367800766758957

> <r_i_glide_ligand_efficiency_sa>
-1.08960832429728

> <r_i_glide_ligand_efficiency_ln>
-2.24579688373534

> <r_i_glide_gscore>
-9.56281993573288

> <r_i_glide_lipo>
-5.17860720848453

> <r_i_glide_hbond>
-0.105989794950397

> <r_i_glide_metal>
0

> <r_i_glide_rewards>
-2.50747081923971

> <r_i_glide_evdw>
-40.5316886901855

> <r_i_glide_ecoul>
-3.08709168434143

> <r_i_glide_erotb>
0.718896074102248

> <r_i_glide_esite>
0

> <r_i_glide_emodel>
-57.0337382796118

> <r_i_glide_energy>
-43.618780374527

> <r_i_glide_einternal>
15.7567930221558

> <i_i_glide_confnum>
80

> <i_i_glide_posenum>
6

> <r_i_glide_eff_state_penalty>
0

> <s_user_duplicate_titles>
CHEMBL1966_lig457

> <i_f3d_flags>
0

> <s_m_subgroup_title>
dock_pv

> <s_m_subgroupid>
dock_pv

> <b_m_subgroup_collapsed>
1

$$$$
CHEMBL1966_lig28
                    3D
 Schrodinger Suite 2021-1.
 44 46  0  0  1  0            999 V2000
   52.5797   45.9376   -1.7738 C   0  0  0  0  0  0
   53.8798   46.5554   -1.9694 C   0  0  0  0  0  0
   51.3341   43.9050   -2.4988 C   0  0  0  0  0  0
   52.4230   44.8100   -2.4990 N   0  0  0  0  0  0
   54.7850   46.8764   -0.9952 C   0  0  0  0  0  0
   49.5317   41.7034   -2.5012 C   0  0  0  0  0  0
   51.0451   43.2086   -3.6792 C   0  0  0  0  0  0
   50.6564   43.5351   -1.3279 C   0  0  0  0  0  0
   54.6438   46.6660    0.4419 C   0  0  0  0  0  0
   50.1676   42.1217   -3.6760 C   0  0  0  0  0  0
   49.8004   42.4494   -1.3431 C   0  0  0  0  0  0
   48.5486   40.5603   -2.4373 C   0  0  0  0  0  0
   51.7151   46.4100   -1.0412 O   0  0  0  0  0  0
   53.6057   46.4102    1.0438 O   0  0  0  0  0  0
   47.6959   40.1809   -3.5043 C   0  0  0  0  0  0
   50.8230   44.1699   -0.1474 F   0  0  0  0  0  0
   51.6230   43.5669   -4.8427 F   0  0  0  0  0  0
   55.8254   46.8100    1.1009 O   0  0  0  0  0  0
   54.4211   46.8906   -3.3522 C   0  0  0  0  0  0
   56.0437   47.4724   -1.6154 C   0  0  0  0  0  0
   47.8164   40.8101   -4.7282 O   0  0  0  0  0  0
   55.6459   47.7437   -3.0595 C   0  0  0  0  0  0
   48.3593   39.9288   -1.1946 C   0  0  0  0  0  0
   46.6991   39.2114   -3.2885 C   0  0  0  0  0  0
   46.6352   41.0296   -5.4946 C   0  0  0  0  0  0
   47.3873   38.9520   -1.0063 C   0  0  0  0  0  0
   46.5481   38.6009   -2.0503 C   0  0  0  0  0  0
   53.1285   44.6283   -3.1967 H   0  0  0  0  0  0
   50.0072   41.6012   -4.6060 H   0  0  0  0  0  0
   49.3157   42.2221   -0.4066 H   0  0  0  0  0  0
   55.6569   46.8085    2.0511 H   0  0  0  0  0  0
   53.7124   47.4339   -3.9770 H   0  0  0  0  0  0
   54.6900   45.9793   -3.8878 H   0  0  0  0  0  0
   56.8657   46.7572   -1.5515 H   0  0  0  0  0  0
   56.3801   48.3892   -1.1269 H   0  0  0  0  0  0
   55.3907   48.7997   -3.1733 H   0  0  0  0  0  0
   56.4623   47.5434   -3.7549 H   0  0  0  0  0  0
   48.9847   40.1547   -0.3445 H   0  0  0  0  0  0
   46.0226   38.9218   -4.0772 H   0  0  0  0  0  0
   46.8635   41.7378   -6.2886 H   0  0  0  0  0  0
   46.2728   40.1129   -5.9589 H   0  0  0  0  0  0
   45.8283   41.4609   -4.8993 H   0  0  0  0  0  0
   47.2815   38.4684   -0.0488 H   0  0  0  0  0  0
   45.7845   37.8528   -1.8983 H   0  0  0  0  0  0
  1  2  1  0  0  0
  1  4  1  0  0  0
  1 13  2  0  0  0
  2  5  2  0  0  0
  2 19  1  0  0  0
  3  4  1  0  0  0
  3  7  2  0  0  0
  3  8  1  0  0  0
  4 28  1  0  0  0
  5  9  1  0  0  0
  5 20  1  0  0  0
  6 11  1  0  0  0
  6 12  1  0  0  0
  6 10  2  0  0  0
  7 10  1  0  0  0
  7 17  1  0  0  0
  8 11  2  0  0  0
  8 16  1  0  0  0
  9 14  2  0  0  0
  9 18  1  0  0  0
 10 29  1  0  0  0
 11 30  1  0  0  0
 12 15  1  0  0  0
 12 23  2  0  0  0
 15 21  1  0  0  0
 15 24  2  0  0  0
 18 31  1  0  0  0
 19 22  1  0  0  0
 19 32  1  0  0  0
 19 33  1  0  0  0
 20 22  1  0  0  0
 20 34  1  0  0  0
 20 35  1  0  0  0
 21 25  1  0  0  0
 22 36  1  0  0  0
 22 37  1  0  0  0
 23 26  1  0  0  0
 23 38  1  0  0  0
 24 27  1  0  0  0
 24 39  1  0  0  0
 25 40  1  0  0  0
 25 41  1  0  0  0
 25 42  1  0  0  0
 26 27  2  0  0  0
 26 43  1  0  0  0
 27 44  1  0  0  0
M  END
> <s_m_entry_id>
25601

> <s_m_entry_name>
dock_pv.253

> <s_m_Source_Path>
/home/csk/Desktop/cluster/DUD-E-result/pyrd

> <s_m_Source_File>
dock_pv.maegz

> <i_m_Source_File_Index>
253

> <chembl_id>
CHEMBL154121

> <chembl_pref_name>
None

> <i_lp_mmshare_version>
53161

> <r_lp_tautomer_probability>
1

> <s_lp_Force_Field>
OPLS_2005

> <r_lp_Energy>
48.352806

> <b_lp_Chiralities_Consistent>
1

> <s_lp_Variant>
CHEMBL1966_lig28-1

> <s_i_glide_gridfile>
glide-grid_1d3g

> <i_i_glide_lignum>
32

> <i_i_glide_rotatable_bonds>
7

> <r_i_docking_score>
-9.55033517032481

> <r_i_glide_ligand_efficiency>
-0.353716117419438

> <r_i_glide_ligand_efficiency_sa>
-1.06114835109252

> <r_i_glide_ligand_efficiency_ln>
-2.22316057807098

> <r_i_glide_gscore>
-9.55033517032481

> <r_i_glide_lipo>
-5.13853122128407

> <r_i_glide_hbond>
0

> <r_i_glide_metal>
0

> <r_i_glide_rewards>
-2.84637224264568

> <r_i_glide_evdw>
-36.6756896972656

> <r_i_glide_ecoul>
-2.8320894241333

> <r_i_glide_erotb>
0.69316619208821

> <r_i_glide_esite>
0

> <r_i_glide_emodel>
-50.4698798004458

> <r_i_glide_energy>
-39.5077791213989

> <r_i_glide_einternal>
10.1797885894775

> <i_i_glide_confnum>
269

> <i_i_glide_posenum>
30

> <r_i_glide_eff_state_penalty>
0

> <s_user_duplicate_titles>
CHEMBL1966_lig28,257024

> <i_f3d_flags>
0

> <s_m_subgroup_title>
dock_pv

> <s_m_subgroupid>
dock_pv

> <b_m_subgroup_collapsed>
1

$$$$
CHEMBL1966_lig757
                    3D
 Schrodinger Suite 2021-1.
 45 47  0  0  1  0            999 V2000
   48.8231   41.2800   -4.2253 C   0  0  0  0  0  0
   48.0369   40.3701   -3.4560 C   0  0  0  0  0  0
   49.3580   40.8644   -1.4925 N   0  0  0  0  0  0
   48.3663   40.1645   -2.0859 C   0  0  0  0  0  0
   49.8432   42.0084   -3.5961 C   0  0  0  0  0  0
   50.0414   41.7792   -2.2255 C   0  0  0  0  0  0
   48.5853   41.3851   -5.6990 C   0  0  0  0  0  0
   46.9354   39.6623   -3.9731 C   0  0  0  0  0  0
   49.4916   41.2100   -6.4990 O   0  0  0  0  0  0
   47.6163   39.2389   -1.3063 C   0  0  0  0  0  0
   46.1996   38.8100   -3.2046 C   0  0  0  0  0  0
   47.2958   41.6100   -6.0772 O   0  0  0  0  0  0
   46.5269   38.5754   -1.8744 C   0  0  0  0  0  0
   45.2230   38.1639   -3.8603 F   0  0  0  0  0  0
   50.7116   43.0241   -4.3655 C   0  0  0  0  0  0
   51.1506   42.4636   -1.4609 C   0  0  0  0  0  0
   53.0022   46.4203   -0.6133 C   0  0  0  0  0  0
   51.5001   46.2834   -0.3794 C   0  0  0  0  0  0
   53.8811   46.4103    0.4743 C   0  0  0  0  0  0
   53.4964   46.6012   -1.9092 C   0  0  0  0  0  0
   51.1365   44.0217   -1.5288 C   0  0  0  0  0  0
   51.0386   44.8236   -0.2113 C   0  0  0  0  0  0
   54.8625   46.7685   -2.1177 C   0  0  0  0  0  0
   55.2471   46.5854    0.2657 C   0  0  0  0  0  0
   55.7309   46.7638   -1.0285 C   0  0  0  0  0  0
   46.6325   39.7197   -5.0013 H   0  0  0  0  0  0
   47.8762   39.0768   -0.2688 H   0  0  0  0  0  0
   46.7529   41.9267   -5.3496 H   0  0  0  0  0  0
   45.9479   37.8706   -1.2983 H   0  0  0  0  0  0
   50.8518   42.8100   -5.4190 H   0  0  0  0  0  0
   50.2570   44.0103   -4.3163 H   0  0  0  0  0  0
   51.7288   43.0728   -3.9810 H   0  0  0  0  0  0
   52.0231   42.0101   -1.9396 H   0  0  0  0  0  0
   51.1956   42.1109   -0.4391 H   0  0  0  0  0  0
   51.2469   46.8570    0.5132 H   0  0  0  0  0  0
   50.9444   46.7616   -1.1880 H   0  0  0  0  0  0
   53.5080   46.2797    1.4805 H   0  0  0  0  0  0
   52.8238   46.6211   -2.7545 H   0  0  0  0  0  0
   50.2998   44.3698   -2.1330 H   0  0  0  0  0  0
   52.0231   44.3321   -2.0777 H   0  0  0  0  0  0
   51.6230   44.4099    0.6019 H   0  0  0  0  0  0
   50.0050   44.8012    0.1352 H   0  0  0  0  0  0
   55.2456   46.9097   -3.1179 H   0  0  0  0  0  0
   55.9308   46.5883    1.1012 H   0  0  0  0  0  0
   56.7904   46.9016   -1.1900 H   0  0  0  0  0  0
  1  2  1  0  0  0
  1  5  2  0  0  0
  1  7  1  0  0  0
  2  4  1  0  0  0
  2  8  2  0  0  0
  3  6  2  0  0  0
  3  4  1  0  0  0
  4 10  2  0  0  0
  5  6  1  0  0  0
  5 15  1  0  0  0
  6 16  1  0  0  0
  7  9  2  0  0  0
  7 12  1  0  0  0
  8 11  1  0  0  0
  8 26  1  0  0  0
 10 13  1  0  0  0
 10 27  1  0  0  0
 11 13  2  0  0  0
 11 14  1  0  0  0
 12 28  1  0  0  0
 13 29  1  0  0  0
 15 30  1  0  0  0
 15 31  1  0  0  0
 15 32  1  0  0  0
 16 21  1  0  0  0
 16 33  1  0  0  0
 16 34  1  0  0  0
 17 18  1  0  0  0
 17 19  2  0  0  0
 17 20  1  0  0  0
 18 22  1  0  0  0
 18 35  1  0  0  0
 18 36  1  0  0  0
 19 24  1  0  0  0
 19 37  1  0  0  0
 20 23  2  0  0  0
 20 38  1  0  0  0
 21 22  1  0  0  0
 21 39  1  0  0  0
 21 40  1  0  0  0
 22 41  1  0  0  0
 22 42  1  0  0  0
 23 25  1  0  0  0
 23 43  1  0  0  0
 24 25  2  0  0  0
 24 44  1  0  0  0
 25 45  1  0  0  0
M  END
> <s_m_entry_id>
25602

> <s_m_entry_name>
dock_pv.254

> <s_m_Source_Path>
/home/csk/Desktop/cluster/DUD-E-result/pyrd

> <s_m_Source_File>
dock_pv.maegz

> <i_m_Source_File_Index>
254

> <chembl_id>
CHEMBL39167

> <chembl_pref_name>
None

> <i_lp_mmshare_version>
53161

> <r_lp_tautomer_probability>
1

> <s_lp_Force_Field>
OPLS_2005

> <r_lp_Energy>
24.610659

> <b_lp_Chiralities_Consistent>
1

> <s_lp_Variant>
CHEMBL1966_lig757-1

> <s_i_glide_gridfile>
glide-grid_1d3g

> <i_i_glide_lignum>
828

> <i_i_glide_rotatable_bonds>
7

> <r_i_docking_score>
-9.53714343289753

> <r_i_glide_ligand_efficiency>
-0.381485737315901

> <r_i_glide_ligand_efficiency_sa>
-1.11547106159005

> <r_i_glide_ligand_efficiency_ln>
-2.26058879872234

> <r_i_glide_gscore>
-9.53714343289753

> <r_i_glide_lipo>
-6.19443082845701

> <r_i_glide_hbond>
-0.16

> <r_i_glide_metal>
0

> <r_i_glide_rewards>
-1.79054895911283

> <r_i_glide_evdw>
-28.0222625732422

> <r_i_glide_ecoul>
-5.47447109222412

> <r_i_glide_erotb>
0.830120147168033

> <r_i_glide_esite>
0

> <r_i_glide_emodel>
-32.8543751592562

> <r_i_glide_energy>
-33.4967336654663

> <r_i_glide_einternal>
8.57015228271484

> <i_i_glide_confnum>
27

> <i_i_glide_posenum>
360

> <r_i_glide_eff_state_penalty>
0

> <s_user_duplicate_titles>
CHEMBL1966_lig757

> <i_f3d_flags>
0

> <s_m_subgroup_title>
dock_pv

> <s_m_subgroupid>
dock_pv

> <b_m_subgroup_collapsed>
1

$$$$
CHEMBL1966_lig604
                    3D
 Schrodinger Suite 2021-1.
 42 45  0  0  1  0            999 V2000
   46.4211   41.0156   -5.6990 C   0  0  0  0  0  0
   45.8306   40.0576   -4.8995 C   0  0  0  0  0  0
   46.4830   39.6098   -3.7622 C   0  0  0  0  0  0
   47.7225   41.4447   -5.4784 C   0  0  0  0  0  0
   48.3821   41.0628   -4.2933 C   0  0  0  0  0  0
   47.7440   40.1641   -3.3842 C   0  0  0  0  0  0
   48.3142   40.0226   -2.0807 C   0  0  0  0  0  0
   49.3085   40.9588   -1.6884 C   0  0  0  0  0  0
   49.8290   41.8505   -2.6565 C   0  0  0  0  0  0
   49.4548   41.7982   -3.9544 N   0  0  0  0  0  0
   50.7197   43.0341   -2.4073 C   0  0  0  0  0  0
   51.7601   43.3150   -3.2994 C   0  0  0  0  0  0
   52.5936   44.4101   -3.1138 C   0  0  0  0  0  0
   52.4247   45.2745   -2.0248 C   0  0  0  0  0  0
   51.3177   45.0596   -1.1883 C   0  0  0  0  0  0
   50.4868   43.9480   -1.3681 C   0  0  0  0  0  0
   47.6230   39.1042   -1.1001 C   0  0  0  0  0  0
   47.6232   37.7904   -1.4662 O   0  0  0  0  0  0
   47.0415   39.5327   -0.1124 O   0  0  0  0  0  0
   49.7634   41.0651   -0.2292 C   0  0  0  0  0  0
   53.4488   46.3542   -1.7927 C   0  0  0  0  0  0
   53.9924   46.6942   -0.5293 C   0  0  0  0  0  0
   55.0160   47.5760   -0.3782 N   0  0  0  0  0  0
   55.5252   48.1819   -1.4755 C   0  0  0  0  0  0
   55.0306   47.9492   -2.7529 C   0  0  0  0  0  0
   53.9938   47.0298   -2.9003 C   0  0  0  0  0  0
   53.4267   46.0101    0.9536 Cl  0  0  0  0  0  0
   45.8442   41.4490   -6.4990 H   0  0  0  0  0  0
   44.8331   39.7104   -5.1304 H   0  0  0  0  0  0
   45.9540   38.9280   -3.1133 H   0  0  0  0  0  0
   48.1510   42.2199   -6.0989 H   0  0  0  0  0  0
   51.9640   42.6461   -4.1194 H   0  0  0  0  0  0
   53.4302   44.5371   -3.7809 H   0  0  0  0  0  0
   51.1077   45.7369   -0.3745 H   0  0  0  0  0  0
   49.6489   43.8139   -0.7009 H   0  0  0  0  0  0
   48.1770   37.6349   -2.2393 H   0  0  0  0  0  0
   49.6716   40.1173    0.2974 H   0  0  0  0  0  0
   50.8085   41.3599   -0.1392 H   0  0  0  0  0  0
   49.1600   41.7996    0.3010 H   0  0  0  0  0  0
   56.3380   48.8748   -1.3109 H   0  0  0  0  0  0
   55.4490   48.4536   -3.6116 H   0  0  0  0  0  0
   53.6250   46.8330   -3.8969 H   0  0  0  0  0  0
  1  2  2  0  0  0
  1  4  1  0  0  0
  1 28  1  0  0  0
  2  3  1  0  0  0
  2 29  1  0  0  0
  3  6  2  0  0  0
  3 30  1  0  0  0
  4  5  2  0  0  0
  4 31  1  0  0  0
  5  6  1  0  0  0
  5 10  1  0  0  0
  6  7  1  0  0  0
  7  8  2  0  0  0
  7 17  1  0  0  0
  8  9  1  0  0  0
  8 20  1  0  0  0
  9 10  2  0  0  0
  9 11  1  0  0  0
 11 12  2  0  0  0
 11 16  1  0  0  0
 12 13  1  0  0  0
 12 32  1  0  0  0
 13 14  2  0  0  0
 13 33  1  0  0  0
 14 15  1  0  0  0
 14 21  1  0  0  0
 15 16  2  0  0  0
 15 34  1  0  0  0
 16 35  1  0  0  0
 17 18  1  0  0  0
 17 19  2  0  0  0
 18 36  1  0  0  0
 20 37  1  0  0  0
 20 38  1  0  0  0
 20 39  1  0  0  0
 21 22  2  0  0  0
 21 26  1  0  0  0
 22 23  1  0  0  0
 22 27  1  0  0  0
 23 24  2  0  0  0
 24 25  1  0  0  0
 24 40  1  0  0  0
 25 26  2  0  0  0
 25 41  1  0  0  0
 26 42  1  0  0  0
M  END
> <s_m_entry_id>
25603

> <s_m_entry_name>
dock_pv.255

> <s_m_Source_Path>
/home/csk/Desktop/cluster/DUD-E-result/pyrd

> <s_m_Source_File>
dock_pv.maegz

> <i_m_Source_File_Index>
255

> <chembl_id>
CHEMBL4225759

> <chembl_pref_name>
None

> <i_lp_mmshare_version>
53161

> <r_lp_tautomer_probability>
1

> <s_lp_Force_Field>
OPLS_2005

> <r_lp_Energy>
36.401256

> <b_lp_Chiralities_Consistent>
1

> <s_lp_Variant>
CHEMBL1966_lig604-1

> <s_i_glide_gridfile>
glide-grid_1d3g

> <i_i_glide_lignum>
658

> <i_i_glide_rotatable_bonds>
4

> <r_i_docking_score>
-9.53484430042992

> <r_i_glide_ligand_efficiency>
-0.353142381497404

> <r_i_glide_ligand_efficiency_sa>
-1.05942714332831

> <r_i_glide_ligand_efficiency_ln>
-2.2195545589464

> <r_i_glide_gscore>
-9.53484430042992

> <r_i_glide_lipo>
-5.94222438509408

> <r_i_glide_hbond>
0

> <r_i_glide_metal>
0

> <r_i_glide_rewards>
-1.87488365054115

> <r_i_glide_evdw>
-37.283763885498

> <r_i_glide_ecoul>
-1.77690327167511

> <r_i_glide_erotb>
0.412987420231485

> <r_i_glide_esite>
0

> <r_i_glide_emodel>
-54.0884324955596

> <r_i_glide_energy>
-39.0606671571732

> <r_i_glide_einternal>
5.16673135757446

> <i_i_glide_confnum>
42

> <i_i_glide_posenum>
14

> <r_i_glide_eff_state_penalty>
0

> <s_user_duplicate_titles>
CHEMBL1966_lig604

> <i_f3d_flags>
0

> <s_m_subgroup_title>
dock_pv

> <s_m_subgroupid>
dock_pv

> <b_m_subgroup_collapsed>
1

$$$$
CHEMBL1966_lig586
                    3D
 Schrodinger Suite 2021-1.
 42 44  0  0  1  0            999 V2000
   47.8917   39.3772   -0.6051 C   0  0  0  0  0  0
   47.3666   38.9703   -1.8246 C   0  0  0  0  0  0
   47.7437   39.6100   -3.0019 C   0  0  0  0  0  0
   48.8230   40.4100   -0.5398 C   0  0  0  0  0  0
   49.2230   41.0809   -1.7186 C   0  0  0  0  0  0
   48.6640   40.7030   -2.9795 C   0  0  0  0  0  0
   49.0415   41.4836   -4.1233 C   0  0  0  0  0  0
   49.9488   42.5338   -3.9500 C   0  0  0  0  0  0
   50.4232   42.8448   -2.6778 C   0  0  0  0  0  0
   50.0733   42.1302   -1.5813 N   0  0  0  0  0  0
   51.3411   43.9919   -2.4345 C   0  0  0  0  0  0
   52.4231   44.2112   -3.2990 C   0  0  0  0  0  0
   53.3374   45.2275   -3.0381 C   0  0  0  0  0  0
   53.1654   46.0583   -1.9319 C   0  0  0  0  0  0
   52.0820   45.8603   -1.0731 C   0  0  0  0  0  0
   51.1855   44.8220   -1.3136 C   0  0  0  0  0  0
   48.4917   41.2390   -5.5008 C   0  0  0  0  0  0
   47.1340   41.1268   -5.5836 O   0  0  0  0  0  0
   49.2231   41.2088   -6.4821 O   0  0  0  0  0  0
   54.1427   47.2009   -1.6957 C   0  0  0  0  0  0
   55.4022   46.8435   -0.8795 C   0  0  0  0  0  0
   55.0805   46.4072    0.5625 C   0  0  0  0  0  0
   56.3713   48.0387   -0.8688 C   0  0  0  0  0  0
   47.5843   38.8754    0.2998 H   0  0  0  0  0  0
   46.6647   38.1492   -1.8560 H   0  0  0  0  0  0
   47.3290   39.2604   -3.9340 H   0  0  0  0  0  0
   49.2318   40.7091    0.4143 H   0  0  0  0  0  0
   50.2480   43.1414   -4.7939 H   0  0  0  0  0  0
   52.5822   43.5649   -4.1505 H   0  0  0  0  0  0
   54.1783   45.3723   -3.6999 H   0  0  0  0  0  0
   51.9389   46.4975   -0.2127 H   0  0  0  0  0  0
   50.3607   44.6709   -0.6301 H   0  0  0  0  0  0
   46.6963   41.3323   -4.7541 H   0  0  0  0  0  0
   53.6232   48.0100   -1.1954 H   0  0  0  0  0  0
   54.4267   47.6065   -2.6689 H   0  0  0  0  0  0
   55.9087   46.0130   -1.3748 H   0  0  0  0  0  0
   54.5937   47.2036    1.1256 H   0  0  0  0  0  0
   55.9925   46.1368    1.0949 H   0  0  0  0  0  0
   54.4246   45.5379    0.5849 H   0  0  0  0  0  0
   55.8901   48.9441   -0.4995 H   0  0  0  0  0  0
   57.2236   47.8512   -0.2211 H   0  0  0  0  0  0
   56.7568   48.2512   -1.8671 H   0  0  0  0  0  0
  1  2  2  0  0  0
  1  4  1  0  0  0
  1 24  1  0  0  0
  2  3  1  0  0  0
  2 25  1  0  0  0
  3  6  2  0  0  0
  3 26  1  0  0  0
  4  5  2  0  0  0
  4 27  1  0  0  0
  5  6  1  0  0  0
  5 10  1  0  0  0
  6  7  1  0  0  0
  7  8  2  0  0  0
  7 17  1  0  0  0
  8  9  1  0  0  0
  8 28  1  0  0  0
  9 10  2  0  0  0
  9 11  1  0  0  0
 11 12  2  0  0  0
 11 16  1  0  0  0
 12 13  1  0  0  0
 12 29  1  0  0  0
 13 14  2  0  0  0
 13 30  1  0  0  0
 14 15  1  0  0  0
 14 20  1  0  0  0
 15 16  2  0  0  0
 15 31  1  0  0  0
 16 32  1  0  0  0
 17 18  1  0  0  0
 17 19  2  0  0  0
 18 33  1  0  0  0
 20 21  1  0  0  0
 20 34  1  0  0  0
 20 35  1  0  0  0
 21 22  1  0  0  0
 21 23  1  0  0  0
 21 36  1  0  0  0
 22 37  1  0  0  0
 22 38  1  0  0  0
 22 39  1  0  0  0
 23 40  1  0  0  0
 23 41  1  0  0  0
 23 42  1  0  0  0
M  END
> <s_m_entry_id>
25604

> <s_m_entry_name>
dock_pv.256

> <s_m_Source_Path>
/home/csk/Desktop/cluster/DUD-E-result/pyrd

> <s_m_Source_File>
dock_pv.maegz

> <i_m_Source_File_Index>
256

> <chembl_id>
CHEMBL4224742

> <chembl_pref_name>
None

> <i_lp_mmshare_version>
53161

> <r_lp_tautomer_probability>
1

> <s_lp_Force_Field>
OPLS_2005

> <r_lp_Energy>
22.437337

> <b_lp_Chiralities_Consistent>
1

> <s_lp_Variant>
CHEMBL1966_lig586-1

> <s_i_glide_gridfile>
glide-grid_1d3g

> <i_i_glide_lignum>
640

> <i_i_glide_rotatable_bonds>
5

> <r_i_docking_score>
-9.53426237830054

> <r_i_glide_ligand_efficiency>
-0.414533146882632

> <r_i_glide_ligand_efficiency_sa>
-1.17887712724136

> <r_i_glide_ligand_efficiency_ln>
-2.30547109498457

> <r_i_glide_gscore>
-9.53426237830054

> <r_i_glide_lipo>
-5.55382656419514

> <r_i_glide_hbond>
-0.16

> <r_i_glide_metal>
0

> <r_i_glide_rewards>
-2.04812676862191

> <r_i_glide_evdw>
-34.3758697509766

> <r_i_glide_ecoul>
-4.3151478767395

> <r_i_glide_erotb>
0.593756623576264

> <r_i_glide_esite>
0

> <r_i_glide_emodel>
-59.5911253289455

> <r_i_glide_energy>
-38.6910176277161

> <r_i_glide_einternal>
4.44777584075928

> <i_i_glide_confnum>
18

> <i_i_glide_posenum>
99

> <r_i_glide_eff_state_penalty>
0

> <s_user_duplicate_titles>
CHEMBL1966_lig586

> <i_f3d_flags>
0

> <s_m_subgroup_title>
dock_pv

> <s_m_subgroupid>
dock_pv

> <b_m_subgroup_collapsed>
1

$$$$
CHEMBL1966_lig210
                    3D
 Schrodinger Suite 2021-1.
 40 42  0  0  1  0            999 V2000
   47.7435   39.5201   -1.8178 C   0  0  0  0  0  0
   48.2685   39.8101   -0.5647 C   0  0  0  0  0  0
   49.2230   40.8100   -0.4163 C   0  0  0  0  0  0
   48.1979   40.1909   -2.9492 C   0  0  0  0  0  0
   49.1410   41.2580   -2.8398 C   0  0  0  0  0  0
   49.6232   41.5860   -1.5307 C   0  0  0  0  0  0
   50.4289   42.6580   -1.2937 N   0  0  0  0  0  0
   50.8232   43.4283   -2.3369 C   0  0  0  0  0  0
   50.4408   43.1509   -3.6400 C   0  0  0  0  0  0
   49.5809   42.0876   -3.9280 C   0  0  0  0  0  0
   46.4972   38.3406   -1.9651 Cl  0  0  0  0  0  0
   49.1666   41.8883   -5.3630 C   0  0  0  0  0  0
   49.2229   43.0297   -6.0989 O   0  0  0  0  0  0
   48.8230   40.8100   -5.8418 O   0  0  0  0  0  0
   51.7438   44.5643   -2.0479 C   0  0  0  0  0  0
   52.8230   44.8131   -2.9089 C   0  0  0  0  0  0
   53.7441   45.8183   -2.6383 C   0  0  0  0  0  0
   53.6287   46.5886   -1.4736 C   0  0  0  0  0  0
   52.5580   46.3479   -0.6113 C   0  0  0  0  0  0
   51.6215   45.3536   -0.8969 C   0  0  0  0  0  0
   54.5226   47.5803   -1.1072 O   0  0  0  0  0  0
   55.5975   47.9114   -1.9876 C   0  0  0  0  0  0
   56.5658   48.8864   -1.2995 C   0  0  0  0  0  0
   57.6247   49.4530   -2.2547 C   0  0  0  0  0  0
   47.9298   39.2558    0.2986 H   0  0  0  0  0  0
   49.6161   41.0420    0.5635 H   0  0  0  0  0  0
   47.7663   39.9277   -3.9012 H   0  0  0  0  0  0
   50.8134   43.7911   -4.4267 H   0  0  0  0  0  0
   49.0514   43.8187   -5.5748 H   0  0  0  0  0  0
   52.9703   44.2069   -3.7900 H   0  0  0  0  0  0
   54.5509   45.9654   -3.3387 H   0  0  0  0  0  0
   52.4576   46.9320    0.2916 H   0  0  0  0  0  0
   50.8094   45.1819   -0.2050 H   0  0  0  0  0  0
   55.1898   48.3593   -2.8961 H   0  0  0  0  0  0
   56.1583   47.0187   -2.2705 H   0  0  0  0  0  0
   57.0611   48.3781   -0.4713 H   0  0  0  0  0  0
   56.0230   49.7202   -0.8596 H   0  0  0  0  0  0
   58.3179   50.1042   -1.7207 H   0  0  0  0  0  0
   57.1668   50.0414   -3.0510 H   0  0  0  0  0  0
   58.2099   48.6587   -2.7188 H   0  0  0  0  0  0
  1  2  2  0  0  0
  1  4  1  0  0  0
  1 11  1  0  0  0
  2  3  1  0  0  0
  2 25  1  0  0  0
  3  6  2  0  0  0
  3 26  1  0  0  0
  4  5  2  0  0  0
  4 27  1  0  0  0
  5  6  1  0  0  0
  5 10  1  0  0  0
  6  7  1  0  0  0
  7  8  2  0  0  0
  8  9  1  0  0  0
  8 15  1  0  0  0
  9 10  2  0  0  0
  9 28  1  0  0  0
 10 12  1  0  0  0
 12 13  1  0  0  0
 12 14  2  0  0  0
 13 29  1  0  0  0
 15 16  2  0  0  0
 15 20  1  0  0  0
 16 17  1  0  0  0
 16 30  1  0  0  0
 17 18  2  0  0  0
 17 31  1  0  0  0
 18 19  1  0  0  0
 18 21  1  0  0  0
 19 20  2  0  0  0
 19 32  1  0  0  0
 20 33  1  0  0  0
 21 22  1  0  0  0
 22 23  1  0  0  0
 22 34  1  0  0  0
 22 35  1  0  0  0
 23 24  1  0  0  0
 23 36  1  0  0  0
 23 37  1  0  0  0
 24 38  1  0  0  0
 24 39  1  0  0  0
 24 40  1  0  0  0
M  END
> <s_m_entry_id>
25605

> <s_m_entry_name>
dock_pv.257

> <s_m_Source_Path>
/home/csk/Desktop/cluster/DUD-E-result/pyrd

> <s_m_Source_File>
dock_pv.maegz

> <i_m_Source_File_Index>
257

> <chembl_id>
CHEMBL2385715

> <chembl_pref_name>
None

> <i_lp_mmshare_version>
53161

> <r_lp_tautomer_probability>
1

> <s_lp_Force_Field>
OPLS_2005

> <r_lp_Energy>
22.996993

> <b_lp_Chiralities_Consistent>
1

> <s_lp_Variant>
CHEMBL1966_lig210-1

> <s_i_glide_gridfile>
glide-grid_1d3g

> <i_i_glide_lignum>
255

> <i_i_glide_rotatable_bonds>
6

> <r_i_docking_score>
-9.51973974777942

> <r_i_glide_ligand_efficiency>
-0.396655822824143

> <r_i_glide_ligand_efficiency_sa>
-1.14415337884404

> <r_i_glide_ligand_efficiency_ln>
-2.27851055403626

> <r_i_glide_gscore>
-9.51973974777942

> <r_i_glide_lipo>
-5.54009942302183

> <r_i_glide_hbond>
-0.136704601134499

> <r_i_glide_metal>
0

> <r_i_glide_rewards>
-1.74663297951207

> <r_i_glide_evdw>
-35.1871185302734

> <r_i_glide_ecoul>
-6.57308626174927

> <r_i_glide_erotb>
0.64901612166504

> <r_i_glide_esite>
0

> <r_i_glide_emodel>
-62.1988711703629

> <r_i_glide_energy>
-41.7602047920227

> <r_i_glide_einternal>
4.59409093856812

> <i_i_glide_confnum>
15

> <i_i_glide_posenum>
24

> <r_i_glide_eff_state_penalty>
0

> <s_user_duplicate_titles>
CHEMBL1966_lig210

> <i_f3d_flags>
0

> <s_m_subgroup_title>
dock_pv

> <s_m_subgroupid>
dock_pv

> <b_m_subgroup_collapsed>
1

$$$$
CHEMBL1966_lig501
                    3D
 Schrodinger Suite 2021-1.
 40 43  0  0  1  0            999 V2000
   46.6608   38.2872   -1.0426 C   0  0  0  0  0  0
   47.5522   39.2765   -1.7587 C   0  0  0  0  0  0
   47.3988   39.4970   -3.1292 C   0  0  0  0  0  0
   48.1571   40.4499   -3.8261 C   0  0  0  0  0  0
   47.8981   40.6939   -5.2856 C   0  0  0  0  0  0
   48.8093   40.8111   -6.0971 O   0  0  0  0  0  0
   46.5797   40.8107   -5.6144 O   0  0  0  0  0  0
   49.0876   41.1942   -3.0718 C   0  0  0  0  0  0
   49.8729   42.2451   -3.4697 N   0  0  0  0  0  0
   50.3789   42.7347   -2.3662 C   0  0  0  0  0  0
   50.0571   41.9854   -1.2594 N   0  0  0  0  0  0
   49.2227   40.9739   -1.6757 C   0  0  0  0  0  0
   48.4598   40.0109   -0.9971 C   0  0  0  0  0  0
   51.2669   43.9243   -2.3210 C   0  0  0  0  0  0
   52.2602   44.0100   -3.2991 C   0  0  0  0  0  0
   53.2149   45.0217   -3.2337 C   0  0  0  0  0  0
   53.2041   45.9522   -2.1931 C   0  0  0  0  0  0
   52.1912   45.8770   -1.2274 C   0  0  0  0  0  0
   51.2230   44.8702   -1.2915 C   0  0  0  0  0  0
   54.2801   46.9752   -2.1323 C   0  0  0  0  0  0
   55.0083   47.2093   -0.9574 C   0  0  0  0  0  0
   56.0782   48.1074   -0.9692 C   0  0  0  0  0  0
   56.3768   48.7785   -2.1532 C   0  0  0  0  0  0
   55.6806   48.5870   -3.2995 N   0  0  0  0  0  0
   54.6566   47.6968   -3.2747 C   0  0  0  0  0  0
   47.2551   37.4849   -0.6051 H   0  0  0  0  0  0
   46.1538   38.8100   -0.2299 H   0  0  0  0  0  0
   45.9029   37.8536   -1.6958 H   0  0  0  0  0  0
   46.6562   38.9116   -3.6511 H   0  0  0  0  0  0
   46.0234   40.8715   -4.8343 H   0  0  0  0  0  0
   50.3678   42.2111   -0.3273 H   0  0  0  0  0  0
   48.5347   39.8707    0.0716 H   0  0  0  0  0  0
   52.3217   43.2768   -4.0920 H   0  0  0  0  0  0
   53.9917   45.0738   -3.9788 H   0  0  0  0  0  0
   52.1596   46.5910   -0.4173 H   0  0  0  0  0  0
   50.4626   44.8123   -0.5265 H   0  0  0  0  0  0
   54.7754   46.6688   -0.0510 H   0  0  0  0  0  0
   56.6806   48.2709   -0.0916 H   0  0  0  0  0  0
   57.1964   49.4814   -2.1993 H   0  0  0  0  0  0
   54.1336   47.5615   -4.2108 H   0  0  0  0  0  0
  1  2  1  0  0  0
  1 26  1  0  0  0
  1 27  1  0  0  0
  1 28  1  0  0  0
  2  3  2  0  0  0
  2 13  1  0  0  0
  3  4  1  0  0  0
  3 29  1  0  0  0
  4  5  1  0  0  0
  4  8  2  0  0  0
  5  6  2  0  0  0
  5  7  1  0  0  0
  7 30  1  0  0  0
  8  9  1  0  0  0
  8 12  1  0  0  0
  9 10  2  0  0  0
 10 11  1  0  0  0
 10 14  1  0  0  0
 11 12  1  0  0  0
 11 31  1  0  0  0
 12 13  2  0  0  0
 13 32  1  0  0  0
 14 15  2  0  0  0
 14 19  1  0  0  0
 15 16  1  0  0  0
 15 33  1  0  0  0
 16 17  2  0  0  0
 16 34  1  0  0  0
 17 18  1  0  0  0
 17 20  1  0  0  0
 18 19  2  0  0  0
 18 35  1  0  0  0
 19 36  1  0  0  0
 20 21  2  0  0  0
 20 25  1  0  0  0
 21 22  1  0  0  0
 21 37  1  0  0  0
 22 23  2  0  0  0
 22 38  1  0  0  0
 23 24  1  0  0  0
 23 39  1  0  0  0
 24 25  2  0  0  0
 25 40  1  0  0  0
M  END
> <s_m_entry_id>
25606

> <s_m_entry_name>
dock_pv.258

> <s_m_Source_Path>
/home/csk/Desktop/cluster/DUD-E-result/pyrd

> <s_m_Source_File>
dock_pv.maegz

> <i_m_Source_File_Index>
258

> <chembl_id>
CHEMBL3677759

> <chembl_pref_name>
None

> <i_lp_mmshare_version>
53161

> <r_lp_tautomer_probability>
1

> <s_lp_Force_Field>
OPLS_2005

> <r_lp_Energy>
23.919391

> <b_lp_Chiralities_Consistent>
1

> <s_lp_Variant>
CHEMBL1966_lig501-1

> <s_i_glide_gridfile>
glide-grid_1d3g

> <i_i_glide_lignum>
551

> <i_i_glide_rotatable_bonds>
4

> <r_i_docking_score>
-9.51759162797216

> <r_i_glide_ligand_efficiency>
-0.380703665118886

> <r_i_glide_ligand_efficiency_sa>
-1.11318426861587

> <r_i_glide_ligand_efficiency_ln>
-2.25595443503471

> <r_i_glide_gscore>
-9.51759162797216

> <r_i_glide_lipo>
-5.16134743989193

> <r_i_glide_hbond>
-0.16

> <r_i_glide_metal>
0

> <r_i_glide_rewards>
-2.04999301230488

> <r_i_glide_evdw>
-41.3613548278809

> <r_i_glide_ecoul>
-3.9863748550415

> <r_i_glide_erotb>
0.519772793874928

> <r_i_glide_esite>
0

> <r_i_glide_emodel>
-64.5830942959317

> <r_i_glide_energy>
-45.3477296829224

> <r_i_glide_einternal>
5.30674457550049

> <i_i_glide_confnum>
10

> <i_i_glide_posenum>
22

> <r_i_glide_eff_state_penalty>
0

> <s_user_duplicate_titles>
CHEMBL1966_lig501

> <i_f3d_flags>
0

> <s_m_subgroup_title>
dock_pv

> <s_m_subgroupid>
dock_pv

> <b_m_subgroup_collapsed>
1

$$$$
CHEMBL1966_lig706
                    3D
 Schrodinger Suite 2021-1.
 45 49  0  0  1  0            999 V2000
   54.0495   45.7972   -2.6111 C   0  0  0  0  0  0
   54.4080   46.5819   -1.5170 C   0  0  0  0  0  0
   54.8527   45.6925   -3.6990 N   0  0  0  0  0  0
   55.5854   47.3583   -1.6617 C   0  0  0  0  0  0
   52.8230   44.9285   -2.6097 C   0  0  0  0  0  0
   56.3433   47.3839   -2.8789 C   0  0  0  0  0  0
   51.7781   45.0080   -1.6689 C   0  0  0  0  0  0
   55.9483   46.4605   -3.8709 C   0  0  0  0  0  0
   51.7824   46.2960   -0.4663 S   0  0  0  0  0  0
   56.1676   48.0563   -0.4989 C   0  0  0  0  0  0
   53.5828   46.4670   -0.2223 C   0  0  0  0  0  0
   50.6421   43.0943   -2.7168 C   0  0  0  0  0  0
   52.7165   43.9414   -3.5750 C   0  0  0  0  0  0
   50.7197   44.0682   -1.6990 C   0  0  0  0  0  0
   49.6538   41.9712   -2.7905 C   0  0  0  0  0  0
   57.4784   48.2142   -3.1589 C   0  0  0  0  0  0
   56.4230   47.2100    0.5422 O   0  0  0  0  0  0
   51.6230   43.1232   -3.6940 C   0  0  0  0  0  0
   56.4230   49.2578   -0.4993 O   0  0  0  0  0  0
   49.3159   41.2100   -1.6630 C   0  0  0  0  0  0
   56.7096   46.3243   -5.0598 C   0  0  0  0  0  0
   58.1704   48.1040   -4.3598 C   0  0  0  0  0  0
   57.8001   47.1523   -5.2981 C   0  0  0  0  0  0
   48.4230   40.1318   -1.7510 C   0  0  0  0  0  0
   59.2230   48.9152   -4.6046 F   0  0  0  0  0  0
   49.1283   41.5687   -4.0304 C   0  0  0  0  0  0
   48.2739   40.4701   -4.1341 C   0  0  0  0  0  0
   47.9093   39.7624   -2.9927 C   0  0  0  0  0  0
   48.0230   39.3598   -0.5056 C   0  0  0  0  0  0
   53.7073   47.3372    0.4174 H   0  0  0  0  0  0
   53.9236   45.6100    0.3575 H   0  0  0  0  0  0
   53.5995   43.6687   -4.0990 H   0  0  0  0  0  0
   49.9539   44.1064   -0.9378 H   0  0  0  0  0  0
   57.8250   48.9452   -2.4454 H   0  0  0  0  0  0
   51.6328   42.4100   -4.4878 H   0  0  0  0  0  0
   49.7331   41.4752   -0.7022 H   0  0  0  0  0  0
   56.4230   45.5876   -5.7960 H   0  0  0  0  0  0
   58.3606   47.0606   -6.2169 H   0  0  0  0  0  0
   49.3762   42.1161   -4.9283 H   0  0  0  0  0  0
   47.8780   40.1793   -5.0949 H   0  0  0  0  0  0
   47.2368   38.9211   -3.0757 H   0  0  0  0  0  0
   47.0186   39.6355   -0.1837 H   0  0  0  0  0  0
   48.7201   39.5358    0.3136 H   0  0  0  0  0  0
   48.0230   38.2869   -0.7018 H   0  0  0  0  0  0
   56.8648   47.6854    1.2497 H   0  0  0  0  0  0
  1  2  1  0  0  0
  1  3  2  0  0  0
  1  5  1  0  0  0
  2  4  2  0  0  0
  2 11  1  0  0  0
  3  8  1  0  0  0
  4 10  1  0  0  0
  4  6  1  0  0  0
  5  7  2  0  0  0
  5 13  1  0  0  0
  6  8  1  0  0  0
  6 16  2  0  0  0
  7  9  1  0  0  0
  7 14  1  0  0  0
  8 21  2  0  0  0
  9 11  1  0  0  0
 10 17  1  0  0  0
 10 19  2  0  0  0
 11 30  1  0  0  0
 11 31  1  0  0  0
 12 18  1  0  0  0
 12 15  1  0  0  0
 12 14  2  0  0  0
 13 18  2  0  0  0
 13 32  1  0  0  0
 14 33  1  0  0  0
 15 20  1  0  0  0
 15 26  2  0  0  0
 16 22  1  0  0  0
 16 34  1  0  0  0
 17 45  1  0  0  0
 18 35  1  0  0  0
 20 24  2  0  0  0
 20 36  1  0  0  0
 21 23  1  0  0  0
 21 37  1  0  0  0
 22 23  2  0  0  0
 22 25  1  0  0  0
 23 38  1  0  0  0
 24 29  1  0  0  0
 24 28  1  0  0  0
 26 27  1  0  0  0
 26 39  1  0  0  0
 27 28  2  0  0  0
 27 40  1  0  0  0
 28 41  1  0  0  0
 29 42  1  0  0  0
 29 43  1  0  0  0
 29 44  1  0  0  0
M  END
> <s_m_entry_id>
25607

> <s_m_entry_name>
dock_pv.259

> <s_m_Source_Path>
/home/csk/Desktop/cluster/DUD-E-result/pyrd

> <s_m_Source_File>
dock_pv.maegz

> <i_m_Source_File_Index>
259

> <chembl_id>
CHEMBL104136

> <chembl_pref_name>
None

> <i_lp_mmshare_version>
53161

> <r_lp_tautomer_probability>
1

> <s_lp_Force_Field>
OPLS_2005

> <r_lp_Energy>
31.258587

> <b_lp_Chiralities_Consistent>
1

> <s_lp_Variant>
CHEMBL1966_lig706-1

> <s_i_glide_gridfile>
glide-grid_1d3g

> <i_i_glide_lignum>
775

> <i_i_glide_rotatable_bonds>
3

> <r_i_docking_score>
-9.50928634883212

> <r_i_glide_ligand_efficiency>
-0.327906425821797

> <r_i_glide_ligand_efficiency_sa>
-1.00743242817204

> <r_i_glide_ligand_efficiency_ln>
-2.17738543918642

> <r_i_glide_gscore>
-9.50928634883212

> <r_i_glide_lipo>
-6.16305030369801

> <r_i_glide_hbond>
0

> <r_i_glide_metal>
0

> <r_i_glide_rewards>
-1.85168531653287

> <r_i_glide_evdw>
-31.4577484130859

> <r_i_glide_ecoul>
-1.10045611858368

> <r_i_glide_erotb>
0.243405109840607

> <r_i_glide_esite>
0

> <r_i_glide_emodel>
-48.6062410492244

> <r_i_glide_energy>
-32.5582045316696

> <r_i_glide_einternal>
5.12619256973267

> <i_i_glide_confnum>
8

> <i_i_glide_posenum>
113

> <r_i_glide_eff_state_penalty>
0

> <s_user_duplicate_titles>
CHEMBL1966_lig706,174314

> <i_f3d_flags>
0

> <s_m_subgroup_title>
dock_pv

> <s_m_subgroupid>
dock_pv

> <b_m_subgroup_collapsed>
1

$$$$
CHEMBL1966_lig506
                    3D
 Schrodinger Suite 2021-1.
 41 44  0  0  1  0            999 V2000
   47.6228   38.8708   -1.3366 C   0  0  0  0  0  0
   48.4230   40.0118   -1.9415 C   0  0  0  0  0  0
   48.3578   40.2424   -3.3168 C   0  0  0  0  0  0
   49.0484   41.2907   -3.9497 C   0  0  0  0  0  0
   48.8518   41.4898   -5.4305 C   0  0  0  0  0  0
   48.0738   40.8102   -6.0990 O   0  0  0  0  0  0
   49.6230   42.4673   -5.9797 O   0  0  0  0  0  0
   49.8350   42.1227   -3.1156 C   0  0  0  0  0  0
   50.6151   43.2173   -3.4232 N   0  0  0  0  0  0
   51.0599   43.6749   -2.2783 C   0  0  0  0  0  0
   50.6328   42.9101   -1.2214 N   0  0  0  0  0  0
   49.8801   41.8794   -1.7200 C   0  0  0  0  0  0
   49.2230   40.8100   -1.1140 C   0  0  0  0  0  0
   52.0230   44.8100   -2.0989 C   0  0  0  0  0  0
   51.9571   45.6100   -0.9560 C   0  0  0  0  0  0
   52.9622   46.5337   -0.7021 C   0  0  0  0  0  0
   54.0098   46.7257   -1.6027 C   0  0  0  0  0  0
   54.9437   47.6713   -1.2161 O   0  0  0  0  0  0
   55.8807   48.3152   -2.0057 C   0  0  0  0  0  0
   56.8231   49.1080   -1.3516 C   0  0  0  0  0  0
   57.7938   49.7751   -2.0991 C   0  0  0  0  0  0
   57.8070   49.6288   -3.4855 C   0  0  0  0  0  0
   56.8309   48.8264   -4.0756 C   0  0  0  0  0  0
   55.8664   48.1892   -3.3622 N   0  0  0  0  0  0
   54.0669   45.9285   -2.7553 C   0  0  0  0  0  0
   53.0740   44.9847   -3.0029 C   0  0  0  0  0  0
   48.0230   38.5635   -0.3691 H   0  0  0  0  0  0
   46.5787   39.1590   -1.2132 H   0  0  0  0  0  0
   47.6594   37.9950   -1.9857 H   0  0  0  0  0  0
   47.7319   39.5841   -3.9042 H   0  0  0  0  0  0
   49.4198   42.6078   -6.9040 H   0  0  0  0  0  0
   50.8916   43.0992   -0.2662 H   0  0  0  0  0  0
   49.2719   40.6393   -0.0485 H   0  0  0  0  0  0
   51.1581   45.4852   -0.2395 H   0  0  0  0  0  0
   52.9219   47.1256    0.2008 H   0  0  0  0  0  0
   56.8122   49.1901   -0.2783 H   0  0  0  0  0  0
   58.5356   50.3846   -1.6037 H   0  0  0  0  0  0
   58.5567   50.1226   -4.0857 H   0  0  0  0  0  0
   56.8230   48.6762   -5.1440 H   0  0  0  0  0  0
   54.8852   45.9862   -3.4534 H   0  0  0  0  0  0
   53.1484   44.3455   -3.8698 H   0  0  0  0  0  0
  1  2  1  0  0  0
  1 27  1  0  0  0
  1 28  1  0  0  0
  1 29  1  0  0  0
  2  3  2  0  0  0
  2 13  1  0  0  0
  3  4  1  0  0  0
  3 30  1  0  0  0
  4  5  1  0  0  0
  4  8  2  0  0  0
  5  6  2  0  0  0
  5  7  1  0  0  0
  7 31  1  0  0  0
  8  9  1  0  0  0
  8 12  1  0  0  0
  9 10  2  0  0  0
 10 11  1  0  0  0
 10 14  1  0  0  0
 11 12  1  0  0  0
 11 32  1  0  0  0
 12 13  2  0  0  0
 13 33  1  0  0  0
 14 15  2  0  0  0
 14 26  1  0  0  0
 15 16  1  0  0  0
 15 34  1  0  0  0
 16 17  2  0  0  0
 16 35  1  0  0  0
 17 18  1  0  0  0
 17 25  1  0  0  0
 18 19  1  0  0  0
 19 20  2  0  0  0
 19 24  1  0  0  0
 20 21  1  0  0  0
 20 36  1  0  0  0
 21 22  2  0  0  0
 21 37  1  0  0  0
 22 23  1  0  0  0
 22 38  1  0  0  0
 23 24  2  0  0  0
 23 39  1  0  0  0
 25 26  2  0  0  0
 25 40  1  0  0  0
 26 41  1  0  0  0
M  END
> <s_m_entry_id>
25608

> <s_m_entry_name>
dock_pv.260

> <s_m_Source_Path>
/home/csk/Desktop/cluster/DUD-E-result/pyrd

> <s_m_Source_File>
dock_pv.maegz

> <i_m_Source_File_Index>
260

> <chembl_id>
CHEMBL3677764

> <chembl_pref_name>
None

> <i_lp_mmshare_version>
53161

> <r_lp_tautomer_probability>
1

> <s_lp_Force_Field>
OPLS_2005

> <r_lp_Energy>
21.386872

> <b_lp_Chiralities_Consistent>
1

> <s_lp_Variant>
CHEMBL1966_lig506-1

> <s_i_glide_gridfile>
glide-grid_1d3g

> <i_i_glide_lignum>
556

> <i_i_glide_rotatable_bonds>
5

> <r_i_docking_score>
-9.49926440751774

> <r_i_glide_ligand_efficiency>
-0.365356323366067

> <r_i_glide_ligand_efficiency_sa>
-1.08236667036426

> <r_i_glide_ligand_efficiency_ln>
-2.23087107647671

> <r_i_glide_gscore>
-9.49926440751774

> <r_i_glide_lipo>
-5.11575373594376

> <r_i_glide_hbond>
-0.218253513629031

> <r_i_glide_metal>
0

> <r_i_glide_rewards>
-2.51364257917875

> <r_i_glide_evdw>
-41.7883682250977

> <r_i_glide_ecoul>
-1.3291734457016

> <r_i_glide_erotb>
0.637179849343926

> <r_i_glide_esite>
0

> <r_i_glide_emodel>
-52.6959959537388

> <r_i_glide_energy>
-43.1175416707993

> <r_i_glide_einternal>
13.6950340270996

> <i_i_glide_confnum>
7

> <i_i_glide_posenum>
11

> <r_i_glide_eff_state_penalty>
0

> <s_user_duplicate_titles>
CHEMBL1966_lig506

> <i_f3d_flags>
0

> <s_m_subgroup_title>
dock_pv

> <s_m_subgroupid>
dock_pv

> <b_m_subgroup_collapsed>
1

$$$$
CHEMBL1966_lig193
                    3D
 Schrodinger Suite 2021-1.
 40 42  0  0  1  0            999 V2000
   47.0033   40.8102   -5.4684 O   0  0  0  0  0  0
   48.3028   40.9358   -5.0678 C   0  0  0  0  0  0
   49.2118   41.2102   -5.8493 O   0  0  0  0  0  0
   48.5242   40.7419   -3.5814 C   0  0  0  0  0  0
   47.7742   39.7658   -2.9001 C   0  0  0  0  0  0
   47.9431   39.6101   -1.5244 C   0  0  0  0  0  0
   48.8231   40.3488   -0.8059 N   0  0  0  0  0  0
   49.6186   41.2156   -1.4797 C   0  0  0  0  0  0
   49.4635   41.5058   -2.8424 C   0  0  0  0  0  0
   50.1909   42.5518   -3.4379 N   0  0  0  0  0  0
   51.0513   43.5294   -2.9104 C   0  0  0  0  0  0
   52.1562   43.8634   -3.6954 C   0  0  0  0  0  0
   53.0778   44.8100   -3.2440 C   0  0  0  0  0  0
   52.9067   45.4774   -2.0218 C   0  0  0  0  0  0
   51.7308   45.2126   -1.2989 C   0  0  0  0  0  0
   50.8227   44.2402   -1.7125 C   0  0  0  0  0  0
   49.7470   44.0103   -0.9194 F   0  0  0  0  0  0
   54.0120   46.3079   -1.4412 C   0  0  0  0  0  0
   54.1239   46.4650   -0.0514 C   0  0  0  0  0  0
   55.2158   47.1121    0.5132 C   0  0  0  0  0  0
   56.2287   47.6046   -0.2986 C   0  0  0  0  0  0
   56.1499   47.4918   -1.6801 C   0  0  0  0  0  0
   57.2150   48.0171   -2.3840 O   0  0  0  0  0  0
   57.4082   47.6698   -3.7491 C   0  0  0  0  0  0
   56.4230   48.1473   -4.4990 F   0  0  0  0  0  0
   58.5355   48.2457   -4.1600 F   0  0  0  0  0  0
   57.5311   46.3514   -3.9137 F   0  0  0  0  0  0
   55.0276   46.8594   -2.2433 C   0  0  0  0  0  0
   47.0639   39.1342   -3.4139 H   0  0  0  0  0  0
   47.3649   38.8839   -0.9713 H   0  0  0  0  0  0
   50.3466   41.7271   -0.8715 H   0  0  0  0  0  0
   50.1164   42.5606   -4.4474 H   0  0  0  0  0  0
   52.3417   43.3401   -4.6220 H   0  0  0  0  0  0
   53.9714   44.9641   -3.8230 H   0  0  0  0  0  0
   51.5259   45.7192   -0.3682 H   0  0  0  0  0  0
   53.3919   46.0488    0.6233 H   0  0  0  0  0  0
   55.2867   47.2097    1.5840 H   0  0  0  0  0  0
   57.1022   48.0589    0.1446 H   0  0  0  0  0  0
   54.9536   46.7669   -3.3134 H   0  0  0  0  0  0
   46.4002   40.7608   -4.7233 H   0  0  0  0  0  0
  1  2  1  0  0  0
  1 40  1  0  0  0
  2  3  2  0  0  0
  2  4  1  0  0  0
  4  5  2  0  0  0
  4  9  1  0  0  0
  5  6  1  0  0  0
  5 29  1  0  0  0
  6  7  2  0  0  0
  6 30  1  0  0  0
  7  8  1  0  0  0
  8  9  2  0  0  0
  8 31  1  0  0  0
  9 10  1  0  0  0
 10 11  1  0  0  0
 10 32  1  0  0  0
 11 12  2  0  0  0
 11 16  1  0  0  0
 12 13  1  0  0  0
 12 33  1  0  0  0
 13 14  2  0  0  0
 13 34  1  0  0  0
 14 15  1  0  0  0
 14 18  1  0  0  0
 15 16  2  0  0  0
 15 35  1  0  0  0
 16 17  1  0  0  0
 18 19  2  0  0  0
 18 28  1  0  0  0
 19 20  1  0  0  0
 19 36  1  0  0  0
 20 21  2  0  0  0
 20 37  1  0  0  0
 21 22  1  0  0  0
 21 38  1  0  0  0
 22 23  1  0  0  0
 22 28  2  0  0  0
 23 24  1  0  0  0
 24 25  1  0  0  0
 24 26  1  0  0  0
 24 27  1  0  0  0
 28 39  1  0  0  0
M  END
> <s_m_entry_id>
25609

> <s_m_entry_name>
dock_pv.261

> <s_m_Source_Path>
/home/csk/Desktop/cluster/DUD-E-result/pyrd

> <s_m_Source_File>
dock_pv.maegz

> <i_m_Source_File_Index>
261

> <chembl_id>
CHEMBL2263635

> <chembl_pref_name>
None

> <i_lp_mmshare_version>
53161

> <r_lp_tautomer_probability>
1

> <s_lp_Force_Field>
OPLS_2005

> <r_lp_Energy>
26.787592

> <b_lp_Chiralities_Consistent>
1

> <s_lp_Variant>
CHEMBL1966_lig193-1

> <s_i_glide_gridfile>
glide-grid_1d3g

> <i_i_glide_lignum>
238

> <i_i_glide_rotatable_bonds>
7

> <r_i_docking_score>
-9.49384268035594

> <r_i_glide_ligand_efficiency>
-0.339065810012712

> <r_i_glide_ligand_efficiency_sa>
-1.02960349828107

> <r_i_glide_ligand_efficiency_ln>
-2.19145764195975

> <r_i_glide_gscore>
-9.49384268035594

> <r_i_glide_lipo>
-5.04562637623463

> <r_i_glide_hbond>
-0.0414232154032705

> <r_i_glide_metal>
0

> <r_i_glide_rewards>
-2.4644022579183

> <r_i_glide_evdw>
-41.3631744384766

> <r_i_glide_ecoul>
-3.39007472991943

> <r_i_glide_erotb>
0.634279100612003

> <r_i_glide_esite>
0

> <r_i_glide_emodel>
-63.130232882734

> <r_i_glide_energy>
-44.753249168396

> <r_i_glide_einternal>
8.58646869659424

> <i_i_glide_confnum>
31

> <i_i_glide_posenum>
137

> <r_i_glide_eff_state_penalty>
0

> <s_user_duplicate_titles>
CHEMBL1966_lig193

> <i_f3d_flags>
0

> <s_m_subgroup_title>
dock_pv

> <s_m_subgroupid>
dock_pv

> <b_m_subgroup_collapsed>
1

$$$$
CHEMBL1966_lig538
                    3D
 Schrodinger Suite 2021-1.
 44 47  0  0  1  0            999 V2000
   56.6172   48.7480   -0.8981 C   0  0  0  0  0  0
   55.7971   47.6430   -1.5371 C   0  0  0  0  0  0
   56.4353   46.8340   -2.4714 C   0  0  0  0  0  0
   55.7818   45.7816   -3.1173 C   0  0  0  0  0  0
   56.5668   44.8694   -4.0122 C   0  0  0  0  0  0
   56.2856   43.6807   -4.0990 O   0  0  0  0  0  0
   57.5722   45.4631   -4.7175 O   0  0  0  0  0  0
   54.4208   45.5884   -2.7976 C   0  0  0  0  0  0
   53.5485   44.6671   -3.2990 N   0  0  0  0  0  0
   52.4332   44.8100   -2.6365 C   0  0  0  0  0  0
   51.3351   43.7839   -2.8363 C   0  0  0  0  0  0
   50.8171   43.0903   -1.7447 C   0  0  0  0  0  0
   51.2230   43.3955   -0.4990 F   0  0  0  0  0  0
   49.8945   42.0600   -1.9046 C   0  0  0  0  0  0
   49.4192   41.4962   -0.7699 F   0  0  0  0  0  0
   49.4570   41.6569   -3.1857 C   0  0  0  0  0  0
   50.0230   42.3264   -4.2821 C   0  0  0  0  0  0
   49.7516   41.9628   -5.5592 F   0  0  0  0  0  0
   50.9061   43.3807   -4.1072 C   0  0  0  0  0  0
   51.3133   44.0100   -5.2197 F   0  0  0  0  0  0
   48.3528   40.6540   -3.3885 C   0  0  0  0  0  0
   47.5013   40.7491   -4.5068 C   0  0  0  0  0  0
   46.3328   40.0100   -4.5905 C   0  0  0  0  0  0
   46.0230   39.1154   -3.5825 C   0  0  0  0  0  0
   46.8708   38.9342   -2.4990 C   0  0  0  0  0  0
   48.0230   39.7055   -2.4080 C   0  0  0  0  0  0
   52.4949   45.8550   -1.7213 N   0  0  0  0  0  0
   51.4066   46.3695   -0.8990 C   0  0  0  0  0  0
   53.7777   46.3889   -1.8241 C   0  0  0  0  0  0
   54.4599   47.4280   -1.1781 C   0  0  0  0  0  0
   56.0230   49.5639   -0.4990 H   0  0  0  0  0  0
   57.2230   48.3290   -0.0990 H   0  0  0  0  0  0
   57.2927   49.1985   -1.6266 H   0  0  0  0  0  0
   57.4864   47.0129   -2.6550 H   0  0  0  0  0  0
   57.5960   46.4103   -4.5805 H   0  0  0  0  0  0
   47.6302   41.4940   -5.2741 H   0  0  0  0  0  0
   45.6638   40.1347   -5.4291 H   0  0  0  0  0  0
   45.1470   38.5038   -3.6990 H   0  0  0  0  0  0
   46.6317   38.2159   -1.7284 H   0  0  0  0  0  0
   48.6248   39.5926   -1.5259 H   0  0  0  0  0  0
   50.6244   45.6293   -0.7556 H   0  0  0  0  0  0
   51.7863   46.6795    0.0751 H   0  0  0  0  0  0
   50.9516   47.2100   -1.4100 H   0  0  0  0  0  0
   53.9883   48.0100   -0.4097 H   0  0  0  0  0  0
  1  2  1  0  0  0
  1 31  1  0  0  0
  1 32  1  0  0  0
  1 33  1  0  0  0
  2  3  2  0  0  0
  2 30  1  0  0  0
  3  4  1  0  0  0
  3 34  1  0  0  0
  4  5  1  0  0  0
  4  8  2  0  0  0
  5  6  2  0  0  0
  5  7  1  0  0  0
  7 35  1  0  0  0
  8  9  1  0  0  0
  8 29  1  0  0  0
  9 10  2  0  0  0
 10 11  1  0  0  0
 10 27  1  0  0  0
 11 12  2  0  0  0
 11 19  1  0  0  0
 12 13  1  0  0  0
 12 14  1  0  0  0
 14 15  1  0  0  0
 14 16  2  0  0  0
 16 17  1  0  0  0
 16 21  1  0  0  0
 17 18  1  0  0  0
 17 19  2  0  0  0
 19 20  1  0  0  0
 21 22  2  0  0  0
 21 26  1  0  0  0
 22 23  1  0  0  0
 22 36  1  0  0  0
 23 24  2  0  0  0
 23 37  1  0  0  0
 24 25  1  0  0  0
 24 38  1  0  0  0
 25 26  2  0  0  0
 25 39  1  0  0  0
 26 40  1  0  0  0
 27 28  1  0  0  0
 27 29  1  0  0  0
 28 41  1  0  0  0
 28 42  1  0  0  0
 28 43  1  0  0  0
 29 30  2  0  0  0
 30 44  1  0  0  0
M  END
> <s_m_entry_id>
25610

> <s_m_entry_name>
dock_pv.262

> <s_m_Source_Path>
/home/csk/Desktop/cluster/DUD-E-result/pyrd

> <s_m_Source_File>
dock_pv.maegz

> <i_m_Source_File_Index>
262

> <chembl_id>
CHEMBL3677798

> <chembl_pref_name>
None

> <i_lp_mmshare_version>
53161

> <r_lp_tautomer_probability>
1

> <s_lp_Force_Field>
OPLS_2005

> <r_lp_Energy>
27.300595

> <b_lp_Chiralities_Consistent>
1

> <s_lp_Variant>
CHEMBL1966_lig538-1

> <s_i_glide_gridfile>
glide-grid_1d3g

> <i_i_glide_lignum>
592

> <i_i_glide_rotatable_bonds>
4

> <r_i_docking_score>
-9.49349289477283

> <r_i_glide_ligand_efficiency>
-0.316449763159094

> <r_i_glide_ligand_efficiency_sa>
-0.983282989474558

> <r_i_glide_ligand_efficiency_ln>
-2.15702502558236

> <r_i_glide_gscore>
-9.49349289477283

> <r_i_glide_lipo>
-5.58419171543346

> <r_i_glide_hbond>
0

> <r_i_glide_metal>
0

> <r_i_glide_rewards>
-2.60416707130472

> <r_i_glide_evdw>
-31.6989097595215

> <r_i_glide_ecoul>
-0.433731257915497

> <r_i_glide_erotb>
0.344871068628757

> <r_i_glide_esite>
0

> <r_i_glide_emodel>
-38.8236008962478

> <r_i_glide_energy>
-32.132641017437

> <r_i_glide_einternal>
5.2846360206604

> <i_i_glide_confnum>
3

> <i_i_glide_posenum>
96

> <r_i_glide_eff_state_penalty>
0

> <s_user_duplicate_titles>
CHEMBL1966_lig538

> <i_f3d_flags>
0

> <s_m_subgroup_title>
dock_pv

> <s_m_subgroupid>
dock_pv

> <b_m_subgroup_collapsed>
1

$$$$
CHEMBL1966_lig86
                    3D
 Schrodinger Suite 2021-1.
 40 42  0  0  1  0            999 V2000
   53.5324   44.6581   -3.2874 C   0  0  0  0  0  0
   52.5840   43.7097   -3.6984 C   0  0  0  0  0  0
   51.3747   43.6101   -3.0044 C   0  0  0  0  0  0
   51.1214   44.4757   -1.9215 C   0  0  0  0  0  0
   52.0227   45.5008   -1.6173 C   0  0  0  0  0  0
   53.2380   45.6102   -2.3041 C   0  0  0  0  0  0
   54.2557   46.6520   -1.9849 C   0  0  0  0  0  0
   54.7025   47.5122   -2.9967 C   0  0  0  0  0  0
   55.7399   48.4144   -2.7645 C   0  0  0  0  0  0
   56.3561   48.4602   -1.5166 C   0  0  0  0  0  0
   55.9150   47.6198   -0.4993 C   0  0  0  0  0  0
   54.8466   46.7429   -0.7149 C   0  0  0  0  0  0
   50.4458   42.6320   -3.3952 N   0  0  0  0  0  0
   49.9423   41.7090   -2.5509 C   0  0  0  0  0  0
   48.8291   40.9009   -3.0582 C   0  0  0  0  0  0
   50.3555   41.6294   -1.4005 O   0  0  0  0  0  0
   47.9850   40.0098   -2.3184 C   0  0  0  0  0  0
   46.6286   39.4935   -3.2990 S   0  0  0  0  0  0
   47.2202   40.3361   -4.6723 C   0  0  0  0  0  0
   48.4242   40.9555   -4.4175 C   0  0  0  0  0  0
   48.0061   39.6098   -0.9069 C   0  0  0  0  0  0
   47.0137   38.7640   -0.5135 O   0  0  0  0  0  0
   48.8230   40.0108   -0.0990 O   0  0  0  0  0  0
   52.8888   42.8101   -4.6625 F   0  0  0  0  0  0
   49.9633   44.4070   -1.2247 F   0  0  0  0  0  0
   54.4225   45.9175    0.2946 O   0  0  0  0  0  0
   53.8914   46.5841    1.4294 C   0  0  0  0  0  0
   54.8151   44.5723   -3.6990 F   0  0  0  0  0  0
   51.6866   46.4081   -0.6711 F   0  0  0  0  0  0
   54.2560   47.4658   -3.9805 H   0  0  0  0  0  0
   56.0798   49.0619   -3.5596 H   0  0  0  0  0  0
   57.1802   49.1368   -1.3391 H   0  0  0  0  0  0
   56.4125   47.6246    0.4580 H   0  0  0  0  0  0
   50.1464   42.6452   -4.3576 H   0  0  0  0  0  0
   46.6615   40.3116   -5.5945 H   0  0  0  0  0  0
   48.9320   41.5219   -5.1856 H   0  0  0  0  0  0
   47.1069   38.6269    0.4379 H   0  0  0  0  0  0
   53.5440   45.8460    2.1508 H   0  0  0  0  0  0
   54.6434   47.2103    1.9010 H   0  0  0  0  0  0
   53.0387   47.2100    1.1741 H   0  0  0  0  0  0
  1  6  2  0  0  0
  1 28  1  0  0  0
  1  2  1  0  0  0
  2  3  2  0  0  0
  2 24  1  0  0  0
  3  4  1  0  0  0
  3 13  1  0  0  0
  4  5  2  0  0  0
  4 25  1  0  0  0
  5  6  1  0  0  0
  5 29  1  0  0  0
  6  7  1  0  0  0
  7  8  2  0  0  0
  7 12  1  0  0  0
  8  9  1  0  0  0
  8 30  1  0  0  0
  9 10  2  0  0  0
  9 31  1  0  0  0
 10 11  1  0  0  0
 10 32  1  0  0  0
 11 12  2  0  0  0
 11 33  1  0  0  0
 12 26  1  0  0  0
 13 14  1  0  0  0
 13 34  1  0  0  0
 14 15  1  0  0  0
 14 16  2  0  0  0
 15 17  2  0  0  0
 15 20  1  0  0  0
 17 18  1  0  0  0
 17 21  1  0  0  0
 18 19  1  0  0  0
 19 20  2  0  0  0
 19 35  1  0  0  0
 20 36  1  0  0  0
 21 22  1  0  0  0
 21 23  2  0  0  0
 22 37  1  0  0  0
 26 27  1  0  0  0
 27 38  1  0  0  0
 27 39  1  0  0  0
 27 40  1  0  0  0
M  END
> <s_m_entry_id>
25611

> <s_m_entry_name>
dock_pv.263

> <s_m_Source_Path>
/home/csk/Desktop/cluster/DUD-E-result/pyrd

> <s_m_Source_File>
dock_pv.maegz

> <i_m_Source_File_Index>
263

> <chembl_id>
CHEMBL199361

> <chembl_pref_name>
None

> <i_lp_mmshare_version>
53161

> <r_lp_tautomer_probability>
1

> <s_lp_Force_Field>
OPLS_2005

> <r_lp_Energy>
31.701764

> <b_lp_Chiralities_Consistent>
1

> <s_lp_Variant>
CHEMBL1966_lig86-1

> <s_i_glide_gridfile>
glide-grid_1d3g

> <i_i_glide_lignum>
95

> <i_i_glide_rotatable_bonds>
7

> <r_i_docking_score>
-9.47903614108928

> <r_i_glide_ligand_efficiency>
-0.326863315209975

> <r_i_glide_ligand_efficiency_sa>
-1.00422766189189

> <r_i_glide_ligand_efficiency_ln>
-2.17045890869239

> <r_i_glide_gscore>
-9.47903614108928

> <r_i_glide_lipo>
-4.64809058355823

> <r_i_glide_hbond>
0

> <r_i_glide_metal>
0

> <r_i_glide_rewards>
-2.67004199817786

> <r_i_glide_evdw>
-38.0688629150391

> <r_i_glide_ecoul>
-5.32505178451538

> <r_i_glide_erotb>
0.54819176124292

> <r_i_glide_esite>
-0.00689440716684805

> <r_i_glide_emodel>
-50.7153842681876

> <r_i_glide_energy>
-43.3939146995544

> <r_i_glide_einternal>
8.60305500030518

> <i_i_glide_confnum>
38

> <i_i_glide_posenum>
354

> <r_i_glide_eff_state_penalty>
0

> <s_user_duplicate_titles>
CHEMBL1966_lig86,334823

> <i_f3d_flags>
0

> <s_m_subgroup_title>
dock_pv

> <s_m_subgroupid>
dock_pv

> <b_m_subgroup_collapsed>
1

$$$$
CHEMBL1966_lig168
                    3D
 Schrodinger Suite 2021-1.
 33 35  0  0  1  0            999 V2000
   55.6749   47.0782   -0.9152 C   0  0  0  0  0  0
   56.1479   46.8963   -2.2096 C   0  0  0  0  0  0
   55.3526   46.2817   -3.1684 C   0  0  0  0  0  0
   54.0737   45.8358   -2.8476 C   0  0  0  0  0  0
   54.3765   46.6390   -0.5558 C   0  0  0  0  0  0
   53.5447   46.0008   -1.5313 C   0  0  0  0  0  0
   52.2489   45.5192   -1.1290 C   0  0  0  0  0  0
   51.7939   45.7992    0.1638 C   0  0  0  0  0  0
   52.6092   46.4122    1.1006 C   0  0  0  0  0  0
   53.8947   46.8098    0.7615 C   0  0  0  0  0  0
   51.5352   44.7515   -2.0708 N   0  0  0  0  0  0
   50.8237   43.7361   -1.7528 C   0  0  0  0  0  0
   50.1830   42.8445   -2.7368 C   0  0  0  0  0  0
   50.0993   43.2080   -4.0929 C   0  0  0  0  0  0
   49.4286   42.4082   -5.0154 C   0  0  0  0  0  0
   48.8564   41.2098   -4.6040 C   0  0  0  0  0  0
   48.9695   40.8037   -3.2780 C   0  0  0  0  0  0
   49.6191   41.6150   -2.3468 C   0  0  0  0  0  0
   49.6231   41.1916   -1.0415 O   0  0  0  0  0  0
   48.1811   40.4250   -5.4954 O   0  0  0  0  0  0
   56.3016   47.5553   -0.1752 H   0  0  0  0  0  0
   57.1411   47.2315   -2.4704 H   0  0  0  0  0  0
   55.7314   46.1444   -4.1704 H   0  0  0  0  0  0
   53.4790   45.3551   -3.6099 H   0  0  0  0  0  0
   50.8231   45.4564    0.4747 H   0  0  0  0  0  0
   52.2389   46.5652    2.1023 H   0  0  0  0  0  0
   54.5263   47.2761    1.5029 H   0  0  0  0  0  0
   50.6885   43.4480   -0.7136 H   0  0  0  0  0  0
   50.5372   44.1267   -4.4469 H   0  0  0  0  0  0
   49.3483   42.7252   -6.0446 H   0  0  0  0  0  0
   48.5308   39.8667   -2.9659 H   0  0  0  0  0  0
   49.1781   40.3492   -0.9332 H   0  0  0  0  0  0
   47.8006   39.6676   -5.0469 H   0  0  0  0  0  0
  1  2  2  0  0  0
  1  5  1  0  0  0
  1 21  1  0  0  0
  2  3  1  0  0  0
  2 22  1  0  0  0
  3  4  2  0  0  0
  3 23  1  0  0  0
  4  6  1  0  0  0
  4 24  1  0  0  0
  5  6  1  0  0  0
  5 10  2  0  0  0
  6  7  2  0  0  0
  7  8  1  0  0  0
  7 11  1  0  0  0
  8  9  2  0  0  0
  8 25  1  0  0  0
  9 10  1  0  0  0
  9 26  1  0  0  0
 10 27  1  0  0  0
 11 12  2  0  0  0
 12 13  1  0  0  0
 12 28  1  0  0  0
 13 14  2  0  0  0
 13 18  1  0  0  0
 14 15  1  0  0  0
 14 29  1  0  0  0
 15 16  2  0  0  0
 15 30  1  0  0  0
 16 17  1  0  0  0
 16 20  1  0  0  0
 17 18  2  0  0  0
 17 31  1  0  0  0
 18 19  1  0  0  0
 19 32  1  0  0  0
 20 33  1  0  0  0
M  END
> <s_m_entry_id>
25612

> <s_m_entry_name>
dock_pv.264

> <s_m_Source_Path>
/home/csk/Desktop/cluster/DUD-E-result/pyrd

> <s_m_Source_File>
dock_pv.maegz

> <i_m_Source_File_Index>
264

> <chembl_id>
CHEMBL2178107

> <chembl_pref_name>
None

> <i_lp_mmshare_version>
53161

> <r_lp_tautomer_probability>
1

> <s_lp_Force_Field>
OPLS_2005

> <r_lp_Energy>
24.240615

> <b_lp_Chiralities_Consistent>
1

> <s_lp_Variant>
CHEMBL1966_lig168-1

> <s_i_glide_gridfile>
glide-grid_1d3g

> <i_i_glide_lignum>
213

> <i_i_glide_rotatable_bonds>
4

> <r_i_docking_score>
-9.47889601084099

> <r_i_glide_ligand_efficiency>
-0.47394480054205

> <r_i_glide_ligand_efficiency_sa>
-1.28648411460024

> <r_i_glide_ligand_efficiency_ln>
-2.37225503659934

> <r_i_glide_gscore>
-9.47889601084099

> <r_i_glide_lipo>
-4.9388297275308

> <r_i_glide_hbond>
-0.0333755346948987

> <r_i_glide_metal>
0

> <r_i_glide_rewards>
-2.80066186667071

> <r_i_glide_evdw>
-35.395336151123

> <r_i_glide_ecoul>
-2.99027347564697

> <r_i_glide_erotb>
0.512278946958619

> <r_i_glide_esite>
0

> <r_i_glide_emodel>
-57.6084429324548

> <r_i_glide_energy>
-38.38560962677

> <r_i_glide_einternal>
0.592960357666016

> <i_i_glide_confnum>
2

> <i_i_glide_posenum>
381

> <r_i_glide_eff_state_penalty>
0

> <s_user_duplicate_titles>
CHEMBL1966_lig168

> <i_f3d_flags>
0

> <s_m_subgroup_title>
dock_pv

> <s_m_subgroupid>
dock_pv

> <b_m_subgroup_collapsed>
1

$$$$
CHEMBL1966_lig383
                    3D
 Schrodinger Suite 2021-1.
 45 47  0  0  1  0            999 V2000
   49.9415   42.1606   -3.0735 C   0  0  0  0  0  0
   50.0553   42.7413   -4.4221 C   0  0  0  0  0  0
   49.2096   42.2053   -5.3323 N   0  0  0  0  0  0
   48.3662   41.1499   -5.2068 C   0  0  0  0  0  0
   48.4230   40.5552   -3.9861 N   0  0  0  0  0  0
   49.1131   41.0718   -2.9084 C   0  0  0  0  0  0
   48.8230   40.4102   -1.6296 C   0  0  0  0  0  0
   47.9220   39.3845   -1.7127 O   0  0  0  0  0  0
   49.2622   40.7690   -0.5406 O   0  0  0  0  0  0
   47.6008   40.8100   -6.0985 O   0  0  0  0  0  0
   50.8458   43.6100   -4.7764 O   0  0  0  0  0  0
   50.8387   42.8526   -2.0277 C   0  0  0  0  0  0
   50.4230   44.2968   -1.6314 C   0  0  0  0  0  0
   51.5732   45.1636   -1.1185 C   0  0  0  0  0  0
   51.6229   45.5477    0.2209 C   0  0  0  0  0  0
   52.7188   46.2406    0.7260 C   0  0  0  0  0  0
   52.6043   45.5376   -1.9851 C   0  0  0  0  0  0
   53.7356   46.2382   -1.5066 C   0  0  0  0  0  0
   53.8062   46.5689   -0.1214 C   0  0  0  0  0  0
   54.9655   47.2100    0.3685 C   0  0  0  0  0  0
   55.9956   47.5666   -0.4987 C   0  0  0  0  0  0
   55.9159   47.2838   -1.8645 C   0  0  0  0  0  0
   54.8067   46.6015   -2.3605 C   0  0  0  0  0  0
   56.9099   47.6254   -2.7555 O   0  0  0  0  0  0
   57.5555   48.8559   -2.5892 C   0  0  0  0  0  0
   58.3935   49.1391   -3.6631 O   0  0  0  0  0  0
   57.7122   49.3226   -4.8956 C   0  0  0  0  0  0
   49.2169   42.6573   -6.2333 H   0  0  0  0  0  0
   47.8481   39.7323   -3.8642 H   0  0  0  0  0  0
   47.7609   39.0281   -0.8358 H   0  0  0  0  0  0
   51.0059   42.2555   -1.1361 H   0  0  0  0  0  0
   51.8220   42.8873   -2.4990 H   0  0  0  0  0  0
   50.0230   44.8100   -2.4989 H   0  0  0  0  0  0
   49.6085   44.2721   -0.9060 H   0  0  0  0  0  0
   50.8299   45.2498    0.8923 H   0  0  0  0  0  0
   52.7614   46.4969    1.7749 H   0  0  0  0  0  0
   52.5679   45.2482   -3.0260 H   0  0  0  0  0  0
   55.0372   47.4396    1.4220 H   0  0  0  0  0  0
   56.8674   48.0618   -0.0991 H   0  0  0  0  0  0
   54.7541   46.3583   -3.4116 H   0  0  0  0  0  0
   56.8427   49.6730   -2.4484 H   0  0  0  0  0  0
   58.2094   48.8103   -1.7182 H   0  0  0  0  0  0
   58.4230   49.6089   -5.6688 H   0  0  0  0  0  0
   57.2230   48.4031   -5.2207 H   0  0  0  0  0  0
   56.9602   50.1093   -4.8220 H   0  0  0  0  0  0
  1  2  1  0  0  0
  1  6  2  0  0  0
  1 12  1  0  0  0
  2  3  1  0  0  0
  2 11  2  0  0  0
  3  4  1  0  0  0
  3 28  1  0  0  0
  4  5  1  0  0  0
  4 10  2  0  0  0
  5  6  1  0  0  0
  5 29  1  0  0  0
  6  7  1  0  0  0
  7  8  1  0  0  0
  7  9  2  0  0  0
  8 30  1  0  0  0
 12 13  1  0  0  0
 12 31  1  0  0  0
 12 32  1  0  0  0
 13 14  1  0  0  0
 13 33  1  0  0  0
 13 34  1  0  0  0
 14 15  2  0  0  0
 14 17  1  0  0  0
 15 16  1  0  0  0
 15 35  1  0  0  0
 16 19  2  0  0  0
 16 36  1  0  0  0
 17 18  2  0  0  0
 17 37  1  0  0  0
 18 19  1  0  0  0
 18 23  1  0  0  0
 19 20  1  0  0  0
 20 21  2  0  0  0
 20 38  1  0  0  0
 21 22  1  0  0  0
 21 39  1  0  0  0
 22 23  2  0  0  0
 22 24  1  0  0  0
 23 40  1  0  0  0
 24 25  1  0  0  0
 25 26  1  0  0  0
 25 41  1  0  0  0
 25 42  1  0  0  0
 26 27  1  0  0  0
 27 43  1  0  0  0
 27 44  1  0  0  0
 27 45  1  0  0  0
M  END
> <s_m_entry_id>
25614

> <s_m_entry_name>
dock_pv.266

> <s_m_Source_Path>
/home/csk/Desktop/cluster/DUD-E-result/pyrd

> <s_m_Source_File>
dock_pv.maegz

> <i_m_Source_File_Index>
266

> <chembl_id>
CHEMBL3936361

> <chembl_pref_name>
None

> <i_lp_mmshare_version>
53161

> <r_lp_tautomer_probability>
1

> <s_lp_Force_Field>
OPLS_2005

> <r_lp_Energy>
19.500309

> <b_lp_Chiralities_Consistent>
1

> <s_lp_Variant>
CHEMBL1966_lig383-1

> <s_i_glide_gridfile>
glide-grid_1d3g

> <i_i_glide_lignum>
433

> <i_i_glide_rotatable_bonds>
8

> <r_i_docking_score>
-9.46726760408709

> <r_i_glide_ligand_efficiency>
-0.350639540892114

> <r_i_glide_ligand_efficiency_sa>
-1.05191862152069

> <r_i_glide_ligand_efficiency_ln>
-2.2038238181267

> <r_i_glide_gscore>
-9.46726760408709

> <r_i_glide_lipo>
-4.78830538447763

> <r_i_glide_hbond>
-0.267843446766086

> <r_i_glide_metal>
0

> <r_i_glide_rewards>
-2.04684859648157

> <r_i_glide_evdw>
-48.3577423095703

> <r_i_glide_ecoul>
-5.26829767227173

> <r_i_glide_erotb>
0.843861589957475

> <r_i_glide_esite>
0

> <r_i_glide_emodel>
-77.4807306918143

> <r_i_glide_energy>
-53.626039981842

> <r_i_glide_einternal>
4.68604564666748

> <i_i_glide_confnum>
20

> <i_i_glide_posenum>
348

> <r_i_glide_eff_state_penalty>
0

> <s_user_duplicate_titles>
CHEMBL1966_lig383

> <i_f3d_flags>
0

> <s_m_subgroup_title>
dock_pv

> <s_m_subgroupid>
dock_pv

> <b_m_subgroup_collapsed>
1

$$$$
CHEMBL1966_lig597
                    3D
 Schrodinger Suite 2021-1.
 39 42  0  0  1  0            999 V2000
   56.8224   47.9281   -4.1641 C   0  0  0  0  0  0
   57.2203   48.3584   -2.9088 C   0  0  0  0  0  0
   56.5038   47.9783   -1.7817 C   0  0  0  0  0  0
   55.6954   47.1254   -4.3107 C   0  0  0  0  0  0
   54.9287   46.7199   -3.1891 C   0  0  0  0  0  0
   55.3484   47.1433   -1.8934 C   0  0  0  0  0  0
   54.5697   46.6894   -0.7914 C   0  0  0  0  0  0
   53.4008   45.9644   -1.0291 C   0  0  0  0  0  0
   53.0878   45.5081   -2.3007 C   0  0  0  0  0  0
   53.8396   45.9078   -3.3698 N   0  0  0  0  0  0
   52.0230   44.4409   -2.5083 C   0  0  0  0  0  0
   51.9654   43.7509   -3.7178 C   0  0  0  0  0  0
   50.9831   42.8102   -3.9681 C   0  0  0  0  0  0
   50.1039   42.3980   -2.9777 C   0  0  0  0  0  0
   50.1694   43.0501   -1.7396 C   0  0  0  0  0  0
   51.0758   44.0918   -1.5271 C   0  0  0  0  0  0
   55.0367   46.8099    0.6217 C   0  0  0  0  0  0
   54.0174   46.8100    1.5048 O   0  0  0  0  0  0
   56.2178   46.8100    0.9546 O   0  0  0  0  0  0
   49.1008   41.3281   -3.2666 C   0  0  0  0  0  0
   48.4230   41.2419   -4.5039 C   0  0  0  0  0  0
   47.3735   40.4099   -4.7108 N   0  0  0  0  0  0
   46.9775   39.6102   -3.6927 C   0  0  0  0  0  0
   47.6445   39.5544   -2.4736 C   0  0  0  0  0  0
   48.7259   40.4104   -2.2723 C   0  0  0  0  0  0
   48.7161   42.0859   -5.5198 F   0  0  0  0  0  0
   57.3900   48.2230   -5.0349 H   0  0  0  0  0  0
   58.0929   48.9873   -2.8055 H   0  0  0  0  0  0
   56.8384   48.3366   -0.8199 H   0  0  0  0  0  0
   55.4187   46.8100   -5.2987 H   0  0  0  0  0  0
   52.8219   45.6104   -0.1916 H   0  0  0  0  0  0
   52.6652   43.9708   -4.4990 H   0  0  0  0  0  0
   50.8973   42.4100   -4.9552 H   0  0  0  0  0  0
   49.4876   42.7869   -0.9461 H   0  0  0  0  0  0
   51.0433   44.5930   -0.5728 H   0  0  0  0  0  0
   54.3800   46.7397    2.3980 H   0  0  0  0  0  0
   46.1152   38.9850   -3.8755 H   0  0  0  0  0  0
   47.3220   38.8804   -1.6934 H   0  0  0  0  0  0
   49.2245   40.4085   -1.3139 H   0  0  0  0  0  0
  1  2  2  0  0  0
  1  4  1  0  0  0
  1 27  1  0  0  0
  2  3  1  0  0  0
  2 28  1  0  0  0
  3  6  2  0  0  0
  3 29  1  0  0  0
  4  5  2  0  0  0
  4 30  1  0  0  0
  5  6  1  0  0  0
  5 10  1  0  0  0
  6  7  1  0  0  0
  7  8  2  0  0  0
  7 17  1  0  0  0
  8  9  1  0  0  0
  8 31  1  0  0  0
  9 10  2  0  0  0
  9 11  1  0  0  0
 11 12  2  0  0  0
 11 16  1  0  0  0
 12 13  1  0  0  0
 12 32  1  0  0  0
 13 14  2  0  0  0
 13 33  1  0  0  0
 14 15  1  0  0  0
 14 20  1  0  0  0
 15 16  2  0  0  0
 15 34  1  0  0  0
 16 35  1  0  0  0
 17 18  1  0  0  0
 17 19  2  0  0  0
 18 36  1  0  0  0
 20 21  2  0  0  0
 20 25  1  0  0  0
 21 22  1  0  0  0
 21 26  1  0  0  0
 22 23  2  0  0  0
 23 24  1  0  0  0
 23 37  1  0  0  0
 24 25  2  0  0  0
 24 38  1  0  0  0
 25 39  1  0  0  0
M  END
> <s_m_entry_id>
25615

> <s_m_entry_name>
dock_pv.267

> <s_m_Source_Path>
/home/csk/Desktop/cluster/DUD-E-result/pyrd

> <s_m_Source_File>
dock_pv.maegz

> <i_m_Source_File_Index>
267

> <chembl_id>
CHEMBL4225552

> <chembl_pref_name>
None

> <i_lp_mmshare_version>
53161

> <r_lp_tautomer_probability>
1

> <s_lp_Force_Field>
OPLS_2005

> <r_lp_Energy>
31.026581

> <b_lp_Chiralities_Consistent>
1

> <s_lp_Variant>
CHEMBL1966_lig597-1

> <s_i_glide_gridfile>
glide-grid_1d3g

> <i_i_glide_lignum>
651

> <i_i_glide_rotatable_bonds>
4

> <r_i_docking_score>
-9.46128619932527

> <r_i_glide_ligand_efficiency>
-0.363895623050972

> <r_i_glide_ligand_efficiency_sa>
-1.07803935142837

> <r_i_glide_ligand_efficiency_ln>
-2.22195201889937

> <r_i_glide_gscore>
-9.46128619932527

> <r_i_glide_lipo>
-5.50650386792272

> <r_i_glide_hbond>
-0.00826464575859166

> <r_i_glide_metal>
0

> <r_i_glide_rewards>
-2.42004954939615

> <r_i_glide_evdw>
-32.2335777282715

> <r_i_glide_ecoul>
-2.63448262214661

> <r_i_glide_erotb>
0.48038314348776

> <r_i_glide_esite>
0

> <r_i_glide_emodel>
-38.9012267354817

> <r_i_glide_energy>
-34.8680603504181

> <r_i_glide_einternal>
0.393832057714462

> <i_i_glide_confnum>
50

> <i_i_glide_posenum>
246

> <r_i_glide_eff_state_penalty>
0

> <s_user_duplicate_titles>
CHEMBL1966_lig597

> <i_f3d_flags>
0

> <s_m_subgroup_title>
dock_pv

> <s_m_subgroupid>
dock_pv

> <b_m_subgroup_collapsed>
1

$$$$
CHEMBL1966_lig290
                    3D
 Schrodinger Suite 2021-1.
 38 41  0  0  1  0            999 V2000
   48.8228   40.1629   -0.2571 O   0  0  0  0  0  0
   48.0095   39.6099   -1.1933 C   0  0  0  0  0  0
   47.2333   38.6988   -0.9075 O   0  0  0  0  0  0
   48.0947   40.1915   -2.5880 C   0  0  0  0  0  0
   47.1494   39.7845   -3.5467 C   0  0  0  0  0  0
   47.0941   40.3298   -4.8313 C   0  0  0  0  0  0
   48.0215   41.2591   -5.2829 C   0  0  0  0  0  0
   48.9485   41.6943   -4.3424 C   0  0  0  0  0  0
   49.8992   42.6772   -4.3741 N   0  0  0  0  0  0
   50.4157   42.7820   -3.1082 C   0  0  0  0  0  0
   49.9403   41.8854   -2.2835 N   0  0  0  0  0  0
   49.0004   41.1941   -3.0077 C   0  0  0  0  0  0
   51.3684   43.8443   -2.7321 C   0  0  0  0  0  0
   51.2229   44.5976   -1.5609 C   0  0  0  0  0  0
   52.1408   45.6099   -1.2666 C   0  0  0  0  0  0
   53.2229   45.8497   -2.1228 C   0  0  0  0  0  0
   53.3404   45.1032   -3.2969 C   0  0  0  0  0  0
   52.4234   44.1026   -3.6017 C   0  0  0  0  0  0
   54.2867   46.8271   -1.7791 C   0  0  0  0  0  0
   54.9042   46.7772   -0.5247 C   0  0  0  0  0  0
   55.9806   47.6099   -0.2396 C   0  0  0  0  0  0
   56.4227   48.5224   -1.1933 C   0  0  0  0  0  0
   55.8006   48.6043   -2.4354 C   0  0  0  0  0  0
   54.7391   47.7520   -2.7292 C   0  0  0  0  0  0
   48.6741   39.7059    0.5757 H   0  0  0  0  0  0
   46.3998   39.0514   -3.2832 H   0  0  0  0  0  0
   46.3029   40.0099   -5.4928 H   0  0  0  0  0  0
   47.9553   41.7041   -6.2622 H   0  0  0  0  0  0
   50.1318   43.3115   -5.1249 H   0  0  0  0  0  0
   50.3987   44.4064   -0.8891 H   0  0  0  0  0  0
   52.0250   46.1813   -0.3564 H   0  0  0  0  0  0
   54.1777   45.2755   -3.9556 H   0  0  0  0  0  0
   52.5505   43.5165   -4.4989 H   0  0  0  0  0  0
   54.5827   46.0580    0.2155 H   0  0  0  0  0  0
   56.4793   47.5439    0.7142 H   0  0  0  0  0  0
   57.2563   49.1696   -0.9635 H   0  0  0  0  0  0
   56.1503   49.3139   -3.1709 H   0  0  0  0  0  0
   54.2720   47.8075   -3.7025 H   0  0  0  0  0  0
  1  2  1  0  0  0
  1 25  1  0  0  0
  2  3  2  0  0  0
  2  4  1  0  0  0
  4  5  2  0  0  0
  4 12  1  0  0  0
  5  6  1  0  0  0
  5 26  1  0  0  0
  6  7  2  0  0  0
  6 27  1  0  0  0
  7  8  1  0  0  0
  7 28  1  0  0  0
  8  9  1  0  0  0
  8 12  2  0  0  0
  9 10  1  0  0  0
  9 29  1  0  0  0
 10 11  2  0  0  0
 10 13  1  0  0  0
 11 12  1  0  0  0
 13 14  2  0  0  0
 13 18  1  0  0  0
 14 15  1  0  0  0
 14 30  1  0  0  0
 15 16  2  0  0  0
 15 31  1  0  0  0
 16 17  1  0  0  0
 16 19  1  0  0  0
 17 18  2  0  0  0
 17 32  1  0  0  0
 18 33  1  0  0  0
 19 20  2  0  0  0
 19 24  1  0  0  0
 20 21  1  0  0  0
 20 34  1  0  0  0
 21 22  2  0  0  0
 21 35  1  0  0  0
 22 23  1  0  0  0
 22 36  1  0  0  0
 23 24  2  0  0  0
 23 37  1  0  0  0
 24 38  1  0  0  0
M  END
> <s_m_entry_id>
25616

> <s_m_entry_name>
dock_pv.268

> <s_m_Source_Path>
/home/csk/Desktop/cluster/DUD-E-result/pyrd

> <s_m_Source_File>
dock_pv.maegz

> <i_m_Source_File_Index>
268

> <chembl_id>
CHEMBL3593998

> <chembl_pref_name>
None

> <i_lp_mmshare_version>
53161

> <r_lp_tautomer_probability>
1

> <s_lp_Force_Field>
OPLS_2005

> <r_lp_Energy>
23.344255

> <b_lp_Chiralities_Consistent>
1

> <s_lp_Variant>
CHEMBL1966_lig290-1

> <s_i_glide_gridfile>
glide-grid_1d3g

> <i_i_glide_lignum>
336

> <i_i_glide_rotatable_bonds>
4

> <r_i_docking_score>
-9.45766816441116

> <r_i_glide_ligand_efficiency>
-0.394069506850465

> <r_i_glide_ligand_efficiency_sa>
-1.13669315264851

> <r_i_glide_ligand_efficiency_ln>
-2.26365397585687

> <r_i_glide_gscore>
-9.45766816441116

> <r_i_glide_lipo>
-4.93111673377514

> <r_i_glide_hbond>
0

> <r_i_glide_metal>
0

> <r_i_glide_rewards>
-2.87420232202201

> <r_i_glide_evdw>
-38.7306060791016

> <r_i_glide_ecoul>
-1.86769425868988

> <r_i_glide_erotb>
0.564335334144549

> <r_i_glide_esite>
0

> <r_i_glide_emodel>
-58.078536565501

> <r_i_glide_energy>
-40.5983003377914

> <r_i_glide_einternal>
5.0269341468811

> <i_i_glide_confnum>
2

> <i_i_glide_posenum>
26

> <r_i_glide_eff_state_penalty>
0

> <s_user_duplicate_titles>
CHEMBL1966_lig290

> <i_f3d_flags>
0

> <s_m_subgroup_title>
dock_pv

> <s_m_subgroupid>
dock_pv

> <b_m_subgroup_collapsed>
1

$$$$
CHEMBL1966_lig458
                    3D
 Schrodinger Suite 2021-1.
 38 40  0  0  1  0            999 V2000
   47.1400   38.5399   -1.0201 C   0  0  0  0  0  0
   47.9874   39.6312   -1.6483 C   0  0  0  0  0  0
   48.8231   40.4095   -0.8485 C   0  0  0  0  0  0
   49.6233   41.3868   -1.4263 C   0  0  0  0  0  0
   49.5728   41.6394   -2.8001 C   0  0  0  0  0  0
   50.4236   42.6016   -3.3549 N   0  0  0  0  0  0
   51.2358   43.6196   -2.8567 C   0  0  0  0  0  0
   52.3611   43.9694   -3.6020 C   0  0  0  0  0  0
   53.2223   44.9430   -3.2220 N   0  0  0  0  0  0
   52.9281   45.6098   -2.0703 C   0  0  0  0  0  0
   51.8224   45.3808   -1.2994 N   0  0  0  0  0  0
   50.9921   44.3744   -1.6991 C   0  0  0  0  0  0
   53.9692   46.5933   -1.6226 C   0  0  0  0  0  0
   54.6599   47.3371   -2.5988 C   0  0  0  0  0  0
   55.7348   48.1610   -2.2707 C   0  0  0  0  0  0
   56.1569   48.2508   -0.9498 C   0  0  0  0  0  0
   55.4705   47.5506    0.0367 C   0  0  0  0  0  0
   54.3671   46.7602   -0.2761 C   0  0  0  0  0  0
   53.5727   46.0068    1.0640 Cl  0  0  0  0  0  0
   48.6849   40.8984   -3.6218 C   0  0  0  0  0  0
   47.9104   39.8927   -3.0182 C   0  0  0  0  0  0
   48.4235   41.2161   -5.0899 C   0  0  0  0  0  0
   47.4573   40.7671   -5.6998 O   0  0  0  0  0  0
   49.2844   42.0778   -5.6968 O   0  0  0  0  0  0
   46.6827   38.9060   -0.0997 H   0  0  0  0  0  0
   47.7562   37.6759   -0.7652 H   0  0  0  0  0  0
   46.3288   38.2232   -1.6772 H   0  0  0  0  0  0
   48.8869   40.2197    0.2131 H   0  0  0  0  0  0
   50.3058   41.9309   -0.7926 H   0  0  0  0  0  0
   50.4311   42.5379   -4.3657 H   0  0  0  0  0  0
   52.6169   43.4293   -4.4994 H   0  0  0  0  0  0
   50.1137   44.2090   -1.0941 H   0  0  0  0  0  0
   54.3775   47.2597   -3.6392 H   0  0  0  0  0  0
   56.2542   48.7076   -3.0443 H   0  0  0  0  0  0
   57.0095   48.8621   -0.6886 H   0  0  0  0  0  0
   55.7923   47.6100    1.0649 H   0  0  0  0  0  0
   47.2223   39.3062   -3.6121 H   0  0  0  0  0  0
   48.9296   42.3683   -6.5374 H   0  0  0  0  0  0
  1  2  1  0  0  0
  1 25  1  0  0  0
  1 26  1  0  0  0
  1 27  1  0  0  0
  2  3  2  0  0  0
  2 21  1  0  0  0
  3  4  1  0  0  0
  3 28  1  0  0  0
  4  5  2  0  0  0
  4 29  1  0  0  0
  5  6  1  0  0  0
  5 20  1  0  0  0
  6  7  1  0  0  0
  6 30  1  0  0  0
  7  8  2  0  0  0
  7 12  1  0  0  0
  8  9  1  0  0  0
  8 31  1  0  0  0
  9 10  2  0  0  0
 10 11  1  0  0  0
 10 13  1  0  0  0
 11 12  2  0  0  0
 12 32  1  0  0  0
 13 14  2  0  0  0
 13 18  1  0  0  0
 14 15  1  0  0  0
 14 33  1  0  0  0
 15 16  2  0  0  0
 15 34  1  0  0  0
 16 17  1  0  0  0
 16 35  1  0  0  0
 17 18  2  0  0  0
 17 36  1  0  0  0
 18 19  1  0  0  0
 20 21  2  0  0  0
 20 22  1  0  0  0
 21 37  1  0  0  0
 22 23  2  0  0  0
 22 24  1  0  0  0
 24 38  1  0  0  0
M  END
> <s_m_entry_id>
25617

> <s_m_entry_name>
dock_pv.269

> <s_m_Source_Path>
/home/csk/Desktop/cluster/DUD-E-result/pyrd

> <s_m_Source_File>
dock_pv.maegz

> <i_m_Source_File_Index>
269

> <chembl_id>
CHEMBL3674667

> <chembl_pref_name>
None

> <i_lp_mmshare_version>
53161

> <r_lp_tautomer_probability>
1

> <s_lp_Force_Field>
OPLS_2005

> <r_lp_Energy>
27.625034

> <b_lp_Chiralities_Consistent>
1

> <s_lp_Variant>
CHEMBL1966_lig458-1

> <s_i_glide_gridfile>
glide-grid_1d3g

> <i_i_glide_lignum>
508

> <i_i_glide_rotatable_bonds>
5

> <r_i_docking_score>
-9.45066893192798

> <r_i_glide_ligand_efficiency>
-0.393777872163666

> <r_i_glide_ligand_efficiency_sa>
-1.13585193264596

> <r_i_glide_ligand_efficiency_ln>
-2.2619787383498

> <r_i_glide_gscore>
-9.45066893192798

> <r_i_glide_lipo>
-4.89798478704256

> <r_i_glide_hbond>
-0.0662235484232289

> <r_i_glide_metal>
0

> <r_i_glide_rewards>
-2.68380411706855

> <r_i_glide_evdw>
-44.5854568481445

> <r_i_glide_ecoul>
-1.5282119512558

> <r_i_glide_erotb>
0.655848155701958

> <r_i_glide_esite>
0

> <r_i_glide_emodel>
-63.0026697876675

> <r_i_glide_energy>
-46.1136687994003

> <r_i_glide_einternal>
14.8512401580811

> <i_i_glide_confnum>
22

> <i_i_glide_posenum>
16

> <r_i_glide_eff_state_penalty>
0

> <s_user_duplicate_titles>
CHEMBL1966_lig458

> <i_f3d_flags>
0

> <s_m_subgroup_title>
dock_pv

> <s_m_subgroupid>
dock_pv

> <b_m_subgroup_collapsed>
1

$$$$
CHEMBL1966_lig585
                    3D
 Schrodinger Suite 2021-1.
 39 41  0  0  1  0            999 V2000
   47.8911   39.3801   -0.6149 C   0  0  0  0  0  0
   47.3668   38.9741   -1.8360 C   0  0  0  0  0  0
   47.7485   39.6101   -3.0153 C   0  0  0  0  0  0
   48.8230   40.4100   -0.5534 C   0  0  0  0  0  0
   49.2230   41.0827   -1.7324 C   0  0  0  0  0  0
   48.6692   40.7035   -2.9944 C   0  0  0  0  0  0
   49.0547   41.4835   -4.1382 C   0  0  0  0  0  0
   49.9640   42.5336   -3.9629 C   0  0  0  0  0  0
   50.4328   42.8481   -2.6891 C   0  0  0  0  0  0
   50.0746   42.1323   -1.5943 N   0  0  0  0  0  0
   51.3437   44.0026   -2.4376 C   0  0  0  0  0  0
   51.1794   44.8098   -1.2995 C   0  0  0  0  0  0
   52.0827   45.8287   -1.0139 C   0  0  0  0  0  0
   53.1808   46.0458   -1.8500 C   0  0  0  0  0  0
   53.3396   45.2636   -2.9982 C   0  0  0  0  0  0
   52.4230   44.2574   -3.2990 C   0  0  0  0  0  0
   48.5122   41.2379   -5.5178 C   0  0  0  0  0  0
   47.1560   41.1242   -5.6078 O   0  0  0  0  0  0
   49.2498   41.2077   -6.4955 O   0  0  0  0  0  0
   54.2126   47.1158   -1.4886 C   0  0  0  0  0  0
   54.3907   48.1637   -2.6051 C   0  0  0  0  0  0
   55.5573   46.4930   -1.0669 C   0  0  0  0  0  0
   47.5875   38.8862    0.2976 H   0  0  0  0  0  0
   46.6613   38.1563   -1.8686 H   0  0  0  0  0  0
   47.3342   39.2606   -3.9475 H   0  0  0  0  0  0
   49.2315   40.7128    0.3993 H   0  0  0  0  0  0
   50.2645   43.1415   -4.8059 H   0  0  0  0  0  0
   50.3524   44.6408   -0.6249 H   0  0  0  0  0  0
   51.9399   46.4248   -0.1243 H   0  0  0  0  0  0
   54.1846   45.4211   -3.6521 H   0  0  0  0  0  0
   52.5844   43.6378   -4.1687 H   0  0  0  0  0  0
   46.7148   41.3279   -4.7797 H   0  0  0  0  0  0
   53.8378   47.6503   -0.6146 H   0  0  0  0  0  0
   53.4331   48.5967   -2.8991 H   0  0  0  0  0  0
   54.8448   47.7335   -3.4990 H   0  0  0  0  0  0
   55.0333   48.9805   -2.2731 H   0  0  0  0  0  0
   55.4254   45.8057   -0.2294 H   0  0  0  0  0  0
   56.0206   45.9390   -1.8847 H   0  0  0  0  0  0
   56.2648   47.2594   -0.7471 H   0  0  0  0  0  0
  1  2  2  0  0  0
  1  4  1  0  0  0
  1 23  1  0  0  0
  2  3  1  0  0  0
  2 24  1  0  0  0
  3  6  2  0  0  0
  3 25  1  0  0  0
  4  5  2  0  0  0
  4 26  1  0  0  0
  5  6  1  0  0  0
  5 10  1  0  0  0
  6  7  1  0  0  0
  7  8  2  0  0  0
  7 17  1  0  0  0
  8  9  1  0  0  0
  8 27  1  0  0  0
  9 10  2  0  0  0
  9 11  1  0  0  0
 11 12  2  0  0  0
 11 16  1  0  0  0
 12 13  1  0  0  0
 12 28  1  0  0  0
 13 14  2  0  0  0
 13 29  1  0  0  0
 14 15  1  0  0  0
 14 20  1  0  0  0
 15 16  2  0  0  0
 15 30  1  0  0  0
 16 31  1  0  0  0
 17 18  1  0  0  0
 17 19  2  0  0  0
 18 32  1  0  0  0
 20 21  1  0  0  0
 20 22  1  0  0  0
 20 33  1  0  0  0
 21 34  1  0  0  0
 21 35  1  0  0  0
 21 36  1  0  0  0
 22 37  1  0  0  0
 22 38  1  0  0  0
 22 39  1  0  0  0
M  END
> <s_m_entry_id>
25618

> <s_m_entry_name>
dock_pv.270

> <s_m_Source_Path>
/home/csk/Desktop/cluster/DUD-E-result/pyrd

> <s_m_Source_File>
dock_pv.maegz

> <i_m_Source_File_Index>
270

> <chembl_id>
CHEMBL4229141

> <chembl_pref_name>
None

> <i_lp_mmshare_version>
53161

> <r_lp_tautomer_probability>
1

> <s_lp_Force_Field>
OPLS_2005

> <r_lp_Energy>
22.139814

> <b_lp_Chiralities_Consistent>
1

> <s_lp_Variant>
CHEMBL1966_lig585-1

> <s_i_glide_gridfile>
glide-grid_1d3g

> <i_i_glide_lignum>
639

> <i_i_glide_rotatable_bonds>
4

> <r_i_docking_score>
-9.4362690246566

> <r_i_glide_ligand_efficiency>
-0.428921319302573

> <r_i_glide_ligand_efficiency_sa>
-1.20185440520408

> <r_i_glide_ligand_efficiency_ln>
-2.30656834590177

> <r_i_glide_gscore>
-9.4362690246566

> <r_i_glide_lipo>
-5.28623597107363

> <r_i_glide_hbond>
-0.16

> <r_i_glide_metal>
0

> <r_i_glide_rewards>
-2.14910161111074

> <r_i_glide_evdw>
-32.3761367797852

> <r_i_glide_ecoul>
-4.34593629837036

> <r_i_glide_erotb>
0.42976584127258

> <r_i_glide_esite>
0

> <r_i_glide_emodel>
-56.1428058311016

> <r_i_glide_energy>
-36.7220730781555

> <r_i_glide_einternal>
3.87940812110901

> <i_i_glide_confnum>
1

> <i_i_glide_posenum>
6

> <r_i_glide_eff_state_penalty>
0

> <s_user_duplicate_titles>
CHEMBL1966_lig585

> <i_f3d_flags>
0

> <s_m_subgroup_title>
dock_pv

> <s_m_subgroupid>
dock_pv

> <b_m_subgroup_collapsed>
1

$$$$
CHEMBL1966_lig463
                    3D
 Schrodinger Suite 2021-1.
 45 48  0  0  1  0            999 V2000
   54.6692   47.3380   -3.9271 C   0  0  0  0  0  0
   54.8686   47.1947   -2.4252 C   0  0  0  0  0  0
   55.9274   47.9168   -1.8678 C   0  0  0  0  0  0
   56.1763   47.8696   -0.5037 C   0  0  0  0  0  0
   55.3428   47.1285    0.3246 C   0  0  0  0  0  0
   54.2812   46.4101   -0.2175 C   0  0  0  0  0  0
   54.0323   46.3988   -1.6004 C   0  0  0  0  0  0
   52.9625   45.4900   -2.1327 C   0  0  0  0  0  0
   53.2540   44.8236   -3.2845 N   0  0  0  0  0  0
   52.3713   43.8838   -3.6990 C   0  0  0  0  0  0
   51.2224   43.5655   -2.9807 C   0  0  0  0  0  0
   50.3809   42.5763   -3.5044 N   0  0  0  0  0  0
   49.5413   41.6150   -2.9222 C   0  0  0  0  0  0
   49.6241   41.3654   -1.5477 C   0  0  0  0  0  0
   48.8231   40.4100   -0.9376 C   0  0  0  0  0  0
   47.9208   39.6803   -1.6965 C   0  0  0  0  0  0
   47.8287   39.9140   -3.0722 C   0  0  0  0  0  0
   48.6183   40.8832   -3.7090 C   0  0  0  0  0  0
   48.4229   41.1303   -5.1948 C   0  0  0  0  0  0
   49.2871   41.6100   -5.9216 O   0  0  0  0  0  0
   47.1832   40.8100   -5.6633 O   0  0  0  0  0  0
   47.0460   38.6735   -0.9848 C   0  0  0  0  0  0
   46.1026   37.7474   -1.6990 C   0  0  0  0  0  0
   47.3724   37.2101   -1.0624 C   0  0  0  0  0  0
   50.9912   44.2985   -1.8050 C   0  0  0  0  0  0
   51.8495   45.2651   -1.3685 N   0  0  0  0  0  0
   54.9795   48.3278   -4.2599 H   0  0  0  0  0  0
   55.2481   46.5892   -4.4679 H   0  0  0  0  0  0
   53.6230   47.2485   -4.2051 H   0  0  0  0  0  0
   56.5743   48.5125   -2.4961 H   0  0  0  0  0  0
   57.0181   48.4110   -0.0990 H   0  0  0  0  0  0
   55.5253   47.1004    1.3888 H   0  0  0  0  0  0
   53.6719   45.8209    0.4522 H   0  0  0  0  0  0
   52.6264   43.3387   -4.5941 H   0  0  0  0  0  0
   50.4174   42.4906   -4.5126 H   0  0  0  0  0  0
   50.3393   41.8904   -0.9348 H   0  0  0  0  0  0
   48.9146   40.2310    0.1241 H   0  0  0  0  0  0
   47.1363   39.3310   -3.6555 H   0  0  0  0  0  0
   46.5851   40.6519   -4.9306 H   0  0  0  0  0  0
   46.7010   39.0286   -0.0131 H   0  0  0  0  0  0
   46.0051   37.8561   -2.7751 H   0  0  0  0  0  0
   45.1566   37.4506   -1.2734 H   0  0  0  0  0  0
   47.3291   36.6508   -0.1308 H   0  0  0  0  0  0
   48.2005   36.8922   -1.6981 H   0  0  0  0  0  0
   50.1009   44.1477   -1.2139 H   0  0  0  0  0  0
  1  2  1  0  0  0
  1 27  1  0  0  0
  1 28  1  0  0  0
  1 29  1  0  0  0
  2  3  2  0  0  0
  2  7  1  0  0  0
  3  4  1  0  0  0
  3 30  1  0  0  0
  4  5  2  0  0  0
  4 31  1  0  0  0
  5  6  1  0  0  0
  5 32  1  0  0  0
  6  7  2  0  0  0
  6 33  1  0  0  0
  7  8  1  0  0  0
  8  9  2  0  0  0
  8 26  1  0  0  0
  9 10  1  0  0  0
 10 11  2  0  0  0
 10 34  1  0  0  0
 11 12  1  0  0  0
 11 25  1  0  0  0
 12 13  1  0  0  0
 12 35  1  0  0  0
 13 14  2  0  0  0
 13 18  1  0  0  0
 14 15  1  0  0  0
 14 36  1  0  0  0
 15 16  2  0  0  0
 15 37  1  0  0  0
 16 17  1  0  0  0
 16 22  1  0  0  0
 17 18  2  0  0  0
 17 38  1  0  0  0
 18 19  1  0  0  0
 19 20  2  0  0  0
 19 21  1  0  0  0
 21 39  1  0  0  0
 22 23  1  0  0  0
 22 24  1  0  0  0
 22 40  1  0  0  0
 23 24  1  0  0  0
 23 41  1  0  0  0
 23 42  1  0  0  0
 24 43  1  0  0  0
 24 44  1  0  0  0
 25 26  2  0  0  0
 25 45  1  0  0  0
M  END
> <s_m_entry_id>
25619

> <s_m_entry_name>
dock_pv.271

> <s_m_Source_Path>
/home/csk/Desktop/cluster/DUD-E-result/pyrd

> <s_m_Source_File>
dock_pv.maegz

> <i_m_Source_File_Index>
271

> <chembl_id>
CHEMBL3674672

> <chembl_pref_name>
None

> <i_lp_mmshare_version>
53161

> <r_lp_tautomer_probability>
1

> <s_lp_Force_Field>
OPLS_2005

> <r_lp_Energy>
35.084564

> <b_lp_Chiralities_Consistent>
1

> <s_lp_Variant>
CHEMBL1966_lig463-1

> <s_i_glide_gridfile>
glide-grid_1d3g

> <i_i_glide_lignum>
513

> <i_i_glide_rotatable_bonds>
6

> <r_i_docking_score>
-9.42466134607636

> <r_i_glide_ligand_efficiency>
-0.362486974849091

> <r_i_glide_ligand_efficiency_sa>
-1.07386623667306

> <r_i_glide_ligand_efficiency_ln>
-2.21335079228981

> <r_i_glide_gscore>
-9.42466134607636

> <r_i_glide_lipo>
-5.17596853010291

> <r_i_glide_hbond>
0

> <r_i_glide_metal>
0

> <r_i_glide_rewards>
-2.63976755279431

> <r_i_glide_evdw>
-41.712703704834

> <r_i_glide_ecoul>
-2.13059067726135

> <r_i_glide_erotb>
0.796298523651758

> <r_i_glide_esite>
0

> <r_i_glide_emodel>
-58.9836205624988

> <r_i_glide_energy>
-43.8432943820953

> <r_i_glide_einternal>
15.8509998321533

> <i_i_glide_confnum>
147

> <i_i_glide_posenum>
151

> <r_i_glide_eff_state_penalty>
0

> <s_user_duplicate_titles>
CHEMBL1966_lig463

> <i_f3d_flags>
0

> <s_m_subgroup_title>
dock_pv

> <s_m_subgroupid>
dock_pv

> <b_m_subgroup_collapsed>
1

$$$$
CHEMBL1966_lig191
                    3D
 Schrodinger Suite 2021-1.
 47 50  0  0  1  0            999 V2000
   57.2598   49.7530   -2.3642 C   0  0  0  0  0  0
   56.2293   48.8673   -2.7907 O   0  0  0  0  0  0
   55.5979   48.0742   -1.8533 C   0  0  0  0  0  0
   55.9514   48.0095   -0.4991 C   0  0  0  0  0  0
   55.2263   47.2102    0.3838 C   0  0  0  0  0  0
   54.1680   46.4374   -0.0793 C   0  0  0  0  0  0
   53.8286   46.4422   -1.4357 C   0  0  0  0  0  0
   54.5412   47.2829   -2.3034 C   0  0  0  0  0  0
   52.7972   45.5115   -1.9577 C   0  0  0  0  0  0
   51.6229   45.2110   -1.2458 C   0  0  0  0  0  0
   50.7208   44.2546   -1.7224 C   0  0  0  0  0  0
   50.9658   43.6091   -2.9412 C   0  0  0  0  0  0
   50.1038   42.6606   -3.5102 N   0  0  0  0  0  0
   49.4199   41.5825   -2.9441 C   0  0  0  0  0  0
   49.6232   41.3596   -1.6178 N   0  0  0  0  0  0
   48.8884   40.4100   -0.9976 C   0  0  0  0  0  0
   47.9496   39.6382   -1.6652 C   0  0  0  0  0  0
   47.7969   39.8174   -3.0434 C   0  0  0  0  0  0
   48.5228   40.8074   -3.7145 C   0  0  0  0  0  0
   48.3067   40.9929   -5.2008 C   0  0  0  0  0  0
   49.2230   41.2163   -5.9850 O   0  0  0  0  0  0
   47.0063   40.8832   -5.6025 O   0  0  0  0  0  0
   47.0955   38.6923   -0.8659 C   0  0  0  0  0  0
   45.9722   37.9108   -1.4746 C   0  0  0  0  0  0
   47.2401   37.2093   -0.9989 C   0  0  0  0  0  0
   52.1389   43.8863   -3.6307 C   0  0  0  0  0  0
   52.4222   43.2100   -4.7556 F   0  0  0  0  0  0
   53.0403   44.8282   -3.1532 C   0  0  0  0  0  0
   57.6165   50.3286   -3.2181 H   0  0  0  0  0  0
   56.8943   50.4622   -1.6203 H   0  0  0  0  0  0
   58.1116   49.2101   -1.9518 H   0  0  0  0  0  0
   56.7818   48.5787   -0.1117 H   0  0  0  0  0  0
   55.4960   47.1813    1.4294 H   0  0  0  0  0  0
   53.6441   45.8003    0.6183 H   0  0  0  0  0  0
   54.2859   47.3181   -3.3526 H   0  0  0  0  0  0
   51.4103   45.7098   -0.3115 H   0  0  0  0  0  0
   49.8224   44.0426   -1.1620 H   0  0  0  0  0  0
   50.1283   42.6267   -4.5211 H   0  0  0  0  0  0
   49.0537   40.2940    0.0642 H   0  0  0  0  0  0
   47.1027   39.2060   -3.5964 H   0  0  0  0  0  0
   46.3961   40.8952   -4.8622 H   0  0  0  0  0  0
   46.9058   39.0531    0.1459 H   0  0  0  0  0  0
   45.0460   37.9266   -0.8995 H   0  0  0  0  0  0
   45.7689   37.9856   -2.5405 H   0  0  0  0  0  0
   48.0041   36.8583   -1.6962 H   0  0  0  0  0  0
   47.2231   36.6081   -0.0989 H   0  0  0  0  0  0
   53.9565   44.9957   -3.6985 H   0  0  0  0  0  0
  1  2  1  0  0  0
  1 29  1  0  0  0
  1 30  1  0  0  0
  1 31  1  0  0  0
  2  3  1  0  0  0
  3  4  2  0  0  0
  3  8  1  0  0  0
  4  5  1  0  0  0
  4 32  1  0  0  0
  5  6  2  0  0  0
  5 33  1  0  0  0
  6  7  1  0  0  0
  6 34  1  0  0  0
  7  8  2  0  0  0
  7  9  1  0  0  0
  8 35  1  0  0  0
  9 10  2  0  0  0
  9 28  1  0  0  0
 10 11  1  0  0  0
 10 36  1  0  0  0
 11 12  2  0  0  0
 11 37  1  0  0  0
 12 13  1  0  0  0
 12 26  1  0  0  0
 13 14  1  0  0  0
 13 38  1  0  0  0
 14 15  2  0  0  0
 14 19  1  0  0  0
 15 16  1  0  0  0
 16 17  2  0  0  0
 16 39  1  0  0  0
 17 18  1  0  0  0
 17 23  1  0  0  0
 18 19  2  0  0  0
 18 40  1  0  0  0
 19 20  1  0  0  0
 20 21  2  0  0  0
 20 22  1  0  0  0
 22 41  1  0  0  0
 23 24  1  0  0  0
 23 25  1  0  0  0
 23 42  1  0  0  0
 24 25  1  0  0  0
 24 43  1  0  0  0
 24 44  1  0  0  0
 25 45  1  0  0  0
 25 46  1  0  0  0
 26 27  1  0  0  0
 26 28  2  0  0  0
 28 47  1  0  0  0
M  END
> <s_m_entry_id>
25620

> <s_m_entry_name>
dock_pv.272

> <s_m_Source_Path>
/home/csk/Desktop/cluster/DUD-E-result/pyrd

> <s_m_Source_File>
dock_pv.maegz

> <i_m_Source_File_Index>
272

> <chembl_id>
CHEMBL2263637

> <chembl_pref_name>
None

> <i_lp_mmshare_version>
53161

> <r_lp_tautomer_probability>
1

> <s_lp_Force_Field>
OPLS_2005

> <r_lp_Energy>
35.341032

> <b_lp_Chiralities_Consistent>
1

> <s_lp_Variant>
CHEMBL1966_lig191-1

> <s_i_glide_gridfile>
glide-grid_1d3g

> <i_i_glide_lignum>
236

> <i_i_glide_rotatable_bonds>
7

> <r_i_docking_score>
-9.40813944765192

> <r_i_glide_ligand_efficiency>
-0.336004980273283

> <r_i_glide_ligand_efficiency_sa>
-1.02030901645986

> <r_i_glide_ligand_efficiency_ln>
-2.17167481949541

> <r_i_glide_gscore>
-9.40813944765192

> <r_i_glide_lipo>
-5.76464542413875

> <r_i_glide_hbond>
-0.0833539848045963

> <r_i_glide_metal>
0

> <r_i_glide_rewards>
-1.64209657357652

> <r_i_glide_evdw>
-39.7749443054199

> <r_i_glide_ecoul>
-4.04003000259399

> <r_i_glide_erotb>
0.676708250528051

> <r_i_glide_esite>
0

> <r_i_glide_emodel>
-59.9708048167253

> <r_i_glide_energy>
-43.8149743080139

> <r_i_glide_einternal>
7.38669490814209

> <i_i_glide_confnum>
14

> <i_i_glide_posenum>
63

> <r_i_glide_eff_state_penalty>
0

> <s_user_duplicate_titles>
CHEMBL1966_lig191

> <i_f3d_flags>
0

> <s_m_subgroup_title>
dock_pv

> <s_m_subgroupid>
dock_pv

> <b_m_subgroup_collapsed>
1

$$$$
CHEMBL1966_lig107
                    3D
 Schrodinger Suite 2021-1.
 34 36  0  0  1  0            999 V2000
   47.6257   39.3573   -1.7715 C   0  0  0  0  0  0
   48.2166   39.6381   -0.5468 C   0  0  0  0  0  0
   49.2158   40.6103   -0.4247 C   0  0  0  0  0  0
   48.0751   40.0097   -2.9135 C   0  0  0  0  0  0
   49.0761   41.0316   -2.8340 C   0  0  0  0  0  0
   49.6221   41.3550   -1.5565 C   0  0  0  0  0  0
   50.4527   42.4173   -1.3705 N   0  0  0  0  0  0
   50.8213   43.1875   -2.4316 C   0  0  0  0  0  0
   50.4258   42.8677   -3.7341 C   0  0  0  0  0  0
   49.5125   41.8189   -3.9389 C   0  0  0  0  0  0
   51.6206   44.4120   -2.0813 C   0  0  0  0  0  0
   51.3042   45.1517   -0.9304 C   0  0  0  0  0  0
   52.1506   46.1590   -0.4761 C   0  0  0  0  0  0
   53.3095   46.4564   -1.1878 C   0  0  0  0  0  0
   53.5914   45.8146   -2.3871 C   0  0  0  0  0  0
   52.7467   44.8115   -2.8360 C   0  0  0  0  0  0
   50.8798   43.6102   -4.7995 O   0  0  0  0  0  0
   48.8753   41.6460   -5.2771 C   0  0  0  0  0  0
   48.3450   42.8090   -5.7043 O   0  0  0  0  0  0
   48.8216   40.5980   -5.9063 O   0  0  0  0  0  0
   54.4275   47.6091   -0.5672 Cl  0  0  0  0  0  0
   46.5087   38.3374   -1.8500 C   0  0  0  0  0  0
   47.8983   39.0653    0.3012 H   0  0  0  0  0  0
   49.6381   40.8315    0.5447 H   0  0  0  0  0  0
   47.6216   39.7631   -3.8614 H   0  0  0  0  0  0
   50.4327   44.9005   -0.3433 H   0  0  0  0  0  0
   51.9270   46.6798    0.4440 H   0  0  0  0  0  0
   54.4870   46.0590   -2.9402 H   0  0  0  0  0  0
   53.0281   44.2623   -3.7223 H   0  0  0  0  0  0
   50.5212   43.3259   -5.6445 H   0  0  0  0  0  0
   48.2830   43.5368   -5.0824 H   0  0  0  0  0  0
   46.2875   38.0547   -2.8792 H   0  0  0  0  0  0
   46.7895   37.4354   -1.3062 H   0  0  0  0  0  0
   45.6043   38.7289   -1.3840 H   0  0  0  0  0  0
  1  2  2  0  0  0
  1  4  1  0  0  0
  1 22  1  0  0  0
  2  3  1  0  0  0
  2 23  1  0  0  0
  3  6  2  0  0  0
  3 24  1  0  0  0
  4  5  2  0  0  0
  4 25  1  0  0  0
  5  6  1  0  0  0
  5 10  1  0  0  0
  6  7  1  0  0  0
  7  8  2  0  0  0
  8 11  1  0  0  0
  8  9  1  0  0  0
  9 17  1  0  0  0
  9 10  2  0  0  0
 10 18  1  0  0  0
 11 12  2  0  0  0
 11 16  1  0  0  0
 12 13  1  0  0  0
 12 26  1  0  0  0
 13 14  2  0  0  0
 13 27  1  0  0  0
 14 15  1  0  0  0
 14 21  1  0  0  0
 15 16  2  0  0  0
 15 28  1  0  0  0
 16 29  1  0  0  0
 17 30  1  0  0  0
 18 19  1  0  0  0
 18 20  2  0  0  0
 19 31  1  0  0  0
 22 32  1  0  0  0
 22 33  1  0  0  0
 22 34  1  0  0  0
M  END
> <s_m_entry_id>
25621

> <s_m_entry_name>
dock_pv.273

> <s_m_Source_Path>
/home/csk/Desktop/cluster/DUD-E-result/pyrd

> <s_m_Source_File>
dock_pv.maegz

> <i_m_Source_File_Index>
273

> <chembl_id>
CHEMBL217918

> <chembl_pref_name>
None

> <i_lp_mmshare_version>
53161

> <r_lp_tautomer_probability>
1

> <s_lp_Force_Field>
OPLS_2005

> <r_lp_Energy>
25.350237

> <b_lp_Chiralities_Consistent>
1

> <s_lp_Variant>
CHEMBL1966_lig107-1

> <s_i_glide_gridfile>
glide-grid_1d3g

> <i_i_glide_lignum>
116

> <i_i_glide_rotatable_bonds>
4

> <r_i_docking_score>
-9.39697629499357

> <r_i_glide_ligand_efficiency>
-0.427135286136071

> <r_i_glide_ligand_efficiency_sa>
-1.19684987003084

> <r_i_glide_ligand_efficiency_ln>
-2.29696376953499

> <r_i_glide_gscore>
-9.39697629499357

> <r_i_glide_lipo>
-4.90948452049558

> <r_i_glide_hbond>
-0.16

> <r_i_glide_metal>
0

> <r_i_glide_rewards>
-2.10708756485804

> <r_i_glide_evdw>
-29.7573776245117

> <r_i_glide_ecoul>
-7.40020322799683

> <r_i_glide_erotb>
0.377495155785152

> <r_i_glide_esite>
0

> <r_i_glide_emodel>
-52.8347917471517

> <r_i_glide_energy>
-37.1575808525085

> <r_i_glide_einternal>
2.84901976585388

> <i_i_glide_confnum>
3

> <i_i_glide_posenum>
105

> <r_i_glide_eff_state_penalty>
0

> <s_user_duplicate_titles>
CHEMBL1966_lig107,365674

> <i_f3d_flags>
0

> <s_m_subgroup_title>
dock_pv

> <s_m_subgroupid>
dock_pv

> <b_m_subgroup_collapsed>
1

$$$$
CHEMBL1966_lig584
                    3D
 Schrodinger Suite 2021-1.
 45 48  0  0  1  0            999 V2000
   47.8891   39.3827   -0.6178 C   0  0  0  0  0  0
   47.3550   38.9758   -1.8334 C   0  0  0  0  0  0
   47.7292   39.6108   -3.0146 C   0  0  0  0  0  0
   48.8241   40.4099   -0.5624 C   0  0  0  0  0  0
   49.2230   41.0796   -1.7439 C   0  0  0  0  0  0
   48.6522   40.7028   -2.9995 C   0  0  0  0  0  0
   49.0218   41.4849   -4.1454 C   0  0  0  0  0  0
   49.9270   42.5371   -3.9777 C   0  0  0  0  0  0
   50.4271   42.8396   -2.7142 C   0  0  0  0  0  0
   50.0866   42.1222   -1.6144 N   0  0  0  0  0  0
   51.3775   43.9665   -2.4989 C   0  0  0  0  0  0
   51.2863   44.8101   -1.3782 C   0  0  0  0  0  0
   52.2499   45.7979   -1.1570 C   0  0  0  0  0  0
   53.3040   45.9678   -2.0618 C   0  0  0  0  0  0
   53.3565   45.1736   -3.2045 C   0  0  0  0  0  0
   52.4226   44.1654   -3.4080 C   0  0  0  0  0  0
   54.3292   46.8772   -1.8635 N   0  0  0  0  0  0
   48.4820   41.2317   -5.5242 C   0  0  0  0  0  0
   47.1259   41.1116   -5.6158 O   0  0  0  0  0  0
   49.2230   41.2015   -6.4989 O   0  0  0  0  0  0
   54.8941   47.1574   -0.5365 C   0  0  0  0  0  0
   56.3979   47.4476   -0.6525 C   0  0  0  0  0  0
   56.6696   48.6518   -1.5621 C   0  0  0  0  0  0
   56.0012   48.4196   -2.9250 C   0  0  0  0  0  0
   54.5180   48.0033   -2.7948 C   0  0  0  0  0  0
   47.5917   38.8888    0.2937 H   0  0  0  0  0  0
   46.6465   38.1604   -1.8604 H   0  0  0  0  0  0
   47.3030   39.2666   -3.9430 H   0  0  0  0  0  0
   49.2516   40.7069    0.3841 H   0  0  0  0  0  0
   50.2144   43.1448   -4.8256 H   0  0  0  0  0  0
   50.4884   44.6804   -0.6611 H   0  0  0  0  0  0
   52.1846   46.4165   -0.2736 H   0  0  0  0  0  0
   54.1695   45.2988   -3.9028 H   0  0  0  0  0  0
   52.5256   43.5232   -4.2708 H   0  0  0  0  0  0
   46.6838   41.3169   -4.7891 H   0  0  0  0  0  0
   54.3945   48.0102   -0.0891 H   0  0  0  0  0  0
   54.7494   46.3021    0.1252 H   0  0  0  0  0  0
   56.8230   47.6099    0.3359 H   0  0  0  0  0  0
   56.8884   46.5581   -1.0467 H   0  0  0  0  0  0
   57.7419   48.8047   -1.6829 H   0  0  0  0  0  0
   56.2745   49.5579   -1.1012 H   0  0  0  0  0  0
   56.5403   47.6666   -3.5001 H   0  0  0  0  0  0
   56.0666   49.3307   -3.5201 H   0  0  0  0  0  0
   54.1616   47.7180   -3.7866 H   0  0  0  0  0  0
   53.8995   48.8417   -2.4733 H   0  0  0  0  0  0
  1  2  2  0  0  0
  1  4  1  0  0  0
  1 26  1  0  0  0
  2  3  1  0  0  0
  2 27  1  0  0  0
  3  6  2  0  0  0
  3 28  1  0  0  0
  4  5  2  0  0  0
  4 29  1  0  0  0
  5  6  1  0  0  0
  5 10  1  0  0  0
  6  7  1  0  0  0
  7  8  2  0  0  0
  7 18  1  0  0  0
  8  9  1  0  0  0
  8 30  1  0  0  0
  9 10  2  0  0  0
  9 11  1  0  0  0
 11 12  2  0  0  0
 11 16  1  0  0  0
 12 13  1  0  0  0
 12 31  1  0  0  0
 13 14  2  0  0  0
 13 32  1  0  0  0
 14 15  1  0  0  0
 14 17  1  0  0  0
 15 16  2  0  0  0
 15 33  1  0  0  0
 16 34  1  0  0  0
 17 21  1  0  0  0
 17 25  1  0  0  0
 18 19  1  0  0  0
 18 20  2  0  0  0
 19 35  1  0  0  0
 21 22  1  0  0  0
 21 36  1  0  0  0
 21 37  1  0  0  0
 22 23  1  0  0  0
 22 38  1  0  0  0
 22 39  1  0  0  0
 23 24  1  0  0  0
 23 40  1  0  0  0
 23 41  1  0  0  0
 24 25  1  0  0  0
 24 42  1  0  0  0
 24 43  1  0  0  0
 25 44  1  0  0  0
 25 45  1  0  0  0
M  END
> <s_m_entry_id>
25622

> <s_m_entry_name>
dock_pv.274

> <s_m_Source_Path>
/home/csk/Desktop/cluster/DUD-E-result/pyrd

> <s_m_Source_File>
dock_pv.maegz

> <i_m_Source_File_Index>
274

> <chembl_id>
CHEMBL4226260

> <chembl_pref_name>
None

> <i_lp_mmshare_version>
53161

> <r_lp_tautomer_probability>
1

> <s_lp_Force_Field>
OPLS_2005

> <r_lp_Energy>
36.950844

> <b_lp_Chiralities_Consistent>
1

> <s_lp_Variant>
CHEMBL1966_lig584-1

> <s_i_glide_gridfile>
glide-grid_1d3g

> <i_i_glide_lignum>
638

> <i_i_glide_rotatable_bonds>
4

> <r_i_docking_score>
-9.39399833935476

> <r_i_glide_ligand_efficiency>
-0.37575993357419

> <r_i_glide_ligand_efficiency_sa>
-1.09872870990173

> <r_i_glide_ligand_efficiency_ln>
-2.22665912184041

> <r_i_glide_gscore>
-9.39399833935476

> <r_i_glide_lipo>
-5.66361614803967

> <r_i_glide_hbond>
-0.16

> <r_i_glide_metal>
0

> <r_i_glide_rewards>
-1.47131997399906

> <r_i_glide_evdw>
-38.4118194580078

> <r_i_glide_ecoul>
-4.59906196594238

> <r_i_glide_erotb>
0.511388050475717

> <r_i_glide_esite>
0

> <r_i_glide_emodel>
-64.7945137492327

> <r_i_glide_energy>
-43.0108814239502

> <r_i_glide_einternal>
4.64485025405884

> <i_i_glide_confnum>
96

> <i_i_glide_posenum>
74

> <r_i_glide_eff_state_penalty>
0

> <s_user_duplicate_titles>
CHEMBL1966_lig584

> <i_f3d_flags>
0

> <s_m_subgroup_title>
dock_pv

> <s_m_subgroupid>
dock_pv

> <b_m_subgroup_collapsed>
1

$$$$
CHEMBL1966_lig181
                    3D
 Schrodinger Suite 2021-1.
 43 46  0  0  1  0            999 V2000
   48.2418   39.8990   -0.7206 O   0  0  0  0  0  0
   49.2230   40.8100   -0.9824 C   0  0  0  0  0  0
   49.9768   41.2100   -0.0990 O   0  0  0  0  0  0
   49.2866   41.3033   -2.4201 C   0  0  0  0  0  0
   48.5041   40.6639   -3.3939 C   0  0  0  0  0  0
   48.3682   41.2234   -4.6640 C   0  0  0  0  0  0
   49.1459   42.3264   -4.9937 C   0  0  0  0  0  0
   49.9631   42.9216   -4.1030 N   0  0  0  0  0  0
   50.0229   42.4472   -2.8311 C   0  0  0  0  0  0
   50.7734   43.2155   -1.9269 N   0  0  0  0  0  0
   51.6219   44.3306   -2.0990 C   0  0  0  0  0  0
   52.5507   44.4100   -3.1510 C   0  0  0  0  0  0
   52.6182   43.4491   -4.0990 F   0  0  0  0  0  0
   53.5192   45.4114   -3.1507 C   0  0  0  0  0  0
   53.6044   46.3397   -2.1095 C   0  0  0  0  0  0
   52.6356   46.2921   -1.1006 C   0  0  0  0  0  0
   51.6587   45.2976   -1.0914 C   0  0  0  0  0  0
   50.8230   45.2100   -0.0361 F   0  0  0  0  0  0
   54.7373   47.3077   -2.0766 C   0  0  0  0  0  0
   55.0625   48.0100   -3.2466 C   0  0  0  0  0  0
   56.1426   48.8898   -3.2836 C   0  0  0  0  0  0
   56.9108   49.0965   -2.1426 C   0  0  0  0  0  0
   56.6094   48.4022   -0.9751 C   0  0  0  0  0  0
   55.5422   47.5052   -0.9342 C   0  0  0  0  0  0
   55.3114   46.6174    0.5358 Cl  0  0  0  0  0  0
   47.2415   40.8068   -5.5770 C   0  0  0  0  0  0
   45.9315   40.2563   -5.0439 C   0  0  0  0  0  0
   45.9614   41.6100   -5.6990 C   0  0  0  0  0  0
   48.2604   39.6185    0.1985 H   0  0  0  0  0  0
   47.8966   39.8076   -3.1362 H   0  0  0  0  0  0
   49.0413   42.8245   -5.9473 H   0  0  0  0  0  0
   50.6991   42.8810   -0.9743 H   0  0  0  0  0  0
   54.2611   45.4177   -3.9348 H   0  0  0  0  0  0
   52.6709   46.9922   -0.2790 H   0  0  0  0  0  0
   54.4711   47.8758   -4.1414 H   0  0  0  0  0  0
   56.3757   49.4236   -4.1936 H   0  0  0  0  0  0
   57.7449   49.7828   -2.1642 H   0  0  0  0  0  0
   57.2230   48.5424   -0.0990 H   0  0  0  0  0  0
   47.6104   40.3794   -6.4990 H   0  0  0  0  0  0
   45.4524   39.4294   -5.5683 H   0  0  0  0  0  0
   45.7580   40.2115   -3.9684 H   0  0  0  0  0  0
   45.8338   42.5115   -5.1059 H   0  0  0  0  0  0
   45.4861   41.7387   -6.6657 H   0  0  0  0  0  0
  1  2  1  0  0  0
  1 29  1  0  0  0
  2  3  2  0  0  0
  2  4  1  0  0  0
  4  5  2  0  0  0
  4  9  1  0  0  0
  5  6  1  0  0  0
  5 30  1  0  0  0
  6  7  2  0  0  0
  6 26  1  0  0  0
  7  8  1  0  0  0
  7 31  1  0  0  0
  8  9  2  0  0  0
  9 10  1  0  0  0
 10 11  1  0  0  0
 10 32  1  0  0  0
 11 12  2  0  0  0
 11 17  1  0  0  0
 12 13  1  0  0  0
 12 14  1  0  0  0
 14 15  2  0  0  0
 14 33  1  0  0  0
 15 16  1  0  0  0
 15 19  1  0  0  0
 16 17  2  0  0  0
 16 34  1  0  0  0
 17 18  1  0  0  0
 19 20  2  0  0  0
 19 24  1  0  0  0
 20 21  1  0  0  0
 20 35  1  0  0  0
 21 22  2  0  0  0
 21 36  1  0  0  0
 22 23  1  0  0  0
 22 37  1  0  0  0
 23 24  2  0  0  0
 23 38  1  0  0  0
 24 25  1  0  0  0
 26 27  1  0  0  0
 26 28  1  0  0  0
 26 39  1  0  0  0
 27 28  1  0  0  0
 27 40  1  0  0  0
 27 41  1  0  0  0
 28 42  1  0  0  0
 28 43  1  0  0  0
M  END
> <s_m_entry_id>
25623

> <s_m_entry_name>
dock_pv.275

> <s_m_Source_Path>
/home/csk/Desktop/cluster/DUD-E-result/pyrd

> <s_m_Source_File>
dock_pv.maegz

> <i_m_Source_File_Index>
275

> <chembl_id>
CHEMBL2263447

> <chembl_pref_name>
None

> <i_lp_mmshare_version>
53161

> <r_lp_tautomer_probability>
1

> <s_lp_Force_Field>
OPLS_2005

> <r_lp_Energy>
35.51367

> <b_lp_Chiralities_Consistent>
1

> <s_lp_Variant>
CHEMBL1966_lig181-1

> <s_i_glide_gridfile>
glide-grid_1d3g

> <i_i_glide_lignum>
226

> <i_i_glide_rotatable_bonds>
6

> <r_i_docking_score>
-9.38580566979435

> <r_i_glide_ligand_efficiency>
-0.335207345349798

> <r_i_glide_ligand_efficiency_sa>
-1.01788692705031

> <r_i_glide_ligand_efficiency_ln>
-2.16651952781767

> <r_i_glide_gscore>
-9.38580566979435

> <r_i_glide_lipo>
-5.36194509500726

> <r_i_glide_hbond>
0

> <r_i_glide_metal>
0

> <r_i_glide_rewards>
-2.29930615893514

> <r_i_glide_evdw>
-39.2266540527344

> <r_i_glide_ecoul>
-2.49005055427551

> <r_i_glide_erotb>
0.610285869926103

> <r_i_glide_esite>
0

> <r_i_glide_emodel>
-50.5062375961708

> <r_i_glide_energy>
-41.7167046070099

> <r_i_glide_einternal>
9.29914474487305

> <i_i_glide_confnum>
196

> <i_i_glide_posenum>
333

> <r_i_glide_eff_state_penalty>
0

> <s_user_duplicate_titles>
CHEMBL1966_lig181

> <i_f3d_flags>
0

> <s_m_subgroup_title>
dock_pv

> <s_m_subgroupid>
dock_pv

> <b_m_subgroup_collapsed>
1

$$$$
CHEMBL1966_lig726
                    3D
 Schrodinger Suite 2021-1.
 43 46  0  0  1  0            999 V2000
   53.5487   44.8054   -3.2580 N   0  0  0  0  0  0
   52.4231   44.8100   -2.4990 C   0  0  0  0  0  0
   52.3000   45.6289   -1.3635 C   0  0  0  0  0  0
   53.4353   46.3192   -0.8820 C   0  0  0  0  0  0
   54.6019   45.5902   -2.9034 C   0  0  0  0  0  0
   54.5843   46.4175   -1.7422 C   0  0  0  0  0  0
   53.5030   46.7937    0.5596 C   0  0  0  0  0  0
   55.7699   45.5413   -3.6989 C   0  0  0  0  0  0
   51.4040   43.7514   -2.8538 C   0  0  0  0  0  0
   55.7122   47.2719   -1.5192 C   0  0  0  0  0  0
   49.4992   41.7231   -3.4205 C   0  0  0  0  0  0
   52.5223   47.0978    1.2349 O   0  0  0  0  0  0
   51.0176   43.4759   -4.1695 C   0  0  0  0  0  0
   50.8230   42.9861   -1.8363 C   0  0  0  0  0  0
   49.9107   41.9872   -2.1105 C   0  0  0  0  0  0
   50.0619   42.4955   -4.4472 C   0  0  0  0  0  0
   48.4044   40.7308   -3.6700 C   0  0  0  0  0  0
   56.8500   46.3733   -3.4436 C   0  0  0  0  0  0
   54.7466   46.7269    1.1008 O   0  0  0  0  0  0
   56.8134   47.2494   -2.3689 C   0  0  0  0  0  0
   50.9400   45.7893   -0.6938 C   0  0  0  0  0  0
   58.2275   46.3217   -4.4820 Cl  0  0  0  0  0  0
   48.0241   39.8130   -2.6731 C   0  0  0  0  0  0
   47.6043   40.8103   -4.8242 C   0  0  0  0  0  0
   46.8448   39.0878   -2.7638 C   0  0  0  0  0  0
   46.3965   40.1217   -4.8977 C   0  0  0  0  0  0
   46.0233   39.2707   -3.8636 C   0  0  0  0  0  0
   55.8298   44.8444   -4.5130 H   0  0  0  0  0  0
   55.7215   47.9659   -0.6927 H   0  0  0  0  0  0
   51.4418   44.0385   -4.9836 H   0  0  0  0  0  0
   51.1054   43.1426   -0.8069 H   0  0  0  0  0  0
   49.5018   41.4605   -1.2637 H   0  0  0  0  0  0
   49.7829   42.3438   -5.4781 H   0  0  0  0  0  0
   54.7208   46.8630    2.0542 H   0  0  0  0  0  0
   57.6498   47.9064   -2.1804 H   0  0  0  0  0  0
   50.8139   46.8524   -0.4984 H   0  0  0  0  0  0
   50.1035   45.5144   -1.3357 H   0  0  0  0  0  0
   50.8806   45.2445    0.2494 H   0  0  0  0  0  0
   48.6110   39.6715   -1.7814 H   0  0  0  0  0  0
   47.8274   41.5128   -5.6117 H   0  0  0  0  0  0
   46.5617   38.4057   -1.9756 H   0  0  0  0  0  0
   45.7449   40.2478   -5.7493 H   0  0  0  0  0  0
   45.1022   38.7175   -3.9436 H   0  0  0  0  0  0
  1  2  2  0  0  0
  1  5  1  0  0  0
  2  3  1  0  0  0
  2  9  1  0  0  0
  3 21  1  0  0  0
  3  4  2  0  0  0
  4  6  1  0  0  0
  4  7  1  0  0  0
  5  6  1  0  0  0
  5  8  2  0  0  0
  6 10  2  0  0  0
  7 12  2  0  0  0
  7 19  1  0  0  0
  8 18  1  0  0  0
  8 28  1  0  0  0
  9 13  2  0  0  0
  9 14  1  0  0  0
 10 20  1  0  0  0
 10 29  1  0  0  0
 11 15  1  0  0  0
 11 17  1  0  0  0
 11 16  2  0  0  0
 13 16  1  0  0  0
 13 30  1  0  0  0
 14 15  2  0  0  0
 14 31  1  0  0  0
 15 32  1  0  0  0
 16 33  1  0  0  0
 17 23  2  0  0  0
 17 24  1  0  0  0
 18 20  2  0  0  0
 18 22  1  0  0  0
 19 34  1  0  0  0
 20 35  1  0  0  0
 21 36  1  0  0  0
 21 37  1  0  0  0
 21 38  1  0  0  0
 23 25  1  0  0  0
 23 39  1  0  0  0
 24 26  2  0  0  0
 24 40  1  0  0  0
 25 27  2  0  0  0
 25 41  1  0  0  0
 26 27  1  0  0  0
 26 42  1  0  0  0
 27 43  1  0  0  0
M  END
> <s_m_entry_id>
25624

> <s_m_entry_name>
dock_pv.276

> <s_m_Source_Path>
/home/csk/Desktop/cluster/DUD-E-result/pyrd

> <s_m_Source_File>
dock_pv.maegz

> <i_m_Source_File_Index>
276

> <chembl_id>
CHEMBL40220

> <chembl_pref_name>
None

> <i_lp_mmshare_version>
53161

> <r_lp_tautomer_probability>
1

> <s_lp_Force_Field>
OPLS_2005

> <r_lp_Energy>
32.864993

> <b_lp_Chiralities_Consistent>
1

> <s_lp_Variant>
CHEMBL1966_lig726-1

> <s_i_glide_gridfile>
glide-grid_1d3g

> <i_i_glide_lignum>
797

> <i_i_glide_rotatable_bonds>
4

> <r_i_docking_score>
-9.3795529994551

> <r_i_glide_ligand_efficiency>
-0.34739085183167

> <r_i_glide_ligand_efficiency_sa>
-1.04217255435007

> <r_i_glide_ligand_efficiency_ln>
-2.18340530425665

> <r_i_glide_gscore>
-9.3795529994551

> <r_i_glide_lipo>
-5.8334376776448

> <r_i_glide_hbond>
0

> <r_i_glide_metal>
0

> <r_i_glide_rewards>
-1.84221539166567

> <r_i_glide_evdw>
-36.839054107666

> <r_i_glide_ecoul>
-1.84593105316162

> <r_i_glide_erotb>
0.414942433212914

> <r_i_glide_esite>
0

> <r_i_glide_emodel>
-46.4444938266211

> <r_i_glide_energy>
-38.6849851608276

> <r_i_glide_einternal>
4.25637245178223

> <i_i_glide_confnum>
51

> <i_i_glide_posenum>
395

> <r_i_glide_eff_state_penalty>
0

> <s_user_duplicate_titles>
CHEMBL1966_lig726,56112

> <i_f3d_flags>
0

> <s_m_subgroup_title>
dock_pv

> <s_m_subgroupid>
dock_pv

> <b_m_subgroup_collapsed>
1

$$$$
CHEMBL1966_lig21
                    3D
 Schrodinger Suite 2021-1.
 44 46  0  0  1  0            999 V2000
   50.8417   43.7916   -2.0318 C   0  0  0  0  0  0
   52.8385   45.7612   -1.6541 C   0  0  0  0  0  0
   50.8230   44.6255   -0.9050 C   0  0  0  0  0  0
   51.8273   44.0100   -3.0221 C   0  0  0  0  0  0
   52.8232   44.9702   -2.8095 C   0  0  0  0  0  0
   51.7966   45.6109   -0.7275 C   0  0  0  0  0  0
   49.8905   42.7523   -1.9943 N   0  0  0  0  0  0
   49.7716   41.6215   -2.7137 C   0  0  0  0  0  0
   48.8230   40.6805   -2.1663 C   0  0  0  0  0  0
   47.8584   39.9955   -2.8484 C   0  0  0  0  0  0
   54.0087   46.6416   -1.3748 C   0  0  0  0  0  0
   57.4132   49.3757   -3.3502 C   0  0  0  0  0  0
   47.4879   40.1567   -4.2466 C   0  0  0  0  0  0
   54.4676   47.5779   -2.3134 C   0  0  0  0  0  0
   56.0230   49.2093   -3.0727 O   0  0  0  0  0  0
   50.4230   41.3448   -3.6990 O   0  0  0  0  0  0
   48.2390   40.4104   -5.1852 O   0  0  0  0  0  0
   55.6356   48.3152   -2.0951 C   0  0  0  0  0  0
   53.8326   45.0816   -3.6990 F   0  0  0  0  0  0
   51.7617   46.3778    0.3888 F   0  0  0  0  0  0
   51.8761   43.3253   -4.1851 F   0  0  0  0  0  0
   49.8861   44.4413    0.0595 F   0  0  0  0  0  0
   58.0274   50.0905   -2.4067 F   0  0  0  0  0  0
   58.0230   48.2015   -3.5194 F   0  0  0  0  0  0
   57.5176   50.0430   -4.4980 F   0  0  0  0  0  0
   46.1451   40.0096   -4.4190 O   0  0  0  0  0  0
   48.8172   40.3413   -0.6872 C   0  0  0  0  0  0
   47.1197   39.0354   -1.9276 C   0  0  0  0  0  0
   54.7297   46.4784   -0.1861 C   0  0  0  0  0  0
   47.7268   39.2787   -0.5529 C   0  0  0  0  0  0
   55.8892   47.2101    0.0489 C   0  0  0  0  0  0
   56.3403   48.1265   -0.8990 C   0  0  0  0  0  0
   49.2576   42.8236   -1.2124 H   0  0  0  0  0  0
   53.9295   47.7162   -3.2404 H   0  0  0  0  0  0
   45.8964   40.1845   -5.3259 H   0  0  0  0  0  0
   48.5735   41.2100   -0.0985 H   0  0  0  0  0  0
   49.7889   40.0100   -0.3322 H   0  0  0  0  0  0
   47.2789   38.0088   -2.2576 H   0  0  0  0  0  0
   46.0434   39.2166   -1.9199 H   0  0  0  0  0  0
   54.4077   45.7587    0.5533 H   0  0  0  0  0  0
   46.9530   39.6097    0.1404 H   0  0  0  0  0  0
   48.1259   38.3541   -0.1337 H   0  0  0  0  0  0
   56.4387   47.0712    0.9689 H   0  0  0  0  0  0
   57.2353   48.6879   -0.6809 H   0  0  0  0  0  0
  1  3  2  0  0  0
  1  4  1  0  0  0
  1  7  1  0  0  0
  2  5  1  0  0  0
  2 11  1  0  0  0
  2  6  2  0  0  0
  3  6  1  0  0  0
  3 22  1  0  0  0
  4  5  2  0  0  0
  4 21  1  0  0  0
  5 19  1  0  0  0
  6 20  1  0  0  0
  7  8  1  0  0  0
  7 33  1  0  0  0
  8  9  1  0  0  0
  8 16  2  0  0  0
  9 10  2  0  0  0
  9 27  1  0  0  0
 10 13  1  0  0  0
 10 28  1  0  0  0
 11 14  1  0  0  0
 11 29  2  0  0  0
 12 15  1  0  0  0
 12 23  1  0  0  0
 12 24  1  0  0  0
 12 25  1  0  0  0
 13 17  2  0  0  0
 13 26  1  0  0  0
 14 18  2  0  0  0
 14 34  1  0  0  0
 15 18  1  0  0  0
 18 32  1  0  0  0
 26 35  1  0  0  0
 27 30  1  0  0  0
 27 36  1  0  0  0
 27 37  1  0  0  0
 28 30  1  0  0  0
 28 38  1  0  0  0
 28 39  1  0  0  0
 29 31  1  0  0  0
 29 40  1  0  0  0
 30 41  1  0  0  0
 30 42  1  0  0  0
 31 32  2  0  0  0
 31 43  1  0  0  0
 32 44  1  0  0  0
M  END
> <s_m_entry_id>
25625

> <s_m_entry_name>
dock_pv.277

> <s_m_Source_Path>
/home/csk/Desktop/cluster/DUD-E-result/pyrd

> <s_m_Source_File>
dock_pv.maegz

> <i_m_Source_File_Index>
277

> <chembl_id>
CHEMBL154623

> <chembl_pref_name>
None

> <i_lp_mmshare_version>
53161

> <r_lp_tautomer_probability>
1

> <s_lp_Force_Field>
OPLS_2005

> <r_lp_Energy>
44.747311

> <b_lp_Chiralities_Consistent>
1

> <s_lp_Variant>
CHEMBL1966_lig21-1

> <s_i_glide_gridfile>
glide-grid_1d3g

> <i_i_glide_lignum>
24

> <i_i_glide_rotatable_bonds>
8

> <r_i_docking_score>
-9.37905214098639

> <r_i_glide_ligand_efficiency>
-0.293095379405825

> <r_i_glide_ligand_efficiency_sa>
-0.930519826116671

> <r_i_glide_ligand_efficiency_ln>
-2.10022543767228

> <r_i_glide_gscore>
-9.37905214098639

> <r_i_glide_lipo>
-5.15713348743481

> <r_i_glide_hbond>
0

> <r_i_glide_metal>
0

> <r_i_glide_rewards>
-2.50207136139318

> <r_i_glide_evdw>
-43.708366394043

> <r_i_glide_ecoul>
-0.651279449462891

> <r_i_glide_erotb>
0.563262944963184

> <r_i_glide_esite>
0

> <r_i_glide_emodel>
-57.8187726990746

> <r_i_glide_energy>
-44.3596458435059

> <r_i_glide_einternal>
14.9108266830444

> <i_i_glide_confnum>
96

> <i_i_glide_posenum>
352

> <r_i_glide_eff_state_penalty>
0

> <s_user_duplicate_titles>
CHEMBL1966_lig21,257152

> <i_f3d_flags>
0

> <s_m_subgroup_title>
dock_pv

> <s_m_subgroupid>
dock_pv

> <b_m_subgroup_collapsed>
1

$$$$
CHEMBL1966_lig85
                    3D
 Schrodinger Suite 2021-1.
 40 42  0  0  1  0            999 V2000
   52.8226   44.9755   -2.7073 C   0  0  0  0  0  0
   51.8353   44.0101   -2.9296 C   0  0  0  0  0  0
   50.8234   43.7693   -1.9794 C   0  0  0  0  0  0
   50.7618   44.6230   -0.8710 C   0  0  0  0  0  0
   51.7345   45.6099   -0.6550 C   0  0  0  0  0  0
   52.8207   45.7466   -1.5384 C   0  0  0  0  0  0
   54.0178   46.5770   -1.2044 C   0  0  0  0  0  0
   54.7016   46.3500   -0.0021 C   0  0  0  0  0  0
   55.8645   47.0466    0.3079 C   0  0  0  0  0  0
   56.3506   48.0095   -0.5676 C   0  0  0  0  0  0
   55.6848   48.2611   -1.7599 C   0  0  0  0  0  0
   54.5362   47.5334   -2.0900 C   0  0  0  0  0  0
   49.8975   42.6867   -2.0275 N   0  0  0  0  0  0
   49.6669   41.8045   -3.0349 C   0  0  0  0  0  0
   48.6139   40.8090   -2.8223 C   0  0  0  0  0  0
   50.2650   41.8315   -4.0990 O   0  0  0  0  0  0
   47.6705   40.3731   -3.7912 C   0  0  0  0  0  0
   46.5404   39.2102   -3.1285 S   0  0  0  0  0  0
   47.3635   39.2089   -1.6166 C   0  0  0  0  0  0
   48.4236   40.0978   -1.6118 C   0  0  0  0  0  0
   47.4751   40.8099   -5.1585 C   0  0  0  0  0  0
   46.2084   41.2711   -5.3671 O   0  0  0  0  0  0
   48.3560   40.8216   -6.0147 O   0  0  0  0  0  0
   53.8958   47.7639   -3.2746 O   0  0  0  0  0  0
   54.6783   47.5161   -4.4267 C   0  0  0  0  0  0
   51.6232   46.5902    0.7663 Cl  0  0  0  0  0  0
   53.6346   45.0564   -3.4129 H   0  0  0  0  0  0
   51.9465   43.4053   -3.8144 H   0  0  0  0  0  0
   49.9781   44.5002   -0.1373 H   0  0  0  0  0  0
   54.3422   45.6085    0.6962 H   0  0  0  0  0  0
   56.3808   46.8502    1.2365 H   0  0  0  0  0  0
   57.2332   48.5738   -0.3170 H   0  0  0  0  0  0
   56.0637   49.0204   -2.4274 H   0  0  0  0  0  0
   49.3233   42.5860   -1.2055 H   0  0  0  0  0  0
   47.0291   38.5739   -0.8083 H   0  0  0  0  0  0
   49.0481   40.2362   -0.7405 H   0  0  0  0  0  0
   46.1641   41.9030   -6.0896 H   0  0  0  0  0  0
   54.0313   47.6070   -5.2984 H   0  0  0  0  0  0
   55.4954   48.2334   -4.4984 H   0  0  0  0  0  0
   55.1062   46.5127   -4.4269 H   0  0  0  0  0  0
  1  6  2  0  0  0
  1  2  1  0  0  0
  1 27  1  0  0  0
  2  3  2  0  0  0
  2 28  1  0  0  0
  3 13  1  0  0  0
  3  4  1  0  0  0
  4  5  2  0  0  0
  4 29  1  0  0  0
  5  6  1  0  0  0
  5 26  1  0  0  0
  6  7  1  0  0  0
  7  8  2  0  0  0
  7 12  1  0  0  0
  8  9  1  0  0  0
  8 30  1  0  0  0
  9 10  2  0  0  0
  9 31  1  0  0  0
 10 11  1  0  0  0
 10 32  1  0  0  0
 11 12  2  0  0  0
 11 33  1  0  0  0
 12 24  1  0  0  0
 13 14  1  0  0  0
 13 34  1  0  0  0
 14 15  1  0  0  0
 14 16  2  0  0  0
 15 17  2  0  0  0
 15 20  1  0  0  0
 17 18  1  0  0  0
 17 21  1  0  0  0
 18 19  1  0  0  0
 19 20  2  0  0  0
 19 35  1  0  0  0
 20 36  1  0  0  0
 21 22  1  0  0  0
 21 23  2  0  0  0
 22 37  1  0  0  0
 24 25  1  0  0  0
 25 38  1  0  0  0
 25 39  1  0  0  0
 25 40  1  0  0  0
M  END
> <s_m_entry_id>
25626

> <s_m_entry_name>
dock_pv.278

> <s_m_Source_Path>
/home/csk/Desktop/cluster/DUD-E-result/pyrd

> <s_m_Source_File>
dock_pv.maegz

> <i_m_Source_File_Index>
278

> <chembl_id>
CHEMBL200858

> <chembl_pref_name>
None

> <i_lp_mmshare_version>
53161

> <r_lp_tautomer_probability>
1

> <s_lp_Force_Field>
OPLS_2005

> <r_lp_Energy>
30.141065

> <b_lp_Chiralities_Consistent>
1

> <s_lp_Variant>
CHEMBL1966_lig85-1

> <s_i_glide_gridfile>
glide-grid_1d3g

> <i_i_glide_lignum>
94

> <i_i_glide_rotatable_bonds>
7

> <r_i_docking_score>
-9.37772637525793

> <r_i_glide_ligand_efficiency>
-0.360681783663767

> <r_i_glide_ligand_efficiency_sa>
-1.06851836488962

> <r_i_glide_ligand_efficiency_ln>
-2.20232826839931

> <r_i_glide_gscore>
-9.37772637525793

> <r_i_glide_lipo>
-5.35614173107893

> <r_i_glide_hbond>
-0.16

> <r_i_glide_metal>
0

> <r_i_glide_rewards>
-1.9315777468507

> <r_i_glide_evdw>
-39.6703720092773

> <r_i_glide_ecoul>
-3.95963788032532

> <r_i_glide_erotb>
0.647457385184364

> <r_i_glide_esite>
0

> <r_i_glide_emodel>
-56.2890612595015

> <r_i_glide_energy>
-43.6300098896027

> <r_i_glide_einternal>
17.1821441650391

> <i_i_glide_confnum>
67

> <i_i_glide_posenum>
112

> <r_i_glide_eff_state_penalty>
0

> <s_user_duplicate_titles>
CHEMBL1966_lig85,334871

> <i_f3d_flags>
0

> <s_m_subgroup_title>
dock_pv

> <s_m_subgroupid>
dock_pv

> <b_m_subgroup_collapsed>
1

$$$$
CHEMBL1966_lig736
                    3D
 Schrodinger Suite 2021-1.
 37 40  0  0  1  0            999 V2000
   48.5259   41.2100   -4.2534 C   0  0  0  0  0  0
   49.5471   42.0481   -4.0931 N   0  0  0  0  0  0
   48.5639   40.4100   -1.9701 C   0  0  0  0  0  0
   47.9583   40.3923   -3.2389 C   0  0  0  0  0  0
   50.0348   42.1638   -2.8321 C   0  0  0  0  0  0
   49.6230   41.3271   -1.7871 C   0  0  0  0  0  0
   48.0230   39.6100   -0.8079 C   0  0  0  0  0  0
   47.5642   41.2100   -5.6990 S   0  0  0  0  0  0
   46.3944   40.1646   -4.9450 C   0  0  0  0  0  0
   50.9638   43.3144   -2.6153 C   0  0  0  0  0  0
   46.7736   39.7404   -3.6990 C   0  0  0  0  0  0
   52.7692   45.4466   -2.1455 C   0  0  0  0  0  0
   46.9912   38.9470   -0.8525 O   0  0  0  0  0  0
   51.9774   43.6100   -3.5345 C   0  0  0  0  0  0
   50.8230   44.1460   -1.4945 C   0  0  0  0  0  0
   51.7004   45.2100   -1.2709 C   0  0  0  0  0  0
   52.8647   44.6588   -3.2990 C   0  0  0  0  0  0
   53.8138   46.4686   -1.8464 C   0  0  0  0  0  0
   48.7990   39.6652    0.3010 O   0  0  0  0  0  0
   54.3738   47.2482   -2.8688 C   0  0  0  0  0  0
   54.2966   46.6229   -0.5399 C   0  0  0  0  0  0
   55.3314   47.5126   -0.2661 C   0  0  0  0  0  0
   55.4007   48.1483   -2.5958 C   0  0  0  0  0  0
   55.8819   48.2710   -1.2956 C   0  0  0  0  0  0
   50.0718   41.4579   -0.8124 H   0  0  0  0  0  0
   45.5027   39.8766   -5.4844 H   0  0  0  0  0  0
   46.1745   39.0670   -3.1052 H   0  0  0  0  0  0
   52.1070   43.0019   -4.4174 H   0  0  0  0  0  0
   50.0270   43.9704   -0.7854 H   0  0  0  0  0  0
   51.5727   45.8181   -0.3871 H   0  0  0  0  0  0
   53.6656   44.8331   -3.9965 H   0  0  0  0  0  0
   48.3611   39.1714    1.0090 H   0  0  0  0  0  0
   54.0167   47.1567   -3.8846 H   0  0  0  0  0  0
   53.8950   46.0266    0.2665 H   0  0  0  0  0  0
   55.7083   47.6094    0.7409 H   0  0  0  0  0  0
   55.8282   48.7417   -3.3910 H   0  0  0  0  0  0
   56.6864   48.9602   -1.0818 H   0  0  0  0  0  0
  1  2  1  0  0  0
  1  4  2  0  0  0
  1  8  1  0  0  0
  2  5  2  0  0  0
  3  4  1  0  0  0
  3  6  2  0  0  0
  3  7  1  0  0  0
  4 11  1  0  0  0
  5 10  1  0  0  0
  5  6  1  0  0  0
  6 25  1  0  0  0
  7 13  2  0  0  0
  7 19  1  0  0  0
  8  9  1  0  0  0
  9 11  2  0  0  0
  9 26  1  0  0  0
 10 14  1  0  0  0
 10 15  2  0  0  0
 11 27  1  0  0  0
 12 16  2  0  0  0
 12 18  1  0  0  0
 12 17  1  0  0  0
 14 17  2  0  0  0
 14 28  1  0  0  0
 15 16  1  0  0  0
 15 29  1  0  0  0
 16 30  1  0  0  0
 17 31  1  0  0  0
 18 20  2  0  0  0
 18 21  1  0  0  0
 19 32  1  0  0  0
 20 23  1  0  0  0
 20 33  1  0  0  0
 21 22  2  0  0  0
 21 34  1  0  0  0
 22 24  1  0  0  0
 22 35  1  0  0  0
 23 24  2  0  0  0
 23 36  1  0  0  0
 24 37  1  0  0  0
M  END
> <s_m_entry_id>
25627

> <s_m_entry_name>
dock_pv.279

> <s_m_Source_Path>
/home/csk/Desktop/cluster/DUD-E-result/pyrd

> <s_m_Source_File>
dock_pv.maegz

> <i_m_Source_File_Index>
279

> <chembl_id>
CHEMBL38669

> <chembl_pref_name>
None

> <i_lp_mmshare_version>
53161

> <r_lp_tautomer_probability>
1

> <s_lp_Force_Field>
OPLS_2005

> <r_lp_Energy>
25.82021

> <b_lp_Chiralities_Consistent>
1

> <s_lp_Variant>
CHEMBL1966_lig736-1

> <s_i_glide_gridfile>
glide-grid_1d3g

> <i_i_glide_lignum>
807

> <i_i_glide_rotatable_bonds>
4

> <r_i_docking_score>
-9.3773708760064

> <r_i_glide_ligand_efficiency>
-0.390723786500267

> <r_i_glide_ligand_efficiency_sa>
-1.12704242518385

> <r_i_glide_ligand_efficiency_ln>
-2.24443515013914

> <r_i_glide_gscore>
-9.3773708760064

> <r_i_glide_lipo>
-5.63660008632088

> <r_i_glide_hbond>
0

> <r_i_glide_metal>
0

> <r_i_glide_rewards>
-1.93835362458975

> <r_i_glide_evdw>
-31.2561855316162

> <r_i_glide_ecoul>
-5.02498149871826

> <r_i_glide_erotb>
0.514139336292783

> <r_i_glide_esite>
0

> <r_i_glide_emodel>
-51.0078072809528

> <r_i_glide_energy>
-36.2811670303345

> <r_i_glide_einternal>
1.91728317737579

> <i_i_glide_confnum>
27

> <i_i_glide_posenum>
355

> <r_i_glide_eff_state_penalty>
0

> <s_user_duplicate_titles>
CHEMBL1966_lig736,57166

> <i_f3d_flags>
0

> <s_m_subgroup_title>
dock_pv

> <s_m_subgroupid>
dock_pv

> <b_m_subgroup_collapsed>
1

$$$$
CHEMBL1966_lig179
                    3D
 Schrodinger Suite 2021-1.
 39 41  0  0  1  0            999 V2000
   51.6227   46.4288    0.0925 C   0  0  0  0  0  0
   51.8943   45.5432   -1.1234 C   0  0  0  0  0  0
   50.9389   44.5612   -1.4660 C   0  0  0  0  0  0
   49.8382   44.4102   -0.6904 F   0  0  0  0  0  0
   51.1058   43.7668   -2.6177 C   0  0  0  0  0  0
   50.1840   42.7956   -3.0726 N   0  0  0  0  0  0
   49.5958   41.7078   -2.4036 C   0  0  0  0  0  0
   49.8971   41.6104   -1.0813 N   0  0  0  0  0  0
   49.2250   40.7254   -0.3158 C   0  0  0  0  0  0
   48.2611   39.8680   -0.8279 C   0  0  0  0  0  0
   48.0231   39.8873   -2.2001 C   0  0  0  0  0  0
   48.6901   40.8039   -3.0310 C   0  0  0  0  0  0
   48.3026   40.8161   -4.4991 C   0  0  0  0  0  0
   47.2104   40.4098   -4.8900 O   0  0  0  0  0  0
   49.2257   41.3141   -5.3594 O   0  0  0  0  0  0
   52.2367   43.9710   -3.4026 C   0  0  0  0  0  0
   52.4231   43.2100   -4.4990 F   0  0  0  0  0  0
   53.2090   44.8981   -3.0409 C   0  0  0  0  0  0
   53.0708   45.6860   -1.8954 C   0  0  0  0  0  0
   54.2072   46.5872   -1.5214 C   0  0  0  0  0  0
   54.8536   46.4015   -0.2904 C   0  0  0  0  0  0
   55.9491   47.1775    0.0774 C   0  0  0  0  0  0
   56.4231   48.1599   -0.7864 C   0  0  0  0  0  0
   55.8038   48.3637   -2.0129 C   0  0  0  0  0  0
   54.7106   47.5819   -2.3847 C   0  0  0  0  0  0
   54.0243   47.8854   -3.9350 Cl  0  0  0  0  0  0
   50.8838   47.1926   -0.1611 H   0  0  0  0  0  0
   51.2235   45.8299    0.9119 H   0  0  0  0  0  0
   52.4939   46.9379    0.4930 H   0  0  0  0  0  0
   49.9105   42.9166   -4.0361 H   0  0  0  0  0  0
   49.4879   40.6998    0.7290 H   0  0  0  0  0  0
   47.7446   39.1708   -0.1829 H   0  0  0  0  0  0
   47.2986   39.1940   -2.6064 H   0  0  0  0  0  0
   50.0821   41.4106   -4.9378 H   0  0  0  0  0  0
   54.0995   44.9838   -3.6461 H   0  0  0  0  0  0
   54.5108   45.6329    0.3881 H   0  0  0  0  0  0
   56.4309   47.0172    1.0313 H   0  0  0  0  0  0
   57.2678   48.7683   -0.5000 H   0  0  0  0  0  0
   56.1783   49.1266   -2.6803 H   0  0  0  0  0  0
  1  2  1  0  0  0
  1 27  1  0  0  0
  1 28  1  0  0  0
  1 29  1  0  0  0
  2  3  2  0  0  0
  2 19  1  0  0  0
  3  4  1  0  0  0
  3  5  1  0  0  0
  5  6  1  0  0  0
  5 16  2  0  0  0
  6  7  1  0  0  0
  6 30  1  0  0  0
  7  8  2  0  0  0
  7 12  1  0  0  0
  8  9  1  0  0  0
  9 10  2  0  0  0
  9 31  1  0  0  0
 10 11  1  0  0  0
 10 32  1  0  0  0
 11 12  2  0  0  0
 11 33  1  0  0  0
 12 13  1  0  0  0
 13 14  2  0  0  0
 13 15  1  0  0  0
 15 34  1  0  0  0
 16 17  1  0  0  0
 16 18  1  0  0  0
 18 19  2  0  0  0
 18 35  1  0  0  0
 19 20  1  0  0  0
 20 21  2  0  0  0
 20 25  1  0  0  0
 21 22  1  0  0  0
 21 36  1  0  0  0
 22 23  2  0  0  0
 22 37  1  0  0  0
 23 24  1  0  0  0
 23 38  1  0  0  0
 24 25  2  0  0  0
 24 39  1  0  0  0
 25 26  1  0  0  0
M  END
> <s_m_entry_id>
25628

> <s_m_entry_name>
dock_pv.280

> <s_m_Source_Path>
/home/csk/Desktop/cluster/DUD-E-result/pyrd

> <s_m_Source_File>
dock_pv.maegz

> <i_m_Source_File_Index>
280

> <chembl_id>
CHEMBL2263449

> <chembl_pref_name>
None

> <i_lp_mmshare_version>
53161

> <r_lp_tautomer_probability>
1

> <s_lp_Force_Field>
OPLS_2005

> <r_lp_Energy>
27.466261

> <b_lp_Chiralities_Consistent>
1

> <s_lp_Variant>
CHEMBL1966_lig179-1

> <s_i_glide_gridfile>
glide-grid_1d3g

> <i_i_glide_lignum>
224

> <i_i_glide_rotatable_bonds>
5

> <r_i_docking_score>
-9.3751152609973

> <r_i_glide_ligand_efficiency>
-0.360581356192204

> <r_i_glide_ligand_efficiency_sa>
-1.06822084890028

> <r_i_glide_ligand_efficiency_ln>
-2.20171505678296

> <r_i_glide_gscore>
-9.3751152609973

> <r_i_glide_lipo>
-5.15032394962498

> <r_i_glide_hbond>
0

> <r_i_glide_metal>
0

> <r_i_glide_rewards>
-2.63625462008624

> <r_i_glide_evdw>
-38.270206451416

> <r_i_glide_ecoul>
-1.50540542602539

> <r_i_glide_erotb>
0.550784445188528

> <r_i_glide_esite>
0

> <r_i_glide_emodel>
-55.6690683139601

> <r_i_glide_energy>
-39.7756118774414

> <r_i_glide_einternal>
4.78372287750244

> <i_i_glide_confnum>
7

> <i_i_glide_posenum>
117

> <r_i_glide_eff_state_penalty>
0

> <s_user_duplicate_titles>
CHEMBL1966_lig179

> <i_f3d_flags>
0

> <s_m_subgroup_title>
dock_pv

> <s_m_subgroupid>
dock_pv

> <b_m_subgroup_collapsed>
1

$$$$
CHEMBL1966_lig591
                    3D
 Schrodinger Suite 2021-1.
 44 47  0  0  1  0            999 V2000
   56.8230   47.9416   -4.1206 C   0  0  0  0  0  0
   57.1891   48.3769   -2.8573 C   0  0  0  0  0  0
   56.4551   47.9872   -1.7451 C   0  0  0  0  0  0
   55.7129   47.1203   -4.2913 C   0  0  0  0  0  0
   54.9308   46.7019   -3.1835 C   0  0  0  0  0  0
   55.3143   47.1361   -1.8795 C   0  0  0  0  0  0
   54.5144   46.6807   -0.7924 C   0  0  0  0  0  0
   53.3573   45.9464   -1.0548 C   0  0  0  0  0  0
   53.0853   45.4732   -2.3306 C   0  0  0  0  0  0
   53.8590   45.8720   -3.3839 N   0  0  0  0  0  0
   52.0230   44.4100   -2.5623 C   0  0  0  0  0  0
   51.9885   43.7031   -3.7629 C   0  0  0  0  0  0
   50.9681   42.8101   -4.0530 C   0  0  0  0  0  0
   50.0326   42.4337   -3.1002 C   0  0  0  0  0  0
   50.0884   43.0792   -1.8574 C   0  0  0  0  0  0
   51.0321   44.0843   -1.6130 C   0  0  0  0  0  0
   54.9510   46.8100    0.6309 C   0  0  0  0  0  0
   53.9183   46.8100    1.5010 O   0  0  0  0  0  0
   56.1269   46.8100    0.9819 O   0  0  0  0  0  0
   48.9710   41.4451   -3.4865 C   0  0  0  0  0  0
   48.4280   40.4952   -2.5885 C   0  0  0  0  0  0
   47.3166   39.7310   -2.9892 C   0  0  0  0  0  0
   46.7247   39.9341   -4.2303 C   0  0  0  0  0  0
   47.2965   40.8100   -5.1410 C   0  0  0  0  0  0
   48.4230   41.5380   -4.7824 C   0  0  0  0  0  0
   48.9629   40.4100   -1.3144 O   0  0  0  0  0  0
   48.2935   39.6320   -0.3206 C   0  0  0  0  0  0
   57.4024   48.2475   -4.9797 H   0  0  0  0  0  0
   58.0490   49.0200   -2.7365 H   0  0  0  0  0  0
   56.7621   48.3533   -0.7769 H   0  0  0  0  0  0
   55.4605   46.8100   -5.2887 H   0  0  0  0  0  0
   52.7525   45.6100   -0.2288 H   0  0  0  0  0  0
   52.7424   43.8853   -4.4990 H   0  0  0  0  0  0
   50.8656   42.4100   -5.0431 H   0  0  0  0  0  0
   49.3600   42.8577   -1.0935 H   0  0  0  0  0  0
   50.9798   44.5914   -0.6627 H   0  0  0  0  0  0
   54.2749   46.7477    2.3961 H   0  0  0  0  0  0
   46.8592   39.0122   -2.3278 H   0  0  0  0  0  0
   45.8368   39.3803   -4.4990 H   0  0  0  0  0  0
   46.8330   40.9669   -6.0990 H   0  0  0  0  0  0
   48.7812   42.2719   -5.4893 H   0  0  0  0  0  0
   48.8236   39.7132    0.6268 H   0  0  0  0  0  0
   47.2768   39.9903   -0.1533 H   0  0  0  0  0  0
   48.2518   38.5728   -0.5742 H   0  0  0  0  0  0
  1  2  2  0  0  0
  1  4  1  0  0  0
  1 28  1  0  0  0
  2  3  1  0  0  0
  2 29  1  0  0  0
  3  6  2  0  0  0
  3 30  1  0  0  0
  4  5  2  0  0  0
  4 31  1  0  0  0
  5  6  1  0  0  0
  5 10  1  0  0  0
  6  7  1  0  0  0
  7  8  2  0  0  0
  7 17  1  0  0  0
  8  9  1  0  0  0
  8 32  1  0  0  0
  9 10  2  0  0  0
  9 11  1  0  0  0
 11 12  2  0  0  0
 11 16  1  0  0  0
 12 13  1  0  0  0
 12 33  1  0  0  0
 13 14  2  0  0  0
 13 34  1  0  0  0
 14 15  1  0  0  0
 14 20  1  0  0  0
 15 16  2  0  0  0
 15 35  1  0  0  0
 16 36  1  0  0  0
 17 18  1  0  0  0
 17 19  2  0  0  0
 18 37  1  0  0  0
 20 21  2  0  0  0
 20 25  1  0  0  0
 21 22  1  0  0  0
 21 26  1  0  0  0
 22 23  2  0  0  0
 22 38  1  0  0  0
 23 24  1  0  0  0
 23 39  1  0  0  0
 24 25  2  0  0  0
 24 40  1  0  0  0
 25 41  1  0  0  0
 26 27  1  0  0  0
 27 42  1  0  0  0
 27 43  1  0  0  0
 27 44  1  0  0  0
M  END
> <s_m_entry_id>
25629

> <s_m_entry_name>
dock_pv.281

> <s_m_Source_Path>
/home/csk/Desktop/cluster/DUD-E-result/pyrd

> <s_m_Source_File>
dock_pv.maegz

> <i_m_Source_File_Index>
281

> <chembl_id>
CHEMBL4229222

> <chembl_pref_name>
None

> <i_lp_mmshare_version>
53161

> <r_lp_tautomer_probability>
1

> <s_lp_Force_Field>
OPLS_2005

> <r_lp_Energy>
33.08806

> <b_lp_Chiralities_Consistent>
1

> <s_lp_Variant>
CHEMBL1966_lig591-1

> <s_i_glide_gridfile>
glide-grid_1d3g

> <i_i_glide_lignum>
645

> <i_i_glide_rotatable_bonds>
5

> <r_i_docking_score>
-9.36727282942459

> <r_i_glide_ligand_efficiency>
-0.346936030719429

> <r_i_glide_ligand_efficiency_sa>
-1.04080809101484

> <r_i_glide_ligand_efficiency_ln>
-2.18054668312797

> <r_i_glide_gscore>
-9.36727282942459

> <r_i_glide_lipo>
-5.61285908477444

> <r_i_glide_hbond>
-0.013021802178505

> <r_i_glide_metal>
0

> <r_i_glide_rewards>
-2.11933801515151

> <r_i_glide_evdw>
-32.5461349487305

> <r_i_glide_ecoul>
-2.99270415306091

> <r_i_glide_erotb>
0.454158443075532

> <r_i_glide_esite>
0

> <r_i_glide_emodel>
-38.7161277741676

> <r_i_glide_energy>
-35.5388391017914

> <r_i_glide_einternal>
0.949711799621582

> <i_i_glide_confnum>
18

> <i_i_glide_posenum>
75

> <r_i_glide_eff_state_penalty>
0

> <s_user_duplicate_titles>
CHEMBL1966_lig591

> <i_f3d_flags>
0

> <s_m_subgroup_title>
dock_pv

> <s_m_subgroupid>
dock_pv

> <b_m_subgroup_collapsed>
1

$$$$
CHEMBL1966_lig399
                    3D
 Schrodinger Suite 2021-1.
 43 44  0  0  1  0            999 V2000
   49.9818   42.1095   -3.1376 C   0  0  0  0  0  0
   50.0467   42.7298   -4.4741 C   0  0  0  0  0  0
   49.1615   42.2249   -5.3656 N   0  0  0  0  0  0
   48.2767   41.2071   -5.2171 C   0  0  0  0  0  0
   48.2948   40.6427   -3.9871 N   0  0  0  0  0  0
   49.0914   41.0753   -2.9472 C   0  0  0  0  0  0
   48.8230   40.4100   -1.6653 C   0  0  0  0  0  0
   48.0230   39.2969   -1.7572 O   0  0  0  0  0  0
   49.2230   40.8100   -0.5742 O   0  0  0  0  0  0
   47.5314   40.8100   -6.0990 O   0  0  0  0  0  0
   50.8230   43.6100   -4.8377 O   0  0  0  0  0  0
   50.9698   42.7051   -2.1124 C   0  0  0  0  0  0
   50.9287   44.2457   -1.9141 C   0  0  0  0  0  0
   50.9964   44.7399   -0.4548 C   0  0  0  0  0  0
   51.4790   46.1979   -0.2941 C   0  0  0  0  0  0
   52.9825   46.4100   -0.4389 C   0  0  0  0  0  0
   53.5571   46.6444   -1.6922 C   0  0  0  0  0  0
   54.9289   46.9169   -1.8186 C   0  0  0  0  0  0
   55.7150   46.9721   -0.6568 C   0  0  0  0  0  0
   55.1467   46.7431    0.5926 C   0  0  0  0  0  0
   53.7907   46.4445    0.7010 C   0  0  0  0  0  0
   55.5083   47.1611   -3.1769 C   0  0  0  0  0  0
   56.8582   47.2988   -3.1694 O   0  0  0  0  0  0
   54.8230   47.2100   -4.1998 O   0  0  0  0  0  0
   57.5744   47.5166   -4.3767 C   0  0  0  0  0  0
   49.1702   42.6729   -6.2685 H   0  0  0  0  0  0
   47.5237   40.0130   -3.8242 H   0  0  0  0  0  0
   48.1307   38.8215   -2.5833 H   0  0  0  0  0  0
   51.9537   42.4366   -2.4990 H   0  0  0  0  0  0
   50.9486   42.2150   -1.1467 H   0  0  0  0  0  0
   50.0230   44.6620   -2.3553 H   0  0  0  0  0  0
   51.7533   44.6682   -2.4872 H   0  0  0  0  0  0
   51.6230   44.0962    0.1497 H   0  0  0  0  0  0
   49.9993   44.6453   -0.0222 H   0  0  0  0  0  0
   51.2230   46.5497    0.7050 H   0  0  0  0  0  0
   50.9361   46.8462   -0.9832 H   0  0  0  0  0  0
   52.9222   46.6330   -2.5682 H   0  0  0  0  0  0
   56.7703   47.2031   -0.7027 H   0  0  0  0  0  0
   55.7600   46.8100    1.4795 H   0  0  0  0  0  0
   53.3650   46.2781    1.6804 H   0  0  0  0  0  0
   58.6403   47.5996   -4.1643 H   0  0  0  0  0  0
   57.2516   48.4382   -4.8635 H   0  0  0  0  0  0
   57.4305   46.6886   -5.0725 H   0  0  0  0  0  0
  1  2  1  0  0  0
  1  6  2  0  0  0
  1 12  1  0  0  0
  2  3  1  0  0  0
  2 11  2  0  0  0
  3  4  1  0  0  0
  3 26  1  0  0  0
  4  5  1  0  0  0
  4 10  2  0  0  0
  5  6  1  0  0  0
  5 27  1  0  0  0
  6  7  1  0  0  0
  7  8  1  0  0  0
  7  9  2  0  0  0
  8 28  1  0  0  0
 12 13  1  0  0  0
 12 29  1  0  0  0
 12 30  1  0  0  0
 13 14  1  0  0  0
 13 31  1  0  0  0
 13 32  1  0  0  0
 14 15  1  0  0  0
 14 33  1  0  0  0
 14 34  1  0  0  0
 15 16  1  0  0  0
 15 35  1  0  0  0
 15 36  1  0  0  0
 16 17  2  0  0  0
 16 21  1  0  0  0
 17 18  1  0  0  0
 17 37  1  0  0  0
 18 19  2  0  0  0
 18 22  1  0  0  0
 19 20  1  0  0  0
 19 38  1  0  0  0
 20 21  2  0  0  0
 20 39  1  0  0  0
 21 40  1  0  0  0
 22 23  1  0  0  0
 22 24  2  0  0  0
 23 25  1  0  0  0
 25 41  1  0  0  0
 25 42  1  0  0  0
 25 43  1  0  0  0
M  END
> <s_m_entry_id>
25630

> <s_m_entry_name>
dock_pv.282

> <s_m_Source_Path>
/home/csk/Desktop/cluster/DUD-E-result/pyrd

> <s_m_Source_File>
dock_pv.maegz

> <i_m_Source_File_Index>
282

> <chembl_id>
CHEMBL3901641

> <chembl_pref_name>
None

> <i_lp_mmshare_version>
53161

> <r_lp_tautomer_probability>
1

> <s_lp_Force_Field>
OPLS_2005

> <r_lp_Energy>
17.673889

> <b_lp_Chiralities_Consistent>
1

> <s_lp_Variant>
CHEMBL1966_lig399-1

> <s_i_glide_gridfile>
glide-grid_1d3g

> <i_i_glide_lignum>
449

> <i_i_glide_rotatable_bonds>
9

> <r_i_docking_score>
-9.36313005805387

> <r_i_glide_ligand_efficiency>
-0.374525202322155

> <r_i_glide_ligand_efficiency_sa>
-1.09511833382273

> <r_i_glide_ligand_efficiency_ln>
-2.21934241412435

> <r_i_glide_gscore>
-9.36313005805387

> <r_i_glide_lipo>
-4.40957804370914

> <r_i_glide_hbond>
-0.201474832352537

> <r_i_glide_metal>
0

> <r_i_glide_rewards>
-2.69473574976305

> <r_i_glide_evdw>
-45.5273551940918

> <r_i_glide_ecoul>
-5.93615627288818

> <r_i_glide_erotb>
1.10944976840868

> <r_i_glide_esite>
0

> <r_i_glide_emodel>
-73.7542639647344

> <r_i_glide_energy>
-51.46351146698

> <r_i_glide_einternal>
8.27270126342773

> <i_i_glide_confnum>
116

> <i_i_glide_posenum>
370

> <r_i_glide_eff_state_penalty>
0

> <s_user_duplicate_titles>
CHEMBL1966_lig399

> <i_f3d_flags>
0

> <s_m_subgroup_title>
dock_pv

> <s_m_subgroupid>
dock_pv

> <b_m_subgroup_collapsed>
1

$$$$
CHEMBL1966_lig189
                    3D
 Schrodinger Suite 2021-1.
 43 45  0  0  1  0            999 V2000
   57.2050   49.9466   -2.9244 C   0  0  0  0  0  0
   56.0230   49.1713   -3.0973 O   0  0  0  0  0  0
   55.6343   48.2988   -2.0989 C   0  0  0  0  0  0
   56.3310   48.1252   -0.8954 C   0  0  0  0  0  0
   55.9036   47.1827    0.0349 C   0  0  0  0  0  0
   54.7888   46.3936   -0.2324 C   0  0  0  0  0  0
   54.0558   46.5507   -1.4156 C   0  0  0  0  0  0
   54.4913   47.5252   -2.3298 C   0  0  0  0  0  0
   52.9491   45.6100   -1.7821 C   0  0  0  0  0  0
   53.0962   44.9211   -2.9936 C   0  0  0  0  0  0
   52.1918   43.9395   -3.3845 C   0  0  0  0  0  0
   52.4230   43.2100   -4.4986 F   0  0  0  0  0  0
   51.0802   43.6494   -2.6050 C   0  0  0  0  0  0
   50.2122   42.6750   -3.1039 N   0  0  0  0  0  0
   49.4944   41.6063   -2.5666 C   0  0  0  0  0  0
   49.6230   41.3890   -1.2296 N   0  0  0  0  0  0
   48.8817   40.4100   -0.6607 C   0  0  0  0  0  0
   48.0183   39.6054   -1.3922 C   0  0  0  0  0  0
   47.9261   39.7957   -2.7693 C   0  0  0  0  0  0
   48.6626   40.8100   -3.4004 C   0  0  0  0  0  0
   48.4517   41.0403   -4.8947 C   0  0  0  0  0  0
   47.6149   40.4197   -5.5441 O   0  0  0  0  0  0
   49.2230   41.9968   -5.4829 O   0  0  0  0  0  0
   50.8967   44.3252   -1.3975 C   0  0  0  0  0  0
   51.8281   45.2897   -0.9706 C   0  0  0  0  0  0
   51.6230   45.8748    0.4189 C   0  0  0  0  0  0
   57.3645   50.5592   -3.8115 H   0  0  0  0  0  0
   57.1229   50.6176   -2.0678 H   0  0  0  0  0  0
   58.0850   49.3137   -2.7993 H   0  0  0  0  0  0
   57.2173   48.6987   -0.6684 H   0  0  0  0  0  0
   56.4589   47.0404    0.9508 H   0  0  0  0  0  0
   54.5422   45.6108    0.4683 H   0  0  0  0  0  0
   53.9649   47.6518   -3.2650 H   0  0  0  0  0  0
   53.9569   45.1035   -3.6211 H   0  0  0  0  0  0
   50.1759   42.6537   -4.1175 H   0  0  0  0  0  0
   49.0130   40.2547    0.3995 H   0  0  0  0  0  0
   47.4502   38.8263   -0.9048 H   0  0  0  0  0  0
   47.2627   39.1566   -3.3353 H   0  0  0  0  0  0
   48.9381   42.1716   -6.3808 H   0  0  0  0  0  0
   50.0397   44.0855   -0.7850 H   0  0  0  0  0  0
   52.5374   45.9275    0.9992 H   0  0  0  0  0  0
   51.2230   46.8858    0.3584 H   0  0  0  0  0  0
   50.9694   45.2184    1.0039 H   0  0  0  0  0  0
  1  2  1  0  0  0
  1 27  1  0  0  0
  1 28  1  0  0  0
  1 29  1  0  0  0
  2  3  1  0  0  0
  3  4  2  0  0  0
  3  8  1  0  0  0
  4  5  1  0  0  0
  4 30  1  0  0  0
  5  6  2  0  0  0
  5 31  1  0  0  0
  6  7  1  0  0  0
  6 32  1  0  0  0
  7  8  2  0  0  0
  7  9  1  0  0  0
  8 33  1  0  0  0
  9 10  2  0  0  0
  9 25  1  0  0  0
 10 11  1  0  0  0
 10 34  1  0  0  0
 11 12  1  0  0  0
 11 13  2  0  0  0
 13 14  1  0  0  0
 13 24  1  0  0  0
 14 15  1  0  0  0
 14 35  1  0  0  0
 15 16  2  0  0  0
 15 20  1  0  0  0
 16 17  1  0  0  0
 17 18  2  0  0  0
 17 36  1  0  0  0
 18 19  1  0  0  0
 18 37  1  0  0  0
 19 20  2  0  0  0
 19 38  1  0  0  0
 20 21  1  0  0  0
 21 22  2  0  0  0
 21 23  1  0  0  0
 23 39  1  0  0  0
 24 25  2  0  0  0
 24 40  1  0  0  0
 25 26  1  0  0  0
 26 41  1  0  0  0
 26 42  1  0  0  0
 26 43  1  0  0  0
M  END
> <s_m_entry_id>
25631

> <s_m_entry_name>
dock_pv.283

> <s_m_Source_Path>
/home/csk/Desktop/cluster/DUD-E-result/pyrd

> <s_m_Source_File>
dock_pv.maegz

> <i_m_Source_File_Index>
283

> <chembl_id>
CHEMBL2263639

> <chembl_pref_name>
None

> <i_lp_mmshare_version>
53161

> <r_lp_tautomer_probability>
1

> <s_lp_Force_Field>
OPLS_2005

> <r_lp_Energy>
30.388945

> <b_lp_Chiralities_Consistent>
1

> <s_lp_Variant>
CHEMBL1966_lig189-1

> <s_i_glide_gridfile>
glide-grid_1d3g

> <i_i_glide_lignum>
234

> <i_i_glide_rotatable_bonds>
6

> <r_i_docking_score>
-9.36242704871482

> <r_i_glide_ligand_efficiency>
-0.360093348027493

> <r_i_glide_ligand_efficiency_sa>
-1.06677512663254

> <r_i_glide_ligand_efficiency_ln>
-2.19873527176184

> <r_i_glide_gscore>
-9.36242704871482

> <r_i_glide_lipo>
-5.3222264307694

> <r_i_glide_hbond>
0

> <r_i_glide_metal>
0

> <r_i_glide_rewards>
-2.17834633340392

> <r_i_glide_evdw>
-41.8321647644043

> <r_i_glide_ecoul>
-2.5671968460083

> <r_i_glide_erotb>
0.61483348057996

> <r_i_glide_esite>
0

> <r_i_glide_emodel>
-61.1757366747894

> <r_i_glide_energy>
-44.3993616104126

> <r_i_glide_einternal>
8.72347545623779

> <i_i_glide_confnum>
30

> <i_i_glide_posenum>
209

> <r_i_glide_eff_state_penalty>
0

> <s_user_duplicate_titles>
CHEMBL1966_lig189

> <i_f3d_flags>
0

> <s_m_subgroup_title>
dock_pv

> <s_m_subgroupid>
dock_pv

> <b_m_subgroup_collapsed>
1

$$$$
CHEMBL1966_lig348
                    3D
 Schrodinger Suite 2021-1.
 34 35  0  0  1  0            999 V2000
   50.1536   42.3392   -3.2758 C   0  0  0  0  0  0
   50.0830   42.8100   -4.6653 C   0  0  0  0  0  0
   49.1181   42.2156   -5.4044 N   0  0  0  0  0  0
   48.2829   41.1981   -5.0763 C   0  0  0  0  0  0
   48.4821   40.7194   -3.8176 N   0  0  0  0  0  0
   49.3326   41.3082   -2.8990 C   0  0  0  0  0  0
   49.2230   40.8100   -1.5241 C   0  0  0  0  0  0
   48.2234   39.8934   -1.3525 O   0  0  0  0  0  0
   49.8648   41.2100   -0.5569 O   0  0  0  0  0  0
   47.4021   40.8100   -5.8342 O   0  0  0  0  0  0
   50.8230   43.6276   -5.1972 O   0  0  0  0  0  0
   51.1884   43.0593   -2.3992 C   0  0  0  0  0  0
   50.6289   44.3043   -1.6735 C   0  0  0  0  0  0
   51.6904   45.2313   -1.0826 C   0  0  0  0  0  0
   51.6230   45.6098    0.2622 C   0  0  0  0  0  0
   52.6230   46.3974    0.8303 C   0  0  0  0  0  0
   53.7060   46.8100    0.0572 C   0  0  0  0  0  0
   53.7806   46.4717   -1.2984 C   0  0  0  0  0  0
   52.7635   45.6896   -1.8610 C   0  0  0  0  0  0
   54.9627   46.9490   -2.1408 C   0  0  0  0  0  0
   54.7549   48.2161   -2.4990 F   0  0  0  0  0  0
   56.0971   46.8825   -1.4411 F   0  0  0  0  0  0
   55.1151   46.2174   -3.2465 F   0  0  0  0  0  0
   49.0071   42.5929   -6.3322 H   0  0  0  0  0  0
   47.9094   39.9321   -3.5452 H   0  0  0  0  0  0
   48.1705   39.6250   -0.4314 H   0  0  0  0  0  0
   51.6230   42.3636   -1.6860 H   0  0  0  0  0  0
   52.0420   43.3291   -3.0205 H   0  0  0  0  0  0
   50.0230   44.8765   -2.3666 H   0  0  0  0  0  0
   49.9391   43.9805   -0.8922 H   0  0  0  0  0  0
   50.8230   45.2457    0.8882 H   0  0  0  0  0  0
   52.5710   46.6646    1.8758 H   0  0  0  0  0  0
   54.4827   47.4075    0.5136 H   0  0  0  0  0  0
   52.8177   45.4238   -2.9071 H   0  0  0  0  0  0
  1  2  1  0  0  0
  1  6  2  0  0  0
  1 12  1  0  0  0
  2  3  1  0  0  0
  2 11  2  0  0  0
  3  4  1  0  0  0
  3 24  1  0  0  0
  4  5  1  0  0  0
  4 10  2  0  0  0
  5  6  1  0  0  0
  5 25  1  0  0  0
  6  7  1  0  0  0
  7  8  1  0  0  0
  7  9  2  0  0  0
  8 26  1  0  0  0
 12 13  1  0  0  0
 12 27  1  0  0  0
 12 28  1  0  0  0
 13 14  1  0  0  0
 13 29  1  0  0  0
 13 30  1  0  0  0
 14 15  2  0  0  0
 14 19  1  0  0  0
 15 16  1  0  0  0
 15 31  1  0  0  0
 16 17  2  0  0  0
 16 32  1  0  0  0
 17 18  1  0  0  0
 17 33  1  0  0  0
 18 19  2  0  0  0
 18 20  1  0  0  0
 19 34  1  0  0  0
 20 21  1  0  0  0
 20 22  1  0  0  0
 20 23  1  0  0  0
M  END
> <s_m_entry_id>
25632

> <s_m_entry_name>
dock_pv.284

> <s_m_Source_Path>
/home/csk/Desktop/cluster/DUD-E-result/pyrd

> <s_m_Source_File>
dock_pv.maegz

> <i_m_Source_File_Index>
284

> <chembl_id>
CHEMBL3899009

> <chembl_pref_name>
None

> <i_lp_mmshare_version>
53161

> <r_lp_tautomer_probability>
1

> <s_lp_Force_Field>
OPLS_2005

> <r_lp_Energy>
11.937038

> <b_lp_Chiralities_Consistent>
1

> <s_lp_Variant>
CHEMBL1966_lig348-1

> <s_i_glide_gridfile>
glide-grid_1d3g

> <i_i_glide_lignum>
398

> <i_i_glide_rotatable_bonds>
6

> <r_i_docking_score>
-9.3623174025061

> <r_i_glide_ligand_efficiency>
-0.407057278369831

> <r_i_glide_ligand_efficiency_sa>
-1.15761675165431

> <r_i_glide_ligand_efficiency_ln>
-2.26389324072664

> <r_i_glide_gscore>
-9.3623174025061

> <r_i_glide_lipo>
-3.76549514572185

> <r_i_glide_hbond>
-0.1310594901986

> <r_i_glide_metal>
0

> <r_i_glide_rewards>
-3.56780016376744

> <r_i_glide_evdw>
-39.6499214172363

> <r_i_glide_ecoul>
-4.08425235748291

> <r_i_glide_erotb>
0.697171321666036

> <r_i_glide_esite>
0

> <r_i_glide_emodel>
-66.8367692758197

> <r_i_glide_energy>
-43.7341737747192

> <r_i_glide_einternal>
1.45555031299591

> <i_i_glide_confnum>
15

> <i_i_glide_posenum>
331

> <r_i_glide_eff_state_penalty>
0

> <s_user_duplicate_titles>
CHEMBL1966_lig348

> <i_f3d_flags>
0

> <s_m_subgroup_title>
dock_pv

> <s_m_subgroupid>
dock_pv

> <b_m_subgroup_collapsed>
1

$$$$
CHEMBL1966_lig461
                    3D
 Schrodinger Suite 2021-1.
 42 45  0  0  1  0            999 V2000
   49.4215   42.4100   -5.6990 O   0  0  0  0  0  0
   48.6908   41.4341   -5.0932 C   0  0  0  0  0  0
   47.8380   40.8100   -5.7209 O   0  0  0  0  0  0
   48.9567   41.1908   -3.6106 C   0  0  0  0  0  0
   48.1953   40.2094   -2.9572 C   0  0  0  0  0  0
   48.2894   40.0100   -1.5759 C   0  0  0  0  0  0
   49.2230   40.7362   -0.8363 C   0  0  0  0  0  0
   50.0230   41.6748   -1.4646 C   0  0  0  0  0  0
   49.8724   41.9363   -2.8288 C   0  0  0  0  0  0
   50.6707   42.9176   -3.4058 N   0  0  0  0  0  0
   51.4781   43.9136   -2.8737 C   0  0  0  0  0  0
   52.6078   44.2523   -3.5972 C   0  0  0  0  0  0
   53.4755   45.2091   -3.1957 N   0  0  0  0  0  0
   53.1747   45.8340   -2.0278 C   0  0  0  0  0  0
   52.0687   45.6100   -1.2598 N   0  0  0  0  0  0
   51.2230   44.6368   -1.6990 C   0  0  0  0  0  0
   54.2396   46.7065   -1.4888 C   0  0  0  0  0  0
   54.7095   46.4899   -0.1873 C   0  0  0  0  0  0
   55.7928   47.2100    0.3010 C   0  0  0  0  0  0
   56.3998   48.1736   -0.4991 C   0  0  0  0  0  0
   55.9279   48.4248   -1.7829 C   0  0  0  0  0  0
   54.8546   47.6917   -2.2808 C   0  0  0  0  0  0
   54.4230   47.9450   -3.5387 F   0  0  0  0  0  0
   47.3343   39.0979   -0.8336 C   0  0  0  0  0  0
   46.1522   38.4100   -1.4714 C   0  0  0  0  0  0
   47.3510   37.6094   -1.0023 C   0  0  0  0  0  0
   49.0740   42.5934   -6.5721 H   0  0  0  0  0  0
   47.4753   39.6371   -3.5218 H   0  0  0  0  0  0
   49.3197   40.5774    0.2280 H   0  0  0  0  0  0
   50.7539   42.1999   -0.8711 H   0  0  0  0  0  0
   50.6374   42.8926   -4.4178 H   0  0  0  0  0  0
   52.8277   43.7078   -4.4990 H   0  0  0  0  0  0
   50.3329   44.4685   -1.1119 H   0  0  0  0  0  0
   54.2597   45.7313    0.4376 H   0  0  0  0  0  0
   56.1622   47.0234    1.2988 H   0  0  0  0  0  0
   57.2230   48.7482   -0.1116 H   0  0  0  0  0  0
   56.3961   49.1819   -2.3947 H   0  0  0  0  0  0
   47.1540   39.4345    0.1875 H   0  0  0  0  0  0
   45.9650   38.4910   -2.5408 H   0  0  0  0  0  0
   45.2244   38.4100   -0.8992 H   0  0  0  0  0  0
   47.2819   36.9970   -0.1042 H   0  0  0  0  0  0
   48.0319   37.1836   -1.7387 H   0  0  0  0  0  0
  1  2  1  0  0  0
  1 27  1  0  0  0
  2  3  2  0  0  0
  2  4  1  0  0  0
  4  5  2  0  0  0
  4  9  1  0  0  0
  5  6  1  0  0  0
  5 28  1  0  0  0
  6  7  2  0  0  0
  6 24  1  0  0  0
  7  8  1  0  0  0
  7 29  1  0  0  0
  8  9  2  0  0  0
  8 30  1  0  0  0
  9 10  1  0  0  0
 10 11  1  0  0  0
 10 31  1  0  0  0
 11 12  2  0  0  0
 11 16  1  0  0  0
 12 13  1  0  0  0
 12 32  1  0  0  0
 13 14  2  0  0  0
 14 15  1  0  0  0
 14 17  1  0  0  0
 15 16  2  0  0  0
 16 33  1  0  0  0
 17 18  2  0  0  0
 17 22  1  0  0  0
 18 19  1  0  0  0
 18 34  1  0  0  0
 19 20  2  0  0  0
 19 35  1  0  0  0
 20 21  1  0  0  0
 20 36  1  0  0  0
 21 22  2  0  0  0
 21 37  1  0  0  0
 22 23  1  0  0  0
 24 25  1  0  0  0
 24 26  1  0  0  0
 24 38  1  0  0  0
 25 26  1  0  0  0
 25 39  1  0  0  0
 25 40  1  0  0  0
 26 41  1  0  0  0
 26 42  1  0  0  0
M  END
> <s_m_entry_id>
25633

> <s_m_entry_name>
dock_pv.285

> <s_m_Source_Path>
/home/csk/Desktop/cluster/DUD-E-result/pyrd

> <s_m_Source_File>
dock_pv.maegz

> <i_m_Source_File_Index>
285

> <chembl_id>
CHEMBL3674670

> <chembl_pref_name>
None

> <i_lp_mmshare_version>
53161

> <r_lp_tautomer_probability>
1

> <s_lp_Force_Field>
OPLS_2005

> <r_lp_Energy>
35.179869

> <b_lp_Chiralities_Consistent>
1

> <s_lp_Variant>
CHEMBL1966_lig461-1

> <s_i_glide_gridfile>
glide-grid_1d3g

> <i_i_glide_lignum>
511

> <i_i_glide_rotatable_bonds>
6

> <r_i_docking_score>
-9.36190731885845

> <r_i_glide_ligand_efficiency>
-0.360073358417633

> <r_i_glide_ligand_efficiency_sa>
-1.06671590749199

> <r_i_glide_ligand_efficiency_ln>
-2.19861321491045

> <r_i_glide_gscore>
-9.36190731885845

> <r_i_glide_lipo>
-4.90745161580147

> <r_i_glide_hbond>
-0.044987525750878

> <r_i_glide_metal>
0

> <r_i_glide_rewards>
-2.77289931895655

> <r_i_glide_evdw>
-41.8643836975098

> <r_i_glide_ecoul>
-2.15779089927673

> <r_i_glide_erotb>
0.780318961417438

> <r_i_glide_esite>
0

> <r_i_glide_emodel>
-55.7740872255387

> <r_i_glide_energy>
-44.0221745967865

> <r_i_glide_einternal>
16.4299221038818

> <i_i_glide_confnum>
205

> <i_i_glide_posenum>
43

> <r_i_glide_eff_state_penalty>
0

> <s_user_duplicate_titles>
CHEMBL1966_lig461

> <i_f3d_flags>
0

> <s_m_subgroup_title>
dock_pv

> <s_m_subgroupid>
dock_pv

> <b_m_subgroup_collapsed>
1

$$$$
CHEMBL1966_lig176
                    3D
 Schrodinger Suite 2021-1.
 39 41  0  0  1  0            999 V2000
   54.5595   47.6725   -3.8103 C   0  0  0  0  0  0
   54.8789   47.4567   -2.3349 C   0  0  0  0  0  0
   55.9744   48.1630   -1.8290 C   0  0  0  0  0  0
   56.3642   48.0102   -0.5040 C   0  0  0  0  0  0
   55.6442   47.1753    0.3395 C   0  0  0  0  0  0
   54.5428   46.4816   -0.1431 C   0  0  0  0  0  0
   54.1462   46.5911   -1.4837 C   0  0  0  0  0  0
   53.0364   45.7065   -1.9374 C   0  0  0  0  0  0
   51.8612   45.5483   -1.1823 C   0  0  0  0  0  0
   50.9185   44.5616   -1.5030 C   0  0  0  0  0  0
   49.8367   44.4102   -0.7038 F   0  0  0  0  0  0
   51.1128   43.7509   -2.6361 C   0  0  0  0  0  0
   50.2306   42.7418   -3.0698 N   0  0  0  0  0  0
   49.6213   41.6892   -2.3760 C   0  0  0  0  0  0
   49.9010   41.6104   -1.0493 N   0  0  0  0  0  0
   49.2238   40.7215   -0.2949 C   0  0  0  0  0  0
   48.2560   39.8689   -0.8151 C   0  0  0  0  0  0
   48.0232   39.8894   -2.1893 C   0  0  0  0  0  0
   48.7039   40.8087   -3.0092 C   0  0  0  0  0  0
   48.4191   40.8244   -4.4992 C   0  0  0  0  0  0
   49.2228   41.2260   -5.3343 O   0  0  0  0  0  0
   47.1662   40.4100   -4.8487 O   0  0  0  0  0  0
   52.2458   43.9659   -3.4151 C   0  0  0  0  0  0
   52.4465   43.2092   -4.5012 F   0  0  0  0  0  0
   53.2071   44.9047   -3.0652 C   0  0  0  0  0  0
   54.5010   48.7379   -4.0376 H   0  0  0  0  0  0
   55.3574   47.2613   -4.4296 H   0  0  0  0  0  0
   53.6226   47.2302   -4.1278 H   0  0  0  0  0  0
   56.5416   48.8235   -2.4698 H   0  0  0  0  0  0
   57.2222   48.5443   -0.1266 H   0  0  0  0  0  0
   55.9457   47.0623    1.3703 H   0  0  0  0  0  0
   54.0189   45.8204    0.5328 H   0  0  0  0  0  0
   51.7015   46.1508   -0.2999 H   0  0  0  0  0  0
   50.1064   42.6848   -4.0728 H   0  0  0  0  0  0
   49.4813   40.6912    0.7496 H   0  0  0  0  0  0
   47.7386   39.1683   -0.1743 H   0  0  0  0  0  0
   47.3195   39.1769   -2.5948 H   0  0  0  0  0  0
   46.5998   40.2666   -4.0894 H   0  0  0  0  0  0
   54.1075   44.9711   -3.6593 H   0  0  0  0  0  0
  1  2  1  0  0  0
  1 26  1  0  0  0
  1 27  1  0  0  0
  1 28  1  0  0  0
  2  3  2  0  0  0
  2  7  1  0  0  0
  3  4  1  0  0  0
  3 29  1  0  0  0
  4  5  2  0  0  0
  4 30  1  0  0  0
  5  6  1  0  0  0
  5 31  1  0  0  0
  6  7  2  0  0  0
  6 32  1  0  0  0
  7  8  1  0  0  0
  8  9  2  0  0  0
  8 25  1  0  0  0
  9 10  1  0  0  0
  9 33  1  0  0  0
 10 11  1  0  0  0
 10 12  2  0  0  0
 12 13  1  0  0  0
 12 23  1  0  0  0
 13 14  1  0  0  0
 13 34  1  0  0  0
 14 15  2  0  0  0
 14 19  1  0  0  0
 15 16  1  0  0  0
 16 17  2  0  0  0
 16 35  1  0  0  0
 17 18  1  0  0  0
 17 36  1  0  0  0
 18 19  2  0  0  0
 18 37  1  0  0  0
 19 20  1  0  0  0
 20 21  2  0  0  0
 20 22  1  0  0  0
 22 38  1  0  0  0
 23 24  1  0  0  0
 23 25  2  0  0  0
 25 39  1  0  0  0
M  END
> <s_m_entry_id>
25634

> <s_m_entry_name>
dock_pv.286

> <s_m_Source_Path>
/home/csk/Desktop/cluster/DUD-E-result/pyrd

> <s_m_Source_File>
dock_pv.maegz

> <i_m_Source_File_Index>
286

> <chembl_id>
CHEMBL2263626

> <chembl_pref_name>
None

> <i_lp_mmshare_version>
53161

> <r_lp_tautomer_probability>
1

> <s_lp_Force_Field>
OPLS_2005

> <r_lp_Energy>
27.11086

> <b_lp_Chiralities_Consistent>
1

> <s_lp_Variant>
CHEMBL1966_lig176-1

> <s_i_glide_gridfile>
glide-grid_1d3g

> <i_i_glide_lignum>
221

> <i_i_glide_rotatable_bonds>
5

> <r_i_docking_score>
-9.35691833609453

> <r_i_glide_ligand_efficiency>
-0.374276733443781

> <r_i_glide_ligand_efficiency_sa>
-1.09439180641575

> <r_i_glide_ligand_efficiency_ln>
-2.2178700498697

> <r_i_glide_gscore>
-9.35691833609453

> <r_i_glide_lipo>
-4.89733418002056

> <r_i_glide_hbond>
0

> <r_i_glide_metal>
0

> <r_i_glide_rewards>
-2.84605037429256

> <r_i_glide_evdw>
-37.1413383483887

> <r_i_glide_ecoul>
-2.73629117012024

> <r_i_glide_erotb>
0.65397681115606

> <r_i_glide_esite>
0

> <r_i_glide_emodel>
-54.0885670712055

> <r_i_glide_energy>
-39.8776295185089

> <r_i_glide_einternal>
6.9109263420105

> <i_i_glide_confnum>
35

> <i_i_glide_posenum>
202

> <r_i_glide_eff_state_penalty>
0

> <s_user_duplicate_titles>
CHEMBL1966_lig176

> <i_f3d_flags>
0

> <s_m_subgroup_title>
dock_pv

> <s_m_subgroupid>
dock_pv

> <b_m_subgroup_collapsed>
1

$$$$
CHEMBL1966_lig113
                    3D
 Schrodinger Suite 2021-1.
 35 36  0  0  1  0            999 V2000
   54.6309   45.6107    0.7009 Cl  0  0  0  0  0  0
   54.8492   46.6931   -0.6259 C   0  0  0  0  0  0
   55.9152   47.5914   -0.5464 C   0  0  0  0  0  0
   56.1959   48.4488   -1.6054 C   0  0  0  0  0  0
   55.4042   48.4115   -2.7488 C   0  0  0  0  0  0
   54.3258   47.5329   -2.8236 C   0  0  0  0  0  0
   54.0269   46.6546   -1.7718 C   0  0  0  0  0  0
   52.9180   45.6672   -1.9611 C   0  0  0  0  0  0
   51.8069   45.5402   -1.1038 C   0  0  0  0  0  0
   50.8421   44.5387   -1.3282 C   0  0  0  0  0  0
   51.6229   46.6001    0.2524 Cl  0  0  0  0  0  0
   53.0008   44.8101   -3.0593 C   0  0  0  0  0  0
   52.0373   43.8354   -3.2991 C   0  0  0  0  0  0
   50.9494   43.6747   -2.4307 C   0  0  0  0  0  0
   50.0234   42.6208   -2.6070 N   0  0  0  0  0  0
   49.6233   42.1078   -3.7984 C   0  0  0  0  0  0
   49.8871   42.6526   -4.8723 O   0  0  0  0  0  0
   48.8588   40.7628   -3.8079 C   0  0  1  0  0  0
   48.3916   40.2534   -2.5057 C   0  0  0  0  0  0
   48.0230   39.8489   -1.4861 N   0  0  0  0  0  0
   47.7718   40.6159   -4.8991 C   0  0  0  0  0  0
   46.3677   40.1606   -4.4987 C   0  0  0  0  0  0
   48.0245   40.8100   -6.0885 O   0  0  0  0  0  0
   56.5437   47.6091    0.3317 H   0  0  0  0  0  0
   57.0307   49.1317   -1.5405 H   0  0  0  0  0  0
   55.6239   49.0691   -3.5772 H   0  0  0  0  0  0
   53.7254   47.5222   -3.7221 H   0  0  0  0  0  0
   50.0119   44.4442   -0.6427 H   0  0  0  0  0  0
   53.8566   44.8736   -3.7114 H   0  0  0  0  0  0
   52.1873   43.1730   -4.1386 H   0  0  0  0  0  0
   49.6372   42.2245   -1.7625 H   0  0  0  0  0  0
   46.3962   39.1494   -4.0983 H   0  0  0  0  0  0
   45.7016   40.1646   -5.3611 H   0  0  0  0  0  0
   45.9395   40.8104   -3.7386 H   0  0  0  0  0  0
   49.6167   40.0311   -4.0860 H   0  0  0  0  0  0
  1  2  1  0  0  0
  2  3  2  0  0  0
  2  7  1  0  0  0
  3  4  1  0  0  0
  3 24  1  0  0  0
  4  5  2  0  0  0
  4 25  1  0  0  0
  5  6  1  0  0  0
  5 26  1  0  0  0
  6  7  2  0  0  0
  6 27  1  0  0  0
  7  8  1  0  0  0
  8  9  2  0  0  0
  8 12  1  0  0  0
  9 10  1  0  0  0
  9 11  1  0  0  0
 10 14  2  0  0  0
 10 28  1  0  0  0
 12 13  2  0  0  0
 12 29  1  0  0  0
 13 14  1  0  0  0
 13 30  1  0  0  0
 14 15  1  0  0  0
 15 16  1  0  0  0
 15 31  1  0  0  0
 16 17  2  0  0  0
 16 18  1  0  0  0
 18 19  1  0  0  0
 18 35  1  0  0  0
 18 21  1  0  0  0
 19 20  3  0  0  0
 21 23  2  0  0  0
 21 22  1  0  0  0
 22 32  1  0  0  0
 22 33  1  0  0  0
 22 34  1  0  0  0
M  END
> <s_m_entry_id>
25635

> <s_m_entry_name>
dock_pv.287

> <s_m_Source_Path>
/home/csk/Desktop/cluster/DUD-E-result/pyrd

> <s_m_Source_File>
dock_pv.maegz

> <i_m_Source_File_Index>
287

> <chembl_id>
CHEMBL484780

> <chembl_pref_name>
None

> <i_lp_mmshare_version>
53161

> <r_lp_tautomer_probability>
0.995394628248396

> <s_lp_Force_Field>
OPLS_2005

> <r_lp_Energy>
24.665062

> <b_lp_Chiralities_Consistent>
1

> <s_lp_Variant>
CHEMBL1966_lig113-2

> <s_i_glide_gridfile>
glide-grid_1d3g

> <i_i_glide_lignum>
128

> <i_i_glide_rotatable_bonds>
5

> <r_i_docking_score>
-9.35104697410993

> <r_i_glide_ligand_efficiency>
-0.40656725974391

> <r_i_glide_ligand_efficiency_sa>
-1.156223203866

> <r_i_glide_ligand_efficiency_ln>
-2.26116794894585

> <r_i_glide_gscore>
-9.35104697410993

> <r_i_glide_lipo>
-4.68935098351087

> <r_i_glide_hbond>
-0.227853804433473

> <r_i_glide_metal>
0

> <r_i_glide_rewards>
-2.63833011418114

> <r_i_glide_evdw>
-41.1737899780273

> <r_i_glide_ecoul>
-2.45337891578674

> <r_i_glide_erotb>
0.631184264284931

> <r_i_glide_esite>
0

> <r_i_glide_emodel>
-62.9518077317378

> <r_i_glide_energy>
-43.6271688938141

> <r_i_glide_einternal>
8.25863075256348

> <i_i_glide_confnum>
9

> <i_i_glide_posenum>
34

> <r_i_glide_eff_state_penalty>
0

> <s_user_duplicate_titles>
CHEMBL1966_lig113,520680

> <i_f3d_flags>
0

> <s_m_subgroup_title>
dock_pv

> <s_m_subgroupid>
dock_pv

> <b_m_subgroup_collapsed>
1

$$$$
CHEMBL1966_lig374
                    3D
 Schrodinger Suite 2021-1.
 41 43  0  0  1  0            999 V2000
   50.0961   42.6131   -3.5647 C   0  0  0  0  0  0
   50.0705   42.9323   -5.0022 C   0  0  0  0  0  0
   49.1326   42.2520   -5.6970 N   0  0  0  0  0  0
   48.3631   41.2084   -5.3028 C   0  0  0  0  0  0
   48.6933   40.7414   -4.0708 N   0  0  0  0  0  0
   49.4237   41.4802   -3.1597 C   0  0  0  0  0  0
   49.3196   40.9970   -1.7782 C   0  0  0  0  0  0
   48.3966   40.0100   -1.6019 O   0  0  0  0  0  0
   49.9513   41.4155   -0.8131 O   0  0  0  0  0  0
   47.4253   40.8099   -5.9810 O   0  0  0  0  0  0
   50.8210   43.6748   -5.6247 O   0  0  0  0  0  0
   50.7736   43.6583   -2.6527 C   0  0  0  0  0  0
   52.1520   44.2593   -3.0350 C   0  0  0  0  0  0
   52.7522   45.2110   -1.9655 C   0  0  0  0  0  0
   53.8894   46.8113    0.0738 C   0  0  0  0  0  0
   52.5609   46.4100    0.1452 C   0  0  0  0  0  0
   51.9920   45.6601   -0.8751 C   0  0  0  0  0  0
   54.6840   46.4617   -1.0394 C   0  0  0  0  0  0
   54.1283   45.6101   -2.0430 C   0  0  0  0  0  0
   54.9970   45.1492   -3.0533 C   0  0  0  0  0  0
   56.2987   45.6071   -3.1948 C   0  0  0  0  0  0
   56.7993   46.5157   -2.2568 C   0  0  0  0  0  0
   56.0228   46.9151   -1.1702 C   0  0  0  0  0  0
   56.9939   45.1093   -4.2784 O   0  0  0  0  0  0
   58.3256   45.5427   -4.5072 C   0  0  0  0  0  0
   48.9904   42.5784   -6.6392 H   0  0  0  0  0  0
   48.2223   39.8981   -3.7715 H   0  0  0  0  0  0
   48.3702   39.7421   -0.6802 H   0  0  0  0  0  0
   50.0441   44.4615   -2.5568 H   0  0  0  0  0  0
   50.9041   43.2853   -1.6474 H   0  0  0  0  0  0
   52.8145   43.4269   -3.2812 H   0  0  0  0  0  0
   52.0958   44.8104   -3.9658 H   0  0  0  0  0  0
   54.3193   47.4072    0.8653 H   0  0  0  0  0  0
   51.9578   46.7032    0.9930 H   0  0  0  0  0  0
   50.9507   45.3997   -0.7675 H   0  0  0  0  0  0
   54.6444   44.3862   -3.7081 H   0  0  0  0  0  0
   57.8040   46.8963   -2.3382 H   0  0  0  0  0  0
   56.4374   47.5785   -0.4237 H   0  0  0  0  0  0
   58.6967   45.0994   -5.4307 H   0  0  0  0  0  0
   58.3945   46.6268   -4.6067 H   0  0  0  0  0  0
   58.9718   45.2100   -3.6999 H   0  0  0  0  0  0
  1  2  1  0  0  0
  1  6  2  0  0  0
  1 12  1  0  0  0
  2  3  1  0  0  0
  2 11  2  0  0  0
  3  4  1  0  0  0
  3 26  1  0  0  0
  4  5  1  0  0  0
  4 10  2  0  0  0
  5  6  1  0  0  0
  5 27  1  0  0  0
  6  7  1  0  0  0
  7  8  1  0  0  0
  7  9  2  0  0  0
  8 28  1  0  0  0
 12 13  1  0  0  0
 12 29  1  0  0  0
 12 30  1  0  0  0
 13 14  1  0  0  0
 13 31  1  0  0  0
 13 32  1  0  0  0
 14 19  2  0  0  0
 14 17  1  0  0  0
 15 18  2  0  0  0
 15 16  1  0  0  0
 15 33  1  0  0  0
 16 17  2  0  0  0
 16 34  1  0  0  0
 17 35  1  0  0  0
 18 19  1  0  0  0
 18 23  1  0  0  0
 19 20  1  0  0  0
 20 21  2  0  0  0
 20 36  1  0  0  0
 21 22  1  0  0  0
 21 24  1  0  0  0
 22 23  2  0  0  0
 22 37  1  0  0  0
 23 38  1  0  0  0
 24 25  1  0  0  0
 25 39  1  0  0  0
 25 40  1  0  0  0
 25 41  1  0  0  0
M  END
> <s_m_entry_id>
25636

> <s_m_entry_name>
dock_pv.288

> <s_m_Source_Path>
/home/csk/Desktop/cluster/DUD-E-result/pyrd

> <s_m_Source_File>
dock_pv.maegz

> <i_m_Source_File_Index>
288

> <chembl_id>
CHEMBL3904389

> <chembl_pref_name>
None

> <i_lp_mmshare_version>
53161

> <r_lp_tautomer_probability>
1

> <s_lp_Force_Field>
OPLS_2005

> <r_lp_Energy>
19.318686

> <b_lp_Chiralities_Consistent>
1

> <s_lp_Variant>
CHEMBL1966_lig374-1

> <s_i_glide_gridfile>
glide-grid_1d3g

> <i_i_glide_lignum>
424

> <i_i_glide_rotatable_bonds>
6

> <r_i_docking_score>
-9.33584801406146

> <r_i_glide_ligand_efficiency>
-0.373433920562458

> <r_i_glide_ligand_efficiency_sa>
-1.09192740660341

> <r_i_glide_ligand_efficiency_ln>
-2.21287575212127

> <r_i_glide_gscore>
-9.33584801406146

> <r_i_glide_lipo>
-4.48648762804226

> <r_i_glide_hbond>
-0.206710406705113

> <r_i_glide_metal>
0

> <r_i_glide_rewards>
-2.49788355776343

> <r_i_glide_evdw>
-41.790283203125

> <r_i_glide_ecoul>
-4.7280445098877

> <r_i_glide_erotb>
0.653954415088751

> <r_i_glide_esite>
0

> <r_i_glide_emodel>
-57.7882309114284

> <r_i_glide_energy>
-46.5183277130127

> <r_i_glide_einternal>
16.6636047363281

> <i_i_glide_confnum>
26

> <i_i_glide_posenum>
209

> <r_i_glide_eff_state_penalty>
0

> <s_user_duplicate_titles>
CHEMBL1966_lig374

> <i_f3d_flags>
0

> <s_m_subgroup_title>
dock_pv

> <s_m_subgroupid>
dock_pv

> <b_m_subgroup_collapsed>
1

$$$$
CHEMBL1966_lig350
                    3D
 Schrodinger Suite 2021-1.
 37 38  0  0  1  0            999 V2000
   49.7993   41.8570   -3.7159 C   0  0  0  0  0  0
   49.6230   42.4100   -5.0694 C   0  0  0  0  0  0
   48.5080   41.9624   -5.6989 N   0  0  0  0  0  0
   47.6050   41.0274   -5.2990 C   0  0  0  0  0  0
   47.9333   40.4153   -4.1358 N   0  0  0  0  0  0
   48.9184   40.8891   -3.2928 C   0  0  0  0  0  0
   48.8230   40.4100   -1.9161 C   0  0  0  0  0  0
   48.0230   39.3049   -1.7599 O   0  0  0  0  0  0
   49.3643   40.9425   -0.9510 O   0  0  0  0  0  0
   46.5494   40.8100   -5.8749 O   0  0  0  0  0  0
   50.3661   43.2158   -5.6275 O   0  0  0  0  0  0
   50.9563   42.4951   -2.9209 C   0  0  0  0  0  0
   50.6036   43.9063   -2.4026 C   0  0  0  0  0  0
   51.7736   44.8100   -1.9960 C   0  0  0  0  0  0
   52.8905   45.0142   -2.8250 C   0  0  0  0  0  0
   53.9707   45.8025   -2.3922 C   0  0  0  0  0  0
   53.9119   46.3953   -1.1335 C   0  0  0  0  0  0
   52.8171   46.1822   -0.3002 C   0  0  0  0  0  0
   51.7254   45.4395   -0.7548 C   0  0  0  0  0  0
   55.2398   45.9621   -3.2262 C   0  0  0  0  0  0
   52.8720   46.6271    1.1415 C   0  0  0  0  0  0
   54.0905   47.0244    1.5010 F   0  0  0  0  0  0
   52.0230   47.6100    1.3428 F   0  0  0  0  0  0
   52.5094   45.6100    1.9016 F   0  0  0  0  0  0
   55.6231   44.7781   -3.6990 F   0  0  0  0  0  0
   55.0059   46.8100   -4.2253 F   0  0  0  0  0  0
   56.2600   46.4478   -2.5145 F   0  0  0  0  0  0
   48.2866   42.4504   -6.5525 H   0  0  0  0  0  0
   47.2161   39.7896   -3.8006 H   0  0  0  0  0  0
   48.0327   38.7259   -2.5245 H   0  0  0  0  0  0
   51.2856   41.8641   -2.0989 H   0  0  0  0  0  0
   51.8299   42.5347   -3.5732 H   0  0  0  0  0  0
   50.0230   44.4100   -3.1680 H   0  0  0  0  0  0
   49.9202   43.7878   -1.5601 H   0  0  0  0  0  0
   52.9313   44.5214   -3.7805 H   0  0  0  0  0  0
   54.7517   46.9726   -0.7730 H   0  0  0  0  0  0
   50.8844   45.2637   -0.0989 H   0  0  0  0  0  0
  1  2  1  0  0  0
  1  6  2  0  0  0
  1 12  1  0  0  0
  2  3  1  0  0  0
  2 11  2  0  0  0
  3  4  1  0  0  0
  3 28  1  0  0  0
  4  5  1  0  0  0
  4 10  2  0  0  0
  5  6  1  0  0  0
  5 29  1  0  0  0
  6  7  1  0  0  0
  7  8  1  0  0  0
  7  9  2  0  0  0
  8 30  1  0  0  0
 12 13  1  0  0  0
 12 31  1  0  0  0
 12 32  1  0  0  0
 13 14  1  0  0  0
 13 33  1  0  0  0
 13 34  1  0  0  0
 14 15  2  0  0  0
 14 19  1  0  0  0
 15 16  1  0  0  0
 15 35  1  0  0  0
 16 17  2  0  0  0
 16 20  1  0  0  0
 17 18  1  0  0  0
 17 36  1  0  0  0
 18 19  2  0  0  0
 18 21  1  0  0  0
 19 37  1  0  0  0
 20 25  1  0  0  0
 20 26  1  0  0  0
 20 27  1  0  0  0
 21 22  1  0  0  0
 21 23  1  0  0  0
 21 24  1  0  0  0
M  END
> <s_m_entry_id>
25637

> <s_m_entry_name>
dock_pv.289

> <s_m_Source_Path>
/home/csk/Desktop/cluster/DUD-E-result/pyrd

> <s_m_Source_File>
dock_pv.maegz

> <i_m_Source_File_Index>
289

> <chembl_id>
CHEMBL3926030

> <chembl_pref_name>
None

> <i_lp_mmshare_version>
53161

> <r_lp_tautomer_probability>
1

> <s_lp_Force_Field>
OPLS_2005

> <r_lp_Energy>
11.453554

> <b_lp_Chiralities_Consistent>
1

> <s_lp_Variant>
CHEMBL1966_lig350-1

> <s_i_glide_gridfile>
glide-grid_1d3g

> <i_i_glide_lignum>
400

> <i_i_glide_rotatable_bonds>
7

> <r_i_docking_score>
-9.32794599082474

> <r_i_glide_ligand_efficiency>
-0.345479481141657

> <r_i_glide_ligand_efficiency_sa>
-1.03643844228633

> <r_i_glide_ligand_efficiency_ln>
-2.17139204345553

> <r_i_glide_gscore>
-9.32794599082474

> <r_i_glide_lipo>
-3.81230960406246

> <r_i_glide_hbond>
-0.16

> <r_i_glide_metal>
0

> <r_i_glide_rewards>
-3.74677898958698

> <r_i_glide_evdw>
-30.0048484802246

> <r_i_glide_ecoul>
-4.04673099517822

> <r_i_glide_erotb>
0.498394676112653

> <r_i_glide_esite>
0

> <r_i_glide_emodel>
-46.8770770844677

> <r_i_glide_energy>
-34.0515794754028

> <r_i_glide_einternal>
2.29875111579895

> <i_i_glide_confnum>
4

> <i_i_glide_posenum>
244

> <r_i_glide_eff_state_penalty>
0

> <s_user_duplicate_titles>
CHEMBL1966_lig350

> <i_f3d_flags>
0

> <s_m_subgroup_title>
dock_pv

> <s_m_subgroupid>
dock_pv

> <b_m_subgroup_collapsed>
1

$$$$
CHEMBL1966_lig467
                    3D
 Schrodinger Suite 2021-1.
 39 41  0  0  1  0            999 V2000
   58.1209   48.5862   -3.4197 C   0  0  0  0  0  0
   56.8508   47.9166   -2.9284 C   0  0  0  0  0  0
   55.8679   47.5431   -3.8404 C   0  0  0  0  0  0
   54.6718   46.9932   -3.3931 C   0  0  0  0  0  0
   54.4527   46.7706   -2.0304 C   0  0  0  0  0  0
   53.2428   46.2140   -1.5924 N   0  0  0  0  0  0
   52.4169   45.2099   -2.0990 C   0  0  0  0  0  0
   52.7012   44.4592   -3.2531 C   0  0  0  0  0  0
   51.8335   43.4374   -3.6426 C   0  0  0  0  0  0
   50.7037   43.1636   -2.8607 C   0  0  0  0  0  0
   50.4245   43.8750   -1.7331 N   0  0  0  0  0  0
   51.2681   44.8736   -1.3711 C   0  0  0  0  0  0
   49.7510   42.0673   -3.2058 C   0  0  0  0  0  0
   49.3142   41.1451   -2.2362 C   0  0  0  0  0  0
   49.7365   41.2272   -0.9530 F   0  0  0  0  0  0
   48.4230   40.1265   -2.5679 C   0  0  0  0  0  0
   47.9460   40.0106   -3.8677 C   0  0  0  0  0  0
   48.3649   40.9120   -4.8420 C   0  0  0  0  0  0
   47.8835   40.8101   -6.0990 F   0  0  0  0  0  0
   49.2599   41.9326   -4.5168 C   0  0  0  0  0  0
   49.6333   42.8017   -5.4868 F   0  0  0  0  0  0
   55.4516   47.1197   -1.0949 C   0  0  0  0  0  0
   56.6413   47.7031   -1.5653 C   0  0  0  0  0  0
   55.2696   46.9039    0.3932 C   0  0  0  0  0  0
   54.1706   46.8100    0.9367 O   0  0  0  0  0  0
   56.4230   46.8101    1.1009 O   0  0  0  0  0  0
   57.8915   49.2942   -4.2171 H   0  0  0  0  0  0
   58.8166   47.8467   -3.8157 H   0  0  0  0  0  0
   58.6093   49.1556   -2.6275 H   0  0  0  0  0  0
   56.0237   47.6876   -4.8983 H   0  0  0  0  0  0
   53.9051   46.7638   -4.1171 H   0  0  0  0  0  0
   53.0396   46.4581   -0.6309 H   0  0  0  0  0  0
   53.6063   44.6266   -3.8083 H   0  0  0  0  0  0
   52.0650   42.8370   -4.5079 H   0  0  0  0  0  0
   51.0053   45.4047   -0.4680 H   0  0  0  0  0  0
   48.0954   39.4293   -1.8106 H   0  0  0  0  0  0
   47.2490   39.2232   -4.1092 H   0  0  0  0  0  0
   57.4156   48.0089   -0.8731 H   0  0  0  0  0  0
   56.2073   46.8097    2.0387 H   0  0  0  0  0  0
  1  2  1  0  0  0
  1 27  1  0  0  0
  1 28  1  0  0  0
  1 29  1  0  0  0
  2  3  2  0  0  0
  2 23  1  0  0  0
  3  4  1  0  0  0
  3 30  1  0  0  0
  4  5  2  0  0  0
  4 31  1  0  0  0
  5  6  1  0  0  0
  5 22  1  0  0  0
  6  7  1  0  0  0
  6 32  1  0  0  0
  7  8  2  0  0  0
  7 12  1  0  0  0
  8  9  1  0  0  0
  8 33  1  0  0  0
  9 10  2  0  0  0
  9 34  1  0  0  0
 10 11  1  0  0  0
 10 13  1  0  0  0
 11 12  2  0  0  0
 12 35  1  0  0  0
 13 14  2  0  0  0
 13 20  1  0  0  0
 14 15  1  0  0  0
 14 16  1  0  0  0
 16 17  2  0  0  0
 16 36  1  0  0  0
 17 18  1  0  0  0
 17 37  1  0  0  0
 18 19  1  0  0  0
 18 20  2  0  0  0
 20 21  1  0  0  0
 22 23  2  0  0  0
 22 24  1  0  0  0
 23 38  1  0  0  0
 24 25  2  0  0  0
 24 26  1  0  0  0
 26 39  1  0  0  0
M  END
> <s_m_entry_id>
25638

> <s_m_entry_name>
dock_pv.290

> <s_m_Source_Path>
/home/csk/Desktop/cluster/DUD-E-result/pyrd

> <s_m_Source_File>
dock_pv.maegz

> <i_m_Source_File_Index>
290

> <chembl_id>
CHEMBL3674676

> <chembl_pref_name>
None

> <i_lp_mmshare_version>
53161

> <r_lp_tautomer_probability>
0.999999999999999

> <s_lp_Force_Field>
OPLS_2005

> <r_lp_Energy>
29.652864

> <b_lp_Chiralities_Consistent>
1

> <s_lp_Variant>
CHEMBL1966_lig467-1

> <s_i_glide_gridfile>
glide-grid_1d3g

> <i_i_glide_lignum>
517

> <i_i_glide_rotatable_bonds>
5

> <r_i_docking_score>
-9.32014339356458

> <r_i_glide_ligand_efficiency>
-0.358467053598638

> <r_i_glide_ligand_efficiency_sa>
-1.06195723578622

> <r_i_glide_ligand_efficiency_ln>
-2.1888050940938

> <r_i_glide_gscore>
-9.32014339356458

> <r_i_glide_lipo>
-4.79995454558515

> <r_i_glide_hbond>
0

> <r_i_glide_metal>
0

> <r_i_glide_rewards>
-2.43887913156898

> <r_i_glide_evdw>
-42.8507385253906

> <r_i_glide_ecoul>
-2.9035484790802

> <r_i_glide_erotb>
0.596759481721111

> <r_i_glide_esite>
-0.1

> <r_i_glide_emodel>
-69.0230512143129

> <r_i_glide_energy>
-45.7542870044708

> <r_i_glide_einternal>
4.00827884674072

> <i_i_glide_confnum>
5

> <i_i_glide_posenum>
226

> <r_i_glide_eff_state_penalty>
0

> <s_user_duplicate_titles>
CHEMBL1966_lig467

> <i_f3d_flags>
0

> <s_m_subgroup_title>
dock_pv

> <s_m_subgroupid>
dock_pv

> <b_m_subgroup_collapsed>
1

$$$$
CHEMBL1966_lig68
                    3D
 Schrodinger Suite 2021-1.
 44 46  0  0  1  0            999 V2000
   49.2501   41.4359   -2.9960 C   0  0  0  0  0  0
   50.1303   42.5740   -3.2654 C   0  0  0  0  0  0
   48.4224   40.8100   -3.8869 C   0  0  0  0  0  0
   56.3727   47.2549   -2.1846 C   0  0  0  0  0  0
   48.2804   41.0968   -5.3010 C   0  0  0  0  0  0
   50.4712   43.2528   -2.1496 N   0  0  0  0  0  0
   55.5130   46.8883   -0.9735 C   0  0  0  0  0  0
   52.1658   46.1117   -0.5775 C   0  0  0  0  0  0
   51.2250   45.1206   -0.8674 C   0  0  0  0  0  0
   51.3558   44.3358   -2.0157 C   0  0  0  0  0  0
   54.1639   47.3290   -1.1594 O   0  0  0  0  0  0
   53.2273   46.3626   -1.4588 C   0  0  0  0  0  0
   56.7949   48.5786   -2.4057 C   0  0  0  0  0  0
   56.7584   46.2587   -3.0950 C   0  0  0  0  0  0
   50.5125   42.8990   -4.3871 O   0  0  0  0  0  0
   49.2084   41.1549   -6.0990 O   0  0  0  0  0  0
   53.3281   45.6093   -2.6318 C   0  0  0  0  0  0
   52.0230   46.9890    0.9046 Cl  0  0  0  0  0  0
   46.9738   41.2100   -5.6782 O   0  0  0  0  0  0
   52.4230   44.5833   -2.8990 C   0  0  0  0  0  0
   56.4230   49.8548   -1.2992 Cl  0  0  0  0  0  0
   56.4042   44.9673   -2.8989 F   0  0  0  0  0  0
   49.1001   40.8100   -1.6108 C   0  0  0  0  0  0
   47.5517   39.7633   -3.2129 C   0  0  0  0  0  0
   48.0229   39.7433   -1.7705 C   0  0  0  0  0  0
   57.8992   47.9011   -4.4508 C   0  0  0  0  0  0
   57.5466   48.8939   -3.5391 C   0  0  0  0  0  0
   57.5105   46.5831   -4.2230 C   0  0  0  0  0  0
   50.0144   42.9671   -1.2991 H   0  0  0  0  0  0
   55.9103   47.3877   -0.0889 H   0  0  0  0  0  0
   55.5785   45.8230   -0.7429 H   0  0  0  0  0  0
   50.4236   44.9346   -0.1667 H   0  0  0  0  0  0
   54.1220   45.8006   -3.3349 H   0  0  0  0  0  0
   46.3816   41.2002   -4.9230 H   0  0  0  0  0  0
   52.5786   43.9825   -3.7820 H   0  0  0  0  0  0
   48.8309   41.4914   -0.8095 H   0  0  0  0  0  0
   50.0230   40.3856   -1.2699 H   0  0  0  0  0  0
   47.6813   38.7961   -3.6881 H   0  0  0  0  0  0
   46.4920   40.0158   -3.2757 H   0  0  0  0  0  0
   47.2032   39.9325   -1.0800 H   0  0  0  0  0  0
   48.3858   38.7549   -1.5028 H   0  0  0  0  0  0
   58.4828   48.1500   -5.3251 H   0  0  0  0  0  0
   57.8609   49.9136   -3.7084 H   0  0  0  0  0  0
   57.7949   45.8068   -4.9179 H   0  0  0  0  0  0
  1  2  1  0  0  0
  1  3  2  0  0  0
  1 23  1  0  0  0
  2  6  1  0  0  0
  2 15  2  0  0  0
  3  5  1  0  0  0
  3 24  1  0  0  0
  4  7  1  0  0  0
  4 13  2  0  0  0
  4 14  1  0  0  0
  5 16  2  0  0  0
  5 19  1  0  0  0
  6 10  1  0  0  0
  6 29  1  0  0  0
  7 11  1  0  0  0
  7 30  1  0  0  0
  7 31  1  0  0  0
  8  9  2  0  0  0
  8 18  1  0  0  0
  8 12  1  0  0  0
  9 10  1  0  0  0
  9 32  1  0  0  0
 10 20  2  0  0  0
 11 12  1  0  0  0
 12 17  2  0  0  0
 13 21  1  0  0  0
 13 27  1  0  0  0
 14 22  1  0  0  0
 14 28  2  0  0  0
 17 20  1  0  0  0
 17 33  1  0  0  0
 19 34  1  0  0  0
 20 35  1  0  0  0
 23 25  1  0  0  0
 23 36  1  0  0  0
 23 37  1  0  0  0
 24 25  1  0  0  0
 24 38  1  0  0  0
 24 39  1  0  0  0
 25 40  1  0  0  0
 25 41  1  0  0  0
 26 28  1  0  0  0
 26 27  2  0  0  0
 26 42  1  0  0  0
 27 43  1  0  0  0
 28 44  1  0  0  0
M  END
> <s_m_entry_id>
25639

> <s_m_entry_name>
dock_pv.291

> <s_m_Source_Path>
/home/csk/Desktop/cluster/DUD-E-result/pyrd

> <s_m_Source_File>
dock_pv.maegz

> <i_m_Source_File_Index>
291

> <chembl_id>
CHEMBL193365

> <chembl_pref_name>
None

> <i_lp_mmshare_version>
53161

> <r_lp_tautomer_probability>
1

> <s_lp_Force_Field>
OPLS_2005

> <r_lp_Energy>
47.376035

> <b_lp_Chiralities_Consistent>
1

> <s_lp_Variant>
CHEMBL1966_lig68-1

> <s_i_glide_gridfile>
glide-grid_1d3g

> <i_i_glide_lignum>
74

> <i_i_glide_rotatable_bonds>
8

> <r_i_docking_score>
-9.31961205768597

> <r_i_glide_ligand_efficiency>
-0.332843287774499

> <r_i_glide_ligand_efficiency_sa>
-1.01070825589625

> <r_i_glide_ligand_efficiency_ln>
-2.15124009861415

> <r_i_glide_gscore>
-9.31961205768597

> <r_i_glide_lipo>
-5.12548238458153

> <r_i_glide_hbond>
-0.134639557152322

> <r_i_glide_metal>
0

> <r_i_glide_rewards>
-2.24919594840218

> <r_i_glide_evdw>
-43.6746063232422

> <r_i_glide_ecoul>
-2.65102982521057

> <r_i_glide_erotb>
0.771090622393758

> <r_i_glide_esite>
0

> <r_i_glide_emodel>
-62.9928700828031

> <r_i_glide_energy>
-46.3256361484528

> <r_i_glide_einternal>
10.6660480499268

> <i_i_glide_confnum>
107

> <i_i_glide_posenum>
260

> <r_i_glide_eff_state_penalty>
0

> <s_user_duplicate_titles>
CHEMBL1966_lig68,327236

> <i_f3d_flags>
0

> <s_m_subgroup_title>
dock_pv

> <s_m_subgroupid>
dock_pv

> <b_m_subgroup_collapsed>
1

$$$$
CHEMBL1966_lig705
                    3D
 Schrodinger Suite 2021-1.
 42 46  0  0  1  0            999 V2000
   53.7637   45.7129   -2.5906 C   0  0  0  0  0  0
   54.1770   46.4940   -1.4944 C   0  0  0  0  0  0
   54.5481   45.6066   -3.6970 N   0  0  0  0  0  0
   55.3632   47.2590   -1.6449 C   0  0  0  0  0  0
   52.5410   44.8102   -2.5317 C   0  0  0  0  0  0
   56.1237   47.2318   -2.8551 C   0  0  0  0  0  0
   51.6229   44.8379   -1.4616 C   0  0  0  0  0  0
   55.7096   46.2947   -3.8284 C   0  0  0  0  0  0
   51.6250   46.1715   -0.3196 S   0  0  0  0  0  0
   55.9588   48.0038   -0.4990 C   0  0  0  0  0  0
   53.4114   46.4101   -0.1669 C   0  0  0  0  0  0
   52.3151   43.8353   -3.5191 C   0  0  0  0  0  0
   50.6579   43.8253   -1.3087 C   0  0  0  0  0  0
   50.5465   42.7776   -2.2350 C   0  0  0  0  0  0
   57.2904   48.0193   -3.1363 C   0  0  0  0  0  0
   56.2295   47.2096    0.5755 O   0  0  0  0  0  0
   51.3485   42.8497   -3.3677 C   0  0  0  0  0  0
   56.2389   49.1956   -0.5624 O   0  0  0  0  0  0
   56.5470   46.0485   -4.9467 C   0  0  0  0  0  0
   49.6230   41.6092   -2.0675 C   0  0  0  0  0  0
   58.0232   47.8311   -4.3003 C   0  0  0  0  0  0
   57.6737   46.8254   -5.1851 C   0  0  0  0  0  0
   59.1003   48.6084   -4.5526 F   0  0  0  0  0  0
   48.9795   41.0539   -3.1875 C   0  0  0  0  0  0
   49.3591   41.0423   -0.8079 C   0  0  0  0  0  0
   48.4232   40.0100   -0.6711 C   0  0  0  0  0  0
   48.0663   40.0103   -3.0563 C   0  0  0  0  0  0
   47.7775   39.5040   -1.7950 C   0  0  0  0  0  0
   53.5155   47.3194    0.4182 H   0  0  0  0  0  0
   53.8134   45.6100    0.4509 H   0  0  0  0  0  0
   52.9541   43.7420   -4.3757 H   0  0  0  0  0  0
   49.9961   43.8527   -0.4548 H   0  0  0  0  0  0
   57.6412   48.7723   -2.4493 H   0  0  0  0  0  0
   51.2934   42.0650   -4.0990 H   0  0  0  0  0  0
   56.3115   45.2600   -5.6434 H   0  0  0  0  0  0
   58.2780   46.6517   -6.0633 H   0  0  0  0  0  0
   49.1509   41.4563   -4.1747 H   0  0  0  0  0  0
   49.8513   41.4240    0.0741 H   0  0  0  0  0  0
   48.2109   39.5931    0.3009 H   0  0  0  0  0  0
   47.5727   39.6061   -3.9276 H   0  0  0  0  0  0
   47.0640   38.7003   -1.6876 H   0  0  0  0  0  0
   56.6734   47.7174    1.2583 H   0  0  0  0  0  0
  1  2  1  0  0  0
  1  3  2  0  0  0
  1  5  1  0  0  0
  2  4  2  0  0  0
  2 11  1  0  0  0
  3  8  1  0  0  0
  4 10  1  0  0  0
  4  6  1  0  0  0
  5  7  2  0  0  0
  5 12  1  0  0  0
  6  8  1  0  0  0
  6 15  2  0  0  0
  7  9  1  0  0  0
  7 13  1  0  0  0
  8 19  2  0  0  0
  9 11  1  0  0  0
 10 16  1  0  0  0
 10 18  2  0  0  0
 11 29  1  0  0  0
 11 30  1  0  0  0
 12 17  2  0  0  0
 12 31  1  0  0  0
 13 14  2  0  0  0
 13 32  1  0  0  0
 14 17  1  0  0  0
 14 20  1  0  0  0
 15 21  1  0  0  0
 15 33  1  0  0  0
 16 42  1  0  0  0
 17 34  1  0  0  0
 19 22  1  0  0  0
 19 35  1  0  0  0
 20 24  1  0  0  0
 20 25  2  0  0  0
 21 22  2  0  0  0
 21 23  1  0  0  0
 22 36  1  0  0  0
 24 27  2  0  0  0
 24 37  1  0  0  0
 25 26  1  0  0  0
 25 38  1  0  0  0
 26 28  2  0  0  0
 26 39  1  0  0  0
 27 28  1  0  0  0
 27 40  1  0  0  0
 28 41  1  0  0  0
M  END
> <s_m_entry_id>
25640

> <s_m_entry_name>
dock_pv.292

> <s_m_Source_Path>
/home/csk/Desktop/cluster/DUD-E-result/pyrd

> <s_m_Source_File>
dock_pv.maegz

> <i_m_Source_File_Index>
292

> <chembl_id>
CHEMBL104302

> <chembl_pref_name>
None

> <i_lp_mmshare_version>
53161

> <r_lp_tautomer_probability>
1

> <s_lp_Force_Field>
OPLS_2005

> <r_lp_Energy>
31.57664

> <b_lp_Chiralities_Consistent>
1

> <s_lp_Variant>
CHEMBL1966_lig705-1

> <s_i_glide_gridfile>
glide-grid_1d3g

> <i_i_glide_lignum>
774

> <i_i_glide_rotatable_bonds>
3

> <r_i_docking_score>
-9.31604216827249

> <r_i_glide_ligand_efficiency>
-0.332715791724017

> <r_i_glide_ligand_efficiency_sa>
-1.01032110279583

> <r_i_glide_ligand_efficiency_ln>
-2.15041606332101

> <r_i_glide_gscore>
-9.31604216827249

> <r_i_glide_lipo>
-5.91333374465017

> <r_i_glide_hbond>
0

> <r_i_glide_metal>
0

> <r_i_glide_rewards>
-2.05572699322675

> <r_i_glide_evdw>
-29.0411605834961

> <r_i_glide_ecoul>
-1.02932572364807

> <r_i_glide_erotb>
0.259475457326441

> <r_i_glide_esite>
0

> <r_i_glide_emodel>
-46.8422331385644

> <r_i_glide_energy>
-30.0704863071442

> <r_i_glide_einternal>
4.30551338195801

> <i_i_glide_confnum>
10

> <i_i_glide_posenum>
75

> <r_i_glide_eff_state_penalty>
0

> <s_user_duplicate_titles>
CHEMBL1966_lig705,174315

> <i_f3d_flags>
0

> <s_m_subgroup_title>
dock_pv

> <s_m_subgroupid>
dock_pv

> <b_m_subgroup_collapsed>
1

$$$$
CHEMBL1966_lig272
                    3D
 Schrodinger Suite 2021-1.
 49 52  0  0  1  0            999 V2000
   49.2230   40.7821   -0.6113 C   0  0  0  0  0  0
   48.3182   40.0334   -1.3686 C   0  0  0  0  0  0
   50.0232   41.7431   -1.2059 C   0  0  0  0  0  0
   50.8006   42.8816   -3.2506 N   0  0  0  0  0  0
   49.9733   41.9657   -2.5841 C   0  0  0  0  0  0
   53.1817   45.3239   -2.5627 C   0  0  0  0  0  0
   50.9900   44.8098   -1.2990 S   0  0  0  0  0  0
   56.3854   46.8100    0.6907 C   0  0  0  0  0  0
   52.5084   45.6409   -1.3599 C   0  0  0  0  0  0
   54.2372   46.5602   -0.2168 O   0  0  0  0  0  0
   52.1570   46.8087    0.6944 O   0  0  0  0  0  0
   48.2272   40.2863   -2.7573 C   0  0  0  0  0  0
   52.5714   44.4100   -3.2990 N   0  0  0  0  0  0
   52.9130   46.4100   -0.1966 C   0  0  0  0  0  0
   49.0943   41.2091   -3.3489 C   0  0  0  0  0  0
   54.9237   47.2100    0.8219 C   0  0  0  0  0  0
   51.4759   43.9627   -2.7432 C   0  0  0  0  0  0
   54.4979   45.8526   -3.0369 C   0  0  0  0  0  0
   54.6785   47.2306   -3.1909 C   0  0  0  0  0  0
   55.9139   47.7314   -3.5931 C   0  0  0  0  0  0
   56.9668   46.8529   -3.8416 C   0  0  0  0  0  0
   56.7952   45.4779   -3.6972 C   0  0  0  0  0  0
   55.5585   44.9772   -3.2988 C   0  0  0  0  0  0
   47.4064   39.0257   -0.6789 C   0  0  0  0  0  0
   46.1173   38.7644   -1.4602 C   0  0  0  0  0  0
   46.4852   38.4603   -2.8990 C   0  0  0  0  0  0
   47.1137   39.6700   -3.5895 C   0  0  0  0  0  0
   49.3055   40.6088    0.4515 H   0  0  0  0  0  0
   50.7339   42.2554   -0.5798 H   0  0  0  0  0  0
   50.9162   42.6626   -4.2280 H   0  0  0  0  0  0
   56.9911   47.2096    1.5013 H   0  0  0  0  0  0
   56.4791   45.7246    0.7017 H   0  0  0  0  0  0
   56.8097   47.1751   -0.2464 H   0  0  0  0  0  0
   49.0227   41.3903   -4.4117 H   0  0  0  0  0  0
   54.8230   48.2899    0.7256 H   0  0  0  0  0  0
   54.5299   46.9194    1.7973 H   0  0  0  0  0  0
   53.8640   47.9118   -2.9899 H   0  0  0  0  0  0
   56.0563   48.7961   -3.7069 H   0  0  0  0  0  0
   57.9276   47.2409   -4.1471 H   0  0  0  0  0  0
   57.6190   44.8055   -3.8880 H   0  0  0  0  0  0
   55.4273   43.9110   -3.1780 H   0  0  0  0  0  0
   47.9528   38.0926   -0.5312 H   0  0  0  0  0  0
   47.1344   39.3966    0.3010 H   0  0  0  0  0  0
   45.5827   37.9196   -1.0388 H   0  0  0  0  0  0
   45.4318   39.6100   -1.4083 H   0  0  0  0  0  0
   47.2306   37.6659   -2.8994 H   0  0  0  0  0  0
   45.6231   38.1047   -3.4622 H   0  0  0  0  0  0
   46.3394   40.4190   -3.7569 H   0  0  0  0  0  0
   47.5013   39.3977   -4.5677 H   0  0  0  0  0  0
  1  2  2  0  0  0
  1  3  1  0  0  0
  1 28  1  0  0  0
  2 12  1  0  0  0
  2 24  1  0  0  0
  3  5  2  0  0  0
  3 29  1  0  0  0
  4 17  1  0  0  0
  4  5  1  0  0  0
  4 30  1  0  0  0
  5 15  1  0  0  0
  6  9  2  0  0  0
  6 13  1  0  0  0
  6 18  1  0  0  0
  7 17  1  0  0  0
  7  9  1  0  0  0
  8 16  1  0  0  0
  8 31  1  0  0  0
  8 32  1  0  0  0
  8 33  1  0  0  0
  9 14  1  0  0  0
 10 14  1  0  0  0
 10 16  1  0  0  0
 11 14  2  0  0  0
 12 15  2  0  0  0
 12 27  1  0  0  0
 13 17  2  0  0  0
 15 34  1  0  0  0
 16 35  1  0  0  0
 16 36  1  0  0  0
 18 19  1  0  0  0
 18 23  2  0  0  0
 19 20  2  0  0  0
 19 37  1  0  0  0
 20 21  1  0  0  0
 20 38  1  0  0  0
 21 22  2  0  0  0
 21 39  1  0  0  0
 22 23  1  0  0  0
 22 40  1  0  0  0
 23 41  1  0  0  0
 24 25  1  0  0  0
 24 42  1  0  0  0
 24 43  1  0  0  0
 25 26  1  0  0  0
 25 44  1  0  0  0
 25 45  1  0  0  0
 26 27  1  0  0  0
 26 46  1  0  0  0
 26 47  1  0  0  0
 27 48  1  0  0  0
 27 49  1  0  0  0
M  END
> <s_m_entry_id>
25641

> <s_m_entry_name>
dock_pv.293

> <s_m_Source_Path>
/home/csk/Desktop/cluster/DUD-E-result/pyrd

> <s_m_Source_File>
dock_pv.maegz

> <i_m_Source_File_Index>
293

> <chembl_id>
CHEMBL3410609

> <chembl_pref_name>
None

> <i_lp_mmshare_version>
53161

> <r_lp_tautomer_probability>
1

> <s_lp_Force_Field>
OPLS_2005

> <r_lp_Energy>
20.193351

> <b_lp_Chiralities_Consistent>
1

> <s_lp_Variant>
CHEMBL1966_lig272-1

> <s_i_glide_gridfile>
glide-grid_1d3g

> <i_i_glide_lignum>
318

> <i_i_glide_rotatable_bonds>
6

> <r_i_docking_score>
-9.31070686417134

> <r_i_glide_ligand_efficiency>
-0.344840994969309

> <r_i_glide_ligand_efficiency_sa>
-1.03452298377139

> <r_i_glide_ligand_efficiency_ln>
-2.16737905897983

> <r_i_glide_gscore>
-9.31070686417134

> <r_i_glide_lipo>
-6.04523139361786

> <r_i_glide_hbond>
0

> <r_i_glide_metal>
0

> <r_i_glide_rewards>
-1.90893249093989

> <r_i_glide_evdw>
-39.6323127746582

> <r_i_glide_ecoul>
-0.342273116111755

> <r_i_glide_erotb>
0.676413626536086

> <r_i_glide_esite>
0

> <r_i_glide_emodel>
-52.6366237309636

> <r_i_glide_energy>
-39.97458589077

> <r_i_glide_einternal>
8.49006080627441

> <i_i_glide_confnum>
85

> <i_i_glide_posenum>
89

> <r_i_glide_eff_state_penalty>
0

> <s_user_duplicate_titles>
CHEMBL1966_lig272

> <i_f3d_flags>
0

> <s_m_subgroup_title>
dock_pv

> <s_m_subgroupid>
dock_pv

> <b_m_subgroup_collapsed>
1

$$$$
CHEMBL1966_lig123
                    3D
 Schrodinger Suite 2021-1.
 37 39  0  0  1  0            999 V2000
   52.7337   45.8503   -1.6257 C   0  0  0  0  0  0
   47.4511   40.0152   -3.5885 C   0  0  0  0  0  0
   52.4230   44.8500   -2.4988 O   0  0  0  0  0  0
   54.0135   46.5843   -1.8606 C   0  0  0  0  0  0
   47.4067   40.4817   -5.0263 C   0  0  0  0  0  0
   51.7352   45.9242   -0.6615 C   0  0  0  0  0  0
   51.2699   44.2569   -2.0815 C   0  0  0  0  0  0
   50.0229   42.2832   -2.3046 N   0  0  0  0  0  0
   50.8230   44.9064   -0.9377 C   0  0  0  0  0  0
   50.8042   43.1159   -2.8461 C   0  0  0  0  0  0
   48.4831   40.4100   -2.7044 C   0  0  0  0  0  0
   54.8299   47.0599   -0.8159 C   0  0  0  0  0  0
   46.1523   40.5371   -5.5579 O   0  0  0  0  0  0
   49.5344   41.2467   -3.1058 N   0  0  0  0  0  0
   48.4071   40.8100   -5.6654 O   0  0  0  0  0  0
   54.4318   46.8100    0.8494 Cl  0  0  0  0  0  0
   46.4226   39.1947   -3.0949 C   0  0  0  0  0  0
   54.4230   46.7877   -3.1852 C   0  0  0  0  0  0
   48.4229   40.0100   -1.3635 C   0  0  0  0  0  0
   56.0201   47.7295   -1.1071 C   0  0  0  0  0  0
   46.4094   38.7731   -1.7685 C   0  0  0  0  0  0
   55.6114   47.4592   -3.4685 C   0  0  0  0  0  0
   47.4071   39.1861   -0.8990 C   0  0  0  0  0  0
   56.4108   47.9318   -2.4289 C   0  0  0  0  0  0
   51.6871   46.6190    0.1644 H   0  0  0  0  0  0
   49.9346   44.6660   -0.3718 H   0  0  0  0  0  0
   51.1820   43.0590   -3.8650 H   0  0  0  0  0  0
   45.4926   40.4447   -4.8686 H   0  0  0  0  0  0
   49.6525   41.3998   -4.1004 H   0  0  0  0  0  0
   45.6232   38.8456   -3.7320 H   0  0  0  0  0  0
   53.8152   46.4296   -4.0042 H   0  0  0  0  0  0
   49.1920   40.3239   -0.6728 H   0  0  0  0  0  0
   56.6512   48.0853   -0.3047 H   0  0  0  0  0  0
   45.6229   38.1269   -1.4101 H   0  0  0  0  0  0
   55.9138   47.6101   -4.4950 H   0  0  0  0  0  0
   47.3957   38.8712    0.1319 H   0  0  0  0  0  0
   57.3335   48.4492   -2.6467 H   0  0  0  0  0  0
  1  3  1  0  0  0
  1  4  1  0  0  0
  1  6  2  0  0  0
  2  5  1  0  0  0
  2 17  2  0  0  0
  2 11  1  0  0  0
  3  7  1  0  0  0
  4 18  2  0  0  0
  4 12  1  0  0  0
  5 15  2  0  0  0
  5 13  1  0  0  0
  6  9  1  0  0  0
  6 25  1  0  0  0
  7 10  1  0  0  0
  7  9  2  0  0  0
  8 14  1  0  0  0
  8 10  2  0  0  0
  9 26  1  0  0  0
 10 27  1  0  0  0
 11 14  1  0  0  0
 11 19  2  0  0  0
 12 20  2  0  0  0
 12 16  1  0  0  0
 13 28  1  0  0  0
 14 29  1  0  0  0
 17 21  1  0  0  0
 17 30  1  0  0  0
 18 22  1  0  0  0
 18 31  1  0  0  0
 19 23  1  0  0  0
 19 32  1  0  0  0
 20 24  1  0  0  0
 20 33  1  0  0  0
 21 23  2  0  0  0
 21 34  1  0  0  0
 22 24  2  0  0  0
 22 35  1  0  0  0
 23 36  1  0  0  0
 24 37  1  0  0  0
M  END
> <s_m_entry_id>
25642

> <s_m_entry_name>
dock_pv.294

> <s_m_Source_Path>
/home/csk/Desktop/cluster/DUD-E-result/pyrd

> <s_m_Source_File>
dock_pv.maegz

> <i_m_Source_File_Index>
294

> <chembl_id>
CHEMBL1088743

> <chembl_pref_name>
None

> <i_lp_mmshare_version>
53161

> <r_lp_tautomer_probability>
1

> <s_lp_Force_Field>
OPLS_2005

> <r_lp_Energy>
21.460444

> <b_lp_Chiralities_Consistent>
1

> <s_lp_Variant>
CHEMBL1966_lig123-1

> <s_i_glide_gridfile>
glide-grid_1d3g

> <i_i_glide_lignum>
146

> <i_i_glide_rotatable_bonds>
6

> <r_i_docking_score>
-9.30639693209838

> <r_i_glide_ligand_efficiency>
-0.387766538837432

> <r_i_glide_ligand_efficiency_sa>
-1.11851224685086

> <r_i_glide_ligand_efficiency_ln>
-2.22744782857988

> <r_i_glide_gscore>
-9.30639693209838

> <r_i_glide_lipo>
-5.07165270034898

> <r_i_glide_hbond>
-0.0701958276987199

> <r_i_glide_metal>
0

> <r_i_glide_rewards>
-2.15239312121212

> <r_i_glide_evdw>
-47.2190971374512

> <r_i_glide_ecoul>
-3.10987997055054

> <r_i_glide_erotb>
0.815614679336474

> <r_i_glide_esite>
-0.000333109719888371

> <r_i_glide_emodel>
-73.7337557877474

> <r_i_glide_energy>
-50.3289771080017

> <r_i_glide_einternal>
9.4085807800293

> <i_i_glide_confnum>
13

> <i_i_glide_posenum>
135

> <r_i_glide_eff_state_penalty>
0

> <s_user_duplicate_titles>
CHEMBL1966_lig123,616097

> <i_f3d_flags>
0

> <s_m_subgroup_title>
dock_pv

> <s_m_subgroupid>
dock_pv

> <b_m_subgroup_collapsed>
1

$$$$
CHEMBL1966_lig606
                    3D
 Schrodinger Suite 2021-1.
 42 45  0  0  1  0            999 V2000
   46.2469   40.6431   -5.6884 C   0  0  0  0  0  0
   45.7929   39.6102   -4.8925 C   0  0  0  0  0  0
   46.4221   39.3062   -3.6991 C   0  0  0  0  0  0
   47.4848   41.2218   -5.4479 C   0  0  0  0  0  0
   48.1832   40.9050   -4.2622 C   0  0  0  0  0  0
   47.6089   40.0006   -3.3261 C   0  0  0  0  0  0
   48.2054   39.9192   -2.0388 C   0  0  0  0  0  0
   49.2230   40.8431   -1.6865 C   0  0  0  0  0  0
   49.6900   41.7414   -2.6759 C   0  0  0  0  0  0
   49.2386   41.6917   -3.9545 N   0  0  0  0  0  0
   50.6004   42.9214   -2.4527 C   0  0  0  0  0  0
   51.6050   43.2243   -3.3808 C   0  0  0  0  0  0
   52.4349   44.3323   -3.2227 C   0  0  0  0  0  0
   52.3306   45.1587   -2.0980 C   0  0  0  0  0  0
   51.2681   44.9128   -1.2115 C   0  0  0  0  0  0
   50.4226   43.8119   -1.3836 C   0  0  0  0  0  0
   47.5790   38.9699   -1.0493 C   0  0  0  0  0  0
   46.8665   39.6056   -0.0994 O   0  0  0  0  0  0
   47.6232   37.7466   -1.1481 O   0  0  0  0  0  0
   49.7093   40.9527   -0.2366 C   0  0  0  0  0  0
   53.3727   46.1984   -1.8281 C   0  0  0  0  0  0
   53.9085   46.4142   -0.5410 C   0  0  0  0  0  0
   54.9161   47.2922   -0.2987 N   0  0  0  0  0  0
   55.4219   48.0009   -1.3363 C   0  0  0  0  0  0
   54.9488   47.8651   -2.6385 C   0  0  0  0  0  0
   53.9230   46.9513   -2.8785 C   0  0  0  0  0  0
   53.4410   45.7169    0.5199 F   0  0  0  0  0  0
   44.8231   38.8011   -5.3469 F   0  0  0  0  0  0
   45.6245   40.9611   -6.4991 H   0  0  0  0  0  0
   45.9981   38.5347   -3.0749 H   0  0  0  0  0  0
   47.8481   42.0189   -6.0835 H   0  0  0  0  0  0
   51.7607   42.5827   -4.2308 H   0  0  0  0  0  0
   53.2230   44.4899   -3.9409 H   0  0  0  0  0  0
   51.1170   45.5543   -0.3554 H   0  0  0  0  0  0
   49.6201   43.6653   -0.6775 H   0  0  0  0  0  0
   46.6167   38.9886    0.5951 H   0  0  0  0  0  0
   49.6221   40.0105    0.3003 H   0  0  0  0  0  0
   50.7538   41.2513   -0.1612 H   0  0  0  0  0  0
   49.1142   41.6893    0.2996 H   0  0  0  0  0  0
   56.2228   48.6889   -1.1047 H   0  0  0  0  0  0
   55.3733   48.4430   -3.4467 H   0  0  0  0  0  0
   53.5628   46.8253   -3.8895 H   0  0  0  0  0  0
  1  2  2  0  0  0
  1  4  1  0  0  0
  1 29  1  0  0  0
  2  3  1  0  0  0
  2 28  1  0  0  0
  3  6  2  0  0  0
  3 30  1  0  0  0
  4  5  2  0  0  0
  4 31  1  0  0  0
  5  6  1  0  0  0
  5 10  1  0  0  0
  6  7  1  0  0  0
  7  8  2  0  0  0
  7 17  1  0  0  0
  8  9  1  0  0  0
  8 20  1  0  0  0
  9 10  2  0  0  0
  9 11  1  0  0  0
 11 12  2  0  0  0
 11 16  1  0  0  0
 12 13  1  0  0  0
 12 32  1  0  0  0
 13 14  2  0  0  0
 13 33  1  0  0  0
 14 15  1  0  0  0
 14 21  1  0  0  0
 15 16  2  0  0  0
 15 34  1  0  0  0
 16 35  1  0  0  0
 17 18  1  0  0  0
 17 19  2  0  0  0
 18 36  1  0  0  0
 20 37  1  0  0  0
 20 38  1  0  0  0
 20 39  1  0  0  0
 21 22  2  0  0  0
 21 26  1  0  0  0
 22 23  1  0  0  0
 22 27  1  0  0  0
 23 24  2  0  0  0
 24 25  1  0  0  0
 24 40  1  0  0  0
 25 26  2  0  0  0
 25 41  1  0  0  0
 26 42  1  0  0  0
M  END
> <s_m_entry_id>
25643

> <s_m_entry_name>
dock_pv.295

> <s_m_Source_Path>
/home/csk/Desktop/cluster/DUD-E-result/pyrd

> <s_m_Source_File>
dock_pv.maegz

> <i_m_Source_File_Index>
295

> <chembl_id>
CHEMBL4228942

> <chembl_pref_name>
None

> <i_lp_mmshare_version>
53161

> <r_lp_tautomer_probability>
1

> <s_lp_Force_Field>
OPLS_2005

> <r_lp_Energy>
34.746896

> <b_lp_Chiralities_Consistent>
1

> <s_lp_Variant>
CHEMBL1966_lig606-1

> <s_i_glide_gridfile>
glide-grid_1d3g

> <i_i_glide_lignum>
660

> <i_i_glide_rotatable_bonds>
4

> <r_i_docking_score>
-9.30556103961439

> <r_i_glide_ligand_efficiency>
-0.332341465700514

> <r_i_glide_ligand_efficiency_sa>
-1.00918442852224

> <r_i_glide_ligand_efficiency_ln>
-2.14799671108741

> <r_i_glide_gscore>
-9.30556103961439

> <r_i_glide_lipo>
-5.41516090972063

> <r_i_glide_hbond>
0

> <r_i_glide_metal>
0

> <r_i_glide_rewards>
-2.47280993510694

> <r_i_glide_evdw>
-29.4235572814941

> <r_i_glide_ecoul>
-2.37591791152954

> <r_i_glide_erotb>
0.409975356017314

> <r_i_glide_esite>
0

> <r_i_glide_emodel>
-45.3920291066408

> <r_i_glide_energy>
-31.7994751930237

> <r_i_glide_einternal>
1.94313275814056

> <i_i_glide_confnum>
36

> <i_i_glide_posenum>
87

> <r_i_glide_eff_state_penalty>
0

> <s_user_duplicate_titles>
CHEMBL1966_lig606

> <i_f3d_flags>
0

> <s_m_subgroup_title>
dock_pv

> <s_m_subgroupid>
dock_pv

> <b_m_subgroup_collapsed>
1

$$$$
CHEMBL1966_lig430
                    3D
 Schrodinger Suite 2021-1.
 49 51  0  0  1  0            999 V2000
   58.0717   48.8550   -3.6963 C   0  0  0  0  0  0
   56.7685   49.6577   -3.5638 C   0  0  0  0  0  0
   55.6230   48.8100   -3.6412 O   0  0  0  0  0  0
   55.2571   48.0223   -2.5668 C   0  0  0  0  0  0
   55.8605   48.0598   -1.3008 C   0  0  0  0  0  0
   55.4291   47.2011   -0.2939 C   0  0  0  0  0  0
   54.3995   46.2967   -0.5432 C   0  0  0  0  0  0
   53.7666   46.2376   -1.7934 C   0  0  0  0  0  0
   54.2090   47.1270   -2.7850 C   0  0  0  0  0  0
   52.7186   45.2117   -2.1118 C   0  0  0  0  0  0
   52.9239   44.5805   -3.2990 N   0  0  0  0  0  0
   52.0670   43.6105   -3.6990 C   0  0  0  0  0  0
   50.9790   43.1910   -2.9422 C   0  0  0  0  0  0
   50.1685   42.1762   -3.4790 N   0  0  0  0  0  0
   49.2699   41.2358   -2.9422 C   0  0  0  0  0  0
   49.3111   40.9234   -1.5784 C   0  0  0  0  0  0
   48.4230   40.0100   -1.0184 C   0  0  0  0  0  0
   47.5109   39.3441   -1.8294 C   0  0  0  0  0  0
   46.5725   38.3231   -1.2219 C   0  0  0  0  0  0
   47.4562   39.6394   -3.1900 C   0  0  0  0  0  0
   48.3205   40.5867   -3.7687 C   0  0  0  0  0  0
   48.1771   40.8918   -5.2445 C   0  0  0  0  0  0
   49.1198   41.2100   -5.9672 O   0  0  0  0  0  0
   46.8950   40.8100   -5.6990 O   0  0  0  0  0  0
   50.7524   43.8474   -1.7250 C   0  0  0  0  0  0
   51.6146   44.8749   -1.2990 C   0  0  0  0  0  0
   51.3287   45.5782    0.0164 C   0  0  0  0  0  0
   58.9405   49.5121   -3.6598 H   0  0  0  0  0  0
   58.1768   48.1212   -2.8989 H   0  0  0  0  0  0
   58.1002   48.3160   -4.6435 H   0  0  0  0  0  0
   56.7029   50.3643   -4.3920 H   0  0  0  0  0  0
   56.7600   50.2683   -2.6598 H   0  0  0  0  0  0
   56.6715   48.7366   -1.0806 H   0  0  0  0  0  0
   55.9081   47.2191    0.6745 H   0  0  0  0  0  0
   54.1385   45.6100    0.2435 H   0  0  0  0  0  0
   53.7522   47.1036   -3.7640 H   0  0  0  0  0  0
   52.2910   43.1593   -4.6532 H   0  0  0  0  0  0
   50.3024   42.0371   -4.4720 H   0  0  0  0  0  0
   50.0408   41.3832   -0.9319 H   0  0  0  0  0  0
   48.4743   39.7864    0.0379 H   0  0  0  0  0  0
   47.1441   37.5604   -0.6911 H   0  0  0  0  0  0
   45.9561   37.8285   -1.9714 H   0  0  0  0  0  0
   45.9183   38.8100   -0.4990 H   0  0  0  0  0  0
   46.7229   39.1194   -3.7881 H   0  0  0  0  0  0
   46.2893   40.7403   -4.9576 H   0  0  0  0  0  0
   49.8924   43.5886   -1.1269 H   0  0  0  0  0  0
   51.2230   46.6528   -0.1368 H   0  0  0  0  0  0
   50.4230   45.1946    0.4712 H   0  0  0  0  0  0
   52.1148   45.4170    0.7486 H   0  0  0  0  0  0
  1  2  1  0  0  0
  1 28  1  0  0  0
  1 29  1  0  0  0
  1 30  1  0  0  0
  2  3  1  0  0  0
  2 31  1  0  0  0
  2 32  1  0  0  0
  3  4  1  0  0  0
  4  5  2  0  0  0
  4  9  1  0  0  0
  5  6  1  0  0  0
  5 33  1  0  0  0
  6  7  2  0  0  0
  6 34  1  0  0  0
  7  8  1  0  0  0
  7 35  1  0  0  0
  8  9  2  0  0  0
  8 10  1  0  0  0
  9 36  1  0  0  0
 10 11  2  0  0  0
 10 26  1  0  0  0
 11 12  1  0  0  0
 12 13  2  0  0  0
 12 37  1  0  0  0
 13 14  1  0  0  0
 13 25  1  0  0  0
 14 15  1  0  0  0
 14 38  1  0  0  0
 15 16  2  0  0  0
 15 21  1  0  0  0
 16 17  1  0  0  0
 16 39  1  0  0  0
 17 18  2  0  0  0
 17 40  1  0  0  0
 18 19  1  0  0  0
 18 20  1  0  0  0
 19 41  1  0  0  0
 19 42  1  0  0  0
 19 43  1  0  0  0
 20 21  2  0  0  0
 20 44  1  0  0  0
 21 22  1  0  0  0
 22 23  2  0  0  0
 22 24  1  0  0  0
 24 45  1  0  0  0
 25 26  2  0  0  0
 25 46  1  0  0  0
 26 27  1  0  0  0
 27 47  1  0  0  0
 27 48  1  0  0  0
 27 49  1  0  0  0
M  END
> <s_m_entry_id>
25644

> <s_m_entry_name>
dock_pv.296

> <s_m_Source_Path>
/home/csk/Desktop/cluster/DUD-E-result/pyrd

> <s_m_Source_File>
dock_pv.maegz

> <i_m_Source_File_Index>
296

> <chembl_id>
CHEMBL3674640

> <chembl_pref_name>
None

> <i_lp_mmshare_version>
53161

> <r_lp_tautomer_probability>
0.999999999999999

> <s_lp_Force_Field>
OPLS_2005

> <r_lp_Energy>
32.173907

> <b_lp_Chiralities_Consistent>
1

> <s_lp_Variant>
CHEMBL1966_lig430-1

> <s_i_glide_gridfile>
glide-grid_1d3g

> <i_i_glide_lignum>
480

> <i_i_glide_rotatable_bonds>
7

> <r_i_docking_score>
-9.28926003467723

> <r_i_glide_ligand_efficiency>
-0.344046667951009

> <r_i_glide_ligand_efficiency_sa>
-1.0321400027191

> <r_i_glide_ligand_efficiency_ln>
-2.16238659065222

> <r_i_glide_gscore>
-9.28926003467723

> <r_i_glide_lipo>
-5.58040670378711

> <r_i_glide_hbond>
-0.0886717047946601

> <r_i_glide_metal>
0

> <r_i_glide_rewards>
-1.64730951392645

> <r_i_glide_evdw>
-45.9801254272461

> <r_i_glide_ecoul>
-2.69872808456421

> <r_i_glide_erotb>
0.73094337187792

> <r_i_glide_esite>
0

> <r_i_glide_emodel>
-70.3680236371836

> <r_i_glide_energy>
-48.6788535118103

> <r_i_glide_einternal>
6.60882568359375

> <i_i_glide_confnum>
17

> <i_i_glide_posenum>
165

> <r_i_glide_eff_state_penalty>
0

> <s_user_duplicate_titles>
CHEMBL1966_lig430

> <i_f3d_flags>
0

> <s_m_subgroup_title>
dock_pv

> <s_m_subgroupid>
dock_pv

> <b_m_subgroup_collapsed>
1

$$$$
CHEMBL1966_lig588
                    3D
 Schrodinger Suite 2021-1.
 39 42  0  0  1  0            999 V2000
   56.8021   47.9593   -4.0588 C   0  0  0  0  0  0
   57.1644   48.3965   -2.7937 C   0  0  0  0  0  0
   56.4308   48.0048   -1.6803 C   0  0  0  0  0  0
   55.6951   47.1338   -4.2282 C   0  0  0  0  0  0
   54.9142   46.7191   -3.1202 C   0  0  0  0  0  0
   55.2916   47.1519   -1.8157 C   0  0  0  0  0  0
   54.4874   46.6898   -0.7328 C   0  0  0  0  0  0
   53.3314   45.9533   -0.9995 C   0  0  0  0  0  0
   53.0713   45.4807   -2.2768 C   0  0  0  0  0  0
   53.8479   45.8884   -3.3239 N   0  0  0  0  0  0
   52.0230   44.4100   -2.5332 C   0  0  0  0  0  0
   51.0541   44.0100   -1.5903 C   0  0  0  0  0  0
   50.1233   43.0067   -1.8899 C   0  0  0  0  0  0
   50.0523   42.4689   -3.1816 C   0  0  0  0  0  0
   50.9711   42.9098   -4.1157 C   0  0  0  0  0  0
   51.9887   43.7778   -3.7714 C   0  0  0  0  0  0
   54.9209   46.8100    0.6905 C   0  0  0  0  0  0
   53.8848   46.8100    1.5564 O   0  0  0  0  0  0
   56.0965   46.8100    1.0431 O   0  0  0  0  0  0
   49.0064   41.5039   -3.6204 C   0  0  0  0  0  0
   48.4230   41.6100   -4.8990 C   0  0  0  0  0  0
   47.3506   40.8851   -5.2990 N   0  0  0  0  0  0
   46.8275   40.0100   -4.4100 C   0  0  0  0  0  0
   47.3977   39.7524   -3.1631 C   0  0  0  0  0  0
   48.5043   40.5074   -2.7714 C   0  0  0  0  0  0
   57.3828   48.2644   -4.9173 H   0  0  0  0  0  0
   58.0228   49.0413   -2.6720 H   0  0  0  0  0  0
   56.7361   48.3698   -0.7110 H   0  0  0  0  0  0
   55.4419   46.8100   -5.2215 H   0  0  0  0  0  0
   52.7219   45.6100   -0.1794 H   0  0  0  0  0  0
   51.0170   44.4501   -0.6064 H   0  0  0  0  0  0
   49.4137   42.7077   -1.1345 H   0  0  0  0  0  0
   50.8749   42.5774   -5.1336 H   0  0  0  0  0  0
   52.7340   44.0100   -4.4990 H   0  0  0  0  0  0
   54.2446   46.7345    2.4494 H   0  0  0  0  0  0
   48.7339   42.3734   -5.5976 H   0  0  0  0  0  0
   45.9518   39.4662   -4.7329 H   0  0  0  0  0  0
   46.9754   39.0099   -2.5020 H   0  0  0  0  0  0
   48.9296   40.3578   -1.7898 H   0  0  0  0  0  0
  1  2  2  0  0  0
  1  4  1  0  0  0
  1 26  1  0  0  0
  2  3  1  0  0  0
  2 27  1  0  0  0
  3  6  2  0  0  0
  3 28  1  0  0  0
  4  5  2  0  0  0
  4 29  1  0  0  0
  5  6  1  0  0  0
  5 10  1  0  0  0
  6  7  1  0  0  0
  7  8  2  0  0  0
  7 17  1  0  0  0
  8  9  1  0  0  0
  8 30  1  0  0  0
  9 10  2  0  0  0
  9 11  1  0  0  0
 11 12  2  0  0  0
 11 16  1  0  0  0
 12 13  1  0  0  0
 12 31  1  0  0  0
 13 14  2  0  0  0
 13 32  1  0  0  0
 14 15  1  0  0  0
 14 20  1  0  0  0
 15 16  2  0  0  0
 15 33  1  0  0  0
 16 34  1  0  0  0
 17 18  1  0  0  0
 17 19  2  0  0  0
 18 35  1  0  0  0
 20 21  2  0  0  0
 20 25  1  0  0  0
 21 22  1  0  0  0
 21 36  1  0  0  0
 22 23  2  0  0  0
 23 24  1  0  0  0
 23 37  1  0  0  0
 24 25  2  0  0  0
 24 38  1  0  0  0
 25 39  1  0  0  0
M  END
> <s_m_entry_id>
25645

> <s_m_entry_name>
dock_pv.297

> <s_m_Source_Path>
/home/csk/Desktop/cluster/DUD-E-result/pyrd

> <s_m_Source_File>
dock_pv.maegz

> <i_m_Source_File_Index>
297

> <chembl_id>
CHEMBL4226167

> <chembl_pref_name>
None

> <i_lp_mmshare_version>
53161

> <r_lp_tautomer_probability>
1

> <s_lp_Force_Field>
OPLS_2005

> <r_lp_Energy>
30.616712

> <b_lp_Chiralities_Consistent>
1

> <s_lp_Variant>
CHEMBL1966_lig588-1

> <s_i_glide_gridfile>
glide-grid_1d3g

> <i_i_glide_lignum>
642

> <i_i_glide_rotatable_bonds>
4

> <r_i_docking_score>
-9.27383508748351

> <r_i_glide_ligand_efficiency>
-0.37095340349934

> <r_i_glide_ligand_efficiency_sa>
-1.0846743307187

> <r_i_glide_ligand_efficiency_ln>
-2.19817683014485

> <r_i_glide_gscore>
-9.27383508748351

> <r_i_glide_lipo>
-5.43744871748273

> <r_i_glide_hbond>
-0.0177961709581044

> <r_i_glide_metal>
0

> <r_i_glide_rewards>
-2.31732383333333

> <r_i_glide_evdw>
-30.5637588500977

> <r_i_glide_ecoul>
-3.342209815979

> <r_i_glide_erotb>
0.528253049192386

> <r_i_glide_esite>
0

> <r_i_glide_emodel>
-37.5193343691365

> <r_i_glide_energy>
-33.9059686660767

> <r_i_glide_einternal>
0.834146022796631

> <i_i_glide_confnum>
18

> <i_i_glide_posenum>
90

> <r_i_glide_eff_state_penalty>
0

> <s_user_duplicate_titles>
CHEMBL1966_lig588

> <i_f3d_flags>
0

> <s_m_subgroup_title>
dock_pv

> <s_m_subgroupid>
dock_pv

> <b_m_subgroup_collapsed>
1

$$$$
CHEMBL1966_lig322
                    3D
 Schrodinger Suite 2021-1.
 45 47  0  0  1  0            999 V2000
   47.4788   39.1794   -1.5499 C   0  0  0  0  0  0
   48.3789   39.8930   -0.7684 C   0  0  0  0  0  0
   49.2230   40.8099   -1.3679 C   0  0  0  0  0  0
   49.1532   41.0870   -2.7449 C   0  0  0  0  0  0
   48.1757   40.4102   -3.5274 C   0  0  0  0  0  0
   47.3626   39.4495   -2.9089 C   0  0  0  0  0  0
   47.9287   40.6990   -4.9924 C   0  0  0  0  0  0
   46.6074   40.8102   -5.3110 O   0  0  0  0  0  0
   48.8231   40.8102   -5.8269 O   0  0  0  0  0  0
   50.0736   42.1091   -3.2555 C   0  0  0  0  0  0
   50.5287   43.0291   -2.4985 N   0  0  0  0  0  0
   51.4756   44.0092   -2.8986 N   0  0  0  0  0  0
   52.0087   44.9050   -1.9850 C   0  0  0  0  0  0
   53.0780   45.6239   -2.1802 N   0  0  0  0  0  0
   53.4062   46.3688   -1.1461 C   0  0  0  0  0  0
   52.5679   46.2361   -0.0209 C   0  0  0  0  0  0
   51.2234   45.2101   -0.4735 S   0  0  0  0  0  0
   52.6618   46.8079    1.3708 C   0  0  0  0  0  0
   54.6190   47.2213   -1.3008 C   0  0  0  0  0  0
   54.7727   48.0058   -2.4533 C   0  0  0  0  0  0
   55.9075   48.7945   -2.6216 C   0  0  0  0  0  0
   56.8904   48.7964   -1.6385 C   0  0  0  0  0  0
   56.7491   48.0099   -0.4995 C   0  0  0  0  0  0
   55.6174   47.2218   -0.3261 C   0  0  0  0  0  0
   52.0005   43.9724   -4.2611 C   0  0  0  0  0  0
   46.6165   38.1261   -0.9108 C   0  0  0  0  0  0
   48.4644   39.6902    0.2903 H   0  0  0  0  0  0
   49.9389   41.3081   -0.7280 H   0  0  0  0  0  0
   46.6324   38.8927   -3.4803 H   0  0  0  0  0  0
   46.0679   40.8455   -4.5176 H   0  0  0  0  0  0
   50.3561   42.0052   -4.2966 H   0  0  0  0  0  0
   53.6472   47.2101    1.5926 H   0  0  0  0  0  0
   51.9462   47.6102    1.5233 H   0  0  0  0  0  0
   52.4594   46.0448    2.1237 H   0  0  0  0  0  0
   54.0088   48.0070   -3.2182 H   0  0  0  0  0  0
   56.0249   49.4018   -3.5074 H   0  0  0  0  0  0
   57.7751   49.4050   -1.7601 H   0  0  0  0  0  0
   57.5196   48.0100    0.2549 H   0  0  0  0  0  0
   55.5311   46.6030    0.5551 H   0  0  0  0  0  0
   52.4228   44.9477   -4.4985 H   0  0  0  0  0  0
   52.7752   43.2101   -4.3578 H   0  0  0  0  0  0
   51.2245   43.7998   -5.0072 H   0  0  0  0  0  0
   47.1213   37.1595   -0.8995 H   0  0  0  0  0  0
   46.4231   38.4362    0.1102 H   0  0  0  0  0  0
   45.6522   38.0296   -1.4099 H   0  0  0  0  0  0
  1  2  2  0  0  0
  1  6  1  0  0  0
  1 26  1  0  0  0
  2  3  1  0  0  0
  2 27  1  0  0  0
  3  4  2  0  0  0
  3 28  1  0  0  0
  4  5  1  0  0  0
  4 10  1  0  0  0
  5  6  2  0  0  0
  5  7  1  0  0  0
  6 29  1  0  0  0
  7  8  1  0  0  0
  7  9  2  0  0  0
  8 30  1  0  0  0
 10 11  2  0  0  0
 10 31  1  0  0  0
 11 12  1  0  0  0
 12 13  1  0  0  0
 12 25  1  0  0  0
 13 14  2  0  0  0
 13 17  1  0  0  0
 14 15  1  0  0  0
 15 16  2  0  0  0
 15 19  1  0  0  0
 16 17  1  0  0  0
 16 18  1  0  0  0
 18 32  1  0  0  0
 18 33  1  0  0  0
 18 34  1  0  0  0
 19 20  2  0  0  0
 19 24  1  0  0  0
 20 21  1  0  0  0
 20 35  1  0  0  0
 21 22  2  0  0  0
 21 36  1  0  0  0
 22 23  1  0  0  0
 22 37  1  0  0  0
 23 24  2  0  0  0
 23 38  1  0  0  0
 24 39  1  0  0  0
 25 40  1  0  0  0
 25 41  1  0  0  0
 25 42  1  0  0  0
 26 43  1  0  0  0
 26 44  1  0  0  0
 26 45  1  0  0  0
M  END
> <s_m_entry_id>
25646

> <s_m_entry_name>
dock_pv.298

> <s_m_Source_Path>
/home/csk/Desktop/cluster/DUD-E-result/pyrd

> <s_m_Source_File>
dock_pv.maegz

> <i_m_Source_File_Index>
298

> <chembl_id>
CHEMBL3931872

> <chembl_pref_name>
None

> <i_lp_mmshare_version>
53161

> <r_lp_tautomer_probability>
1

> <s_lp_Force_Field>
OPLS_2005

> <r_lp_Energy>
30.45939

> <b_lp_Chiralities_Consistent>
1

> <s_lp_Variant>
CHEMBL1966_lig322-1

> <s_i_glide_gridfile>
glide-grid_1d3g

> <i_i_glide_lignum>
372

> <i_i_glide_rotatable_bonds>
6

> <r_i_docking_score>
-9.26081072049731

> <r_i_glide_ligand_efficiency>
-0.356185027711435

> <r_i_glide_ligand_efficiency_sa>
-1.05519674307472

> <r_i_glide_ligand_efficiency_ln>
-2.17487101051033

> <r_i_glide_gscore>
-9.26081072049731

> <r_i_glide_lipo>
-4.76821542291443

> <r_i_glide_hbond>
-0.131161282485794

> <r_i_glide_metal>
0

> <r_i_glide_rewards>
-2.5198935074156

> <r_i_glide_evdw>
-39.816707611084

> <r_i_glide_ecoul>
-3.80584049224854

> <r_i_glide_erotb>
0.720170946710002

> <r_i_glide_esite>
0

> <r_i_glide_emodel>
-57.4344219022171

> <r_i_glide_energy>
-43.6225481033325

> <r_i_glide_einternal>
6.8516092300415

> <i_i_glide_confnum>
143

> <i_i_glide_posenum>
263

> <r_i_glide_eff_state_penalty>
0

> <s_user_duplicate_titles>
CHEMBL1966_lig322

> <i_f3d_flags>
0

> <s_m_subgroup_title>
dock_pv

> <s_m_subgroupid>
dock_pv

> <b_m_subgroup_collapsed>
1

$$$$
CHEMBL1966_lig87
                    3D
 Schrodinger Suite 2021-1.
 43 45  0  0  1  0            999 V2000
   53.0516   44.8407   -3.0052 C   0  0  0  0  0  0
   52.0611   43.9280   -3.3556 C   0  0  0  0  0  0
   50.9658   43.7229   -2.5177 C   0  0  0  0  0  0
   50.8261   44.4999   -1.3559 C   0  0  0  0  0  0
   51.8009   45.4563   -1.0473 C   0  0  0  0  0  0
   52.9566   45.6100   -1.8377 C   0  0  0  0  0  0
   54.1097   46.4546   -1.3847 C   0  0  0  0  0  0
   54.4409   46.4534   -0.0204 C   0  0  0  0  0  0
   55.5586   47.1327    0.4515 C   0  0  0  0  0  0
   56.3537   47.8599   -0.4244 C   0  0  0  0  0  0
   56.0342   47.9038   -1.7637 C   0  0  0  0  0  0
   54.9472   47.1759   -2.2691 C   0  0  0  0  0  0
   50.0230   42.7829   -2.9416 N   0  0  0  0  0  0
   49.6451   41.6678   -2.2850 C   0  0  0  0  0  0
   48.6719   40.8592   -3.0150 C   0  0  0  0  0  0
   50.0230   41.4006   -1.1469 O   0  0  0  0  0  0
   47.7542   39.8953   -2.5024 C   0  0  0  0  0  0
   46.4834   39.6100   -3.6691 S   0  0  0  0  0  0
   47.3609   40.4100   -4.9022 C   0  0  0  0  0  0
   48.5275   40.9614   -4.4237 C   0  0  0  0  0  0
   47.6105   39.2100   -1.2222 C   0  0  0  0  0  0
   48.4230   39.6778   -0.2388 O   0  0  0  0  0  0
   46.8230   38.2833   -1.0395 O   0  0  0  0  0  0
   52.1926   43.2100   -4.4956 F   0  0  0  0  0  0
   49.7661   44.3421   -0.5278 F   0  0  0  0  0  0
   54.7155   47.1445   -3.6272 O   0  0  0  0  0  0
   55.8483   47.2100   -4.4990 C   0  0  0  0  0  0
   56.8229   46.0269   -4.3369 C   0  0  0  0  0  0
   53.9215   44.9064   -3.6391 H   0  0  0  0  0  0
   51.6809   46.0352   -0.1434 H   0  0  0  0  0  0
   53.8535   45.8889    0.6892 H   0  0  0  0  0  0
   55.8066   47.0983    1.5010 H   0  0  0  0  0  0
   57.2225   48.4016   -0.0801 H   0  0  0  0  0  0
   56.6754   48.4938   -2.3975 H   0  0  0  0  0  0
   49.6869   42.9075   -3.8844 H   0  0  0  0  0  0
   46.9624   40.4505   -5.9017 H   0  0  0  0  0  0
   49.1804   41.5358   -5.0657 H   0  0  0  0  0  0
   49.0357   40.3673   -0.5422 H   0  0  0  0  0  0
   55.4617   47.2100   -5.5123 H   0  0  0  0  0  0
   56.3690   48.1646   -4.4285 H   0  0  0  0  0  0
   57.6113   46.0699   -5.0885 H   0  0  0  0  0  0
   57.3058   46.0228   -3.3598 H   0  0  0  0  0  0
   56.3054   45.0751   -4.4559 H   0  0  0  0  0  0
  1  2  2  0  0  0
  1  6  1  0  0  0
  1 29  1  0  0  0
  2  3  1  0  0  0
  2 24  1  0  0  0
  3  4  2  0  0  0
  3 13  1  0  0  0
  4  5  1  0  0  0
  4 25  1  0  0  0
  5  6  2  0  0  0
  5 30  1  0  0  0
  6  7  1  0  0  0
  7  8  2  0  0  0
  7 12  1  0  0  0
  8  9  1  0  0  0
  8 31  1  0  0  0
  9 10  2  0  0  0
  9 32  1  0  0  0
 10 11  1  0  0  0
 10 33  1  0  0  0
 11 12  2  0  0  0
 11 34  1  0  0  0
 12 26  1  0  0  0
 13 14  1  0  0  0
 13 35  1  0  0  0
 14 15  1  0  0  0
 14 16  2  0  0  0
 15 17  2  0  0  0
 15 20  1  0  0  0
 17 18  1  0  0  0
 17 21  1  0  0  0
 18 19  1  0  0  0
 19 20  2  0  0  0
 19 36  1  0  0  0
 20 37  1  0  0  0
 21 22  1  0  0  0
 21 23  2  0  0  0
 22 38  1  0  0  0
 26 27  1  0  0  0
 27 28  1  0  0  0
 27 39  1  0  0  0
 27 40  1  0  0  0
 28 41  1  0  0  0
 28 42  1  0  0  0
 28 43  1  0  0  0
M  END
> <s_m_entry_id>
25647

> <s_m_entry_name>
dock_pv.299

> <s_m_Source_Path>
/home/csk/Desktop/cluster/DUD-E-result/pyrd

> <s_m_Source_File>
dock_pv.maegz

> <i_m_Source_File_Index>
299

> <chembl_id>
CHEMBL200856

> <chembl_pref_name>
None

> <i_lp_mmshare_version>
53161

> <r_lp_tautomer_probability>
1

> <s_lp_Force_Field>
OPLS_2005

> <r_lp_Energy>
29.01041

> <b_lp_Chiralities_Consistent>
1

> <s_lp_Variant>
CHEMBL1966_lig87-1

> <s_i_glide_gridfile>
glide-grid_1d3g

> <i_i_glide_lignum>
96

> <i_i_glide_rotatable_bonds>
8

> <r_i_docking_score>
-9.25547487679081

> <r_i_glide_ligand_efficiency>
-0.3305526741711

> <r_i_glide_ligand_efficiency_sa>
-1.00375260389707

> <r_i_glide_ligand_efficiency_ln>
-2.13643535411409

> <r_i_glide_gscore>
-9.25547487679081

> <r_i_glide_lipo>
-5.01082400737883

> <r_i_glide_hbond>
0

> <r_i_glide_metal>
0

> <r_i_glide_rewards>
-2.8820176242202

> <r_i_glide_evdw>
-42.9634666442871

> <r_i_glide_ecoul>
0.411053329706192

> <r_i_glide_erotb>
0.72388208756665

> <r_i_glide_esite>
0

> <r_i_glide_emodel>
-53.806975186452

> <r_i_glide_energy>
-42.5524133145809

> <r_i_glide_einternal>
5.60669326782227

> <i_i_glide_confnum>
51

> <i_i_glide_posenum>
375

> <r_i_glide_eff_state_penalty>
0

> <s_user_duplicate_titles>
CHEMBL1966_lig87,334816

> <i_f3d_flags>
0

> <s_m_subgroup_title>
dock_pv

> <s_m_subgroupid>
dock_pv

> <b_m_subgroup_collapsed>
1

$$$$
CHEMBL1966_lig380
                    3D
 Schrodinger Suite 2021-1.
 41 43  0  0  1  0            999 V2000
   49.2649   41.0877   -2.5782 C   0  0  0  0  0  0
   48.8230   40.4100   -1.3428 C   0  0  0  0  0  0
   47.8024   39.5301   -1.5126 N   0  0  0  0  0  0
   47.1128   39.2173   -2.6416 C   0  0  0  0  0  0
   47.5265   39.9112   -3.7354 N   0  0  0  0  0  0
   48.5757   40.8033   -3.7283 C   0  0  0  0  0  0
   48.8230   41.3881   -5.0384 C   0  0  0  0  0  0
   49.2230   42.6846   -5.0058 O   0  0  0  0  0  0
   48.6109   40.8100   -6.0990 O   0  0  0  0  0  0
   46.1921   38.4102   -2.6631 O   0  0  0  0  0  0
   49.2737   40.6265   -0.2194 O   0  0  0  0  0  0
   50.5146   41.9988   -2.4680 C   0  0  0  0  0  0
   50.2378   43.5019   -2.1939 C   0  0  0  0  0  0
   51.4737   44.4022   -2.0990 C   0  0  0  0  0  0
   52.4230   44.4100   -3.1292 C   0  0  0  0  0  0
   53.5572   45.2100   -3.0448 C   0  0  0  0  0  0
   51.6626   45.2135   -0.9769 C   0  0  0  0  0  0
   52.8664   45.9576   -0.8225 C   0  0  0  0  0  0
   53.8269   45.9708   -1.8816 C   0  0  0  0  0  0
   55.0468   46.6927   -1.7304 C   0  0  0  0  0  0
   55.3236   47.2902   -0.4938 C   0  0  0  0  0  0
   54.4230   47.2100    0.5580 C   0  0  0  0  0  0
   53.1863   46.5953    0.3968 C   0  0  0  0  0  0
   55.9135   46.7303   -2.8092 O   0  0  0  0  0  0
   57.1141   47.4859   -2.7131 C   0  0  0  0  0  0
   47.4990   39.0588   -0.6740 H   0  0  0  0  0  0
   47.0283   39.7053   -4.5882 H   0  0  0  0  0  0
   49.2587   43.0700   -5.8834 H   0  0  0  0  0  0
   51.1854   41.6192   -1.6990 H   0  0  0  0  0  0
   51.0914   41.8972   -3.3869 H   0  0  0  0  0  0
   49.6491   43.9068   -3.0109 H   0  0  0  0  0  0
   49.6302   43.6008   -1.2925 H   0  0  0  0  0  0
   52.2730   43.8030   -4.0100 H   0  0  0  0  0  0
   54.2764   45.2100   -3.8489 H   0  0  0  0  0  0
   50.9442   45.2043   -0.1695 H   0  0  0  0  0  0
   56.2498   47.8160   -0.3200 H   0  0  0  0  0  0
   54.6764   47.6587    1.5047 H   0  0  0  0  0  0
   52.4871   46.5589    1.2203 H   0  0  0  0  0  0
   57.6883   47.3780   -3.6332 H   0  0  0  0  0  0
   56.9068   48.5475   -2.5698 H   0  0  0  0  0  0
   57.7333   47.1302   -1.8919 H   0  0  0  0  0  0
  1  2  1  0  0  0
  1  6  2  0  0  0
  1 12  1  0  0  0
  2  3  1  0  0  0
  2 11  2  0  0  0
  3  4  1  0  0  0
  3 26  1  0  0  0
  4  5  1  0  0  0
  4 10  2  0  0  0
  5  6  1  0  0  0
  5 27  1  0  0  0
  6  7  1  0  0  0
  7  8  1  0  0  0
  7  9  2  0  0  0
  8 28  1  0  0  0
 12 13  1  0  0  0
 12 29  1  0  0  0
 12 30  1  0  0  0
 13 14  1  0  0  0
 13 31  1  0  0  0
 13 32  1  0  0  0
 14 15  2  0  0  0
 14 17  1  0  0  0
 15 16  1  0  0  0
 15 33  1  0  0  0
 16 19  2  0  0  0
 16 34  1  0  0  0
 17 18  2  0  0  0
 17 35  1  0  0  0
 18 19  1  0  0  0
 18 23  1  0  0  0
 19 20  1  0  0  0
 20 21  2  0  0  0
 20 24  1  0  0  0
 21 22  1  0  0  0
 21 36  1  0  0  0
 22 23  2  0  0  0
 22 37  1  0  0  0
 23 38  1  0  0  0
 24 25  1  0  0  0
 25 39  1  0  0  0
 25 40  1  0  0  0
 25 41  1  0  0  0
M  END
> <s_m_entry_id>
25648

> <s_m_entry_name>
dock_pv.300

> <s_m_Source_Path>
/home/csk/Desktop/cluster/DUD-E-result/pyrd

> <s_m_Source_File>
dock_pv.maegz

> <i_m_Source_File_Index>
300

> <chembl_id>
CHEMBL3914213

> <chembl_pref_name>
None

> <i_lp_mmshare_version>
53161

> <r_lp_tautomer_probability>
1

> <s_lp_Force_Field>
OPLS_2005

> <r_lp_Energy>
23.800361

> <b_lp_Chiralities_Consistent>
1

> <s_lp_Variant>
CHEMBL1966_lig380-1

> <s_i_glide_gridfile>
glide-grid_1d3g

> <i_i_glide_lignum>
430

> <i_i_glide_rotatable_bonds>
6

> <r_i_docking_score>
-9.25380810331573

> <r_i_glide_ligand_efficiency>
-0.370152324132629

> <r_i_glide_ligand_efficiency_sa>
-1.08233196044323

> <r_i_glide_ligand_efficiency_ln>
-2.1934298347368

> <r_i_glide_gscore>
-9.25380810331573

> <r_i_glide_lipo>
-4.59740552816852

> <r_i_glide_hbond>
-0.16

> <r_i_glide_metal>
0

> <r_i_glide_rewards>
-2.50873673571935

> <r_i_glide_evdw>
-35.5350379943848

> <r_i_glide_ecoul>
-5.76578903198242

> <r_i_glide_erotb>
0.653954415088751

> <r_i_glide_esite>
0

> <r_i_glide_emodel>
-60.0231660341236

> <r_i_glide_energy>
-41.3008270263672

> <r_i_glide_einternal>
1.50586771965027

> <i_i_glide_confnum>
11

> <i_i_glide_posenum>
372

> <r_i_glide_eff_state_penalty>
0

> <s_user_duplicate_titles>
CHEMBL1966_lig380

> <i_f3d_flags>
0

> <s_m_subgroup_title>
dock_pv

> <s_m_subgroupid>
dock_pv

> <b_m_subgroup_collapsed>
1

$$$$
CHEMBL1966_lig734
                    3D
 Schrodinger Suite 2021-1.
 44 47  0  0  1  0            999 V2000
   49.2410   41.7489   -3.9857 N   0  0  0  0  0  0
   48.2105   40.0009   -2.0393 C   0  0  0  0  0  0
   49.6950   41.8216   -2.7090 C   0  0  0  0  0  0
   49.2231   40.9365   -1.7079 C   0  0  0  0  0  0
   47.6307   40.0336   -3.3385 C   0  0  0  0  0  0
   48.1954   40.9425   -4.2832 C   0  0  0  0  0  0
   47.5452   39.1196   -1.0094 C   0  0  0  0  0  0
   50.6225   42.9965   -2.4969 C   0  0  0  0  0  0
   46.4423   39.3343   -3.6988 C   0  0  0  0  0  0
   52.4114   45.1889   -2.1004 C   0  0  0  0  0  0
   46.8683   39.6072   -0.1207 O   0  0  0  0  0  0
   47.4886   41.2420   -5.4665 C   0  0  0  0  0  0
   51.5939   43.3335   -3.4538 C   0  0  0  0  0  0
   50.4973   43.8473   -1.3885 C   0  0  0  0  0  0
   51.3741   44.9184   -1.1930 C   0  0  0  0  0  0
   52.4657   44.4093   -3.2731 C   0  0  0  0  0  0
   53.4589   46.2159   -1.8147 C   0  0  0  0  0  0
   47.6232   37.8026   -1.1894 N   0  0  0  0  0  0
   45.8107   39.6106   -4.8978 C   0  0  0  0  0  0
   49.7392   41.0141   -0.2672 C   0  0  0  0  0  0
   46.2573   40.6432   -5.6989 C   0  0  0  0  0  0
   44.8230   38.8073   -5.3306 F   0  0  0  0  0  0
   54.0475   46.9554   -2.8506 C   0  0  0  0  0  0
   53.9227   46.4100   -0.5051 C   0  0  0  0  0  0
   55.0820   47.8506   -2.5884 C   0  0  0  0  0  0
   54.9709   47.2868   -0.2420 C   0  0  0  0  0  0
   55.5466   48.0055   -1.2853 C   0  0  0  0  0  0
   46.0045   38.5837   -3.0590 H   0  0  0  0  0  0
   47.8357   42.0466   -6.1008 H   0  0  0  0  0  0
   51.6998   42.7400   -4.3474 H   0  0  0  0  0  0
   49.7169   43.6878   -0.6610 H   0  0  0  0  0  0
   51.2593   45.5230   -0.3049 H   0  0  0  0  0  0
   53.2245   44.5896   -4.0164 H   0  0  0  0  0  0
   47.1565   37.1936   -0.5369 H   0  0  0  0  0  0
   48.2141   37.4250   -1.9180 H   0  0  0  0  0  0
   49.6611   40.0418    0.2229 H   0  0  0  0  0  0
   50.7844   41.3091   -0.2001 H   0  0  0  0  0  0
   49.1458   41.7246    0.3048 H   0  0  0  0  0  0
   45.6240   40.9617   -6.4983 H   0  0  0  0  0  0
   53.7069   46.8370   -3.8691 H   0  0  0  0  0  0
   53.5014   45.8493    0.3166 H   0  0  0  0  0  0
   55.5301   48.4122   -3.3946 H   0  0  0  0  0  0
   55.3336   47.4102    0.7683 H   0  0  0  0  0  0
   56.3578   48.6898   -1.0814 H   0  0  0  0  0  0
  1  3  2  0  0  0
  1  6  1  0  0  0
  2  5  1  0  0  0
  2  7  1  0  0  0
  2  4  2  0  0  0
  3  4  1  0  0  0
  3  8  1  0  0  0
  4 20  1  0  0  0
  5  6  1  0  0  0
  5  9  2  0  0  0
  6 12  2  0  0  0
  7 11  2  0  0  0
  7 18  1  0  0  0
  8 13  2  0  0  0
  8 14  1  0  0  0
  9 19  1  0  0  0
  9 28  1  0  0  0
 10 15  1  0  0  0
 10 17  1  0  0  0
 10 16  2  0  0  0
 12 21  1  0  0  0
 12 29  1  0  0  0
 13 16  1  0  0  0
 13 30  1  0  0  0
 14 15  2  0  0  0
 14 31  1  0  0  0
 15 32  1  0  0  0
 16 33  1  0  0  0
 17 23  1  0  0  0
 17 24  2  0  0  0
 18 34  1  0  0  0
 18 35  1  0  0  0
 19 21  2  0  0  0
 19 22  1  0  0  0
 20 36  1  0  0  0
 20 37  1  0  0  0
 20 38  1  0  0  0
 21 39  1  0  0  0
 23 25  2  0  0  0
 23 40  1  0  0  0
 24 26  1  0  0  0
 24 41  1  0  0  0
 25 27  1  0  0  0
 25 42  1  0  0  0
 26 27  2  0  0  0
 26 43  1  0  0  0
 27 44  1  0  0  0
M  END
> <s_m_entry_id>
25649

> <s_m_entry_name>
dock_pv.301

> <s_m_Source_Path>
/home/csk/Desktop/cluster/DUD-E-result/pyrd

> <s_m_Source_File>
dock_pv.maegz

> <i_m_Source_File_Index>
301

> <chembl_id>
CHEMBL291268

> <chembl_pref_name>
None

> <i_lp_mmshare_version>
53161

> <r_lp_tautomer_probability>
1

> <s_lp_Force_Field>
OPLS_2005

> <r_lp_Energy>
30.927362

> <b_lp_Chiralities_Consistent>
1

> <s_lp_Variant>
CHEMBL1966_lig734-1

> <s_i_glide_gridfile>
glide-grid_1d3g

> <i_i_glide_lignum>
805

> <i_i_glide_rotatable_bonds>
3

> <r_i_docking_score>
-9.24959177947805

> <r_i_glide_ligand_efficiency>
-0.342577473314002

> <r_i_glide_ligand_efficiency_sa>
-1.02773241881293

> <r_i_glide_ligand_efficiency_ln>
-2.15315247482415

> <r_i_glide_gscore>
-9.24959177947805

> <r_i_glide_lipo>
-5.74105021907871

> <r_i_glide_hbond>
-0.133675101678147

> <r_i_glide_metal>
0

> <r_i_glide_rewards>
-2.16297256985119

> <r_i_glide_evdw>
-29.5291576385498

> <r_i_glide_ecoul>
-0.244584664702415

> <r_i_glide_erotb>
0.301251692762845

> <r_i_glide_esite>
0

> <r_i_glide_emodel>
-40.5969067778301

> <r_i_glide_energy>
-29.7737423032522

> <r_i_glide_einternal>
1.32185649871826

> <i_i_glide_confnum>
14

> <i_i_glide_posenum>
154

> <r_i_glide_eff_state_penalty>
0

> <s_user_duplicate_titles>
CHEMBL1966_lig734

> <i_f3d_flags>
0

> <s_m_subgroup_title>
dock_pv

> <s_m_subgroupid>
dock_pv

> <b_m_subgroup_collapsed>
1

$$$$
CHEMBL1966_lig409
                    3D
 Schrodinger Suite 2021-1.
 44 46  0  0  1  0            999 V2000
   48.9148   40.8099   -2.6535 C   0  0  0  0  0  0
   48.8623   40.4100   -1.2320 C   0  0  0  0  0  0
   47.9005   39.4958   -0.9344 N   0  0  0  0  0  0
   46.9941   38.8997   -1.7561 C   0  0  0  0  0  0
   47.0320   39.3625   -3.0324 N   0  0  0  0  0  0
   47.9544   40.2832   -3.4810 C   0  0  0  0  0  0
   47.8387   40.5985   -4.8994 C   0  0  0  0  0  0
   46.5476   40.8102   -5.2998 O   0  0  0  0  0  0
   48.7863   40.6933   -5.6777 O   0  0  0  0  0  0
   46.2077   38.0402   -1.3823 O   0  0  0  0  0  0
   49.5974   40.8267   -0.3386 O   0  0  0  0  0  0
   50.0319   41.7776   -3.1463 C   0  0  0  0  0  0
   50.6976   42.8818   -2.2703 C   0  0  0  0  0  0
   51.7157   43.6787   -3.1389 C   0  0  0  0  0  0
   52.4231   44.8109   -2.4990 N   0  0  0  0  0  0
   53.7344   45.0828   -2.6915 C   0  0  0  0  0  0
   54.3769   46.2225   -1.9494 C   0  0  0  0  0  0
   54.4728   44.3138   -3.2990 O   0  0  0  0  0  0
   55.9760   47.8563   -0.3362 C   0  0  0  0  0  0
   54.8885   47.1908    0.2104 C   0  0  0  0  0  0
   54.0812   46.4025   -0.5936 C   0  0  0  0  0  0
   56.2436   47.8205   -1.7126 C   0  0  0  0  0  0
   55.4470   46.9837   -2.5490 C   0  0  0  0  0  0
   55.7919   46.9346   -3.9312 C   0  0  0  0  0  0
   56.8538   47.6718   -4.4456 C   0  0  0  0  0  0
   57.6040   48.4943   -3.6176 C   0  0  0  0  0  0
   57.3100   48.5748   -2.2618 C   0  0  0  0  0  0
   47.8695   39.1992    0.0310 H   0  0  0  0  0  0
   46.3994   38.8977   -3.6671 H   0  0  0  0  0  0
   45.9423   40.9465   -4.5665 H   0  0  0  0  0  0
   50.8228   41.1388   -3.5342 H   0  0  0  0  0  0
   49.6425   42.3148   -4.0096 H   0  0  0  0  0  0
   49.9429   43.5538   -1.8611 H   0  0  0  0  0  0
   51.2228   42.4364   -1.4253 H   0  0  0  0  0  0
   52.4229   42.9540   -3.5503 H   0  0  0  0  0  0
   51.2105   44.0458   -4.0324 H   0  0  0  0  0  0
   51.8572   45.4965   -2.0227 H   0  0  0  0  0  0
   56.6524   48.4030    0.2906 H   0  0  0  0  0  0
   54.6971   47.2501    1.2724 H   0  0  0  0  0  0
   53.2891   45.8397   -0.1204 H   0  0  0  0  0  0
   55.2233   46.3115   -4.5952 H   0  0  0  0  0  0
   57.0938   47.6057   -5.4965 H   0  0  0  0  0  0
   58.4255   49.0643   -4.0257 H   0  0  0  0  0  0
   57.9078   49.2025   -1.6155 H   0  0  0  0  0  0
  1  2  1  0  0  0
  1  6  2  0  0  0
  1 12  1  0  0  0
  2  3  1  0  0  0
  2 11  2  0  0  0
  3  4  1  0  0  0
  3 28  1  0  0  0
  4  5  1  0  0  0
  4 10  2  0  0  0
  5  6  1  0  0  0
  5 29  1  0  0  0
  6  7  1  0  0  0
  7  8  1  0  0  0
  7  9  2  0  0  0
  8 30  1  0  0  0
 12 13  1  0  0  0
 12 31  1  0  0  0
 12 32  1  0  0  0
 13 14  1  0  0  0
 13 33  1  0  0  0
 13 34  1  0  0  0
 14 15  1  0  0  0
 14 35  1  0  0  0
 14 36  1  0  0  0
 15 16  1  0  0  0
 15 37  1  0  0  0
 16 17  1  0  0  0
 16 18  2  0  0  0
 17 23  2  0  0  0
 17 21  1  0  0  0
 19 22  2  0  0  0
 19 20  1  0  0  0
 19 38  1  0  0  0
 20 21  2  0  0  0
 20 39  1  0  0  0
 21 40  1  0  0  0
 22 23  1  0  0  0
 22 27  1  0  0  0
 23 24  1  0  0  0
 24 25  2  0  0  0
 24 41  1  0  0  0
 25 26  1  0  0  0
 25 42  1  0  0  0
 26 27  2  0  0  0
 26 43  1  0  0  0
 27 44  1  0  0  0
M  END
> <s_m_entry_id>
25650

> <s_m_entry_name>
dock_pv.302

> <s_m_Source_Path>
/home/csk/Desktop/cluster/DUD-E-result/pyrd

> <s_m_Source_File>
dock_pv.maegz

> <i_m_Source_File_Index>
302

> <chembl_id>
CHEMBL3900846

> <chembl_pref_name>
None

> <i_lp_mmshare_version>
53161

> <r_lp_tautomer_probability>
1

> <s_lp_Force_Field>
OPLS_2005

> <r_lp_Energy>
26.406888

> <b_lp_Chiralities_Consistent>
1

> <s_lp_Variant>
CHEMBL1966_lig409-1

> <s_i_glide_gridfile>
glide-grid_1d3g

> <i_i_glide_lignum>
459

> <i_i_glide_rotatable_bonds>
8

> <r_i_docking_score>
-9.24921532647205

> <r_i_glide_ligand_efficiency>
-0.342563530610076

> <r_i_glide_ligand_efficiency_sa>
-1.02769059070119

> <r_i_glide_ligand_efficiency_ln>
-2.15306484277067

> <r_i_glide_gscore>
-9.24921532647205

> <r_i_glide_lipo>
-4.46806690052565

> <r_i_glide_hbond>
-0.115153099316897

> <r_i_glide_metal>
0

> <r_i_glide_rewards>
-2.74585104110306

> <r_i_glide_evdw>
-38.4104499816895

> <r_i_glide_ecoul>
-5.70558977127075

> <r_i_glide_erotb>
0.85621667924865

> <r_i_glide_esite>
0

> <r_i_glide_emodel>
-56.3026404675119

> <r_i_glide_energy>
-44.1160397529602

> <r_i_glide_einternal>
8.14560222625732

> <i_i_glide_confnum>
8

> <i_i_glide_posenum>
154

> <r_i_glide_eff_state_penalty>
0

> <s_user_duplicate_titles>
CHEMBL1966_lig409

> <i_f3d_flags>
0

> <s_m_subgroup_title>
dock_pv

> <s_m_subgroupid>
dock_pv

> <b_m_subgroup_collapsed>
1

$$$$
CHEMBL1966_lig670 
                    3D
 Schrodinger Suite 2021-1.
 40 42  0  0  1  0            999 V2000
   55.5490   48.2287   -2.0554 C   0  0  0  0  0  0
   56.1468   48.0971   -0.7985 C   0  0  0  0  0  0
   55.6230   47.2100    0.1390 C   0  0  0  0  0  0
   54.4978   46.4519   -0.1721 C   0  0  0  0  0  0
   53.8854   46.5586   -1.4273 C   0  0  0  0  0  0
   54.4164   47.4667   -2.3558 C   0  0  0  0  0  0
   52.7614   45.6449   -1.7801 C   0  0  0  0  0  0
   52.8747   44.8100   -2.8991 C   0  0  0  0  0  0
   51.9471   43.7972   -3.1500 C   0  0  0  0  0  0
   50.8711   43.5950   -2.2576 C   0  0  0  0  0  0
   50.7099   44.4814   -1.1820 C   0  0  0  0  0  0
   51.6384   45.5015   -0.9515 C   0  0  0  0  0  0
   51.4853   46.3082    0.1252 F   0  0  0  0  0  0
   49.6792   44.3201   -0.3154 F   0  0  0  0  0  0
   53.9601   44.9127   -3.6990 F   0  0  0  0  0  0
   52.2114   42.9486   -4.1679 F   0  0  0  0  0  0
   56.0230   49.1116   -2.9987 O   0  0  0  0  0  0
   57.3723   48.9478   -3.4299 C   0  0  0  0  0  0
   57.5464   49.7218   -4.4989 F   0  0  0  0  0  0
   58.2424   49.3426   -2.5003 F   0  0  0  0  0  0
   57.6230   47.6898   -3.7991 F   0  0  0  0  0  0
   50.0230   42.4657   -2.2724 N   0  0  0  0  0  0
   49.5139   41.8122   -3.3373 C   0  0  0  0  0  0
   48.4995   40.8100   -3.0131 C   0  0  0  0  0  0
   49.8113   42.0680   -4.4989 O   0  0  0  0  0  0
   48.4409   40.1000   -1.7900 C   0  0  0  0  0  0
   47.3915   39.2100   -1.6777 C   0  0  0  0  0  0
   46.4219   39.2100   -3.0948 S   0  0  0  0  0  0
   47.4497   40.3880   -3.8616 C   0  0  0  0  0  0
   47.1197   40.8100   -5.1982 C   0  0  0  0  0  0
   47.9445   40.8100   -6.0990 O   0  0  0  0  0  0
   45.8197   41.2064   -5.3403 O   0  0  0  0  0  0
   57.0124   48.6869   -0.5339 H   0  0  0  0  0  0
   56.0917   47.1114    1.1070 H   0  0  0  0  0  0
   54.1197   45.7547    0.5620 H   0  0  0  0  0  0
   53.9634   47.5659   -3.3320 H   0  0  0  0  0  0
   49.6228   42.2338   -1.3765 H   0  0  0  0  0  0
   49.1534   40.2338   -0.9883 H   0  0  0  0  0  0
   47.1484   38.5713   -0.8398 H   0  0  0  0  0  0
   45.3593   41.3140   -4.5032 H   0  0  0  0  0  0
  1  2  2  0  0  0
  1  6  1  0  0  0
  1 17  1  0  0  0
  2  3  1  0  0  0
  2 33  1  0  0  0
  3  4  2  0  0  0
  3 34  1  0  0  0
  4  5  1  0  0  0
  4 35  1  0  0  0
  5  6  2  0  0  0
  5  7  1  0  0  0
  6 36  1  0  0  0
  7  8  2  0  0  0
  7 12  1  0  0  0
  8  9  1  0  0  0
  8 15  1  0  0  0
  9 10  2  0  0  0
  9 16  1  0  0  0
 10 11  1  0  0  0
 10 22  1  0  0  0
 11 12  2  0  0  0
 11 14  1  0  0  0
 12 13  1  0  0  0
 17 18  1  0  0  0
 18 19  1  0  0  0
 18 20  1  0  0  0
 18 21  1  0  0  0
 22 23  1  0  0  0
 22 37  1  0  0  0
 23 24  1  0  0  0
 23 25  2  0  0  0
 24 26  1  0  0  0
 24 29  2  0  0  0
 26 27  2  0  0  0
 26 38  1  0  0  0
 27 28  1  0  0  0
 27 39  1  0  0  0
 28 29  1  0  0  0
 29 30  1  0  0  0
 30 31  2  0  0  0
 30 32  1  0  0  0
 32 40  1  0  0  0
M  END
> <s_m_entry_id>
25651

> <s_m_entry_name>
dock_pv.303

> <s_m_Source_Path>
/home/csk/Desktop/cluster/DUD-E-result/pyrd

> <s_m_Source_File>
dock_pv.maegz

> <i_m_Source_File_Index>
303

> <chembl_id>
CHEMBL4580266

> <chembl_pref_name>
None

> <i_lp_mmshare_version>
53161

> <r_lp_tautomer_probability>
1

> <s_lp_Force_Field>
OPLS_2005

> <r_lp_Energy>
26.292299

> <b_lp_Chiralities_Consistent>
1

> <s_lp_Variant>
CHEMBL1966_lig670 -1

> <s_i_glide_gridfile>
glide-grid_1d3g

> <i_i_glide_lignum>
739

> <i_i_glide_rotatable_bonds>
8

> <r_i_docking_score>
-9.24723540675881

> <r_i_glide_ligand_efficiency>
-0.288976106461213

> <r_i_glide_ligand_efficiency_sa>
-0.917441949720537

> <r_i_glide_ligand_efficiency_ln>
-2.07070807769026

> <r_i_glide_gscore>
-9.24723540675881

> <r_i_glide_lipo>
-5.22612723524499

> <r_i_glide_hbond>
-0.250402777854115

> <r_i_glide_metal>
0

> <r_i_glide_rewards>
-1.37802446262445

> <r_i_glide_evdw>
-45.5217132568359

> <r_i_glide_ecoul>
-4.14384984970093

> <r_i_glide_erotb>
0.52937499732666

> <r_i_glide_esite>
-0.0243927880649805

> <r_i_glide_emodel>
-62.5859660878304

> <r_i_glide_energy>
-49.6655631065369

> <r_i_glide_einternal>
11.1793441772461

> <i_i_glide_confnum>
66

> <i_i_glide_posenum>
21

> <r_i_glide_eff_state_penalty>
0

> <s_user_duplicate_titles>
CHEMBL1966_lig670 

> <i_f3d_flags>
0

> <s_m_subgroup_title>
dock_pv

> <s_m_subgroupid>
dock_pv

> <b_m_subgroup_collapsed>
1

$$$$
CHEMBL1966_lig314
                    3D
 Schrodinger Suite 2021-1.
 48 50  0  0  1  0            999 V2000
   46.0232   38.3942   -1.6316 C   0  0  0  0  0  0
   46.9888   38.7728   -0.7184 C   0  0  0  0  0  0
   48.0231   39.5954   -1.1174 C   0  0  0  0  0  0
   48.1119   40.0272   -2.4441 C   0  0  0  0  0  0
   47.0672   39.7338   -3.3592 C   0  0  0  0  0  0
   46.0456   38.8801   -2.9347 C   0  0  0  0  0  0
   46.9799   40.3257   -4.7573 C   0  0  0  0  0  0
   45.7450   40.8052   -5.0759 O   0  0  0  0  0  0
   47.9399   40.4100   -5.5225 O   0  0  0  0  0  0
   49.2549   40.8330   -2.8099 C   0  0  0  0  0  0
   49.6010   41.8836   -2.1777 N   0  0  0  0  0  0
   50.3712   42.9471   -2.7564 N   0  0  0  0  0  0
   50.7836   43.9986   -1.9181 C   0  0  0  0  0  0
   51.7989   44.8082   -2.0989 N   0  0  0  0  0  0
   52.1091   45.6111   -1.1084 C   0  0  0  0  0  0
   51.2230   45.4817   -0.0492 C   0  0  0  0  0  0
   50.0229   44.2666   -0.3897 S   0  0  0  0  0  0
   53.3685   46.4301   -1.2158 C   0  0  0  0  0  0
   53.8028   46.8467   -2.4864 C   0  0  0  0  0  0
   54.9977   47.5448   -2.6508 C   0  0  0  0  0  0
   55.7969   47.8240   -1.5461 C   0  0  0  0  0  0
   55.3877   47.4176   -0.2790 C   0  0  0  0  0  0
   54.1766   46.7454   -0.1066 C   0  0  0  0  0  0
   53.7478   46.2958    1.5010 Cl  0  0  0  0  0  0
   50.5941   42.8806   -4.2365 C   0  0  1  0  0  0
   49.3539   43.1712   -5.0977 C   0  0  0  0  0  0
   51.8155   43.5603   -4.8194 C   0  0  0  0  0  0
   53.1206   43.2103   -4.0990 C   0  0  0  0  0  0
   45.2298   37.7409   -1.2995 H   0  0  0  0  0  0
   46.9414   38.4190    0.2983 H   0  0  0  0  0  0
   48.7801   39.8599   -0.3907 H   0  0  0  0  0  0
   45.2586   38.5909   -3.6182 H   0  0  0  0  0  0
   45.1994   40.9052   -4.2924 H   0  0  0  0  0  0
   49.7239   40.4731   -3.7163 H   0  0  0  0  0  0
   51.2264   45.9987    0.8977 H   0  0  0  0  0  0
   53.2153   46.6270   -3.3652 H   0  0  0  0  0  0
   55.3112   47.8549   -3.6369 H   0  0  0  0  0  0
   56.7342   48.3481   -1.6709 H   0  0  0  0  0  0
   56.0153   47.6148    0.5772 H   0  0  0  0  0  0
   50.8228   41.8547   -4.4726 H   0  0  0  0  0  0
   49.3437   42.5260   -5.9751 H   0  0  0  0  0  0
   48.4226   43.0060   -4.5626 H   0  0  0  0  0  0
   49.3604   44.1771   -5.4973 H   0  0  0  0  0  0
   51.9093   43.2098   -5.8534 H   0  0  0  0  0  0
   51.6232   44.6312   -4.8404 H   0  0  0  0  0  0
   53.7167   44.0923   -3.8698 H   0  0  0  0  0  0
   52.8632   42.8100   -3.1484 H   0  0  0  0  0  0
   53.7058   42.4457   -4.6159 H   0  0  0  0  0  0
  1  2  2  0  0  0
  1  6  1  0  0  0
  1 29  1  0  0  0
  2  3  1  0  0  0
  2 30  1  0  0  0
  3  4  2  0  0  0
  3 31  1  0  0  0
  4  5  1  0  0  0
  4 10  1  0  0  0
  5  6  2  0  0  0
  5  7  1  0  0  0
  6 32  1  0  0  0
  7  8  1  0  0  0
  7  9  2  0  0  0
  8 33  1  0  0  0
 10 11  2  0  0  0
 10 34  1  0  0  0
 11 12  1  0  0  0
 12 13  1  0  0  0
 12 25  1  0  0  0
 13 14  2  0  0  0
 13 17  1  0  0  0
 14 15  1  0  0  0
 15 16  2  0  0  0
 15 18  1  0  0  0
 16 17  1  0  0  0
 16 35  1  0  0  0
 18 19  2  0  0  0
 18 23  1  0  0  0
 19 20  1  0  0  0
 19 36  1  0  0  0
 20 21  2  0  0  0
 20 37  1  0  0  0
 21 22  1  0  0  0
 21 38  1  0  0  0
 22 23  2  0  0  0
 22 39  1  0  0  0
 23 24  1  0  0  0
 25 26  1  0  0  0
 25 27  1  0  0  0
 25 40  1  0  0  0
 26 41  1  0  0  0
 26 42  1  0  0  0
 26 43  1  0  0  0
 27 28  1  0  0  0
 27 44  1  0  0  0
 27 45  1  0  0  0
 28 46  1  0  0  0
 28 47  1  0  0  0
 28 48  1  0  0  0
M  END
> <s_m_entry_id>
25652

> <s_m_entry_name>
dock_pv.304

> <s_m_Source_Path>
/home/csk/Desktop/cluster/DUD-E-result/pyrd

> <s_m_Source_File>
dock_pv.maegz

> <i_m_Source_File_Index>
304

> <chembl_id>
CHEMBL3928205

> <chembl_pref_name>
None

> <i_lp_mmshare_version>
53161

> <r_lp_tautomer_probability>
1

> <s_lp_Force_Field>
OPLS_2005

> <r_lp_Energy>
33.332421

> <b_lp_Chiralities_Consistent>
1

> <s_lp_Variant>
CHEMBL1966_lig314-2

> <s_i_glide_gridfile>
glide-grid_1d3g

> <i_i_glide_lignum>
362

> <i_i_glide_rotatable_bonds>
8

> <r_i_docking_score>
-9.24636895310062

> <r_i_glide_ligand_efficiency>
-0.330227462610736

> <r_i_glide_ligand_efficiency_sa>
-1.00276507006044

> <r_i_glide_ligand_efficiency_ln>
-2.13433343956485

> <r_i_glide_gscore>
-9.24636895310062

> <r_i_glide_lipo>
-5.27907897924752

> <r_i_glide_hbond>
-0.0221452665269583

> <r_i_glide_metal>
0

> <r_i_glide_rewards>
-2.47763184427317

> <r_i_glide_evdw>
-32.8473663330078

> <r_i_glide_ecoul>
-3.4412317276001

> <r_i_glide_erotb>
0.691040212737429

> <r_i_glide_esite>
0

> <r_i_glide_emodel>
-55.4665692486845

> <r_i_glide_energy>
-36.2885980606079

> <r_i_glide_einternal>
6.45300054550171

> <i_i_glide_confnum>
118

> <i_i_glide_posenum>
106

> <r_i_glide_eff_state_penalty>
0

> <s_user_duplicate_titles>
CHEMBL1966_lig314

> <i_f3d_flags>
0

> <s_m_subgroup_title>
dock_pv

> <s_m_subgroupid>
dock_pv

> <b_m_subgroup_collapsed>
1

$$$$
CHEMBL1966_lig199
                    3D
 Schrodinger Suite 2021-1.
 40 42  0  0  1  0            999 V2000
   56.5575   48.8466   -4.0657 C   0  0  0  0  0  0
   56.8486   48.7528   -2.6795 O   0  0  0  0  0  0
   56.0289   47.9871   -1.8754 C   0  0  0  0  0  0
   56.3582   47.9443   -0.5241 C   0  0  0  0  0  0
   55.5891   47.2085    0.3710 C   0  0  0  0  0  0
   54.4847   46.4943   -0.0789 C   0  0  0  0  0  0
   54.1422   46.4884   -1.4359 C   0  0  0  0  0  0
   54.9155   47.2540   -2.3226 C   0  0  0  0  0  0
   53.0432   45.6101   -1.9239 C   0  0  0  0  0  0
   53.2009   44.8925   -3.1121 C   0  0  0  0  0  0
   52.2575   43.9473   -3.5085 C   0  0  0  0  0  0
   51.1481   43.6566   -2.7100 C   0  0  0  0  0  0
   50.2439   42.7358   -3.2580 N   0  0  0  0  0  0
   49.5190   41.6375   -2.7715 C   0  0  0  0  0  0
   49.6234   41.3633   -1.4455 N   0  0  0  0  0  0
   48.8297   40.4095   -0.9080 C   0  0  0  0  0  0
   47.9890   39.6101   -1.6763 C   0  0  0  0  0  0
   47.9185   39.8551   -3.0461 C   0  0  0  0  0  0
   48.6720   40.8872   -3.6300 C   0  0  0  0  0  0
   48.4251   41.2210   -5.0923 C   0  0  0  0  0  0
   47.4423   40.8100   -5.7032 O   0  0  0  0  0  0
   49.3365   42.0377   -5.6891 O   0  0  0  0  0  0
   50.9461   44.4132   -1.5346 C   0  0  0  0  0  0
   49.5713   44.2397   -0.4990 Cl  0  0  0  0  0  0
   51.8844   45.3848   -1.1679 C   0  0  0  0  0  0
   57.2477   49.5461   -4.5375 H   0  0  0  0  0  0
   56.6678   47.8802   -4.5600 H   0  0  0  0  0  0
   55.5457   49.2173   -4.2234 H   0  0  0  0  0  0
   57.2225   48.4861   -0.1677 H   0  0  0  0  0  0
   55.8545   47.1854    1.4173 H   0  0  0  0  0  0
   53.9249   45.9069    0.6342 H   0  0  0  0  0  0
   54.6510   47.2571   -3.3683 H   0  0  0  0  0  0
   54.0918   45.0267   -3.7047 H   0  0  0  0  0  0
   52.4220   43.4029   -4.4275 H   0  0  0  0  0  0
   50.2024   42.7613   -4.2700 H   0  0  0  0  0  0
   48.9237   40.2449    0.1560 H   0  0  0  0  0  0
   47.3989   38.8286   -1.2202 H   0  0  0  0  0  0
   47.2490   39.2525   -3.6437 H   0  0  0  0  0  0
   49.0147   42.3339   -6.5423 H   0  0  0  0  0  0
   51.7260   45.9408   -0.2549 H   0  0  0  0  0  0
  1  2  1  0  0  0
  1 26  1  0  0  0
  1 27  1  0  0  0
  1 28  1  0  0  0
  2  3  1  0  0  0
  3  4  2  0  0  0
  3  8  1  0  0  0
  4  5  1  0  0  0
  4 29  1  0  0  0
  5  6  2  0  0  0
  5 30  1  0  0  0
  6  7  1  0  0  0
  6 31  1  0  0  0
  7  8  2  0  0  0
  7  9  1  0  0  0
  8 32  1  0  0  0
  9 10  2  0  0  0
  9 25  1  0  0  0
 10 11  1  0  0  0
 10 33  1  0  0  0
 11 12  2  0  0  0
 11 34  1  0  0  0
 12 13  1  0  0  0
 12 23  1  0  0  0
 13 14  1  0  0  0
 13 35  1  0  0  0
 14 15  2  0  0  0
 14 19  1  0  0  0
 15 16  1  0  0  0
 16 17  2  0  0  0
 16 36  1  0  0  0
 17 18  1  0  0  0
 17 37  1  0  0  0
 18 19  2  0  0  0
 18 38  1  0  0  0
 19 20  1  0  0  0
 20 21  2  0  0  0
 20 22  1  0  0  0
 22 39  1  0  0  0
 23 24  1  0  0  0
 23 25  2  0  0  0
 25 40  1  0  0  0
M  END
> <s_m_entry_id>
25653

> <s_m_entry_name>
dock_pv.305

> <s_m_Source_Path>
/home/csk/Desktop/cluster/DUD-E-result/pyrd

> <s_m_Source_File>
dock_pv.maegz

> <i_m_Source_File_Index>
305

> <chembl_id>
CHEMBL2263629

> <chembl_pref_name>
None

> <i_lp_mmshare_version>
53161

> <r_lp_tautomer_probability>
1

> <s_lp_Force_Field>
OPLS_2005

> <r_lp_Energy>
28.476684

> <b_lp_Chiralities_Consistent>
1

> <s_lp_Variant>
CHEMBL1966_lig199-1

> <s_i_glide_gridfile>
glide-grid_1d3g

> <i_i_glide_lignum>
244

> <i_i_glide_rotatable_bonds>
6

> <r_i_docking_score>
-9.23915627029015

> <r_i_glide_ligand_efficiency>
-0.369566250811606

> <r_i_glide_ligand_efficiency_sa>
-1.0806182716585

> <r_i_glide_ligand_efficiency_ln>
-2.18995691122973

> <r_i_glide_gscore>
-9.23915627029015

> <r_i_glide_lipo>
-5.27146935825089

> <r_i_glide_hbond>
-0.0707399066473791

> <r_i_glide_metal>
0

> <r_i_glide_rewards>
-2.00174206790524

> <r_i_glide_evdw>
-43.2854385375977

> <r_i_glide_ecoul>
-2.25533151626587

> <r_i_glide_erotb>
0.607366716833126

> <r_i_glide_esite>
0

> <r_i_glide_emodel>
-66.6535627074488

> <r_i_glide_energy>
-45.5407700538635

> <r_i_glide_einternal>
4.56978702545166

> <i_i_glide_confnum>
54

> <i_i_glide_posenum>
319

> <r_i_glide_eff_state_penalty>
0

> <s_user_duplicate_titles>
CHEMBL1966_lig199

> <i_f3d_flags>
0

> <s_m_subgroup_title>
dock_pv

> <s_m_subgroupid>
dock_pv

> <b_m_subgroup_collapsed>
1

$$$$
CHEMBL1966_lig385
                    3D
 Schrodinger Suite 2021-1.
 44 46  0  0  1  0            999 V2000
   49.4494   41.2798   -3.2458 C   0  0  0  0  0  0
   49.0376   41.3961   -4.6565 C   0  0  0  0  0  0
   47.8709   40.7652   -4.9428 N   0  0  0  0  0  0
   47.0711   40.0100   -4.1433 C   0  0  0  0  0  0
   47.5725   39.8392   -2.8990 N   0  0  0  0  0  0
   48.6673   40.5183   -2.4090 C   0  0  0  0  0  0
   48.8230   40.4100   -0.9530 C   0  0  0  0  0  0
   48.0230   39.4472   -0.3930 O   0  0  0  0  0  0
   49.5733   41.0930   -0.2592 O   0  0  0  0  0  0
   45.9708   39.6100   -4.4990 O   0  0  0  0  0  0
   49.6230   42.0100   -5.5473 O   0  0  0  0  0  0
   50.7261   42.0626   -2.8812 C   0  0  0  0  0  0
   50.6486   43.5844   -3.1043 C   0  0  0  0  0  0
   51.4510   44.4100   -2.1129 C   0  0  0  0  0  0
   50.9020   44.7960   -0.8932 C   0  0  0  0  0  0
   51.6246   45.6100   -0.0254 C   0  0  0  0  0  0
   52.7071   44.8863   -2.4990 C   0  0  0  0  0  0
   53.5065   45.6693   -1.6172 C   0  0  0  0  0  0
   52.9386   46.0268   -0.3525 C   0  0  0  0  0  0
   53.7164   46.7504    0.5787 C   0  0  0  0  0  0
   55.0256   47.0982    0.2810 C   0  0  0  0  0  0
   55.5854   46.7680   -0.9442 C   0  0  0  0  0  0
   54.8541   46.0673   -1.9158 C   0  0  0  0  0  0
   55.4453   45.6102   -3.1143 N   0  0  0  0  0  0
   56.5661   46.0359   -3.7318 C   0  0  0  0  0  0
   57.2230   47.0247   -3.4124 O   0  0  0  0  0  0
   57.0116   45.2121   -4.9340 C   0  0  0  0  0  0
   47.5178   40.9286   -5.8692 H   0  0  0  0  0  0
   47.0455   39.2277   -2.2911 H   0  0  0  0  0  0
   48.1307   39.3706    0.5615 H   0  0  0  0  0  0
   51.5272   41.6912   -3.5150 H   0  0  0  0  0  0
   51.0774   41.8496   -1.8773 H   0  0  0  0  0  0
   49.6230   43.9229   -3.0909 H   0  0  0  0  0  0
   50.9705   43.8223   -4.1202 H   0  0  0  0  0  0
   49.9119   44.4646   -0.6142 H   0  0  0  0  0  0
   51.2230   45.8807    0.9388 H   0  0  0  0  0  0
   53.0959   44.6085   -3.4671 H   0  0  0  0  0  0
   53.2971   47.0037    1.5416 H   0  0  0  0  0  0
   55.6230   47.6100    1.0186 H   0  0  0  0  0  0
   56.6182   47.0370   -1.1018 H   0  0  0  0  0  0
   54.9897   44.8121   -3.5261 H   0  0  0  0  0  0
   56.4323   44.2942   -5.0337 H   0  0  0  0  0  0
   58.0621   44.9393   -4.8279 H   0  0  0  0  0  0
   56.8985   45.7932   -5.8493 H   0  0  0  0  0  0
  1  2  1  0  0  0
  1  6  2  0  0  0
  1 12  1  0  0  0
  2  3  1  0  0  0
  2 11  2  0  0  0
  3  4  1  0  0  0
  3 28  1  0  0  0
  4  5  1  0  0  0
  4 10  2  0  0  0
  5  6  1  0  0  0
  5 29  1  0  0  0
  6  7  1  0  0  0
  7  8  1  0  0  0
  7  9  2  0  0  0
  8 30  1  0  0  0
 12 13  1  0  0  0
 12 31  1  0  0  0
 12 32  1  0  0  0
 13 14  1  0  0  0
 13 33  1  0  0  0
 13 34  1  0  0  0
 14 15  2  0  0  0
 14 17  1  0  0  0
 15 16  1  0  0  0
 15 35  1  0  0  0
 16 19  2  0  0  0
 16 36  1  0  0  0
 17 18  2  0  0  0
 17 37  1  0  0  0
 18 19  1  0  0  0
 18 23  1  0  0  0
 19 20  1  0  0  0
 20 21  2  0  0  0
 20 38  1  0  0  0
 21 22  1  0  0  0
 21 39  1  0  0  0
 22 23  2  0  0  0
 22 40  1  0  0  0
 23 24  1  0  0  0
 24 25  1  0  0  0
 24 41  1  0  0  0
 25 26  2  0  0  0
 25 27  1  0  0  0
 27 42  1  0  0  0
 27 43  1  0  0  0
 27 44  1  0  0  0
M  END
> <s_m_entry_id>
25654

> <s_m_entry_name>
dock_pv.306

> <s_m_Source_Path>
/home/csk/Desktop/cluster/DUD-E-result/pyrd

> <s_m_Source_File>
dock_pv.maegz

> <i_m_Source_File_Index>
306

> <chembl_id>
CHEMBL3971851

> <chembl_pref_name>
None

> <i_lp_mmshare_version>
53161

> <r_lp_tautomer_probability>
1

> <s_lp_Force_Field>
OPLS_2005

> <r_lp_Energy>
21.847484

> <b_lp_Chiralities_Consistent>
1

> <s_lp_Variant>
CHEMBL1966_lig385-1

> <s_i_glide_gridfile>
glide-grid_1d3g

> <i_i_glide_lignum>
435

> <i_i_glide_rotatable_bonds>
7

> <r_i_docking_score>
-9.23753520444594

> <r_i_glide_ligand_efficiency>
-0.342130933497998

> <r_i_glide_ligand_efficiency_sa>
-1.02639279936639

> <r_i_glide_ligand_efficiency_ln>
-2.15034590292485

> <r_i_glide_gscore>
-9.23753520444594

> <r_i_glide_lipo>
-4.72505324441793

> <r_i_glide_hbond>
0

> <r_i_glide_metal>
0

> <r_i_glide_rewards>
-2.73938417126483

> <r_i_glide_evdw>
-40.6495552062988

> <r_i_glide_ecoul>
-3.02755951881409

> <r_i_glide_erotb>
0.713513899373875

> <r_i_glide_esite>
0

> <r_i_glide_emodel>
-63.1751631437053

> <r_i_glide_energy>
-43.6771147251129

> <r_i_glide_einternal>
3.81506705284119

> <i_i_glide_confnum>
18

> <i_i_glide_posenum>
180

> <r_i_glide_eff_state_penalty>
0

> <s_user_duplicate_titles>
CHEMBL1966_lig385

> <i_f3d_flags>
0

> <s_m_subgroup_title>
dock_pv

> <s_m_subgroupid>
dock_pv

> <b_m_subgroup_collapsed>
1

$$$$
CHEMBL1966_lig208
                    3D
 Schrodinger Suite 2021-1.
 30 32  0  0  1  0            999 V2000
   47.7419   39.5154   -1.8180 C   0  0  0  0  0  0
   48.2669   39.8109   -0.5654 C   0  0  0  0  0  0
   49.2230   40.8100   -0.4207 C   0  0  0  0  0  0
   48.1951   40.1823   -2.9530 C   0  0  0  0  0  0
   49.1384   41.2491   -2.8466 C   0  0  0  0  0  0
   49.6230   41.5772   -1.5386 C   0  0  0  0  0  0
   50.4317   42.6446   -1.3028 N   0  0  0  0  0  0
   50.8230   43.4138   -2.3476 C   0  0  0  0  0  0
   50.4384   43.1418   -3.6489 C   0  0  0  0  0  0
   49.5782   42.0792   -3.9351 C   0  0  0  0  0  0
   46.4985   38.3324   -1.9597 Cl  0  0  0  0  0  0
   49.1636   41.8860   -5.3694 C   0  0  0  0  0  0
   49.2230   43.0311   -6.0990 O   0  0  0  0  0  0
   48.8230   40.8100   -5.8536 O   0  0  0  0  0  0
   51.7232   44.5601   -2.0570 C   0  0  0  0  0  0
   51.5392   45.3618   -0.9210 C   0  0  0  0  0  0
   52.4467   46.3739   -0.6161 C   0  0  0  0  0  0
   53.5367   46.6027   -1.4527 C   0  0  0  0  0  0
   53.7222   45.8347   -2.5973 C   0  0  0  0  0  0
   52.8230   44.8161   -2.8990 C   0  0  0  0  0  0
   54.4229   47.5785   -1.1514 F   0  0  0  0  0  0
   47.9288   39.2609    0.3010 H   0  0  0  0  0  0
   49.6171   41.0458    0.5576 H   0  0  0  0  0  0
   47.7649   39.9172   -3.9051 H   0  0  0  0  0  0
   50.8104   43.7854   -4.4338 H   0  0  0  0  0  0
   49.0487   43.8176   -5.5718 H   0  0  0  0  0  0
   50.7034   45.1850   -0.2591 H   0  0  0  0  0  0
   52.3107   46.9746    0.2714 H   0  0  0  0  0  0
   54.5713   46.0190   -3.2386 H   0  0  0  0  0  0
   53.0050   44.2011   -3.7676 H   0  0  0  0  0  0
  1  2  2  0  0  0
  1  4  1  0  0  0
  1 11  1  0  0  0
  2  3  1  0  0  0
  2 22  1  0  0  0
  3  6  2  0  0  0
  3 23  1  0  0  0
  4  5  2  0  0  0
  4 24  1  0  0  0
  5  6  1  0  0  0
  5 10  1  0  0  0
  6  7  1  0  0  0
  7  8  2  0  0  0
  8  9  1  0  0  0
  8 15  1  0  0  0
  9 10  2  0  0  0
  9 25  1  0  0  0
 10 12  1  0  0  0
 12 13  1  0  0  0
 12 14  2  0  0  0
 13 26  1  0  0  0
 15 16  2  0  0  0
 15 20  1  0  0  0
 16 17  1  0  0  0
 16 27  1  0  0  0
 17 18  2  0  0  0
 17 28  1  0  0  0
 18 19  1  0  0  0
 18 21  1  0  0  0
 19 20  2  0  0  0
 19 29  1  0  0  0
 20 30  1  0  0  0
M  END
> <s_m_entry_id>
25655

> <s_m_entry_name>
dock_pv.307

> <s_m_Source_Path>
/home/csk/Desktop/cluster/DUD-E-result/pyrd

> <s_m_Source_File>
dock_pv.maegz

> <i_m_Source_File_Index>
307

> <chembl_id>
CHEMBL2385720

> <chembl_pref_name>
None

> <i_lp_mmshare_version>
53161

> <r_lp_tautomer_probability>
1

> <s_lp_Force_Field>
OPLS_2005

> <r_lp_Energy>
18.484802

> <b_lp_Chiralities_Consistent>
1

> <s_lp_Variant>
CHEMBL1966_lig208-1

> <s_i_glide_gridfile>
glide-grid_1d3g

> <i_i_glide_lignum>
253

> <i_i_glide_rotatable_bonds>
3

> <r_i_docking_score>
-9.2310709272404

> <r_i_glide_ligand_efficiency>
-0.439574806059067

> <r_i_glide_ligand_efficiency_sa>
-1.21275355853365

> <r_i_glide_ligand_efficiency_ln>
-2.28236363362503

> <r_i_glide_gscore>
-9.2310709272404

> <r_i_glide_lipo>
-4.65932867513491

> <r_i_glide_hbond>
-0.141054599987242

> <r_i_glide_metal>
0

> <r_i_glide_rewards>
-2.49676734017161

> <r_i_glide_evdw>
-27.540506362915

> <r_i_glide_ecoul>
-6.40807247161865

> <r_i_glide_erotb>
0.404315876941923

> <r_i_glide_esite>
0

> <r_i_glide_emodel>
-50.0785487086864

> <r_i_glide_energy>
-33.9485788345337

> <r_i_glide_einternal>
3.23099398612976

> <i_i_glide_confnum>
10

> <i_i_glide_posenum>
397

> <r_i_glide_eff_state_penalty>
0

> <s_user_duplicate_titles>
CHEMBL1966_lig208

> <i_f3d_flags>
0

> <s_m_subgroup_title>
dock_pv

> <s_m_subgroupid>
dock_pv

> <b_m_subgroup_collapsed>
1

$$$$
CHEMBL1966_lig679
                    3D
 Schrodinger Suite 2021-1.
 41 45  0  0  1  0            999 V2000
   52.1033   44.4100   -2.5722 C   0  0  0  0  0  0
   53.3880   45.1921   -2.4990 C   0  0  0  0  0  0
   51.6230   43.3583   -3.8712 S   0  0  0  0  0  0
   53.5601   46.1327   -1.4817 C   0  0  0  0  0  0
   54.3923   44.7949   -3.2990 N   0  0  0  0  0  0
   51.2230   44.3337   -1.5084 C   0  0  0  0  0  0
   54.8219   46.7886   -1.4130 C   0  0  0  0  0  0
   50.2626   42.7916   -2.9644 C   0  0  0  0  0  0
   55.7910   46.5832   -2.4652 C   0  0  0  0  0  0
   50.2207   43.3863   -1.7096 C   0  0  0  0  0  0
   55.5417   45.5028   -3.3536 C   0  0  0  0  0  0
   55.2030   47.6100   -0.2131 C   0  0  0  0  0  0
   52.3383   46.4100   -0.5821 C   0  0  0  0  0  0
   51.3971   45.2100   -0.2925 C   0  0  0  0  0  0
   56.9690   47.3645   -2.7142 C   0  0  0  0  0  0
   49.3135   41.8205   -3.5563 C   0  0  0  0  0  0
   55.7838   48.8062   -0.4990 O   0  0  0  0  0  0
   54.9989   47.2100    0.9286 O   0  0  0  0  0  0
   56.4918   45.1655   -4.3522 C   0  0  0  0  0  0
   57.7798   47.1176   -3.8144 C   0  0  0  0  0  0
   57.5761   45.9955   -4.5988 C   0  0  0  0  0  0
   58.7855   47.9738   -4.1067 F   0  0  0  0  0  0
   48.8230   40.7829   -2.7609 C   0  0  0  0  0  0
   48.8230   42.0100   -4.8524 C   0  0  0  0  0  0
   47.7875   41.2089   -5.3170 C   0  0  0  0  0  0
   47.7992   39.9718   -3.2355 C   0  0  0  0  0  0
   47.2695   40.2067   -4.5000 C   0  0  0  0  0  0
   49.4535   43.1812   -0.9784 H   0  0  0  0  0  0
   52.5889   46.9109    0.3515 H   0  0  0  0  0  0
   51.7293   47.1183   -1.1418 H   0  0  0  0  0  0
   50.4230   45.6100   -0.0990 H   0  0  0  0  0  0
   51.6522   44.6655    0.6133 H   0  0  0  0  0  0
   57.2622   48.2022   -2.1094 H   0  0  0  0  0  0
   56.3468   44.2969   -4.9756 H   0  0  0  0  0  0
   58.2531   45.7800   -5.4125 H   0  0  0  0  0  0
   49.2040   40.6279   -1.7617 H   0  0  0  0  0  0
   49.1762   42.8286   -5.4639 H   0  0  0  0  0  0
   47.3566   41.4052   -6.2845 H   0  0  0  0  0  0
   47.4008   39.1817   -2.6157 H   0  0  0  0  0  0
   46.4419   39.6100   -4.8519 H   0  0  0  0  0  0
   55.7917   48.9823   -1.4409 H   0  0  0  0  0  0
  1  2  1  0  0  0
  1  3  1  0  0  0
  1  6  2  0  0  0
  2  4  1  0  0  0
  2  5  2  0  0  0
  3  8  1  0  0  0
  4  7  2  0  0  0
  4 13  1  0  0  0
  5 11  1  0  0  0
  6 10  1  0  0  0
  6 14  1  0  0  0
  7 12  1  0  0  0
  7  9  1  0  0  0
  8 16  1  0  0  0
  8 10  2  0  0  0
  9 11  1  0  0  0
  9 15  2  0  0  0
 10 28  1  0  0  0
 11 19  2  0  0  0
 12 17  1  0  0  0
 12 18  2  0  0  0
 13 14  1  0  0  0
 13 29  1  0  0  0
 13 30  1  0  0  0
 14 31  1  0  0  0
 14 32  1  0  0  0
 15 20  1  0  0  0
 15 33  1  0  0  0
 16 23  1  0  0  0
 16 24  2  0  0  0
 17 41  1  0  0  0
 19 21  1  0  0  0
 19 34  1  0  0  0
 20 21  2  0  0  0
 20 22  1  0  0  0
 21 35  1  0  0  0
 23 26  2  0  0  0
 23 36  1  0  0  0
 24 25  1  0  0  0
 24 37  1  0  0  0
 25 27  2  0  0  0
 25 38  1  0  0  0
 26 27  1  0  0  0
 26 39  1  0  0  0
 27 40  1  0  0  0
M  END
> <s_m_entry_id>
25656

> <s_m_entry_name>
dock_pv.308

> <s_m_Source_Path>
/home/csk/Desktop/cluster/DUD-E-result/pyrd

> <s_m_Source_File>
dock_pv.maegz

> <i_m_Source_File_Index>
308

> <chembl_id>
CHEMBL322855

> <chembl_pref_name>
None

> <i_lp_mmshare_version>
53161

> <r_lp_tautomer_probability>
1

> <s_lp_Force_Field>
OPLS_2005

> <r_lp_Energy>
26.649665

> <b_lp_Chiralities_Consistent>
1

> <s_lp_Variant>
CHEMBL1966_lig679-1

> <s_i_glide_gridfile>
glide-grid_1d3g

> <i_i_glide_lignum>
748

> <i_i_glide_rotatable_bonds>
3

> <r_i_docking_score>
-9.22857969782773

> <r_i_glide_ligand_efficiency>
-0.341799248067694

> <r_i_glide_ligand_efficiency_sa>
-1.02539774307657

> <r_i_glide_ligand_efficiency_ln>
-2.1482612086272

> <r_i_glide_gscore>
-9.22857969782773

> <r_i_glide_lipo>
-6.08029803880351

> <r_i_glide_hbond>
0

> <r_i_glide_metal>
0

> <r_i_glide_rewards>
-2.07713895295272

> <r_i_glide_evdw>
-29.510648727417

> <r_i_glide_ecoul>
0.865652561187744

> <r_i_glide_erotb>
0.274541846121193

> <r_i_glide_esite>
0

> <r_i_glide_emodel>
-39.2716146569824

> <r_i_glide_energy>
-28.6449961662292

> <r_i_glide_einternal>
6.63229179382324

> <i_i_glide_confnum>
5

> <i_i_glide_posenum>
45

> <r_i_glide_eff_state_penalty>
0

> <s_user_duplicate_titles>
CHEMBL1966_lig679

> <i_f3d_flags>
0

> <s_m_subgroup_title>
dock_pv

> <s_m_subgroupid>
dock_pv

> <b_m_subgroup_collapsed>
1

$$$$
CHEMBL1966_lig225
                    3D
 Schrodinger Suite 2021-1.
 47 50  0  0  1  0            999 V2000
   55.8235   45.5579   -3.7004 N   0  0  0  0  0  0
   55.2056   46.3399   -2.7853 C   0  0  0  0  0  0
   55.6647   47.6314   -2.4616 C   0  0  0  0  0  0
   56.7362   48.1817   -3.2056 C   0  0  0  0  0  0
   57.3673   47.3772   -4.2135 C   0  0  0  0  0  0
   58.4589   47.8025   -5.0311 C   0  0  0  0  0  0
   59.0204   46.9517   -5.9773 C   0  0  0  0  0  0
   58.5300   45.6640   -6.1449 C   0  0  0  0  0  0
   57.4676   45.2098   -5.3712 C   0  0  0  0  0  0
   56.8711   46.0522   -4.4058 C   0  0  0  0  0  0
   57.2043   49.5991   -2.9615 C   0  0  0  0  0  0
   57.5421   50.0099   -1.8546 O   0  0  0  0  0  0
   57.0946   50.4093   -4.0497 O   0  0  0  0  0  0
   54.0220   45.6914   -2.1067 C   0  0  0  0  0  0
   53.0566   45.2308   -2.9342 N   0  0  0  0  0  0
   53.9989   45.6101   -0.8822 O   0  0  0  0  0  0
   50.1426   42.2339   -2.1376 C   0  0  0  0  0  0
   50.8230   42.3317   -3.3371 C   0  0  0  0  0  0
   51.7443   43.3265   -3.5723 C   0  0  0  0  0  0
   52.0029   44.3364   -2.6342 C   0  0  0  0  0  0
   51.2164   44.3351   -1.4585 C   0  0  0  0  0  0
   50.3286   43.2691   -1.2038 C   0  0  0  0  0  0
   49.2170   41.0750   -1.9719 C   0  0  0  0  0  0
   48.4231   40.6789   -3.0643 C   0  0  0  0  0  0
   47.4178   39.7254   -2.9345 C   0  0  0  0  0  0
   47.2259   39.0803   -1.7196 C   0  0  0  0  0  0
   48.0230   39.4250   -0.6319 C   0  0  0  0  0  0
   49.0070   40.4113   -0.7501 C   0  0  0  0  0  0
   51.3078   45.3311   -0.5478 F   0  0  0  0  0  0
   46.5822   39.4941   -3.9697 F   0  0  0  0  0  0
   52.4230   43.2100   -4.7171 F   0  0  0  0  0  0
   54.9970   48.4429   -1.3512 C   0  0  0  0  0  0
   60.0565   47.3797   -6.7323 F   0  0  0  0  0  0
   58.8759   48.7913   -4.9197 H   0  0  0  0  0  0
   58.9788   45.0144   -6.8821 H   0  0  0  0  0  0
   57.0840   44.2101   -5.5093 H   0  0  0  0  0  0
   57.0884   51.3267   -3.7504 H   0  0  0  0  0  0
   53.2566   45.3298   -3.9188 H   0  0  0  0  0  0
   50.7047   41.5742   -4.0973 H   0  0  0  0  0  0
   49.7645   43.2676   -0.2827 H   0  0  0  0  0  0
   48.5046   41.1832   -4.0154 H   0  0  0  0  0  0
   46.4506   38.3360   -1.6162 H   0  0  0  0  0  0
   47.8826   38.9126    0.3010 H   0  0  0  0  0  0
   49.5948   40.6768    0.1166 H   0  0  0  0  0  0
   55.6477   48.4960   -0.4772 H   0  0  0  0  0  0
   54.8230   49.4581   -1.7012 H   0  0  0  0  0  0
   54.0229   48.0783   -1.0388 H   0  0  0  0  0  0
  1  2  2  0  0  0
  1 10  1  0  0  0
  2  3  1  0  0  0
  2 14  1  0  0  0
  3  4  2  0  0  0
  3 32  1  0  0  0
  4  5  1  0  0  0
  4 11  1  0  0  0
  5  6  2  0  0  0
  5 10  1  0  0  0
  6  7  1  0  0  0
  6 34  1  0  0  0
  7  8  2  0  0  0
  7 33  1  0  0  0
  8  9  1  0  0  0
  8 35  1  0  0  0
  9 10  2  0  0  0
  9 36  1  0  0  0
 11 12  2  0  0  0
 11 13  1  0  0  0
 13 37  1  0  0  0
 14 15  1  0  0  0
 14 16  2  0  0  0
 15 20  1  0  0  0
 15 38  1  0  0  0
 17 18  1  0  0  0
 17 22  2  0  0  0
 17 23  1  0  0  0
 18 19  2  0  0  0
 18 39  1  0  0  0
 19 20  1  0  0  0
 19 31  1  0  0  0
 20 21  2  0  0  0
 21 22  1  0  0  0
 21 29  1  0  0  0
 22 40  1  0  0  0
 23 24  1  0  0  0
 23 28  2  0  0  0
 24 25  2  0  0  0
 24 41  1  0  0  0
 25 26  1  0  0  0
 25 30  1  0  0  0
 26 27  2  0  0  0
 26 42  1  0  0  0
 27 28  1  0  0  0
 27 43  1  0  0  0
 28 44  1  0  0  0
 32 45  1  0  0  0
 32 46  1  0  0  0
 32 47  1  0  0  0
M  END
> <s_m_entry_id>
25657

> <s_m_entry_name>
dock_pv.309

> <s_m_Source_Path>
/home/csk/Desktop/cluster/DUD-E-result/pyrd

> <s_m_Source_File>
dock_pv.maegz

> <i_m_Source_File_Index>
309

> <chembl_id>
CHEMBL3290842

> <chembl_pref_name>
None

> <i_lp_mmshare_version>
53161

> <r_lp_tautomer_probability>
1

> <s_lp_Force_Field>
OPLS_2005

> <r_lp_Energy>
41.249435

> <b_lp_Chiralities_Consistent>
1

> <s_lp_Variant>
CHEMBL1966_lig225-1

> <s_i_glide_gridfile>
glide-grid_1d3g

> <i_i_glide_lignum>
270

> <i_i_glide_rotatable_bonds>
6

> <r_i_docking_score>
-9.22814664023585

> <r_i_glide_ligand_efficiency>
-0.279640807279874

> <r_i_glide_ligand_efficiency_sa>
-0.896957488372537

> <r_i_glide_ligand_efficiency_ln>
-2.05229203200232

> <r_i_glide_gscore>
-9.22814664023585

> <r_i_glide_lipo>
-5.06272105036334

> <r_i_glide_hbond>
0

> <r_i_glide_metal>
0

> <r_i_glide_rewards>
-2.4887364809494

> <r_i_glide_evdw>
-32.243034362793

> <r_i_glide_ecoul>
-3.67237567901611

> <r_i_glide_erotb>
0.486318961068956

> <r_i_glide_esite>
0

> <r_i_glide_emodel>
-62.0965380917543

> <r_i_glide_energy>
-35.9154100418091

> <r_i_glide_einternal>
9.06234264373779

> <i_i_glide_confnum>
36

> <i_i_glide_posenum>
129

> <r_i_glide_eff_state_penalty>
0

> <s_user_duplicate_titles>
CHEMBL1966_lig225

> <i_f3d_flags>
0

> <s_m_subgroup_title>
dock_pv

> <s_m_subgroupid>
dock_pv

> <b_m_subgroup_collapsed>
1

$$$$
CHEMBL1966_lig373
                    3D
 Schrodinger Suite 2021-1.
 36 38  0  0  1  0            999 V2000
   49.9385   42.1584   -3.0762 C   0  0  0  0  0  0
   50.0502   42.7405   -4.4240 C   0  0  0  0  0  0
   49.2037   42.2055   -5.3334 N   0  0  0  0  0  0
   48.3614   41.1500   -5.2072 C   0  0  0  0  0  0
   48.4174   40.5548   -3.9867 N   0  0  0  0  0  0
   49.1110   41.0707   -2.9106 C   0  0  0  0  0  0
   48.8230   40.4100   -1.6313 C   0  0  0  0  0  0
   47.9333   39.3751   -1.7141 O   0  0  0  0  0  0
   49.2622   40.7678   -0.5418 O   0  0  0  0  0  0
   47.5961   40.8100   -6.0990 O   0  0  0  0  0  0
   50.8402   43.6100   -4.7782 O   0  0  0  0  0  0
   50.8380   42.8474   -2.0306 C   0  0  0  0  0  0
   50.4348   44.2960   -1.6391 C   0  0  0  0  0  0
   51.6011   45.1612   -1.1696 C   0  0  0  0  0  0
   51.6813   45.6100    0.1487 C   0  0  0  0  0  0
   52.7414   46.2963    0.6460 N   0  0  0  0  0  0
   52.6419   45.4845   -2.0460 C   0  0  0  0  0  0
   53.7737   46.1815   -1.5644 C   0  0  0  0  0  0
   53.7897   46.5575   -0.1869 C   0  0  0  0  0  0
   54.9331   47.2100    0.3309 C   0  0  0  0  0  0
   56.0156   47.4990   -0.4990 C   0  0  0  0  0  0
   55.9911   47.1437   -1.8442 C   0  0  0  0  0  0
   54.8861   46.4901   -2.3849 C   0  0  0  0  0  0
   49.2083   42.6588   -6.2335 H   0  0  0  0  0  0
   47.8435   39.7317   -3.8647 H   0  0  0  0  0  0
   47.7773   39.0145   -0.8373 H   0  0  0  0  0  0
   51.0010   42.2529   -1.1361 H   0  0  0  0  0  0
   51.8225   42.8696   -2.4990 H   0  0  0  0  0  0
   50.0230   44.8100   -2.4990 H   0  0  0  0  0  0
   49.6329   44.2823   -0.8990 H   0  0  0  0  0  0
   50.9077   45.3626    0.8602 H   0  0  0  0  0  0
   52.6172   45.1605   -3.0771 H   0  0  0  0  0  0
   54.9543   47.4863    1.3754 H   0  0  0  0  0  0
   56.8835   48.0047   -0.0990 H   0  0  0  0  0  0
   56.8401   47.3733   -2.4721 H   0  0  0  0  0  0
   54.8754   46.2067   -3.4278 H   0  0  0  0  0  0
  1  2  1  0  0  0
  1  6  2  0  0  0
  1 12  1  0  0  0
  2  3  1  0  0  0
  2 11  2  0  0  0
  3  4  1  0  0  0
  3 24  1  0  0  0
  4  5  1  0  0  0
  4 10  2  0  0  0
  5  6  1  0  0  0
  5 25  1  0  0  0
  6  7  1  0  0  0
  7  8  1  0  0  0
  7  9  2  0  0  0
  8 26  1  0  0  0
 12 13  1  0  0  0
 12 27  1  0  0  0
 12 28  1  0  0  0
 13 14  1  0  0  0
 13 29  1  0  0  0
 13 30  1  0  0  0
 14 15  2  0  0  0
 14 17  1  0  0  0
 15 16  1  0  0  0
 15 31  1  0  0  0
 16 19  2  0  0  0
 17 18  2  0  0  0
 17 32  1  0  0  0
 18 19  1  0  0  0
 18 23  1  0  0  0
 19 20  1  0  0  0
 20 21  2  0  0  0
 20 33  1  0  0  0
 21 22  1  0  0  0
 21 34  1  0  0  0
 22 23  2  0  0  0
 22 35  1  0  0  0
 23 36  1  0  0  0
M  END
> <s_m_entry_id>
25658

> <s_m_entry_name>
dock_pv.310

> <s_m_Source_Path>
/home/csk/Desktop/cluster/DUD-E-result/pyrd

> <s_m_Source_File>
dock_pv.maegz

> <i_m_Source_File_Index>
310

> <chembl_id>
CHEMBL3908781

> <chembl_pref_name>
None

> <i_lp_mmshare_version>
53161

> <r_lp_tautomer_probability>
1

> <s_lp_Force_Field>
OPLS_2005

> <r_lp_Energy>
11.646997

> <b_lp_Chiralities_Consistent>
1

> <s_lp_Variant>
CHEMBL1966_lig373-1

> <s_i_glide_gridfile>
glide-grid_1d3g

> <i_i_glide_lignum>
423

> <i_i_glide_rotatable_bonds>
5

> <r_i_docking_score>
-9.22679355458458

> <r_i_glide_ligand_efficiency>
-0.401164937155851

> <r_i_glide_ligand_efficiency_sa>
-1.14085971705937

> <r_i_glide_ligand_efficiency_ln>
-2.2311223454369

> <r_i_glide_gscore>
-9.22679355458458

> <r_i_glide_lipo>
-4.33372995911559

> <r_i_glide_hbond>
-0.26711918759956

> <r_i_glide_metal>
0

> <r_i_glide_rewards>
-2.43787844641439

> <r_i_glide_evdw>
-43.595287322998

> <r_i_glide_ecoul>
-5.1582350730896

> <r_i_glide_erotb>
0.765433665658301

> <r_i_glide_esite>
0

> <r_i_glide_emodel>
-71.9838901286386

> <r_i_glide_energy>
-48.7535223960876

> <r_i_glide_einternal>
1.90219366550446

> <i_i_glide_confnum>
45

> <i_i_glide_posenum>
322

> <r_i_glide_eff_state_penalty>
0

> <s_user_duplicate_titles>
CHEMBL1966_lig373

> <i_f3d_flags>
0

> <s_m_subgroup_title>
dock_pv

> <s_m_subgroupid>
dock_pv

> <b_m_subgroup_collapsed>
1

$$$$
CHEMBL1966_lig200
                    3D
 Schrodinger Suite 2021-1.
 40 42  0  0  1  0            999 V2000
   57.1073   49.7211   -2.9113 C   0  0  0  0  0  0
   56.0227   48.8532   -3.2221 O   0  0  0  0  0  0
   55.4840   48.0688   -2.2216 C   0  0  0  0  0  0
   55.9523   48.0370   -0.8990 C   0  0  0  0  0  0
   55.3445   47.2100    0.0416 C   0  0  0  0  0  0
   54.2782   46.3970   -0.3324 C   0  0  0  0  0  0
   53.8001   46.3877   -1.6505 C   0  0  0  0  0  0
   54.4093   47.2493   -2.5751 C   0  0  0  0  0  0
   52.7308   45.4311   -2.0761 C   0  0  0  0  0  0
   52.8466   44.7591   -3.2990 C   0  0  0  0  0  0
   51.9176   43.7938   -3.6916 C   0  0  0  0  0  0
   52.0235   43.2100   -4.8990 F   0  0  0  0  0  0
   50.8566   43.4452   -2.8609 C   0  0  0  0  0  0
   50.0008   42.4099   -3.2884 N   0  0  0  0  0  0
   49.3370   41.3939   -2.5820 C   0  0  0  0  0  0
   49.6230   41.3011   -1.2559 N   0  0  0  0  0  0
   48.9498   40.4100   -0.4990 C   0  0  0  0  0  0
   47.9865   39.5574   -1.0204 C   0  0  0  0  0  0
   47.7248   39.6100   -2.3882 C   0  0  0  0  0  0
   48.3891   40.5417   -3.2039 C   0  0  0  0  0  0
   48.0230   40.6203   -4.6712 C   0  0  0  0  0  0
   48.8309   40.8809   -5.5575 O   0  0  0  0  0  0
   46.6991   40.4100   -4.9289 O   0  0  0  0  0  0
   50.7164   44.1192   -1.6413 C   0  0  0  0  0  0
   51.6229   45.1185   -1.2666 C   0  0  0  0  0  0
   51.4327   45.7525   -0.0883 F   0  0  0  0  0  0
   57.3737   50.2972   -3.7975 H   0  0  0  0  0  0
   56.8403   50.4297   -2.1261 H   0  0  0  0  0  0
   57.9904   49.1603   -2.6007 H   0  0  0  0  0  0
   56.7853   48.6462   -0.5815 H   0  0  0  0  0  0
   55.7070   47.1912    1.0594 H   0  0  0  0  0  0
   53.8488   45.7416    0.4111 H   0  0  0  0  0  0
   54.0613   47.2752   -3.5975 H   0  0  0  0  0  0
   53.6733   44.9822   -3.9536 H   0  0  0  0  0  0
   49.9455   42.2988   -4.2929 H   0  0  0  0  0  0
   49.2230   40.3687    0.5462 H   0  0  0  0  0  0
   47.4811   38.8458   -0.3826 H   0  0  0  0  0  0
   47.0018   38.9186   -2.7986 H   0  0  0  0  0  0
   46.1729   40.3811   -4.1276 H   0  0  0  0  0  0
   49.8921   43.8896   -0.9833 H   0  0  0  0  0  0
  1  2  1  0  0  0
  1 27  1  0  0  0
  1 28  1  0  0  0
  1 29  1  0  0  0
  2  3  1  0  0  0
  3  4  2  0  0  0
  3  8  1  0  0  0
  4  5  1  0  0  0
  4 30  1  0  0  0
  5  6  2  0  0  0
  5 31  1  0  0  0
  6  7  1  0  0  0
  6 32  1  0  0  0
  7  8  2  0  0  0
  7  9  1  0  0  0
  8 33  1  0  0  0
  9 10  2  0  0  0
  9 25  1  0  0  0
 10 11  1  0  0  0
 10 34  1  0  0  0
 11 12  1  0  0  0
 11 13  2  0  0  0
 13 14  1  0  0  0
 13 24  1  0  0  0
 14 15  1  0  0  0
 14 35  1  0  0  0
 15 16  2  0  0  0
 15 20  1  0  0  0
 16 17  1  0  0  0
 17 18  2  0  0  0
 17 36  1  0  0  0
 18 19  1  0  0  0
 18 37  1  0  0  0
 19 20  2  0  0  0
 19 38  1  0  0  0
 20 21  1  0  0  0
 21 22  2  0  0  0
 21 23  1  0  0  0
 23 39  1  0  0  0
 24 25  2  0  0  0
 24 40  1  0  0  0
 25 26  1  0  0  0
M  END
> <s_m_entry_id>
25659

> <s_m_entry_name>
dock_pv.311

> <s_m_Source_Path>
/home/csk/Desktop/cluster/DUD-E-result/pyrd

> <s_m_Source_File>
dock_pv.maegz

> <i_m_Source_File_Index>
311

> <chembl_id>
CHEMBL2263628

> <chembl_pref_name>
None

> <i_lp_mmshare_version>
53161

> <r_lp_tautomer_probability>
1

> <s_lp_Force_Field>
OPLS_2005

> <r_lp_Energy>
29.632406

> <b_lp_Chiralities_Consistent>
1

> <s_lp_Variant>
CHEMBL1966_lig200-1

> <s_i_glide_gridfile>
glide-grid_1d3g

> <i_i_glide_lignum>
245

> <i_i_glide_rotatable_bonds>
6

> <r_i_docking_score>
-9.21879579218094

> <r_i_glide_ligand_efficiency>
-0.354569068930036

> <r_i_glide_ligand_efficiency_sa>
-1.05040947154332

> <r_i_glide_ligand_efficiency_ln>
-2.16500394245745

> <r_i_glide_gscore>
-9.21879579218094

> <r_i_glide_lipo>
-5.21778272174983

> <r_i_glide_hbond>
-0.0207263092350804

> <r_i_glide_metal>
0

> <r_i_glide_rewards>
-2.06924457739438

> <r_i_glide_evdw>
-39.6829109191895

> <r_i_glide_ecoul>
-3.53072714805603

> <r_i_glide_erotb>
0.602712434366225

> <r_i_glide_esite>
0

> <r_i_glide_emodel>
-60.9819573704241

> <r_i_glide_energy>
-43.2136380672455

> <r_i_glide_einternal>
4.9601902961731

> <i_i_glide_confnum>
15

> <i_i_glide_posenum>
312

> <r_i_glide_eff_state_penalty>
0

> <s_user_duplicate_titles>
CHEMBL1966_lig200

> <i_f3d_flags>
0

> <s_m_subgroup_title>
dock_pv

> <s_m_subgroupid>
dock_pv

> <b_m_subgroup_collapsed>
1

$$$$
CHEMBL1966_lig17
                    3D
 Schrodinger Suite 2021-1.
 47 49  0  0  1  0            999 V2000
   48.1948   40.3627   -2.6818 C   0  0  0  0  0  0
   49.3067   41.2393   -3.0393 C   0  0  0  0  0  0
   47.1711   39.9862   -3.5174 C   0  0  0  0  0  0
   49.6232   42.1986   -2.1456 N   0  0  0  0  0  0
   57.3420   48.6683   -4.3362 C   0  0  0  0  0  0
   46.9334   40.4102   -4.8991 C   0  0  0  0  0  0
   50.5976   43.2327   -2.2433 C   0  0  0  0  0  0
   52.6166   45.2481   -2.2062 C   0  0  0  0  0  0
   50.6429   44.1852   -1.2121 C   0  0  0  0  0  0
   51.6229   45.1869   -1.2168 C   0  0  0  0  0  0
   53.7754   46.1983   -2.0878 C   0  0  0  0  0  0
   56.3543   47.6396   -4.2752 O   0  0  0  0  0  0
   49.8965   41.1151   -4.0989 O   0  0  0  0  0  0
   54.5323   46.5791   -3.2075 C   0  0  0  0  0  0
   47.7709   40.8098   -5.7035 O   0  0  0  0  0  0
   55.6596   47.3983   -3.1052 C   0  0  0  0  0  0
   51.5205   43.3650   -3.2995 C   0  0  0  0  0  0
   52.5032   44.3552   -3.2864 C   0  0  0  0  0  0
   56.8239   49.8616   -4.0445 F   0  0  0  0  0  0
   58.3918   48.4105   -3.5577 F   0  0  0  0  0  0
   57.7879   48.7171   -5.5899 F   0  0  0  0  0  0
   45.6227   40.2978   -5.2453 O   0  0  0  0  0  0
   47.9711   39.7527   -1.2889 C   0  0  0  0  0  0
   46.2094   39.0618   -2.7745 C   0  0  0  0  0  0
   47.0206   38.6133   -1.5748 C   0  0  0  0  0  0
   54.1827   46.6953   -0.8384 C   0  0  0  0  0  0
   55.2895   47.5327   -0.7161 C   0  0  0  0  0  0
   49.6740   44.1319   -0.0413 C   0  0  0  0  0  0
   56.0271   47.8843   -1.8426 C   0  0  0  0  0  0
   49.0813   42.2127   -1.2973 H   0  0  0  0  0  0
   51.6360   45.8919   -0.3995 H   0  0  0  0  0  0
   54.2592   46.2316   -4.1896 H   0  0  0  0  0  0
   51.5511   42.6854   -4.1306 H   0  0  0  0  0  0
   53.2235   44.3525   -4.0874 H   0  0  0  0  0  0
   45.0831   40.0365   -4.4988 H   0  0  0  0  0  0
   47.4934   40.4101   -0.5766 H   0  0  0  0  0  0
   48.8228   39.3970   -0.7351 H   0  0  0  0  0  0
   45.8749   38.1934   -3.3418 H   0  0  0  0  0  0
   45.3191   39.6048   -2.4548 H   0  0  0  0  0  0
   46.3969   38.3881   -0.7107 H   0  0  0  0  0  0
   47.5887   37.7112   -1.8154 H   0  0  0  0  0  0
   53.6630   46.4193    0.0662 H   0  0  0  0  0  0
   55.5846   47.8966    0.2571 H   0  0  0  0  0  0
   50.0089   44.7947    0.7542 H   0  0  0  0  0  0
   48.6700   44.4104   -0.3530 H   0  0  0  0  0  0
   49.6134   43.1271    0.3744 H   0  0  0  0  0  0
   56.8883   48.5208   -1.7097 H   0  0  0  0  0  0
  1  2  1  0  0  0
  1  3  2  0  0  0
  1 23  1  0  0  0
  2  4  1  0  0  0
  2 13  2  0  0  0
  3  6  1  0  0  0
  3 24  1  0  0  0
  4  7  1  0  0  0
  4 30  1  0  0  0
  5 12  1  0  0  0
  5 19  1  0  0  0
  5 20  1  0  0  0
  5 21  1  0  0  0
  6 15  2  0  0  0
  6 22  1  0  0  0
  7  9  2  0  0  0
  7 17  1  0  0  0
  8 18  1  0  0  0
  8 11  1  0  0  0
  8 10  2  0  0  0
  9 10  1  0  0  0
  9 28  1  0  0  0
 10 31  1  0  0  0
 11 14  1  0  0  0
 11 26  2  0  0  0
 12 16  1  0  0  0
 14 16  2  0  0  0
 14 32  1  0  0  0
 16 29  1  0  0  0
 17 18  2  0  0  0
 17 33  1  0  0  0
 18 34  1  0  0  0
 22 35  1  0  0  0
 23 25  1  0  0  0
 23 36  1  0  0  0
 23 37  1  0  0  0
 24 25  1  0  0  0
 24 38  1  0  0  0
 24 39  1  0  0  0
 25 40  1  0  0  0
 25 41  1  0  0  0
 26 27  1  0  0  0
 26 42  1  0  0  0
 27 29  2  0  0  0
 27 43  1  0  0  0
 28 44  1  0  0  0
 28 45  1  0  0  0
 28 46  1  0  0  0
 29 47  1  0  0  0
M  END
> <s_m_entry_id>
25660

> <s_m_entry_name>
dock_pv.312

> <s_m_Source_Path>
/home/csk/Desktop/cluster/DUD-E-result/pyrd

> <s_m_Source_File>
dock_pv.maegz

> <i_m_Source_File_Index>
312

> <chembl_id>
CHEMBL155597

> <chembl_pref_name>
None

> <i_lp_mmshare_version>
53161

> <r_lp_tautomer_probability>
1

> <s_lp_Force_Field>
OPLS_2005

> <r_lp_Energy>
44.05109

> <b_lp_Chiralities_Consistent>
1

> <s_lp_Variant>
CHEMBL1966_lig17-1

> <s_i_glide_gridfile>
glide-grid_1d3g

> <i_i_glide_lignum>
20

> <i_i_glide_rotatable_bonds>
8

> <r_i_docking_score>
-9.21467904897654

> <r_i_glide_ligand_efficiency>
-0.317747553412984

> <r_i_glide_ligand_efficiency_sa>
-0.976221153575482

> <r_i_glide_ligand_efficiency_ln>
-2.10992783811604

> <r_i_glide_gscore>
-9.21467904897654

> <r_i_glide_lipo>
-5.58930308473017

> <r_i_glide_hbond>
-0.0376056051636719

> <r_i_glide_metal>
0

> <r_i_glide_rewards>
-2.0937534430976

> <r_i_glide_evdw>
-41.9268493652344

> <r_i_glide_ecoul>
-0.768269240856171

> <r_i_glide_erotb>
0.717565938405042

> <r_i_glide_esite>
0

> <r_i_glide_emodel>
-60.6826606947563

> <r_i_glide_energy>
-42.6951186060905

> <r_i_glide_einternal>
5.88804149627686

> <i_i_glide_confnum>
1

> <i_i_glide_posenum>
266

> <r_i_glide_eff_state_penalty>
0

> <s_user_duplicate_titles>
CHEMBL1966_lig17,257605

> <i_f3d_flags>
0

> <s_m_subgroup_title>
dock_pv

> <s_m_subgroupid>
dock_pv

> <b_m_subgroup_collapsed>
1

$$$$
CHEMBL1966_lig590
                    3D
 Schrodinger Suite 2021-1.
 43 46  0  0  1  0            999 V2000
   56.7927   47.9326   -4.1157 C   0  0  0  0  0  0
   57.1673   48.3662   -2.8546 C   0  0  0  0  0  0
   56.4367   47.9796   -1.7394 C   0  0  0  0  0  0
   55.6773   47.1170   -4.2811 C   0  0  0  0  0  0
   54.9000   46.6990   -3.1704 C   0  0  0  0  0  0
   55.2923   47.1323   -1.8689 C   0  0  0  0  0  0
   54.4969   46.6797   -0.7786 C   0  0  0  0  0  0
   53.3374   45.9474   -1.0343 C   0  0  0  0  0  0
   53.0564   45.4740   -2.3076 C   0  0  0  0  0  0
   53.8250   45.8709   -3.3655 N   0  0  0  0  0  0
   51.9923   44.4100   -2.5286 C   0  0  0  0  0  0
   51.9211   43.7228   -3.7398 C   0  0  0  0  0  0
   50.9102   42.8100   -4.0096 C   0  0  0  0  0  0
   50.0230   42.3883   -3.0224 C   0  0  0  0  0  0
   50.0978   43.0437   -1.7847 C   0  0  0  0  0  0
   51.0269   44.0661   -1.5606 C   0  0  0  0  0  0
   54.9391   46.8100    0.6421 C   0  0  0  0  0  0
   53.9082   46.8100    1.5132 O   0  0  0  0  0  0
   56.1159   46.8100    0.9899 O   0  0  0  0  0  0
   49.0028   41.3226   -3.3345 C   0  0  0  0  0  0
   48.5036   40.4100   -2.3778 C   0  0  0  0  0  0
   47.4588   39.5707   -2.6383 N   0  0  0  0  0  0
   46.8763   39.6100   -3.8514 C   0  0  0  0  0  0
   47.3506   40.4102   -4.8815 C   0  0  0  0  0  0
   48.4248   41.2576   -4.6185 C   0  0  0  0  0  0
   49.0095   40.4100   -1.0887 O   0  0  0  0  0  0
   48.3624   39.6100   -0.0990 C   0  0  0  0  0  0
   57.3686   48.2369   -4.9778 H   0  0  0  0  0  0
   58.0303   49.0058   -2.7379 H   0  0  0  0  0  0
   56.7496   48.3448   -0.7729 H   0  0  0  0  0  0
   55.4165   46.8100   -5.2767 H   0  0  0  0  0  0
   52.7388   45.6100   -0.2043 H   0  0  0  0  0  0
   52.6441   43.9317   -4.4990 H   0  0  0  0  0  0
   50.8230   42.4100   -5.0027 H   0  0  0  0  0  0
   49.4060   42.8022   -0.9939 H   0  0  0  0  0  0
   50.9911   44.5618   -0.6037 H   0  0  0  0  0  0
   54.2673   46.7455    2.4072 H   0  0  0  0  0  0
   46.0230   38.9630   -3.9954 H   0  0  0  0  0  0
   46.8642   40.4104   -5.8431 H   0  0  0  0  0  0
   48.7365   41.9357   -5.3990 H   0  0  0  0  0  0
   48.8233   39.7628    0.8722 H   0  0  0  0  0  0
   47.3056   39.8705   -0.0271 H   0  0  0  0  0  0
   48.4230   38.5459   -0.3285 H   0  0  0  0  0  0
  1  2  2  0  0  0
  1  4  1  0  0  0
  1 28  1  0  0  0
  2  3  1  0  0  0
  2 29  1  0  0  0
  3  6  2  0  0  0
  3 30  1  0  0  0
  4  5  2  0  0  0
  4 31  1  0  0  0
  5  6  1  0  0  0
  5 10  1  0  0  0
  6  7  1  0  0  0
  7  8  2  0  0  0
  7 17  1  0  0  0
  8  9  1  0  0  0
  8 32  1  0  0  0
  9 10  2  0  0  0
  9 11  1  0  0  0
 11 12  2  0  0  0
 11 16  1  0  0  0
 12 13  1  0  0  0
 12 33  1  0  0  0
 13 14  2  0  0  0
 13 34  1  0  0  0
 14 15  1  0  0  0
 14 20  1  0  0  0
 15 16  2  0  0  0
 15 35  1  0  0  0
 16 36  1  0  0  0
 17 18  1  0  0  0
 17 19  2  0  0  0
 18 37  1  0  0  0
 20 21  2  0  0  0
 20 25  1  0  0  0
 21 22  1  0  0  0
 21 26  1  0  0  0
 22 23  2  0  0  0
 23 24  1  0  0  0
 23 38  1  0  0  0
 24 25  2  0  0  0
 24 39  1  0  0  0
 25 40  1  0  0  0
 26 27  1  0  0  0
 27 41  1  0  0  0
 27 42  1  0  0  0
 27 43  1  0  0  0
M  END
> <s_m_entry_id>
25661

> <s_m_entry_name>
dock_pv.313

> <s_m_Source_Path>
/home/csk/Desktop/cluster/DUD-E-result/pyrd

> <s_m_Source_File>
dock_pv.maegz

> <i_m_Source_File_Index>
313

> <chembl_id>
CHEMBL4228376

> <chembl_pref_name>
None

> <i_lp_mmshare_version>
53161

> <r_lp_tautomer_probability>
1

> <s_lp_Force_Field>
OPLS_2005

> <r_lp_Energy>
31.202292

> <b_lp_Chiralities_Consistent>
1

> <s_lp_Variant>
CHEMBL1966_lig590-1

> <s_i_glide_gridfile>
glide-grid_1d3g

> <i_i_glide_lignum>
644

> <i_i_glide_rotatable_bonds>
5

> <r_i_docking_score>
-9.21387863392964

> <r_i_glide_ligand_efficiency>
-0.341254764219616

> <r_i_glide_ligand_efficiency_sa>
-1.02376429153413

> <r_i_glide_ligand_efficiency_ln>
-2.1448390433177

> <r_i_glide_gscore>
-9.21387863392964

> <r_i_glide_lipo>
-5.4259864251897

> <r_i_glide_hbond>
-0.0138729357574773

> <r_i_glide_metal>
0

> <r_i_glide_rewards>
-2.11260124242424

> <r_i_glide_evdw>
-33.8976631164551

> <r_i_glide_ecoul>
-2.78969073295593

> <r_i_glide_erotb>
0.45191873520793

> <r_i_glide_esite>
0

> <r_i_glide_emodel>
-40.7711602983026

> <r_i_glide_energy>
-36.687353849411

> <r_i_glide_einternal>
0.819475412368774

> <i_i_glide_confnum>
22

> <i_i_glide_posenum>
139

> <r_i_glide_eff_state_penalty>
0

> <s_user_duplicate_titles>
CHEMBL1966_lig590

> <i_f3d_flags>
0

> <s_m_subgroup_title>
dock_pv

> <s_m_subgroupid>
dock_pv

> <b_m_subgroup_collapsed>
1

$$$$
CHEMBL1966_lig428
                    3D
 Schrodinger Suite 2021-1.
 38 40  0  0  1  0            999 V2000
   47.0648   38.5736   -0.7997 C   0  0  0  0  0  0
   47.9003   39.6101   -1.5247 C   0  0  0  0  0  0
   48.8228   40.3798   -0.8133 C   0  0  0  0  0  0
   49.6230   41.2918   -1.4813 C   0  0  0  0  0  0
   49.4876   41.5023   -2.8578 C   0  0  0  0  0  0
   50.3183   42.4393   -3.4884 N   0  0  0  0  0  0
   51.1138   43.4733   -2.9779 C   0  0  0  0  0  0
   50.8226   44.1881   -1.8047 C   0  0  0  0  0  0
   51.6776   45.2147   -1.3874 C   0  0  0  0  0  0
   52.8251   45.4985   -2.1499 C   0  0  0  0  0  0
   53.0955   44.8098   -3.2984 N   0  0  0  0  0  0
   52.2473   43.8328   -3.6988 C   0  0  0  0  0  0
   53.8537   46.5300   -1.7951 C   0  0  0  0  0  0
   54.4506   47.2844   -2.8245 C   0  0  0  0  0  0
   55.4993   48.1571   -2.5347 C   0  0  0  0  0  0
   55.9952   48.3162   -1.2854 N   0  0  0  0  0  0
   55.4063   47.6117   -0.2894 C   0  0  0  0  0  0
   54.3277   46.7511   -0.4819 C   0  0  0  0  0  0
   53.6654   46.0082    0.9302 Cl  0  0  0  0  0  0
   48.5289   40.7587   -3.5866 C   0  0  0  0  0  0
   47.7519   39.8091   -2.8995 C   0  0  0  0  0  0
   48.3163   40.9400   -5.0752 C   0  0  0  0  0  0
   49.2206   41.2144   -5.8609 O   0  0  0  0  0  0
   47.0189   40.8099   -5.4721 O   0  0  0  0  0  0
   46.4104   39.0691   -0.0814 H   0  0  0  0  0  0
   47.7093   37.8925   -0.2404 H   0  0  0  0  0  0
   46.4530   37.9804   -1.4806 H   0  0  0  0  0  0
   48.9531   40.2263    0.2484 H   0  0  0  0  0  0
   50.3730   41.8123   -0.9080 H   0  0  0  0  0  0
   50.4551   42.2411   -4.4706 H   0  0  0  0  0  0
   49.9287   43.9828   -1.2359 H   0  0  0  0  0  0
   51.4358   45.7807   -0.5007 H   0  0  0  0  0  0
   52.5170   43.2994   -4.5973 H   0  0  0  0  0  0
   54.1210   47.1788   -3.8486 H   0  0  0  0  0  0
   55.9745   48.7307   -3.3177 H   0  0  0  0  0  0
   55.8068   47.7520    0.7012 H   0  0  0  0  0  0
   47.0348   39.1975   -3.4294 H   0  0  0  0  0  0
   46.4414   40.7627   -4.7078 H   0  0  0  0  0  0
  1  2  1  0  0  0
  1 25  1  0  0  0
  1 26  1  0  0  0
  1 27  1  0  0  0
  2  3  2  0  0  0
  2 21  1  0  0  0
  3  4  1  0  0  0
  3 28  1  0  0  0
  4  5  2  0  0  0
  4 29  1  0  0  0
  5  6  1  0  0  0
  5 20  1  0  0  0
  6  7  1  0  0  0
  6 30  1  0  0  0
  7  8  2  0  0  0
  7 12  1  0  0  0
  8  9  1  0  0  0
  8 31  1  0  0  0
  9 10  2  0  0  0
  9 32  1  0  0  0
 10 11  1  0  0  0
 10 13  1  0  0  0
 11 12  2  0  0  0
 12 33  1  0  0  0
 13 14  2  0  0  0
 13 18  1  0  0  0
 14 15  1  0  0  0
 14 34  1  0  0  0
 15 16  2  0  0  0
 15 35  1  0  0  0
 16 17  1  0  0  0
 17 18  2  0  0  0
 17 36  1  0  0  0
 18 19  1  0  0  0
 20 21  2  0  0  0
 20 22  1  0  0  0
 21 37  1  0  0  0
 22 23  2  0  0  0
 22 24  1  0  0  0
 24 38  1  0  0  0
M  END
> <s_m_entry_id>
25662

> <s_m_entry_name>
dock_pv.314

> <s_m_Source_Path>
/home/csk/Desktop/cluster/DUD-E-result/pyrd

> <s_m_Source_File>
dock_pv.maegz

> <i_m_Source_File_Index>
314

> <chembl_id>
CHEMBL3674638

> <chembl_pref_name>
None

> <i_lp_mmshare_version>
53161

> <r_lp_tautomer_probability>
0.999999999999999

> <s_lp_Force_Field>
OPLS_2005

> <r_lp_Energy>
27.101256

> <b_lp_Chiralities_Consistent>
1

> <s_lp_Variant>
CHEMBL1966_lig428-1

> <s_i_glide_gridfile>
glide-grid_1d3g

> <i_i_glide_lignum>
478

> <i_i_glide_rotatable_bonds>
5

> <r_i_docking_score>
-9.21148941388066

> <r_i_glide_ligand_efficiency>
-0.383812058911694

> <r_i_glide_ligand_efficiency_sa>
-1.10710555291557

> <r_i_glide_ligand_efficiency_ln>
-2.20473210444814

> <r_i_glide_gscore>
-9.21148941388066

> <r_i_glide_lipo>
-5.32769014498178

> <r_i_glide_hbond>
-0.0435550562423201

> <r_i_glide_metal>
0

> <r_i_glide_rewards>
-2.01341332315817

> <r_i_glide_evdw>
-43.6142654418945

> <r_i_glide_ecoul>
-2.01310515403748

> <r_i_glide_erotb>
0.655848155701959

> <r_i_glide_esite>
0

> <r_i_glide_emodel>
-64.8118758140526

> <r_i_glide_energy>
-45.627370595932

> <r_i_glide_einternal>
11.0256576538086

> <i_i_glide_confnum>
29

> <i_i_glide_posenum>
133

> <r_i_glide_eff_state_penalty>
0

> <s_user_duplicate_titles>
CHEMBL1966_lig428

> <i_f3d_flags>
0

> <s_m_subgroup_title>
dock_pv

> <s_m_subgroupid>
dock_pv

> <b_m_subgroup_collapsed>
1

$$$$
CHEMBL1966_lig207
                    3D
 Schrodinger Suite 2021-1.
 33 35  0  0  1  0            999 V2000
   47.7441   39.5149   -1.8184 C   0  0  0  0  0  0
   48.2679   39.8102   -0.5653 C   0  0  0  0  0  0
   49.2230   40.8100   -0.4197 C   0  0  0  0  0  0
   48.1988   40.1816   -2.9529 C   0  0  0  0  0  0
   49.1418   41.2486   -2.8459 C   0  0  0  0  0  0
   49.6230   41.5787   -1.5369 C   0  0  0  0  0  0
   50.4230   42.6517   -1.2992 N   0  0  0  0  0  0
   50.8230   43.4156   -2.3446 C   0  0  0  0  0  0
   50.4483   43.1364   -3.6483 C   0  0  0  0  0  0
   49.5841   42.0771   -3.9349 C   0  0  0  0  0  0
   46.5009   38.3318   -1.9613 Cl  0  0  0  0  0  0
   49.1668   41.8852   -5.3692 C   0  0  0  0  0  0
   49.2230   43.0308   -6.0990 O   0  0  0  0  0  0
   48.8230   40.8100   -5.8531 O   0  0  0  0  0  0
   51.7296   44.5567   -2.0507 C   0  0  0  0  0  0
   51.5725   45.3431   -0.9005 C   0  0  0  0  0  0
   52.4993   46.3362   -0.5898 C   0  0  0  0  0  0
   53.5888   46.5619   -1.4333 C   0  0  0  0  0  0
   53.7444   45.8056   -2.5925 C   0  0  0  0  0  0
   52.8230   44.8108   -2.8990 C   0  0  0  0  0  0
   54.6277   47.6100   -1.0828 C   0  0  0  0  0  0
   47.9292   39.2603    0.3010 H   0  0  0  0  0  0
   49.6149   41.0472    0.5592 H   0  0  0  0  0  0
   47.7700   39.9156   -3.9053 H   0  0  0  0  0  0
   50.8265   43.7749   -4.4344 H   0  0  0  0  0  0
   49.0544   43.8172   -5.5700 H   0  0  0  0  0  0
   50.7440   45.1670   -0.2296 H   0  0  0  0  0  0
   52.3736   46.9175    0.3123 H   0  0  0  0  0  0
   54.5883   45.9718   -3.2465 H   0  0  0  0  0  0
   52.9891   44.2057   -3.7775 H   0  0  0  0  0  0
   55.6285   47.2518   -1.3278 H   0  0  0  0  0  0
   54.6310   47.8335   -0.0157 H   0  0  0  0  0  0
   54.4496   48.5258   -1.6468 H   0  0  0  0  0  0
  1  2  2  0  0  0
  1  4  1  0  0  0
  1 11  1  0  0  0
  2  3  1  0  0  0
  2 22  1  0  0  0
  3  6  2  0  0  0
  3 23  1  0  0  0
  4  5  2  0  0  0
  4 24  1  0  0  0
  5  6  1  0  0  0
  5 10  1  0  0  0
  6  7  1  0  0  0
  7  8  2  0  0  0
  8  9  1  0  0  0
  8 15  1  0  0  0
  9 10  2  0  0  0
  9 25  1  0  0  0
 10 12  1  0  0  0
 12 13  1  0  0  0
 12 14  2  0  0  0
 13 26  1  0  0  0
 15 16  2  0  0  0
 15 20  1  0  0  0
 16 17  1  0  0  0
 16 27  1  0  0  0
 17 18  2  0  0  0
 17 28  1  0  0  0
 18 19  1  0  0  0
 18 21  1  0  0  0
 19 20  2  0  0  0
 19 29  1  0  0  0
 20 30  1  0  0  0
 21 31  1  0  0  0
 21 32  1  0  0  0
 21 33  1  0  0  0
M  END
> <s_m_entry_id>
25663

> <s_m_entry_name>
dock_pv.315

> <s_m_Source_Path>
/home/csk/Desktop/cluster/DUD-E-result/pyrd

> <s_m_Source_File>
dock_pv.maegz

> <i_m_Source_File_Index>
315

> <chembl_id>
CHEMBL2385721

> <chembl_pref_name>
None

> <i_lp_mmshare_version>
53161

> <r_lp_tautomer_probability>
1

> <s_lp_Force_Field>
OPLS_2005

> <r_lp_Energy>
20.231716

> <b_lp_Chiralities_Consistent>
1

> <s_lp_Variant>
CHEMBL1966_lig207-1

> <s_i_glide_gridfile>
glide-grid_1d3g

> <i_i_glide_lignum>
252

> <i_i_glide_rotatable_bonds>
3

> <r_i_docking_score>
-9.20924559625487

> <r_i_glide_ligand_efficiency>
-0.438535504583565

> <r_i_glide_ligand_efficiency_sa>
-1.20988620456925

> <r_i_glide_ligand_efficiency_ln>
-2.27696736464109

> <r_i_glide_gscore>
-9.20924559625487

> <r_i_glide_lipo>
-4.93431038260916

> <r_i_glide_hbond>
-0.140861304490164

> <r_i_glide_metal>
0

> <r_i_glide_rewards>
-2.19714841721592

> <r_i_glide_evdw>
-28.480712890625

> <r_i_glide_ecoul>
-6.17781114578247

> <r_i_glide_erotb>
0.413781824458986

> <r_i_glide_esite>
0

> <r_i_glide_emodel>
-51.1293641958052

> <r_i_glide_energy>
-34.6585240364075

> <r_i_glide_einternal>
4.14593839645386

> <i_i_glide_confnum>
1

> <i_i_glide_posenum>
379

> <r_i_glide_eff_state_penalty>
0

> <s_user_duplicate_titles>
CHEMBL1966_lig207

> <i_f3d_flags>
0

> <s_m_subgroup_title>
dock_pv

> <s_m_subgroupid>
dock_pv

> <b_m_subgroup_collapsed>
1

$$$$
CHEMBL1966_lig572
                    3D
 Schrodinger Suite 2021-1.
 39 42  0  0  1  0            999 V2000
   57.2757   48.6114   -3.7664 C   0  0  0  0  0  0
   56.1763   47.8045   -3.1002 C   0  0  0  0  0  0
   56.1645   47.6872   -1.7076 C   0  0  0  0  0  0
   55.1747   46.9658   -1.0231 C   0  0  0  0  0  0
   55.2803   46.8172    0.4676 C   0  0  0  0  0  0
   56.3559   46.8104    1.0630 O   0  0  0  0  0  0
   54.0884   46.6890    1.1070 O   0  0  0  0  0  0
   54.1778   46.3538   -1.8116 C   0  0  0  0  0  0
   53.0916   45.6104   -1.4217 N   0  0  0  0  0  0
   52.5872   45.1039   -2.5176 C   0  0  0  0  0  0
   53.2230   45.6025   -3.6486 N   0  0  0  0  0  0
   54.2450   46.4216   -3.2245 C   0  0  0  0  0  0
   55.2226   47.1598   -3.8921 C   0  0  0  0  0  0
   51.5244   44.0103   -2.5332 C   0  0  0  0  0  0
   51.2635   43.2936   -3.7055 C   0  0  0  0  0  0
   50.3707   42.2236   -3.7041 C   0  0  0  0  0  0
   49.7418   41.7926   -2.5304 C   0  0  0  0  0  0
   50.0225   42.5034   -1.3534 C   0  0  0  0  0  0
   50.8397   43.6326   -1.3675 C   0  0  0  0  0  0
   48.7316   40.6742   -2.5687 C   0  0  0  0  0  0
   47.9682   40.4097   -3.7185 C   0  0  0  0  0  0
   46.8621   39.6239   -3.6887 N   0  0  0  0  0  0
   46.5520   39.0143   -2.5173 C   0  0  0  0  0  0
   47.3482   39.1906   -1.3839 C   0  0  0  0  0  0
   48.4228   40.0232   -1.4026 N   0  0  0  0  0  0
   57.4058   48.3336   -4.8126 H   0  0  0  0  0  0
   57.0570   49.6775   -3.7045 H   0  0  0  0  0  0
   58.2309   48.4327   -3.2724 H   0  0  0  0  0  0
   56.9528   48.1702   -1.1444 H   0  0  0  0  0  0
   54.2499   46.5835    2.0501 H   0  0  0  0  0  0
   52.9681   45.3493   -4.5918 H   0  0  0  0  0  0
   55.2574   47.2077   -4.9690 H   0  0  0  0  0  0
   51.7598   43.5514   -4.6283 H   0  0  0  0  0  0
   50.1886   41.7138   -4.6363 H   0  0  0  0  0  0
   49.5571   42.2188   -0.4217 H   0  0  0  0  0  0
   51.0143   44.1664   -0.4440 H   0  0  0  0  0  0
   48.1350   40.9314   -4.6471 H   0  0  0  0  0  0
   45.6459   38.4185   -2.4971 H   0  0  0  0  0  0
   47.1142   38.7151   -0.4425 H   0  0  0  0  0  0
  1  2  1  0  0  0
  1 26  1  0  0  0
  1 27  1  0  0  0
  1 28  1  0  0  0
  2  3  2  0  0  0
  2 13  1  0  0  0
  3  4  1  0  0  0
  3 29  1  0  0  0
  4  5  1  0  0  0
  4  8  2  0  0  0
  5  6  2  0  0  0
  5  7  1  0  0  0
  7 30  1  0  0  0
  8  9  1  0  0  0
  8 12  1  0  0  0
  9 10  2  0  0  0
 10 11  1  0  0  0
 10 14  1  0  0  0
 11 12  1  0  0  0
 11 31  1  0  0  0
 12 13  2  0  0  0
 13 32  1  0  0  0
 14 15  2  0  0  0
 14 19  1  0  0  0
 15 16  1  0  0  0
 15 33  1  0  0  0
 16 17  2  0  0  0
 16 34  1  0  0  0
 17 18  1  0  0  0
 17 20  1  0  0  0
 18 19  2  0  0  0
 18 35  1  0  0  0
 19 36  1  0  0  0
 20 21  2  0  0  0
 20 25  1  0  0  0
 21 22  1  0  0  0
 21 37  1  0  0  0
 22 23  2  0  0  0
 23 24  1  0  0  0
 23 38  1  0  0  0
 24 25  2  0  0  0
 24 39  1  0  0  0
M  END
> <s_m_entry_id>
25664

> <s_m_entry_name>
dock_pv.316

> <s_m_Source_Path>
/home/csk/Desktop/cluster/DUD-E-result/pyrd

> <s_m_Source_File>
dock_pv.maegz

> <i_m_Source_File_Index>
316

> <chembl_id>
CHEMBL3677831

> <chembl_pref_name>
None

> <i_lp_mmshare_version>
53161

> <r_lp_tautomer_probability>
1

> <s_lp_Force_Field>
OPLS_2005

> <r_lp_Energy>
28.101096

> <b_lp_Chiralities_Consistent>
1

> <s_lp_Variant>
CHEMBL1966_lig572-1

> <s_i_glide_gridfile>
glide-grid_1d3g

> <i_i_glide_lignum>
626

> <i_i_glide_rotatable_bonds>
4

> <r_i_docking_score>
-9.20793841753907

> <r_i_glide_ligand_efficiency>
-0.368317536701563

> <r_i_glide_ligand_efficiency_sa>
-1.0769670094547

> <r_i_glide_ligand_efficiency_ln>
-2.18255734460417

> <r_i_glide_gscore>
-9.20793841753907

> <r_i_glide_lipo>
-5.10865144695657

> <r_i_glide_hbond>
-0.0136699575649308

> <r_i_glide_metal>
0

> <r_i_glide_rewards>
-2.47874614456538

> <r_i_glide_evdw>
-36.7038612365723

> <r_i_glide_ecoul>
-1.92470741271973

> <r_i_glide_erotb>
0.51702830528439

> <r_i_glide_esite>
0

> <r_i_glide_emodel>
-49.4673035841587

> <r_i_glide_energy>
-38.628568649292

> <r_i_glide_einternal>
0.795053482055664

> <i_i_glide_confnum>
15

> <i_i_glide_posenum>
48

> <r_i_glide_eff_state_penalty>
0

> <s_user_duplicate_titles>
CHEMBL1966_lig572

> <i_f3d_flags>
0

> <s_m_subgroup_title>
dock_pv

> <s_m_subgroupid>
dock_pv

> <b_m_subgroup_collapsed>
1

$$$$
CHEMBL1966_lig610
                    3D
 Schrodinger Suite 2021-1.
 42 45  0  0  1  0            999 V2000
   46.2596   40.6499   -5.6986 C   0  0  0  0  0  0
   45.8218   39.6189   -4.8884 C   0  0  0  0  0  0
   46.4737   39.3474   -3.6990 C   0  0  0  0  0  0
   47.4853   41.2639   -5.4709 C   0  0  0  0  0  0
   48.2087   40.9703   -4.2952 C   0  0  0  0  0  0
   47.6623   40.0543   -3.3469 C   0  0  0  0  0  0
   48.2619   40.0100   -2.0543 C   0  0  0  0  0  0
   49.2459   40.9781   -1.7248 C   0  0  0  0  0  0
   49.6975   41.8699   -2.7262 C   0  0  0  0  0  0
   49.2452   41.7919   -4.0027 N   0  0  0  0  0  0
   50.6151   43.0493   -2.5064 C   0  0  0  0  0  0
   51.6370   43.3318   -3.4194 C   0  0  0  0  0  0
   52.5173   44.3958   -3.2248 C   0  0  0  0  0  0
   52.4230   45.2264   -2.0990 C   0  0  0  0  0  0
   51.3270   45.0183   -1.2445 C   0  0  0  0  0  0
   50.4491   43.9440   -1.4370 C   0  0  0  0  0  0
   47.6042   39.1276   -1.0226 C   0  0  0  0  0  0
   47.6323   37.7919   -1.2990 O   0  0  0  0  0  0
   46.9708   39.6098   -0.0990 O   0  0  0  0  0  0
   49.7656   41.1098   -0.2898 C   0  0  0  0  0  0
   53.4621   46.2978   -1.8812 C   0  0  0  0  0  0
   54.0017   46.6665   -0.6231 C   0  0  0  0  0  0
   55.0115   47.5664   -0.4853 N   0  0  0  0  0  0
   55.5148   48.1605   -1.5912 C   0  0  0  0  0  0
   55.0294   47.8958   -2.8655 C   0  0  0  0  0  0
   54.0055   46.9604   -2.9986 C   0  0  0  0  0  0
   53.4439   46.0099    0.8751 Cl  0  0  0  0  0  0
   44.8230   38.8100   -5.2991 F   0  0  0  0  0  0
   45.6230   40.9601   -6.4990 H   0  0  0  0  0  0
   46.0437   38.5970   -3.0539 H   0  0  0  0  0  0
   47.8167   42.0788   -6.0990 H   0  0  0  0  0  0
   51.7824   42.7015   -4.2805 H   0  0  0  0  0  0
   53.3188   44.5263   -3.9319 H   0  0  0  0  0  0
   51.1520   45.6785   -0.4090 H   0  0  0  0  0  0
   49.6291   43.8179   -0.7460 H   0  0  0  0  0  0
   48.1981   37.6064   -2.0544 H   0  0  0  0  0  0
   49.8085   40.1439    0.2066 H   0  0  0  0  0  0
   50.7755   41.5169   -0.2533 H   0  0  0  0  0  0
   49.1154   41.7539    0.3010 H   0  0  0  0  0  0
   56.3155   48.8696   -1.4362 H   0  0  0  0  0  0
   55.4406   48.3939   -3.7314 H   0  0  0  0  0  0
   53.6337   46.7541   -3.9919 H   0  0  0  0  0  0
  1  2  2  0  0  0
  1  4  1  0  0  0
  1 29  1  0  0  0
  2  3  1  0  0  0
  2 28  1  0  0  0
  3  6  2  0  0  0
  3 30  1  0  0  0
  4  5  2  0  0  0
  4 31  1  0  0  0
  5  6  1  0  0  0
  5 10  1  0  0  0
  6  7  1  0  0  0
  7  8  2  0  0  0
  7 17  1  0  0  0
  8  9  1  0  0  0
  8 20  1  0  0  0
  9 10  2  0  0  0
  9 11  1  0  0  0
 11 12  2  0  0  0
 11 16  1  0  0  0
 12 13  1  0  0  0
 12 32  1  0  0  0
 13 14  2  0  0  0
 13 33  1  0  0  0
 14 15  1  0  0  0
 14 21  1  0  0  0
 15 16  2  0  0  0
 15 34  1  0  0  0
 16 35  1  0  0  0
 17 18  1  0  0  0
 17 19  2  0  0  0
 18 36  1  0  0  0
 20 37  1  0  0  0
 20 38  1  0  0  0
 20 39  1  0  0  0
 21 22  2  0  0  0
 21 26  1  0  0  0
 22 23  1  0  0  0
 22 27  1  0  0  0
 23 24  2  0  0  0
 24 25  1  0  0  0
 24 40  1  0  0  0
 25 26  2  0  0  0
 25 41  1  0  0  0
 26 42  1  0  0  0
M  END
> <s_m_entry_id>
25665

> <s_m_entry_name>
dock_pv.317

> <s_m_Source_Path>
/home/csk/Desktop/cluster/DUD-E-result/pyrd

> <s_m_Source_File>
dock_pv.maegz

> <i_m_Source_File_Index>
317

> <chembl_id>
CHEMBL4228712

> <chembl_pref_name>
None

> <i_lp_mmshare_version>
53161

> <r_lp_tautomer_probability>
1

> <s_lp_Force_Field>
OPLS_2005

> <r_lp_Energy>
35.111704

> <b_lp_Chiralities_Consistent>
1

> <s_lp_Variant>
CHEMBL1966_lig610-1

> <s_i_glide_gridfile>
glide-grid_1d3g

> <i_i_glide_lignum>
664

> <i_i_glide_rotatable_bonds>
4

> <r_i_docking_score>
-9.20583172059215

> <r_i_glide_ligand_efficiency>
-0.328779704306862

> <r_i_glide_ligand_efficiency_sa>
-0.998368823165837

> <r_i_glide_ligand_efficiency_ln>
-2.12497625607703

> <r_i_glide_gscore>
-9.20583172059215

> <r_i_glide_lipo>
-5.77251558240241

> <r_i_glide_hbond>
0

> <r_i_glide_metal>
0

> <r_i_glide_rewards>
-2.03218675601586

> <r_i_glide_evdw>
-31.1555404663086

> <r_i_glide_ecoul>
-1.48692810535431

> <r_i_glide_erotb>
0.379686856944701

> <r_i_glide_esite>
0

> <r_i_glide_emodel>
-49.7867961643192

> <r_i_glide_energy>
-32.6424685716629

> <r_i_glide_einternal>
4.10725688934326

> <i_i_glide_confnum>
42

> <i_i_glide_posenum>
16

> <r_i_glide_eff_state_penalty>
0

> <s_user_duplicate_titles>
CHEMBL1966_lig610

> <i_f3d_flags>
0

> <s_m_subgroup_title>
dock_pv

> <s_m_subgroupid>
dock_pv

> <b_m_subgroup_collapsed>
1

$$$$
CHEMBL1966_lig24
                    3D
 Schrodinger Suite 2021-1.
 48 50  0  0  1  0            999 V2000
   49.0706   40.7443   -3.1643 C   0  0  0  0  0  0
   47.7784   40.1730   -3.4001 C   0  0  0  0  0  0
   50.1551   42.8175   -2.3610 C   0  0  0  0  0  0
   49.1039   41.9045   -2.4990 N   0  0  0  0  0  0
   47.0789   39.3329   -2.5924 C   0  0  0  0  0  0
   50.2922   43.5309   -1.1599 C   0  0  0  0  0  0
   50.9599   43.1717   -3.4481 C   0  0  0  0  0  0
   47.4686   38.8096   -1.2961 C   0  0  0  0  0  0
   52.1335   44.8100   -2.0990 C   0  0  0  0  0  0
   51.2230   44.5653   -1.0595 C   0  0  0  0  0  0
   52.0230   44.0294   -3.2643 C   0  0  0  0  0  0
   53.1974   45.8674   -2.0270 C   0  0  0  0  0  0
   50.0230   40.2494   -3.6990 O   0  0  0  0  0  0
   55.2672   47.8103   -1.9869 C   0  0  0  0  0  0
   56.3136   48.7701   -1.9916 N   0  0  0  0  0  0
   47.2230   37.6702   -0.9108 O   0  0  0  0  0  0
   53.6495   46.4807   -3.2009 C   0  0  0  0  0  0
   53.7897   46.2589   -0.8199 C   0  0  0  0  0  0
   54.8120   47.2100   -0.8005 C   0  0  0  0  0  0
   54.6592   47.4301   -3.1853 C   0  0  0  0  0  0
   49.4931   43.2748   -0.0987 F   0  0  0  0  0  0
   50.6612   42.8096   -4.7126 F   0  0  0  0  0  0
   48.0627   39.7311   -0.4983 O   0  0  0  0  0  0
   47.0771   40.4434   -4.7117 C   0  0  0  0  0  0
   45.7606   38.9779   -3.2298 C   0  0  0  0  0  0
   45.7161   39.8102   -4.5237 C   0  0  0  0  0  0
   56.8231   49.3130   -0.7399 C   0  0  0  0  0  0
   56.8070   49.3589   -3.2387 C   0  0  0  0  0  0
   48.3093   42.0734   -1.9035 H   0  0  0  0  0  0
   51.2669   45.1414   -0.1474 H   0  0  0  0  0  0
   52.6814   44.1943   -4.0991 H   0  0  0  0  0  0
   53.2219   46.2433   -4.1611 H   0  0  0  0  0  0
   53.4797   45.8136    0.1137 H   0  0  0  0  0  0
   55.2454   47.4659    0.1535 H   0  0  0  0  0  0
   54.9529   47.8616   -4.1287 H   0  0  0  0  0  0
   48.1961   39.3379    0.3707 H   0  0  0  0  0  0
   47.6388   40.0100   -5.5381 H   0  0  0  0  0  0
   46.9919   41.5129   -4.9070 H   0  0  0  0  0  0
   44.9906   39.2103   -2.4990 H   0  0  0  0  0  0
   45.6906   37.9145   -3.4359 H   0  0  0  0  0  0
   45.4316   39.2012   -5.3815 H   0  0  0  0  0  0
   45.0036   40.6343   -4.4990 H   0  0  0  0  0  0
   56.0242   49.8092   -0.1906 H   0  0  0  0  0  0
   57.2229   48.5144   -0.1126 H   0  0  0  0  0  0
   57.6199   50.0399   -0.8990 H   0  0  0  0  0  0
   56.0307   49.9590   -3.7141 H   0  0  0  0  0  0
   57.6744   50.0009   -3.0798 H   0  0  0  0  0  0
   57.0979   48.5792   -3.9437 H   0  0  0  0  0  0
  1  2  1  0  0  0
  1  4  1  0  0  0
  1 13  2  0  0  0
  2  5  2  0  0  0
  2 24  1  0  0  0
  3  4  1  0  0  0
  3  6  2  0  0  0
  3  7  1  0  0  0
  4 29  1  0  0  0
  5  8  1  0  0  0
  5 25  1  0  0  0
  6 10  1  0  0  0
  6 21  1  0  0  0
  7 11  2  0  0  0
  7 22  1  0  0  0
  8 16  2  0  0  0
  8 23  1  0  0  0
  9 11  1  0  0  0
  9 12  1  0  0  0
  9 10  2  0  0  0
 10 30  1  0  0  0
 11 31  1  0  0  0
 12 17  2  0  0  0
 12 18  1  0  0  0
 14 19  1  0  0  0
 14 15  1  0  0  0
 14 20  2  0  0  0
 15 27  1  0  0  0
 15 28  1  0  0  0
 17 20  1  0  0  0
 17 32  1  0  0  0
 18 19  2  0  0  0
 18 33  1  0  0  0
 19 34  1  0  0  0
 20 35  1  0  0  0
 23 36  1  0  0  0
 24 26  1  0  0  0
 24 37  1  0  0  0
 24 38  1  0  0  0
 25 26  1  0  0  0
 25 39  1  0  0  0
 25 40  1  0  0  0
 26 41  1  0  0  0
 26 42  1  0  0  0
 27 43  1  0  0  0
 27 44  1  0  0  0
 27 45  1  0  0  0
 28 46  1  0  0  0
 28 47  1  0  0  0
 28 48  1  0  0  0
M  END
> <s_m_entry_id>
25666

> <s_m_entry_name>
dock_pv.318

> <s_m_Source_Path>
/home/csk/Desktop/cluster/DUD-E-result/pyrd

> <s_m_Source_File>
dock_pv.maegz

> <i_m_Source_File_Index>
318

> <chembl_id>
CHEMBL154613

> <chembl_pref_name>
None

> <i_lp_mmshare_version>
53161

> <r_lp_tautomer_probability>
1

> <s_lp_Force_Field>
OPLS_2005

> <r_lp_Energy>
46.136627

> <b_lp_Chiralities_Consistent>
1

> <s_lp_Variant>
CHEMBL1966_lig24-1

> <s_i_glide_gridfile>
glide-grid_1d3g

> <i_i_glide_lignum>
28

> <i_i_glide_rotatable_bonds>
7

> <r_i_docking_score>
-9.20457232401459

> <r_i_glide_ligand_efficiency>
-0.328734725857664

> <r_i_glide_ligand_efficiency_sa>
-0.99823224210318

> <r_i_glide_ligand_efficiency_ln>
-2.12468555036944

> <r_i_glide_gscore>
-9.20457232401459

> <r_i_glide_lipo>
-5.00199092202698

> <r_i_glide_hbond>
0

> <r_i_glide_metal>
0

> <r_i_glide_rewards>
-3.18169640161998

> <r_i_glide_evdw>
-29.7829685211182

> <r_i_glide_ecoul>
-1.22365093231201

> <r_i_glide_erotb>
0.651811065535078

> <r_i_glide_esite>
0

> <r_i_glide_emodel>
-31.4094948618115

> <r_i_glide_energy>
-31.0066194534302

> <r_i_glide_einternal>
10.8851146697998

> <i_i_glide_confnum>
22

> <i_i_glide_posenum>
257

> <r_i_glide_eff_state_penalty>
0

> <s_user_duplicate_titles>
CHEMBL1966_lig24,257131

> <i_f3d_flags>
0

> <s_m_subgroup_title>
dock_pv

> <s_m_subgroupid>
dock_pv

> <b_m_subgroup_collapsed>
1

$$$$
CHEMBL1966_lig657 
                    3D
 Schrodinger Suite 2021-1.
 37 40  0  0  1  0            999 V2000
   46.4229   38.8422   -2.5528 C   0  0  0  0  0  0
   47.1561   39.0218   -1.3897 C   0  0  0  0  0  0
   48.2097   39.9248   -1.3873 C   0  0  0  0  0  0
   46.7319   39.5704   -3.6992 C   0  0  0  0  0  0
   47.8520   40.4095   -3.7450 C   0  0  0  0  0  0
   48.5954   40.5962   -2.5591 C   0  0  0  0  0  0
   49.7755   41.5066   -2.4953 C   0  0  0  0  0  0
   50.0524   42.2330   -3.7616 C   0  0  0  0  0  0
   49.3480   42.0069   -4.9051 C   0  0  0  0  0  0
   48.2246   41.0604   -5.0463 C   0  0  0  0  0  0
   47.6240   40.8106   -6.0983 O   0  0  0  0  0  0
   50.4213   41.6180   -1.4521 O   0  0  0  0  0  0
   49.6239   42.6585   -6.0731 O   0  0  0  0  0  0
   51.1319   43.1045   -3.8083 N   0  0  0  0  0  0
   51.6229   44.0101   -2.8606 C   0  0  0  0  0  0
   52.8242   44.6582   -3.1732 C   0  0  0  0  0  0
   51.4635   45.3623   -0.8340 C   0  0  0  0  0  0
   50.9263   44.4121   -1.7024 C   0  0  0  0  0  0
   52.7010   45.9342   -1.1169 C   0  0  0  0  0  0
   53.3676   45.6099   -2.3083 C   0  0  0  0  0  0
   54.6183   46.1092   -2.6121 O   0  0  0  0  0  0
   55.0200   47.2242   -1.8062 C   0  0  0  0  0  0
   54.6452   46.9934   -0.3211 C   0  0  0  0  0  0
   53.2301   46.8101   -0.1943 O   0  0  0  0  0  0
   45.6230   38.1262   -2.5687 H   0  0  0  0  0  0
   46.9080   38.4738   -0.4924 H   0  0  0  0  0  0
   48.7546   40.0542   -0.4617 H   0  0  0  0  0  0
   46.1231   39.4121   -4.5791 H   0  0  0  0  0  0
   50.0775   43.4823   -5.8781 H   0  0  0  0  0  0
   51.6834   43.1171   -4.6529 H   0  0  0  0  0  0
   53.3595   44.3960   -4.0699 H   0  0  0  0  0  0
   50.9290   45.6316    0.0643 H   0  0  0  0  0  0
   49.9532   44.0161   -1.4646 H   0  0  0  0  0  0
   54.5187   48.1247   -2.1652 H   0  0  0  0  0  0
   56.0943   47.3775   -1.9117 H   0  0  0  0  0  0
   54.9602   47.8371    0.2937 H   0  0  0  0  0  0
   55.1603   46.1037    0.0469 H   0  0  0  0  0  0
  1  2  2  0  0  0
  1  4  1  0  0  0
  1 25  1  0  0  0
  2  3  1  0  0  0
  2 26  1  0  0  0
  3  6  2  0  0  0
  3 27  1  0  0  0
  4  5  2  0  0  0
  4 28  1  0  0  0
  5  6  1  0  0  0
  5 10  1  0  0  0
  6  7  1  0  0  0
  7  8  1  0  0  0
  7 12  2  0  0  0
  8  9  2  0  0  0
  8 14  1  0  0  0
  9 10  1  0  0  0
  9 13  1  0  0  0
 10 11  2  0  0  0
 13 29  1  0  0  0
 14 15  1  0  0  0
 14 30  1  0  0  0
 15 16  2  0  0  0
 15 18  1  0  0  0
 16 20  1  0  0  0
 16 31  1  0  0  0
 17 19  1  0  0  0
 17 18  2  0  0  0
 17 32  1  0  0  0
 18 33  1  0  0  0
 19 20  2  0  0  0
 19 24  1  0  0  0
 20 21  1  0  0  0
 21 22  1  0  0  0
 22 23  1  0  0  0
 22 34  1  0  0  0
 22 35  1  0  0  0
 23 24  1  0  0  0
 23 36  1  0  0  0
 23 37  1  0  0  0
M  END
> <s_m_entry_id>
25667

> <s_m_entry_name>
dock_pv.319

> <s_m_Source_Path>
/home/csk/Desktop/cluster/DUD-E-result/pyrd

> <s_m_Source_File>
dock_pv.maegz

> <i_m_Source_File_Index>
319

> <chembl_id>
CHEMBL4546952

> <chembl_pref_name>
None

> <i_lp_mmshare_version>
53161

> <r_lp_tautomer_probability>
1

> <s_lp_Force_Field>
OPLS_2005

> <r_lp_Energy>
22.244799

> <b_lp_Chiralities_Consistent>
1

> <s_lp_Variant>
CHEMBL1966_lig657 -1

> <s_i_glide_gridfile>
glide-grid_1d3g

> <i_i_glide_lignum>
714

> <i_i_glide_rotatable_bonds>
3

> <r_i_docking_score>
-9.20229619140543

> <r_i_glide_ligand_efficiency>
-0.383429007975226

> <r_i_glide_ligand_efficiency_sa>
-1.10600064281969

> <r_i_glide_ligand_efficiency_ln>
-2.20253174446033

> <r_i_glide_gscore>
-9.20229619140543

> <r_i_glide_lipo>
-4.63931374977973

> <r_i_glide_hbond>
-0.271809388798628

> <r_i_glide_metal>
0

> <r_i_glide_rewards>
-2.48823854854106

> <r_i_glide_evdw>
-35.8493995666504

> <r_i_glide_ecoul>
-2.45676112174988

> <r_i_glide_erotb>
0.358049642308991

> <r_i_glide_esite>
0

> <r_i_glide_emodel>
-56.4332292264871

> <r_i_glide_energy>
-38.3061606884003

> <r_i_glide_einternal>
4.97486257553101

> <i_i_glide_confnum>
7

> <i_i_glide_posenum>
200

> <r_i_glide_eff_state_penalty>
0

> <s_user_duplicate_titles>
CHEMBL1966_lig657 

> <i_f3d_flags>
0

> <s_m_subgroup_title>
dock_pv

> <s_m_subgroupid>
dock_pv

> <b_m_subgroup_collapsed>
1

$$$$
CHEMBL1966_lig58
                    3D
 Schrodinger Suite 2021-1.
 42 44  0  0  1  0            999 V2000
   48.4607   40.4688   -2.6024 C   0  0  0  0  0  0
   47.4567   40.0104   -3.4179 C   0  0  0  0  0  0
   49.4916   41.4398   -2.9627 C   0  0  0  0  0  0
   49.7667   42.3526   -2.0078 N   0  0  0  0  0  0
   47.1919   40.4100   -4.7955 C   0  0  0  0  0  0
   50.6673   43.4388   -2.0276 C   0  0  0  0  0  0
   52.5465   45.5384   -1.7706 C   0  0  0  0  0  0
   50.6061   44.3228   -0.9432 C   0  0  0  0  0  0
   51.5324   45.3609   -0.8202 C   0  0  0  0  0  0
   47.0583   38.7477   -1.0743 S   0  0  0  0  0  0
   53.6679   46.4913   -1.5492 C   0  0  0  0  0  0
   50.0230   41.4403   -4.0667 O   0  0  0  0  0  0
   48.3284   40.0016   -1.1444 C   0  0  0  0  0  0
   48.0230   40.4100   -5.6990 O   0  0  0  0  0  0
   46.4822   39.0556   -2.7367 C   0  0  0  0  0  0
   54.1982   47.2503   -2.6013 C   0  0  0  0  0  0
   51.6230   43.6655   -3.0311 C   0  0  0  0  0  0
   52.5478   44.7061   -2.8990 C   0  0  0  0  0  0
   49.6677   44.1520    0.0186 F   0  0  0  0  0  0
   45.9017   40.8098   -4.9892 O   0  0  0  0  0  0
   55.3140   48.0715   -2.4231 C   0  0  0  0  0  0
   55.7500   48.7743   -3.5287 O   0  0  0  0  0  0
   54.2756   46.5844   -0.2909 C   0  0  0  0  0  0
   55.3990   47.3835   -0.0990 C   0  0  0  0  0  0
   55.9189   48.1249   -1.1574 C   0  0  0  0  0  0
   56.8750   49.6366   -3.4015 C   0  0  0  0  0  0
   49.2345   42.2802   -1.1547 H   0  0  0  0  0  0
   51.4891   45.9968    0.0519 H   0  0  0  0  0  0
   48.0230   40.8095   -0.4893 H   0  0  0  0  0  0
   49.2230   39.6145   -0.6749 H   0  0  0  0  0  0
   45.4913   39.4940   -2.6441 H   0  0  0  0  0  0
   46.3959   38.1060   -3.2632 H   0  0  0  0  0  0
   53.7463   47.2002   -3.5815 H   0  0  0  0  0  0
   51.7244   43.0244   -3.8915 H   0  0  0  0  0  0
   53.3147   44.8129   -3.6525 H   0  0  0  0  0  0
   45.4036   40.8984   -4.1739 H   0  0  0  0  0  0
   53.9043   46.0029    0.5406 H   0  0  0  0  0  0
   55.8695   47.4221    0.8721 H   0  0  0  0  0  0
   56.7910   48.7347   -0.9751 H   0  0  0  0  0  0
   57.0533   50.1377   -4.3529 H   0  0  0  0  0  0
   56.7069   50.4096   -2.6500 H   0  0  0  0  0  0
   57.7773   49.0793   -3.1449 H   0  0  0  0  0  0
  1  2  2  0  0  0
  1  3  1  0  0  0
  1 13  1  0  0  0
  2  5  1  0  0  0
  2 15  1  0  0  0
  3  4  1  0  0  0
  3 12  2  0  0  0
  4  6  1  0  0  0
  4 27  1  0  0  0
  5 14  2  0  0  0
  5 20  1  0  0  0
  6  8  1  0  0  0
  6 17  2  0  0  0
  7 18  2  0  0  0
  7 11  1  0  0  0
  7  9  1  0  0  0
  8  9  2  0  0  0
  8 19  1  0  0  0
  9 28  1  0  0  0
 10 13  1  0  0  0
 10 15  1  0  0  0
 11 16  1  0  0  0
 11 23  2  0  0  0
 13 29  1  0  0  0
 13 30  1  0  0  0
 15 31  1  0  0  0
 15 32  1  0  0  0
 16 21  2  0  0  0
 16 33  1  0  0  0
 17 18  1  0  0  0
 17 34  1  0  0  0
 18 35  1  0  0  0
 20 36  1  0  0  0
 21 22  1  0  0  0
 21 25  1  0  0  0
 22 26  1  0  0  0
 23 24  1  0  0  0
 23 37  1  0  0  0
 24 25  2  0  0  0
 24 38  1  0  0  0
 25 39  1  0  0  0
 26 40  1  0  0  0
 26 41  1  0  0  0
 26 42  1  0  0  0
M  END
> <s_m_entry_id>
25668

> <s_m_entry_name>
dock_pv.320

> <s_m_Source_Path>
/home/csk/Desktop/cluster/DUD-E-result/pyrd

> <s_m_Source_File>
dock_pv.maegz

> <i_m_Source_File_Index>
320

> <chembl_id>
CHEMBL194023

> <chembl_pref_name>
None

> <i_lp_mmshare_version>
53161

> <r_lp_tautomer_probability>
1

> <s_lp_Force_Field>
OPLS_2005

> <r_lp_Energy>
38.196433

> <b_lp_Chiralities_Consistent>
1

> <s_lp_Variant>
CHEMBL1966_lig58-1

> <s_i_glide_gridfile>
glide-grid_1d3g

> <i_i_glide_lignum>
64

> <i_i_glide_rotatable_bonds>
7

> <r_i_docking_score>
-9.20133521620975

> <r_i_glide_ligand_efficiency>
-0.35389750831576

> <r_i_glide_ligand_efficiency_sa>
-1.04841997586598

> <r_i_glide_ligand_efficiency_ln>
-2.16090338348344

> <r_i_glide_gscore>
-9.20133521620975

> <r_i_glide_lipo>
-5.01975451206625

> <r_i_glide_hbond>
-0.0980129374508226

> <r_i_glide_metal>
0

> <r_i_glide_rewards>
-2.20059616225081

> <r_i_glide_evdw>
-42.9088478088379

> <r_i_glide_ecoul>
-2.87021899223328

> <r_i_glide_erotb>
0.693003634835021

> <r_i_glide_esite>
0

> <r_i_glide_emodel>
-64.5479760446726

> <r_i_glide_energy>
-45.7790668010712

> <r_i_glide_einternal>
6.29753160476685

> <i_i_glide_confnum>
215

> <i_i_glide_posenum>
394

> <r_i_glide_eff_state_penalty>
0

> <s_user_duplicate_titles>
CHEMBL1966_lig58,327324

> <i_f3d_flags>
0

> <s_m_subgroup_title>
dock_pv

> <s_m_subgroupid>
dock_pv

> <b_m_subgroup_collapsed>
1

$$$$
CHEMBL1966_lig320
                    3D
 Schrodinger Suite 2021-1.
 42 44  0  0  1  0            999 V2000
   48.8225   41.2663   -4.7801 C   0  0  0  0  0  0
   49.5393   42.4169   -5.0752 C   0  0  0  0  0  0
   50.1852   43.1003   -4.0577 C   0  0  0  0  0  0
   50.1048   42.6800   -2.7191 C   0  0  0  0  0  0
   49.4320   41.4521   -2.4288 C   0  0  0  0  0  0
   48.8206   40.7599   -3.4855 C   0  0  0  0  0  0
   49.2961   40.8686   -1.0290 C   0  0  0  0  0  0
   48.2579   40.0077   -0.8498 O   0  0  0  0  0  0
   50.0226   41.2062   -0.0988 O   0  0  0  0  0  0
   50.6242   43.6147   -1.6994 C   0  0  0  0  0  0
   51.5661   44.4590   -1.9018 N   0  0  0  0  0  0
   52.0230   45.4247   -0.9276 N   0  0  0  0  0  0
   53.2777   46.0212   -1.0980 C   0  0  0  0  0  0
   53.9843   46.0068   -2.2084 N   0  0  0  0  0  0
   55.1761   46.5726   -2.0800 C   0  0  0  0  0  0
   55.4376   47.1083   -0.8201 C   0  0  0  0  0  0
   54.0983   46.8098    0.2329 S   0  0  0  0  0  0
   56.1346   46.6041   -3.2208 C   0  0  0  0  0  0
   56.6534   47.8496   -3.6002 C   0  0  0  0  0  0
   57.5678   47.9502   -4.6481 C   0  0  0  0  0  0
   57.9762   46.8057   -5.3276 C   0  0  0  0  0  0
   57.4801   45.5594   -4.9507 C   0  0  0  0  0  0
   56.5654   45.4499   -3.8993 C   0  0  0  0  0  0
   56.0229   43.8683   -3.4484 Cl  0  0  0  0  0  0
   51.3565   45.4802    0.3838 C   0  0  0  0  0  0
   47.9736   40.6180   -5.8400 C   0  0  0  0  0  0
   49.5495   42.8166   -6.0775 H   0  0  0  0  0  0
   50.6988   44.0106   -4.3244 H   0  0  0  0  0  0
   48.2722   39.8463   -3.2986 H   0  0  0  0  0  0
   48.2412   39.6855    0.0552 H   0  0  0  0  0  0
   50.1100   43.5351   -0.7512 H   0  0  0  0  0  0
   56.3272   47.6141   -0.4735 H   0  0  0  0  0  0
   56.3441   48.7462   -3.0817 H   0  0  0  0  0  0
   57.9551   48.9175   -4.9333 H   0  0  0  0  0  0
   58.6850   46.8822   -6.1393 H   0  0  0  0  0  0
   57.8095   44.6726   -5.4714 H   0  0  0  0  0  0
   51.8378   44.8096    1.0985 H   0  0  0  0  0  0
   51.3838   46.4885    0.7971 H   0  0  0  0  0  0
   50.3105   45.2071    0.3326 H   0  0  0  0  0  0
   47.1825   40.0105   -5.3981 H   0  0  0  0  0  0
   47.4844   41.3837   -6.4427 H   0  0  0  0  0  0
   48.6064   40.0112   -6.4764 H   0  0  0  0  0  0
  1  2  2  0  0  0
  1  6  1  0  0  0
  1 26  1  0  0  0
  2  3  1  0  0  0
  2 27  1  0  0  0
  3  4  2  0  0  0
  3 28  1  0  0  0
  4  5  1  0  0  0
  4 10  1  0  0  0
  5  6  2  0  0  0
  5  7  1  0  0  0
  6 29  1  0  0  0
  7  8  1  0  0  0
  7  9  2  0  0  0
  8 30  1  0  0  0
 10 11  2  0  0  0
 10 31  1  0  0  0
 11 12  1  0  0  0
 12 13  1  0  0  0
 12 25  1  0  0  0
 13 14  2  0  0  0
 13 17  1  0  0  0
 14 15  1  0  0  0
 15 16  2  0  0  0
 15 18  1  0  0  0
 16 17  1  0  0  0
 16 32  1  0  0  0
 18 19  2  0  0  0
 18 23  1  0  0  0
 19 20  1  0  0  0
 19 33  1  0  0  0
 20 21  2  0  0  0
 20 34  1  0  0  0
 21 22  1  0  0  0
 21 35  1  0  0  0
 22 23  2  0  0  0
 22 36  1  0  0  0
 23 24  1  0  0  0
 25 37  1  0  0  0
 25 38  1  0  0  0
 25 39  1  0  0  0
 26 40  1  0  0  0
 26 41  1  0  0  0
 26 42  1  0  0  0
M  END
> <s_m_entry_id>
25669

> <s_m_entry_name>
dock_pv.321

> <s_m_Source_Path>
/home/csk/Desktop/cluster/DUD-E-result/pyrd

> <s_m_Source_File>
dock_pv.maegz

> <i_m_Source_File_Index>
321

> <chembl_id>
CHEMBL3922925

> <chembl_pref_name>
None

> <i_lp_mmshare_version>
53161

> <r_lp_tautomer_probability>
1

> <s_lp_Force_Field>
OPLS_2005

> <r_lp_Energy>
34.254942

> <b_lp_Chiralities_Consistent>
1

> <s_lp_Variant>
CHEMBL1966_lig320-1

> <s_i_glide_gridfile>
glide-grid_1d3g

> <i_i_glide_lignum>
370

> <i_i_glide_rotatable_bonds>
6

> <r_i_docking_score>
-9.19886593534745

> <r_i_glide_ligand_efficiency>
-0.353802535974902

> <r_i_glide_ligand_efficiency_sa>
-1.04813862067989

> <r_i_glide_ligand_efficiency_ln>
-2.1603234809753

> <r_i_glide_gscore>
-9.19886593534745

> <r_i_glide_lipo>
-4.93088939314427

> <r_i_glide_hbond>
0

> <r_i_glide_metal>
0

> <r_i_glide_rewards>
-2.62532404030109

> <r_i_glide_evdw>
-44.0984497070312

> <r_i_glide_ecoul>
-0.607533633708954

> <r_i_glide_erotb>
0.653400028505812

> <r_i_glide_esite>
0

> <r_i_glide_emodel>
-61.4229696963751

> <r_i_glide_energy>
-44.7059833407402

> <r_i_glide_einternal>
4.83846092224121

> <i_i_glide_confnum>
26

> <i_i_glide_posenum>
10

> <r_i_glide_eff_state_penalty>
0

> <s_user_duplicate_titles>
CHEMBL1966_lig320

> <i_f3d_flags>
0

> <s_m_subgroup_title>
dock_pv

> <s_m_subgroupid>
dock_pv

> <b_m_subgroup_collapsed>
1

$$$$
CHEMBL1966_lig306
                    3D
 Schrodinger Suite 2021-1.
 36 38  0  0  1  0            999 V2000
   46.4558   38.7217   -1.9996 C   0  0  0  0  0  0
   47.4368   39.1197   -1.1063 C   0  0  0  0  0  0
   48.4230   40.0101   -1.5145 C   0  0  0  0  0  0
   48.4791   40.5104   -2.8268 C   0  0  0  0  0  0
   47.4610   40.1087   -3.7382 C   0  0  0  0  0  0
   46.4661   39.2131   -3.2991 C   0  0  0  0  0  0
   47.3666   40.6413   -5.1549 C   0  0  0  0  0  0
   46.0952   40.9353   -5.5486 O   0  0  0  0  0  0
   48.3426   40.8098   -5.8848 O   0  0  0  0  0  0
   49.5608   41.4734   -3.1506 C   0  0  0  0  0  0
   49.9261   42.4079   -2.3673 N   0  0  0  0  0  0
   50.9429   43.2727   -2.8127 N   0  0  0  0  0  0
   51.4710   44.3358   -2.0991 C   0  0  0  0  0  0
   52.5187   45.0246   -2.4889 N   0  0  0  0  0  0
   52.8979   45.9438   -1.6054 C   0  0  0  0  0  0
   52.0628   46.0145   -0.4847 C   0  0  0  0  0  0
   50.8230   44.8099   -0.5661 S   0  0  0  0  0  0
   54.1291   46.7759   -1.8538 C   0  0  0  0  0  0
   54.4355   47.1280   -3.1780 C   0  0  0  0  0  0
   55.5601   47.8956   -3.4763 C   0  0  0  0  0  0
   56.4021   48.3289   -2.4580 C   0  0  0  0  0  0
   56.1240   47.9824   -1.1401 C   0  0  0  0  0  0
   55.0027   47.2093   -0.8314 C   0  0  0  0  0  0
   54.7849   46.7824    0.8296 Cl  0  0  0  0  0  0
   45.6875   38.0312   -1.6843 H   0  0  0  0  0  0
   47.4343   38.7398   -0.0976 H   0  0  0  0  0  0
   49.1664   40.3061   -0.7868 H   0  0  0  0  0  0
   45.6811   38.8813   -3.9656 H   0  0  0  0  0  0
   45.5013   40.9579   -4.7947 H   0  0  0  0  0  0
   50.0289   41.3263   -4.1199 H   0  0  0  0  0  0
   51.3319   43.0171   -3.7088 H   0  0  0  0  0  0
   52.1230   46.6754    0.3673 H   0  0  0  0  0  0
   53.7949   46.8117   -3.9892 H   0  0  0  0  0  0
   55.7833   48.1525   -4.4989 H   0  0  0  0  0  0
   57.2746   48.9227   -2.6892 H   0  0  0  0  0  0
   56.7931   48.3055   -0.3554 H   0  0  0  0  0  0
  1  2  2  0  0  0
  1  6  1  0  0  0
  1 25  1  0  0  0
  2  3  1  0  0  0
  2 26  1  0  0  0
  3  4  2  0  0  0
  3 27  1  0  0  0
  4  5  1  0  0  0
  4 10  1  0  0  0
  5  6  2  0  0  0
  5  7  1  0  0  0
  6 28  1  0  0  0
  7  8  1  0  0  0
  7  9  2  0  0  0
  8 29  1  0  0  0
 10 11  2  0  0  0
 10 30  1  0  0  0
 11 12  1  0  0  0
 12 13  1  0  0  0
 12 31  1  0  0  0
 13 14  2  0  0  0
 13 17  1  0  0  0
 14 15  1  0  0  0
 15 16  2  0  0  0
 15 18  1  0  0  0
 16 17  1  0  0  0
 16 32  1  0  0  0
 18 19  2  0  0  0
 18 23  1  0  0  0
 19 20  1  0  0  0
 19 33  1  0  0  0
 20 21  2  0  0  0
 20 34  1  0  0  0
 21 22  1  0  0  0
 21 35  1  0  0  0
 22 23  2  0  0  0
 22 36  1  0  0  0
 23 24  1  0  0  0
M  END
> <s_m_entry_id>
25670

> <s_m_entry_name>
dock_pv.322

> <s_m_Source_Path>
/home/csk/Desktop/cluster/DUD-E-result/pyrd

> <s_m_Source_File>
dock_pv.maegz

> <i_m_Source_File_Index>
322

> <chembl_id>
CHEMBL3896992

> <chembl_pref_name>
None

> <i_lp_mmshare_version>
53161

> <r_lp_tautomer_probability>
1

> <s_lp_Force_Field>
OPLS_2005

> <r_lp_Energy>
25.09587

> <b_lp_Chiralities_Consistent>
1

> <s_lp_Variant>
CHEMBL1966_lig306-1

> <s_i_glide_gridfile>
glide-grid_1d3g

> <i_i_glide_lignum>
353

> <i_i_glide_rotatable_bonds>
6

> <r_i_docking_score>
-9.19425503590168

> <r_i_glide_ligand_efficiency>
-0.383093959829236

> <r_i_glide_ligand_efficiency_sa>
-1.10503419673154

> <r_i_glide_ligand_efficiency_ln>
-2.2006071269637

> <r_i_glide_gscore>
-9.19425503590168

> <r_i_glide_lipo>
-5.03945551325163

> <r_i_glide_hbond>
-0.148227657632028

> <r_i_glide_metal>
0

> <r_i_glide_rewards>
-1.92890740761686

> <r_i_glide_evdw>
-44.0876007080078

> <r_i_glide_ecoul>
-4.07432222366333

> <r_i_glide_erotb>
0.747804378646105

> <r_i_glide_esite>
-0.0099404670973752

> <r_i_glide_emodel>
-73.2419552120032

> <r_i_glide_energy>
-48.1619229316711

> <r_i_glide_einternal>
3.16597771644592

> <i_i_glide_confnum>
135

> <i_i_glide_posenum>
245

> <r_i_glide_eff_state_penalty>
0

> <s_user_duplicate_titles>
CHEMBL1966_lig306

> <i_f3d_flags>
0

> <s_m_subgroup_title>
dock_pv

> <s_m_subgroupid>
dock_pv

> <b_m_subgroup_collapsed>
1

$$$$
CHEMBL1966_lig442
                    3D
 Schrodinger Suite 2021-1.
 46 48  0  0  1  0            999 V2000
   56.4377   49.7488   -1.9827 C   0  0  0  0  0  0
   55.2210   49.0138   -2.0692 O   0  0  0  0  0  0
   55.2655   47.6676   -2.3633 C   0  0  0  0  0  0
   56.4480   46.9662   -2.6435 C   0  0  0  0  0  0
   56.4079   45.6054   -2.9218 C   0  0  0  0  0  0
   55.1898   44.9335   -2.8987 C   0  0  0  0  0  0
   53.9865   45.5985   -2.6075 C   0  0  0  0  0  0
   54.0480   46.9788   -2.3728 C   0  0  0  0  0  0
   52.6956   44.8310   -2.6054 C   0  0  0  0  0  0
   52.5882   44.0530   -3.6987 N   0  0  0  0  0  0
   51.5174   43.2823   -3.8966 C   0  0  0  0  0  0
   50.5190   43.1398   -2.9597 C   0  0  0  0  0  0
   49.4803   42.2856   -3.3412 N   0  0  0  0  0  0
   48.8905   41.1566   -2.7488 C   0  0  0  0  0  0
   49.1973   40.8202   -1.4233 C   0  0  0  0  0  0
   48.4229   39.8770   -0.7521 C   0  0  0  0  0  0
   47.5054   39.1089   -1.4601 C   0  0  0  0  0  0
   46.8221   37.9452   -0.8024 C   0  0  0  0  0  0
   47.2559   39.3722   -2.8003 C   0  0  0  0  0  0
   47.9498   40.3850   -3.4682 C   0  0  0  0  0  0
   47.6350   40.5959   -4.9256 C   0  0  0  0  0  0
   46.5110   40.4199   -5.3909 O   0  0  0  0  0  0
   48.7196   40.9061   -5.6875 O   0  0  0  0  0  0
   50.6012   43.9188   -1.7895 C   0  0  0  0  0  0
   51.6820   44.8215   -1.6162 C   0  0  0  0  0  0
   51.7894   45.6854   -0.3530 C   0  0  0  0  0  0
   51.2184   45.1113    0.6952 F   0  0  0  0  0  0
   53.0266   46.0114    0.0188 F   0  0  0  0  0  0
   51.1475   46.8099   -0.6214 F   0  0  0  0  0  0
   56.2112   50.7776   -1.7061 H   0  0  0  0  0  0
   57.1030   49.3426   -1.2181 H   0  0  0  0  0  0
   56.9600   49.7724   -2.9405 H   0  0  0  0  0  0
   57.4085   47.4591   -2.6511 H   0  0  0  0  0  0
   57.3202   45.0683   -3.1373 H   0  0  0  0  0  0
   55.1863   43.8714   -3.0997 H   0  0  0  0  0  0
   53.1413   47.5302   -2.1789 H   0  0  0  0  0  0
   51.4717   42.8099   -4.8612 H   0  0  0  0  0  0
   48.9224   42.6766   -4.0903 H   0  0  0  0  0  0
   49.9392   41.3748   -0.8700 H   0  0  0  0  0  0
   48.6219   39.6646    0.2892 H   0  0  0  0  0  0
   47.0950   37.8830    0.2505 H   0  0  0  0  0  0
   47.1164   37.0096   -1.2768 H   0  0  0  0  0  0
   45.7439   38.0574   -0.9101 H   0  0  0  0  0  0
   46.5326   38.7602   -3.3220 H   0  0  0  0  0  0
   49.4742   41.0099   -5.1010 H   0  0  0  0  0  0
   49.8148   43.8612   -1.0509 H   0  0  0  0  0  0
  1  2  1  0  0  0
  1 30  1  0  0  0
  1 31  1  0  0  0
  1 32  1  0  0  0
  2  3  1  0  0  0
  3  4  2  0  0  0
  3  8  1  0  0  0
  4  5  1  0  0  0
  4 33  1  0  0  0
  5  6  2  0  0  0
  5 34  1  0  0  0
  6  7  1  0  0  0
  6 35  1  0  0  0
  7  8  2  0  0  0
  7  9  1  0  0  0
  8 36  1  0  0  0
  9 10  2  0  0  0
  9 25  1  0  0  0
 10 11  1  0  0  0
 11 12  2  0  0  0
 11 37  1  0  0  0
 12 13  1  0  0  0
 12 24  1  0  0  0
 13 14  1  0  0  0
 13 38  1  0  0  0
 14 15  2  0  0  0
 14 20  1  0  0  0
 15 16  1  0  0  0
 15 39  1  0  0  0
 16 17  2  0  0  0
 16 40  1  0  0  0
 17 18  1  0  0  0
 17 19  1  0  0  0
 18 41  1  0  0  0
 18 42  1  0  0  0
 18 43  1  0  0  0
 19 20  2  0  0  0
 19 44  1  0  0  0
 20 21  1  0  0  0
 21 22  2  0  0  0
 21 23  1  0  0  0
 23 45  1  0  0  0
 24 25  2  0  0  0
 24 46  1  0  0  0
 25 26  1  0  0  0
 26 27  1  0  0  0
 26 28  1  0  0  0
 26 29  1  0  0  0
M  END
> <s_m_entry_id>
25671

> <s_m_entry_name>
dock_pv.323

> <s_m_Source_Path>
/home/csk/Desktop/cluster/DUD-E-result/pyrd

> <s_m_Source_File>
dock_pv.maegz

> <i_m_Source_File_Index>
323

> <chembl_id>
CHEMBL3674652

> <chembl_pref_name>
None

> <i_lp_mmshare_version>
53161

> <r_lp_tautomer_probability>
0.999999999999999

> <s_lp_Force_Field>
OPLS_2005

> <r_lp_Energy>
33.299681

> <b_lp_Chiralities_Consistent>
1

> <s_lp_Variant>
CHEMBL1966_lig442-1

> <s_i_glide_gridfile>
glide-grid_1d3g

> <i_i_glide_lignum>
492

> <i_i_glide_rotatable_bonds>
7

> <r_i_docking_score>
-9.18869201620148

> <r_i_glide_ligand_efficiency>
-0.316851448834534

> <r_i_glide_ligand_efficiency_sa>
-0.973468036404625

> <r_i_glide_ligand_efficiency_ln>
-2.10397746658484

> <r_i_glide_gscore>
-9.18869201620148

> <r_i_glide_lipo>
-5.48959150702183

> <r_i_glide_hbond>
-0.00254023171837234

> <r_i_glide_metal>
0

> <r_i_glide_rewards>
-2.05187589194757

> <r_i_glide_evdw>
-35.323112487793

> <r_i_glide_ecoul>
-2.42234802246094

> <r_i_glide_erotb>
0.484823442245084

> <r_i_glide_esite>
0

> <r_i_glide_emodel>
-31.5406812027782

> <r_i_glide_energy>
-37.7454605102539

> <r_i_glide_einternal>
15.7811269760132

> <i_i_glide_confnum>
31

> <i_i_glide_posenum>
12

> <r_i_glide_eff_state_penalty>
0

> <s_user_duplicate_titles>
CHEMBL1966_lig442

> <i_f3d_flags>
0

> <s_m_subgroup_title>
dock_pv

> <s_m_subgroupid>
dock_pv

> <b_m_subgroup_collapsed>
1

$$$$
CHEMBL1966_lig455
                    3D
 Schrodinger Suite 2021-1.
 38 40  0  0  1  0            999 V2000
   46.5951   38.3011   -1.2099 C   0  0  0  0  0  0
   47.5014   39.3217   -1.8594 C   0  0  0  0  0  0
   48.4230   40.0100   -1.0804 C   0  0  0  0  0  0
   49.2948   40.9125   -1.6765 C   0  0  0  0  0  0
   49.2176   41.2081   -3.0422 C   0  0  0  0  0  0
   50.0983   42.1515   -3.6006 N   0  0  0  0  0  0
   50.8702   43.1836   -3.0428 C   0  0  0  0  0  0
   50.5517   43.8459   -1.8500 C   0  0  0  0  0  0
   51.3754   44.8740   -1.3788 C   0  0  0  0  0  0
   52.5383   45.2100   -2.0990 C   0  0  0  0  0  0
   52.8230   44.5923   -3.2876 N   0  0  0  0  0  0
   52.0017   43.6100   -3.7337 C   0  0  0  0  0  0
   53.5897   46.1677   -1.6050 C   0  0  0  0  0  0
   54.4910   46.7636   -2.5101 C   0  0  0  0  0  0
   55.5483   47.5412   -2.0364 C   0  0  0  0  0  0
   55.7680   47.7577   -0.7185 N   0  0  0  0  0  0
   54.8910   47.2107    0.1563 C   0  0  0  0  0  0
   53.7902   46.4502   -0.2351 C   0  0  0  0  0  0
   52.9573   46.0100    0.7333 F   0  0  0  0  0  0
   48.2392   40.5550   -3.8317 C   0  0  0  0  0  0
   47.3954   39.6100   -3.2187 C   0  0  0  0  0  0
   48.0410   40.8645   -5.2990 C   0  0  0  0  0  0
   48.9586   41.1711   -6.0579 O   0  0  0  0  0  0
   46.7397   40.8100   -5.6990 O   0  0  0  0  0  0
   46.4230   38.5798   -0.1703 H   0  0  0  0  0  0
   47.0489   37.3101   -1.2374 H   0  0  0  0  0  0
   45.6230   38.2643   -1.6990 H   0  0  0  0  0  0
   48.5072   39.8024   -0.0231 H   0  0  0  0  0  0
   50.0409   41.3788   -1.0537 H   0  0  0  0  0  0
   50.2481   42.0039   -4.5897 H   0  0  0  0  0  0
   49.6593   43.5927   -1.2986 H   0  0  0  0  0  0
   51.1059   45.3745   -0.4625 H   0  0  0  0  0  0
   52.2878   43.1550   -4.6691 H   0  0  0  0  0  0
   54.3935   46.6081   -3.5751 H   0  0  0  0  0  0
   56.2541   47.9903   -2.7202 H   0  0  0  0  0  0
   55.0670   47.4133    1.2024 H   0  0  0  0  0  0
   46.6434   39.0823   -3.7863 H   0  0  0  0  0  0
   46.1632   40.7493   -4.9339 H   0  0  0  0  0  0
  1  2  1  0  0  0
  1 25  1  0  0  0
  1 26  1  0  0  0
  1 27  1  0  0  0
  2  3  2  0  0  0
  2 21  1  0  0  0
  3  4  1  0  0  0
  3 28  1  0  0  0
  4  5  2  0  0  0
  4 29  1  0  0  0
  5  6  1  0  0  0
  5 20  1  0  0  0
  6  7  1  0  0  0
  6 30  1  0  0  0
  7  8  2  0  0  0
  7 12  1  0  0  0
  8  9  1  0  0  0
  8 31  1  0  0  0
  9 10  2  0  0  0
  9 32  1  0  0  0
 10 11  1  0  0  0
 10 13  1  0  0  0
 11 12  2  0  0  0
 12 33  1  0  0  0
 13 14  2  0  0  0
 13 18  1  0  0  0
 14 15  1  0  0  0
 14 34  1  0  0  0
 15 16  2  0  0  0
 15 35  1  0  0  0
 16 17  1  0  0  0
 17 18  2  0  0  0
 17 36  1  0  0  0
 18 19  1  0  0  0
 20 21  2  0  0  0
 20 22  1  0  0  0
 21 37  1  0  0  0
 22 23  2  0  0  0
 22 24  1  0  0  0
 24 38  1  0  0  0
M  END
> <s_m_entry_id>
25672

> <s_m_entry_name>
dock_pv.324

> <s_m_Source_Path>
/home/csk/Desktop/cluster/DUD-E-result/pyrd

> <s_m_Source_File>
dock_pv.maegz

> <i_m_Source_File_Index>
324

> <chembl_id>
CHEMBL3674664

> <chembl_pref_name>
None

> <i_lp_mmshare_version>
53161

> <r_lp_tautomer_probability>
0.999999999999999

> <s_lp_Force_Field>
OPLS_2005

> <r_lp_Energy>
26.618091

> <b_lp_Chiralities_Consistent>
1

> <s_lp_Variant>
CHEMBL1966_lig455-1

> <s_i_glide_gridfile>
glide-grid_1d3g

> <i_i_glide_lignum>
505

> <i_i_glide_rotatable_bonds>
5

> <r_i_docking_score>
-9.18757306989525

> <r_i_glide_ligand_efficiency>
-0.382815544578969

> <r_i_glide_ligand_efficiency_sa>
-1.10423110818226

> <r_i_glide_ligand_efficiency_ln>
-2.19900782588292

> <r_i_glide_gscore>
-9.18757306989525

> <r_i_glide_lipo>
-4.86731625239326

> <r_i_glide_hbond>
-0.13874203743282

> <r_i_glide_metal>
0

> <r_i_glide_rewards>
-2.41933692548591

> <r_i_glide_evdw>
-42.0856513977051

> <r_i_glide_ecoul>
-2.49273610115051

> <r_i_glide_erotb>
0.716015130474561

> <r_i_glide_esite>
0

> <r_i_glide_emodel>
-62.6793432874142

> <r_i_glide_energy>
-44.5783874988556

> <r_i_glide_einternal>
11.4155836105347

> <i_i_glide_confnum>
30

> <i_i_glide_posenum>
119

> <r_i_glide_eff_state_penalty>
0

> <s_user_duplicate_titles>
CHEMBL1966_lig455

> <i_f3d_flags>
0

> <s_m_subgroup_title>
dock_pv

> <s_m_subgroupid>
dock_pv

> <b_m_subgroup_collapsed>
1

$$$$
CHEMBL1966_lig312
                    3D
 Schrodinger Suite 2021-1.
 45 47  0  0  1  0            999 V2000
   46.3467   38.7208   -1.6394 C   0  0  0  0  0  0
   47.2993   39.1631   -0.7318 C   0  0  0  0  0  0
   48.3218   40.0077   -1.1460 C   0  0  0  0  0  0
   48.4223   40.3823   -2.4884 C   0  0  0  0  0  0
   47.4254   39.9827   -3.4170 C   0  0  0  0  0  0
   46.4024   39.1378   -2.9657 C   0  0  0  0  0  0
   47.4177   40.4075   -4.8712 C   0  0  0  0  0  0
   46.1940   40.8105   -5.3168 O   0  0  0  0  0  0
   48.4245   40.4164   -5.5788 O   0  0  0  0  0  0
   49.5202   41.2690   -2.7672 C   0  0  0  0  0  0
   49.3016   42.4121   -3.2563 N   0  0  0  0  0  0
   50.4068   43.2474   -3.4160 N   0  0  0  0  0  0
   50.9250   44.0120   -2.3557 C   0  0  0  0  0  0
   52.0243   44.7399   -2.3597 N   0  0  0  0  0  0
   52.2418   45.4561   -1.2704 C   0  0  0  0  0  0
   51.2585   45.2529   -0.2962 C   0  0  0  0  0  0
   50.0747   44.1102   -0.8437 S   0  0  0  0  0  0
   53.5182   46.2506   -1.0977 C   0  0  0  0  0  0
   53.9835   46.4186    0.2176 C   0  0  0  0  0  0
   55.1791   47.0799    0.4851 C   0  0  0  0  0  0
   55.9379   47.6032   -0.5547 C   0  0  0  0  0  0
   55.4964   47.4577   -1.8650 C   0  0  0  0  0  0
   54.3048   46.7851   -2.1435 C   0  0  0  0  0  0
   53.8795   46.6450   -3.8090 Cl  0  0  0  0  0  0
   50.9443   43.1159   -4.7827 C   0  0  0  0  0  0
   52.4488   43.1093   -4.7584 C   0  0  0  0  0  0
   50.4789   44.0100   -5.9301 C   0  0  0  0  0  0
   45.5585   38.0623   -1.3057 H   0  0  0  0  0  0
   47.2458   38.8531    0.2980 H   0  0  0  0  0  0
   49.0425   40.3361   -0.4081 H   0  0  0  0  0  0
   45.6401   38.7789   -3.6431 H   0  0  0  0  0  0
   45.5905   40.9395   -4.5812 H   0  0  0  0  0  0
   50.5115   40.9058   -2.5099 H   0  0  0  0  0  0
   51.2145   45.6547    0.7048 H   0  0  0  0  0  0
   53.4359   46.0141    1.0556 H   0  0  0  0  0  0
   55.5199   47.1843    1.5027 H   0  0  0  0  0  0
   56.8679   48.1147   -0.3468 H   0  0  0  0  0  0
   56.0910   47.8612   -2.6722 H   0  0  0  0  0  0
   50.5748   42.1484   -5.1223 H   0  0  0  0  0  0
   52.8318   42.8094   -5.7287 H   0  0  0  0  0  0
   52.8395   44.0754   -4.4956 H   0  0  0  0  0  0
   52.8282   42.4099   -4.0453 H   0  0  0  0  0  0
   50.4446   43.4329   -6.8540 H   0  0  0  0  0  0
   49.4782   44.4092   -5.7905 H   0  0  0  0  0  0
   51.2219   44.7987   -6.1297 H   0  0  0  0  0  0
  1  2  2  0  0  0
  1  6  1  0  0  0
  1 28  1  0  0  0
  2  3  1  0  0  0
  2 29  1  0  0  0
  3  4  2  0  0  0
  3 30  1  0  0  0
  4  5  1  0  0  0
  4 10  1  0  0  0
  5  6  2  0  0  0
  5  7  1  0  0  0
  6 31  1  0  0  0
  7  8  1  0  0  0
  7  9  2  0  0  0
  8 32  1  0  0  0
 10 11  2  0  0  0
 10 33  1  0  0  0
 11 12  1  0  0  0
 12 13  1  0  0  0
 12 25  1  0  0  0
 13 14  2  0  0  0
 13 17  1  0  0  0
 14 15  1  0  0  0
 15 16  2  0  0  0
 15 18  1  0  0  0
 16 17  1  0  0  0
 16 34  1  0  0  0
 18 19  2  0  0  0
 18 23  1  0  0  0
 19 20  1  0  0  0
 19 35  1  0  0  0
 20 21  2  0  0  0
 20 36  1  0  0  0
 21 22  1  0  0  0
 21 37  1  0  0  0
 22 23  2  0  0  0
 22 38  1  0  0  0
 23 24  1  0  0  0
 25 26  1  0  0  0
 25 27  1  0  0  0
 25 39  1  0  0  0
 26 40  1  0  0  0
 26 41  1  0  0  0
 26 42  1  0  0  0
 27 43  1  0  0  0
 27 44  1  0  0  0
 27 45  1  0  0  0
M  END
> <s_m_entry_id>
25673

> <s_m_entry_name>
dock_pv.325

> <s_m_Source_Path>
/home/csk/Desktop/cluster/DUD-E-result/pyrd

> <s_m_Source_File>
dock_pv.maegz

> <i_m_Source_File_Index>
325

> <chembl_id>
CHEMBL3937185

> <chembl_pref_name>
None

> <i_lp_mmshare_version>
53161

> <r_lp_tautomer_probability>
1

> <s_lp_Force_Field>
OPLS_2005

> <r_lp_Energy>
30.446052

> <b_lp_Chiralities_Consistent>
1

> <s_lp_Variant>
CHEMBL1966_lig312-1

> <s_i_glide_gridfile>
glide-grid_1d3g

> <i_i_glide_lignum>
359

> <i_i_glide_rotatable_bonds>
7

> <r_i_docking_score>
-9.18478846061009

> <r_i_glide_ligand_efficiency>
-0.340177350392966

> <r_i_glide_ligand_efficiency_sa>
-1.02053205005773

> <r_i_glide_ligand_efficiency_ln>
-2.1380673305579

> <r_i_glide_gscore>
-9.18478846061009

> <r_i_glide_lipo>
-5.51208187650848

> <r_i_glide_hbond>
-0.0799670821902115

> <r_i_glide_metal>
0

> <r_i_glide_rewards>
-2.25049908321129

> <r_i_glide_evdw>
-26.138219833374

> <r_i_glide_ecoul>
-4.32080173492432

> <r_i_glide_erotb>
0.612790833207242

> <r_i_glide_esite>
0

> <r_i_glide_emodel>
-27.600210390855

> <r_i_glide_energy>
-30.4590215682983

> <r_i_glide_einternal>
15.7624206542969

> <i_i_glide_confnum>
154

> <i_i_glide_posenum>
25

> <r_i_glide_eff_state_penalty>
0

> <s_user_duplicate_titles>
CHEMBL1966_lig312

> <i_f3d_flags>
0

> <s_m_subgroup_title>
dock_pv

> <s_m_subgroupid>
dock_pv

> <b_m_subgroup_collapsed>
1

$$$$
CHEMBL1966_lig473
                    3D
 Schrodinger Suite 2021-1.
 39 42  0  0  1  0            999 V2000
   47.5105   39.0034   -1.2759 O   0  0  0  0  0  0
   48.4230   40.0100   -1.1758 C   0  0  0  0  0  0
   48.8972   40.3550   -0.0990 O   0  0  0  0  0  0
   48.8230   40.7060   -2.4651 C   0  0  0  0  0  0
   48.3352   40.2094   -3.6853 C   0  0  0  0  0  0
   48.5674   40.8435   -4.9027 C   0  0  0  0  0  0
   49.3233   42.0097   -4.9969 C   0  0  0  0  0  0
   49.8489   42.5030   -3.8032 C   0  0  0  0  0  0
   50.6126   43.6068   -3.5129 N   0  0  0  0  0  0
   50.7696   43.6701   -2.1486 C   0  0  0  0  0  0
   50.1995   42.6465   -1.5467 N   0  0  0  0  0  0
   49.6187   41.8858   -2.5421 C   0  0  0  0  0  0
   51.5049   44.7849   -1.4521 C   0  0  0  0  0  0
   51.2230   45.0983   -0.1161 C   0  0  0  0  0  0
   52.0230   46.0100    0.5779 C   0  0  0  0  0  0
   53.0848   46.6395   -0.0637 C   0  0  0  0  0  0
   53.3379   46.3989   -1.4114 C   0  0  0  0  0  0
   54.3174   47.1498   -2.0233 O   0  0  0  0  0  0
   55.3241   46.6166   -2.8049 C   0  0  0  0  0  0
   55.5730   45.2444   -2.9588 C   0  0  0  0  0  0
   56.6382   44.8100   -3.7415 C   0  0  0  0  0  0
   57.4595   45.7395   -4.3730 C   0  0  0  0  0  0
   57.2226   47.1036   -4.2283 C   0  0  0  0  0  0
   56.1568   47.5371   -3.4440 C   0  0  0  0  0  0
   52.5445   45.4732   -2.0990 C   0  0  0  0  0  0
   47.3405   38.6566   -0.3964 H   0  0  0  0  0  0
   47.7321   39.3118   -3.7019 H   0  0  0  0  0  0
   48.1331   40.4187   -5.7931 H   0  0  0  0  0  0
   49.4855   42.5079   -5.9417 H   0  0  0  0  0  0
   50.9700   44.3053   -4.1465 H   0  0  0  0  0  0
   50.4223   44.5926    0.4048 H   0  0  0  0  0  0
   51.8286   46.2212    1.6174 H   0  0  0  0  0  0
   53.7044   47.3361    0.4789 H   0  0  0  0  0  0
   54.9513   44.5005   -2.4897 H   0  0  0  0  0  0
   56.8215   43.7537   -3.8627 H   0  0  0  0  0  0
   58.2882   45.3996   -4.9770 H   0  0  0  0  0  0
   57.8648   47.8213   -4.7171 H   0  0  0  0  0  0
   55.9767   48.5953   -3.3242 H   0  0  0  0  0  0
   52.7647   45.2746   -3.1372 H   0  0  0  0  0  0
  1  2  1  0  0  0
  1 26  1  0  0  0
  2  3  2  0  0  0
  2  4  1  0  0  0
  4  5  2  0  0  0
  4 12  1  0  0  0
  5  6  1  0  0  0
  5 27  1  0  0  0
  6  7  2  0  0  0
  6 28  1  0  0  0
  7  8  1  0  0  0
  7 29  1  0  0  0
  8  9  1  0  0  0
  8 12  2  0  0  0
  9 10  1  0  0  0
  9 30  1  0  0  0
 10 11  2  0  0  0
 10 13  1  0  0  0
 11 12  1  0  0  0
 13 14  2  0  0  0
 13 25  1  0  0  0
 14 15  1  0  0  0
 14 31  1  0  0  0
 15 16  2  0  0  0
 15 32  1  0  0  0
 16 17  1  0  0  0
 16 33  1  0  0  0
 17 18  1  0  0  0
 17 25  2  0  0  0
 18 19  1  0  0  0
 19 20  2  0  0  0
 19 24  1  0  0  0
 20 21  1  0  0  0
 20 34  1  0  0  0
 21 22  2  0  0  0
 21 35  1  0  0  0
 22 23  1  0  0  0
 22 36  1  0  0  0
 23 24  2  0  0  0
 23 37  1  0  0  0
 24 38  1  0  0  0
 25 39  1  0  0  0
M  END
> <s_m_entry_id>
25674

> <s_m_entry_name>
dock_pv.326

> <s_m_Source_Path>
/home/csk/Desktop/cluster/DUD-E-result/pyrd

> <s_m_Source_File>
dock_pv.maegz

> <i_m_Source_File_Index>
326

> <chembl_id>
CHEMBL3677730

> <chembl_pref_name>
None

> <i_lp_mmshare_version>
53161

> <r_lp_tautomer_probability>
1

> <s_lp_Force_Field>
OPLS_2005

> <r_lp_Energy>
22.907889

> <b_lp_Chiralities_Consistent>
1

> <s_lp_Variant>
CHEMBL1966_lig473-1

> <s_i_glide_gridfile>
glide-grid_1d3g

> <i_i_glide_lignum>
523

> <i_i_glide_rotatable_bonds>
5

> <r_i_docking_score>
-9.18284429380406

> <r_i_glide_ligand_efficiency>
-0.367313771752162

> <r_i_glide_ligand_efficiency_sa>
-1.0740319829408

> <r_i_glide_ligand_efficiency_ln>
-2.17660928526877

> <r_i_glide_gscore>
-9.18284429380406

> <r_i_glide_lipo>
-5.09904797710343

> <r_i_glide_hbond>
0

> <r_i_glide_metal>
0

> <r_i_glide_rewards>
-2.55455323124802

> <r_i_glide_evdw>
-41.3571014404297

> <r_i_glide_ecoul>
-1.0051417350769

> <r_i_glide_erotb>
0.689383246830408

> <r_i_glide_esite>
0

> <r_i_glide_emodel>
-60.5472706388157

> <r_i_glide_energy>
-42.3622431755066

> <r_i_glide_einternal>
2.63866090774536

> <i_i_glide_confnum>
5

> <i_i_glide_posenum>
236

> <r_i_glide_eff_state_penalty>
0

> <s_user_duplicate_titles>
CHEMBL1966_lig473

> <i_f3d_flags>
0

> <s_m_subgroup_title>
dock_pv

> <s_m_subgroupid>
dock_pv

> <b_m_subgroup_collapsed>
1

$$$$
CHEMBL1966_lig375
                    3D
 Schrodinger Suite 2021-1.
 41 43  0  0  1  0            999 V2000
   50.1825   42.2997   -3.1735 C   0  0  0  0  0  0
   50.1027   42.7712   -4.5627 C   0  0  0  0  0  0
   49.1455   42.1595   -5.2990 N   0  0  0  0  0  0
   48.3455   41.1126   -4.9724 C   0  0  0  0  0  0
   48.5724   40.6226   -3.7243 N   0  0  0  0  0  0
   49.3652   41.2634   -2.7887 C   0  0  0  0  0  0
   49.2230   40.8100   -1.3994 C   0  0  0  0  0  0
   48.1634   39.9724   -1.1793 O   0  0  0  0  0  0
   49.8989   41.2100   -0.4552 O   0  0  0  0  0  0
   47.4457   40.7234   -5.7057 O   0  0  0  0  0  0
   50.8230   43.6100   -5.0909 O   0  0  0  0  0  0
   51.2229   43.0383   -2.3144 C   0  0  0  0  0  0
   50.6885   44.3456   -1.6990 C   0  0  0  0  0  0
   51.7135   45.2100   -0.9375 C   0  0  0  0  0  0
   53.5385   46.6225    0.7010 C   0  0  0  0  0  0
   52.4230   46.0121    1.2417 C   0  0  0  0  0  0
   51.5310   45.3248    0.4388 C   0  0  0  0  0  0
   53.7832   46.5512   -0.6851 C   0  0  0  0  0  0
   52.8808   45.8257   -1.5341 C   0  0  0  0  0  0
   53.2230   45.7513   -2.9121 C   0  0  0  0  0  0
   54.3419   46.4100   -3.4171 C   0  0  0  0  0  0
   55.1942   47.1356   -2.5967 C   0  0  0  0  0  0
   54.9209   47.1945   -1.2282 C   0  0  0  0  0  0
   56.2688   47.7549   -3.2047 O   0  0  0  0  0  0
   57.1647   48.5260   -2.4099 C   0  0  0  0  0  0
   49.0120   42.5455   -6.2203 H   0  0  0  0  0  0
   48.1824   39.7064   -3.5596 H   0  0  0  0  0  0
   47.5428   39.9087   -1.9034 H   0  0  0  0  0  0
   51.6188   42.3851   -1.5425 H   0  0  0  0  0  0
   52.1009   43.2305   -2.9267 H   0  0  0  0  0  0
   50.1351   44.9063   -2.4408 H   0  0  0  0  0  0
   49.8955   44.0600   -1.0053 H   0  0  0  0  0  0
   54.2251   47.1562    1.3432 H   0  0  0  0  0  0
   52.2509   46.0615    2.3010 H   0  0  0  0  0  0
   50.6905   44.8406    0.9151 H   0  0  0  0  0  0
   52.5863   45.2126   -3.5968 H   0  0  0  0  0  0
   54.5515   46.3711   -4.4749 H   0  0  0  0  0  0
   55.5668   47.7383   -0.5556 H   0  0  0  0  0  0
   57.9662   48.9123   -3.0392 H   0  0  0  0  0  0
   56.6597   49.3800   -1.9555 H   0  0  0  0  0  0
   57.6230   47.9240   -1.6241 H   0  0  0  0  0  0
  1  2  1  0  0  0
  1  6  2  0  0  0
  1 12  1  0  0  0
  2  3  1  0  0  0
  2 11  2  0  0  0
  3  4  1  0  0  0
  3 26  1  0  0  0
  4  5  1  0  0  0
  4 10  2  0  0  0
  5  6  1  0  0  0
  5 27  1  0  0  0
  6  7  1  0  0  0
  7  8  1  0  0  0
  7  9  2  0  0  0
  8 28  1  0  0  0
 12 13  1  0  0  0
 12 29  1  0  0  0
 12 30  1  0  0  0
 13 14  1  0  0  0
 13 31  1  0  0  0
 13 32  1  0  0  0
 14 19  2  0  0  0
 14 17  1  0  0  0
 15 18  2  0  0  0
 15 16  1  0  0  0
 15 33  1  0  0  0
 16 17  2  0  0  0
 16 34  1  0  0  0
 17 35  1  0  0  0
 18 19  1  0  0  0
 18 23  1  0  0  0
 19 20  1  0  0  0
 20 21  2  0  0  0
 20 36  1  0  0  0
 21 22  1  0  0  0
 21 37  1  0  0  0
 22 23  2  0  0  0
 22 24  1  0  0  0
 23 38  1  0  0  0
 24 25  1  0  0  0
 25 39  1  0  0  0
 25 40  1  0  0  0
 25 41  1  0  0  0
M  END
> <s_m_entry_id>
25675

> <s_m_entry_name>
dock_pv.327

> <s_m_Source_Path>
/home/csk/Desktop/cluster/DUD-E-result/pyrd

> <s_m_Source_File>
dock_pv.maegz

> <i_m_Source_File_Index>
327

> <chembl_id>
CHEMBL3973700

> <chembl_pref_name>
None

> <i_lp_mmshare_version>
53161

> <r_lp_tautomer_probability>
1

> <s_lp_Force_Field>
OPLS_2005

> <r_lp_Energy>
20.023492

> <b_lp_Chiralities_Consistent>
1

> <s_lp_Variant>
CHEMBL1966_lig375-1

> <s_i_glide_gridfile>
glide-grid_1d3g

> <i_i_glide_lignum>
425

> <i_i_glide_rotatable_bonds>
6

> <r_i_docking_score>
-9.17399225635103

> <r_i_glide_ligand_efficiency>
-0.366959690254041

> <r_i_glide_ligand_efficiency_sa>
-1.07299664236063

> <r_i_glide_ligand_efficiency_ln>
-2.17451108711824

> <r_i_glide_gscore>
-9.17399225635103

> <r_i_glide_lipo>
-4.74002806454935

> <r_i_glide_hbond>
-0.0690302920090451

> <r_i_glide_metal>
0

> <r_i_glide_rewards>
-2.38012086979395

> <r_i_glide_evdw>
-41.6280975341797

> <r_i_glide_ecoul>
-3.71575045585632

> <r_i_glide_erotb>
0.653954415088751

> <r_i_glide_esite>
0

> <r_i_glide_emodel>
-61.4599064628976

> <r_i_glide_energy>
-45.343847990036

> <r_i_glide_einternal>
7.26536703109741

> <i_i_glide_confnum>
25

> <i_i_glide_posenum>
145

> <r_i_glide_eff_state_penalty>
0

> <s_user_duplicate_titles>
CHEMBL1966_lig375

> <i_f3d_flags>
0

> <s_m_subgroup_title>
dock_pv

> <s_m_subgroupid>
dock_pv

> <b_m_subgroup_collapsed>
1

$$$$
CHEMBL1966_lig29
                    3D
 Schrodinger Suite 2021-1.
 45 47  0  0  1  0            999 V2000
   48.6019   41.1694   -3.9733 C   0  0  0  0  0  0
   49.7605   41.6686   -3.2538 C   0  0  0  0  0  0
   47.6684   40.2590   -3.5370 C   0  0  0  0  0  0
   50.0584   42.9572   -3.4951 N   0  0  0  0  0  0
   51.0122   44.3306   -1.6616 C   0  0  0  0  0  0
   57.0840   48.5583   -3.9820 C   0  0  0  0  0  0
   47.6230   39.4642   -2.3119 C   0  0  0  0  0  0
   51.1078   43.6864   -2.9108 C   0  0  0  0  0  0
   49.2230   43.7546    0.1462 N   0  0  0  0  0  0
   50.0097   44.0099   -0.6607 C   0  0  0  0  0  0
   53.1122   45.5161   -2.0752 C   0  0  0  0  0  0
   51.9703   45.2802   -1.2990 C   0  0  0  0  0  0
   54.2367   46.3492   -1.5479 C   0  0  0  0  0  0
   57.2985   48.2216   -2.6201 O   0  0  0  0  0  0
   50.4220   40.9872   -2.4990 O   0  0  0  0  0  0
   55.1717   46.9678   -2.3971 C   0  0  0  0  0  0
   47.0005   38.4100   -2.2314 O   0  0  0  0  0  0
   56.2819   47.6565   -1.8774 C   0  0  0  0  0  0
   52.2319   43.9285   -3.6990 C   0  0  0  0  0  0
   53.2230   44.8209   -3.2843 C   0  0  0  0  0  0
   58.1474   49.2405   -4.4038 F   0  0  0  0  0  0
   56.9604   47.4746   -4.7502 F   0  0  0  0  0  0
   56.0230   49.3516   -4.0990 F   0  0  0  0  0  0
   48.2236   40.0100   -1.2220 O   0  0  0  0  0  0
   48.2068   41.7482   -5.3229 C   0  0  0  0  0  0
   46.4866   40.2109   -4.4948 C   0  0  0  0  0  0
   46.9494   41.0011   -5.6990 C   0  0  0  0  0  0
   54.4336   46.4582   -0.1624 C   0  0  0  0  0  0
   55.5124   47.1558    0.3579 C   0  0  0  0  0  0
   56.4230   47.7546   -0.4996 C   0  0  0  0  0  0
   49.4686   43.4652   -4.1375 H   0  0  0  0  0  0
   51.8618   45.7891   -0.3510 H   0  0  0  0  0  0
   55.0439   46.8884   -3.4643 H   0  0  0  0  0  0
   52.3359   43.4250   -4.6484 H   0  0  0  0  0  0
   54.1032   44.9512   -3.8897 H   0  0  0  0  0  0
   48.1066   39.4356   -0.4624 H   0  0  0  0  0  0
   48.9904   41.6331   -6.0737 H   0  0  0  0  0  0
   47.9926   42.8101   -5.2488 H   0  0  0  0  0  0
   45.6250   40.6892   -4.0239 H   0  0  0  0  0  0
   46.1630   39.2100   -4.7712 H   0  0  0  0  0  0
   47.1964   40.3181   -6.4990 H   0  0  0  0  0  0
   46.1691   41.6667   -6.0739 H   0  0  0  0  0  0
   53.7754   45.9736    0.5422 H   0  0  0  0  0  0
   55.6509   47.2099    1.4276 H   0  0  0  0  0  0
   57.2679   48.2900   -0.0990 H   0  0  0  0  0  0
  1  2  1  0  0  0
  1  3  2  0  0  0
  1 25  1  0  0  0
  2  4  1  0  0  0
  2 15  2  0  0  0
  3  7  1  0  0  0
  3 26  1  0  0  0
  4  8  1  0  0  0
  4 31  1  0  0  0
  5  8  2  0  0  0
  5 10  1  0  0  0
  5 12  1  0  0  0
  6 14  1  0  0  0
  6 21  1  0  0  0
  6 22  1  0  0  0
  6 23  1  0  0  0
  7 17  2  0  0  0
  7 24  1  0  0  0
  8 19  1  0  0  0
  9 10  3  0  0  0
 11 20  1  0  0  0
 11 13  1  0  0  0
 11 12  2  0  0  0
 12 32  1  0  0  0
 13 16  1  0  0  0
 13 28  2  0  0  0
 14 18  1  0  0  0
 16 18  2  0  0  0
 16 33  1  0  0  0
 18 30  1  0  0  0
 19 20  2  0  0  0
 19 34  1  0  0  0
 20 35  1  0  0  0
 24 36  1  0  0  0
 25 27  1  0  0  0
 25 37  1  0  0  0
 25 38  1  0  0  0
 26 27  1  0  0  0
 26 39  1  0  0  0
 26 40  1  0  0  0
 27 41  1  0  0  0
 27 42  1  0  0  0
 28 29  1  0  0  0
 28 43  1  0  0  0
 29 30  2  0  0  0
 29 44  1  0  0  0
 30 45  1  0  0  0
M  END
> <s_m_entry_id>
25676

> <s_m_entry_name>
dock_pv.328

> <s_m_Source_Path>
/home/csk/Desktop/cluster/DUD-E-result/pyrd

> <s_m_Source_File>
dock_pv.maegz

> <i_m_Source_File_Index>
328

> <chembl_id>
CHEMBL154336

> <chembl_pref_name>
None

> <i_lp_mmshare_version>
53161

> <r_lp_tautomer_probability>
1

> <s_lp_Force_Field>
OPLS_2005

> <r_lp_Energy>
46.366377

> <b_lp_Chiralities_Consistent>
1

> <s_lp_Variant>
CHEMBL1966_lig29-1

> <s_i_glide_gridfile>
glide-grid_1d3g

> <i_i_glide_lignum>
33

> <i_i_glide_rotatable_bonds>
8

> <r_i_docking_score>
-9.16635592345265

> <r_i_glide_ligand_efficiency>
-0.305545197448422

> <r_i_glide_ligand_efficiency_sa>
-0.94939996847346

> <r_i_glide_ligand_efficiency_ln>
-2.08269594125562

> <r_i_glide_gscore>
-9.16635592345265

> <r_i_glide_lipo>
-4.54707133536327

> <r_i_glide_hbond>
0

> <r_i_glide_metal>
0

> <r_i_glide_rewards>
-2.85668855968343

> <r_i_glide_evdw>
-40.5320587158203

> <r_i_glide_ecoul>
-2.79846811294556

> <r_i_glide_erotb>
0.683777124326906

> <r_i_glide_esite>
0

> <r_i_glide_emodel>
-44.7499566892171

> <r_i_glide_energy>
-43.3305268287659

> <r_i_glide_einternal>
14.1983690261841

> <i_i_glide_confnum>
88

> <i_i_glide_posenum>
192

> <r_i_glide_eff_state_penalty>
0

> <s_user_duplicate_titles>
CHEMBL1966_lig29,257136

> <i_f3d_flags>
0

> <s_m_subgroup_title>
dock_pv

> <s_m_subgroupid>
dock_pv

> <b_m_subgroup_collapsed>
1

$$$$
CHEMBL1966_lig798
                    3D
 Schrodinger Suite 2021-1.
 49 53  0  0  1  0            999 V2000
   52.4231   44.8100   -2.5691 C   0  0  0  0  0  0
   53.5856   44.9074   -3.2761 N   0  0  0  0  0  0
   52.1695   45.5991   -1.4355 C   0  0  0  0  0  0
   53.2282   46.3522   -0.8807 C   0  0  0  0  0  0
   54.4309   46.5186   -1.6589 C   0  0  0  0  0  0
   51.4702   43.7875   -3.1608 C   0  0  0  0  0  0
   54.5571   45.7552   -2.8584 C   0  0  0  0  0  0
   50.7395   42.7512   -2.4748 C   0  0  0  0  0  0
   49.8794   41.8533   -3.2064 C   0  0  0  0  0  0
   53.2124   46.8100    0.5650 C   0  0  0  0  0  0
   49.0936   40.8670   -2.4969 C   0  0  0  0  0  0
   55.5014   47.4103   -1.3305 C   0  0  0  0  0  0
   52.0231   47.2101    1.0853 O   0  0  0  0  0  0
   54.2319   46.8104    1.2384 O   0  0  0  0  0  0
   47.9920   40.0323   -3.0716 C   0  0  0  0  0  0
   55.7370   45.8519   -3.6375 C   0  0  0  0  0  0
   56.6269   47.5157   -2.1379 C   0  0  0  0  0  0
   50.7537   45.6651   -0.8774 C   0  0  0  0  0  0
   56.7531   46.7292   -3.2737 C   0  0  0  0  0  0
   51.2221   43.9220   -4.5133 C   0  0  0  0  0  0
   57.5999   48.3970   -1.8171 F   0  0  0  0  0  0
   50.8049   42.5947   -1.0779 C   0  0  0  0  0  0
   49.8308   42.0100   -4.6157 C   0  0  0  0  0  0
   49.2230   40.8098   -1.1063 C   0  0  0  0  0  0
   50.4206   43.0836   -5.2468 C   0  0  0  0  0  0
   50.0233   41.6685   -0.4172 C   0  0  0  0  0  0
   47.4977   38.9558   -2.3225 C   0  0  0  0  0  0
   47.2764   40.4082   -4.2193 C   0  0  0  0  0  0
   46.0797   39.8294   -4.5575 C   0  0  0  0  0  0
   46.2761   38.4100   -2.6166 C   0  0  0  0  0  0
   45.6230   38.8100   -3.7627 C   0  0  0  0  0  0
   55.4437   48.0460   -0.4608 H   0  0  0  0  0  0
   55.8445   45.2433   -4.5221 H   0  0  0  0  0  0
   50.6864   45.2097    0.1110 H   0  0  0  0  0  0
   50.4574   46.7106   -0.7988 H   0  0  0  0  0  0
   50.0124   45.2104   -1.5303 H   0  0  0  0  0  0
   57.6440   46.8092   -3.8795 H   0  0  0  0  0  0
   51.6229   44.7990   -4.9651 H   0  0  0  0  0  0
   51.4442   43.2337   -0.5009 H   0  0  0  0  0  0
   49.3680   41.2777   -5.2495 H   0  0  0  0  0  0
   48.6271   40.1710   -0.4758 H   0  0  0  0  0  0
   50.3053   43.2341   -6.3105 H   0  0  0  0  0  0
   50.0230   41.6004    0.6583 H   0  0  0  0  0  0
   48.0116   38.5502   -1.4660 H   0  0  0  0  0  0
   47.4876   41.2869   -4.7970 H   0  0  0  0  0  0
   45.5188   40.1591   -5.4198 H   0  0  0  0  0  0
   45.8812   37.6102   -2.0082 H   0  0  0  0  0  0
   44.7362   38.3116   -4.0987 H   0  0  0  0  0  0
   52.1349   47.4618    2.0046 H   0  0  0  0  0  0
  1  2  2  0  0  0
  1  3  1  0  0  0
  1  6  1  0  0  0
  2  7  1  0  0  0
  3  4  2  0  0  0
  3 18  1  0  0  0
  4  5  1  0  0  0
  4 10  1  0  0  0
  5 12  2  0  0  0
  5  7  1  0  0  0
  6  8  1  0  0  0
  6 20  2  0  0  0
  7 16  2  0  0  0
  8  9  2  0  0  0
  8 22  1  0  0  0
  9 11  1  0  0  0
  9 23  1  0  0  0
 10 13  1  0  0  0
 10 14  2  0  0  0
 11 15  1  0  0  0
 11 24  2  0  0  0
 12 17  1  0  0  0
 12 32  1  0  0  0
 13 49  1  0  0  0
 15 27  2  0  0  0
 15 28  1  0  0  0
 16 19  1  0  0  0
 16 33  1  0  0  0
 17 21  1  0  0  0
 17 19  2  0  0  0
 18 34  1  0  0  0
 18 35  1  0  0  0
 18 36  1  0  0  0
 19 37  1  0  0  0
 20 25  1  0  0  0
 20 38  1  0  0  0
 22 26  2  0  0  0
 22 39  1  0  0  0
 23 25  2  0  0  0
 23 40  1  0  0  0
 24 26  1  0  0  0
 24 41  1  0  0  0
 25 42  1  0  0  0
 26 43  1  0  0  0
 27 30  1  0  0  0
 27 44  1  0  0  0
 28 29  2  0  0  0
 28 45  1  0  0  0
 29 31  1  0  0  0
 29 46  1  0  0  0
 30 31  2  0  0  0
 30 47  1  0  0  0
 31 48  1  0  0  0
M  END
> <s_m_entry_id>
25677

> <s_m_entry_name>
dock_pv.329

> <s_m_Source_Path>
/home/csk/Desktop/cluster/DUD-E-result/pyrd

> <s_m_Source_File>
dock_pv.maegz

> <i_m_Source_File_Index>
329

> <chembl_id>
CHEMBL48928

> <chembl_pref_name>
None

> <i_lp_mmshare_version>
53161

> <r_lp_tautomer_probability>
1

> <s_lp_Force_Field>
OPLS_2005

> <r_lp_Energy>
40.846733

> <b_lp_Chiralities_Consistent>
1

> <s_lp_Variant>
CHEMBL1966_lig798-1

> <s_i_glide_gridfile>
glide-grid_1d3g

> <i_i_glide_lignum>
869

> <i_i_glide_rotatable_bonds>
4

> <r_i_docking_score>
-9.15780593164629

> <r_i_glide_ligand_efficiency>
-0.295413094569235

> <r_i_glide_ligand_efficiency_sa>
-0.928004978680612

> <r_i_glide_ligand_efficiency_ln>
-2.06536589063289

> <r_i_glide_gscore>
-9.15780593164629

> <r_i_glide_lipo>
-6.82315058872088

> <r_i_glide_hbond>
0

> <r_i_glide_metal>
0

> <r_i_glide_rewards>
-1.8195581689139

> <r_i_glide_evdw>
-20.2936096191406

> <r_i_glide_ecoul>
0.960513949394226

> <r_i_glide_erotb>
0.355506214536385

> <r_i_glide_esite>
0

> <r_i_glide_emodel>
-29.0649089284206

> <r_i_glide_energy>
-19.3330956697464

> <r_i_glide_einternal>
23.4561729431152

> <i_i_glide_confnum>
40

> <i_i_glide_posenum>
347

> <r_i_glide_eff_state_penalty>
0

> <s_user_duplicate_titles>
CHEMBL1966_lig798,74557

> <i_f3d_flags>
0

> <s_m_subgroup_title>
dock_pv

> <s_m_subgroupid>
dock_pv

> <b_m_subgroup_collapsed>
1

$$$$
CHEMBL1966_lig237
                    3D
 Schrodinger Suite 2021-1.
 42 44  0  0  1  0            999 V2000
   54.4569   46.4660   -1.0789 C   0  0  0  0  0  0
   53.5310   46.5254   -0.0237 C   0  0  0  0  0  0
   54.0929   45.7977   -2.2554 C   0  0  0  0  0  0
   52.5709   44.4707   -3.5534 N   0  0  0  0  0  0
   52.8343   45.2100   -2.3871 C   0  0  0  0  0  0
   50.0229   42.0641   -3.3412 C   0  0  0  0  0  0
   50.7921   43.5399   -5.3295 S   0  0  0  0  0  0
   45.8456   40.2931   -4.6412 C   0  0  0  0  0  0
   49.7586   42.2888   -4.7059 C   0  0  0  0  0  0
   47.6014   41.9417   -5.2990 O   0  0  0  0  0  0
   49.2230   40.8676   -6.4990 O   0  0  0  0  0  0
   52.2472   46.0100   -0.1775 C   0  0  0  0  0  0
   51.0034   42.8200   -2.8821 N   0  0  0  0  0  0
   48.8536   41.6299   -5.6114 C   0  0  0  0  0  0
   51.8962   45.3616   -1.3549 C   0  0  0  0  0  0
   46.4716   41.1896   -5.6990 C   0  0  0  0  0  0
   51.5293   43.6100   -3.7720 C   0  0  0  0  0  0
   49.3687   41.1054   -2.3807 C   0  0  0  0  0  0
   49.6230   41.2281   -1.0081 C   0  0  0  0  0  0
   48.9773   40.4100   -0.0990 C   0  0  0  0  0  0
   48.0230   39.4955   -0.5356 C   0  0  0  0  0  0
   47.7905   39.3185   -1.8930 C   0  0  0  0  0  0
   48.5049   40.0884   -2.8058 C   0  0  0  0  0  0
   53.9403   47.2100    1.5010 Cl  0  0  0  0  0  0
   55.8514   47.0825   -0.9430 C   0  0  0  0  0  0
   55.7474   48.4100   -0.8991 F   0  0  0  0  0  0
   56.4230   46.6643    0.1836 F   0  0  0  0  0  0
   56.6565   46.7594   -1.9571 F   0  0  0  0  0  0
   54.8038   45.7069   -3.0644 H   0  0  0  0  0  0
   53.3258   44.5033   -4.2218 H   0  0  0  0  0  0
   44.8877   39.9339   -5.0110 H   0  0  0  0  0  0
   46.4332   39.4003   -4.4529 H   0  0  0  0  0  0
   45.6677   40.8100   -3.6992 H   0  0  0  0  0  0
   51.5329   46.0830    0.6298 H   0  0  0  0  0  0
   50.9000   44.9552   -1.4429 H   0  0  0  0  0  0
   45.7234   41.8854   -6.0817 H   0  0  0  0  0  0
   46.7439   40.5183   -6.4990 H   0  0  0  0  0  0
   50.3198   41.9602   -0.6272 H   0  0  0  0  0  0
   49.2230   40.4727    0.9493 H   0  0  0  0  0  0
   47.5057   38.8732    0.1772 H   0  0  0  0  0  0
   47.1061   38.5562   -2.2346 H   0  0  0  0  0  0
   48.3866   39.8668   -3.8478 H   0  0  0  0  0  0
  1  2  2  0  0  0
  1  3  1  0  0  0
  1 25  1  0  0  0
  2 12  1  0  0  0
  2 24  1  0  0  0
  3  5  2  0  0  0
  3 29  1  0  0  0
  4 17  1  0  0  0
  4  5  1  0  0  0
  4 30  1  0  0  0
  5 15  1  0  0  0
  6  9  2  0  0  0
  6 13  1  0  0  0
  6 18  1  0  0  0
  7 17  1  0  0  0
  7  9  1  0  0  0
  8 16  1  0  0  0
  8 31  1  0  0  0
  8 32  1  0  0  0
  8 33  1  0  0  0
  9 14  1  0  0  0
 10 14  1  0  0  0
 10 16  1  0  0  0
 11 14  2  0  0  0
 12 15  2  0  0  0
 12 34  1  0  0  0
 13 17  2  0  0  0
 15 35  1  0  0  0
 16 36  1  0  0  0
 16 37  1  0  0  0
 18 19  1  0  0  0
 18 23  2  0  0  0
 19 20  2  0  0  0
 19 38  1  0  0  0
 20 21  1  0  0  0
 20 39  1  0  0  0
 21 22  2  0  0  0
 21 40  1  0  0  0
 22 23  1  0  0  0
 22 41  1  0  0  0
 23 42  1  0  0  0
 25 26  1  0  0  0
 25 27  1  0  0  0
 25 28  1  0  0  0
M  END
> <s_m_entry_id>
25678

> <s_m_entry_name>
dock_pv.330

> <s_m_Source_Path>
/home/csk/Desktop/cluster/DUD-E-result/pyrd

> <s_m_Source_File>
dock_pv.maegz

> <i_m_Source_File_Index>
330

> <chembl_id>
CHEMBL3410602

> <chembl_pref_name>
None

> <i_lp_mmshare_version>
53161

> <r_lp_tautomer_probability>
1

> <s_lp_Force_Field>
OPLS_2005

> <r_lp_Energy>
17.949953

> <b_lp_Chiralities_Consistent>
1

> <s_lp_Variant>
CHEMBL1966_lig237-1

> <s_i_glide_gridfile>
glide-grid_1d3g

> <i_i_glide_lignum>
283

> <i_i_glide_rotatable_bonds>
7

> <r_i_docking_score>
-9.15700618250253

> <r_i_glide_ligand_efficiency>
-0.327035935089376

> <r_i_glide_ligand_efficiency_sa>
-0.993073712796403

> <r_i_glide_ligand_efficiency_ln>
-2.11370588830586

> <r_i_glide_gscore>
-9.15700618250253

> <r_i_glide_lipo>
-5.50743228611885

> <r_i_glide_hbond>
-0.16

> <r_i_glide_metal>
0

> <r_i_glide_rewards>
-2.1625590500875

> <r_i_glide_evdw>
-26.9272537231445

> <r_i_glide_ecoul>
-3.50263047218323

> <r_i_glide_erotb>
0.544742410688525

> <r_i_glide_esite>
0

> <r_i_glide_emodel>
-35.5281955406151

> <r_i_glide_energy>
-30.4298841953278

> <r_i_glide_einternal>
17.1803302764893

> <i_i_glide_confnum>
71

> <i_i_glide_posenum>
146

> <r_i_glide_eff_state_penalty>
0

> <s_user_duplicate_titles>
CHEMBL1966_lig237

> <i_f3d_flags>
0

> <s_m_subgroup_title>
dock_pv

> <s_m_subgroupid>
dock_pv

> <b_m_subgroup_collapsed>
1

$$$$
CHEMBL1966_lig245
                    3D
 Schrodinger Suite 2021-1.
 45 47  0  0  1  0            999 V2000
   48.6209   40.4100   -1.9575 C   0  0  0  0  0  0
   47.7923   39.9475   -2.9931 C   0  0  0  0  0  0
   46.6637   38.9640   -2.7251 C   0  0  0  0  0  0
   48.4297   39.9299   -0.5205 C   0  0  0  0  0  0
   49.6225   41.3466   -2.2418 C   0  0  0  0  0  0
   50.7776   42.7764   -3.8810 N   0  0  0  0  0  0
   49.7845   41.8487   -3.5374 C   0  0  0  0  0  0
   53.0292   45.1945   -2.7430 C   0  0  0  0  0  0
   50.8232   44.4035   -1.6504 S   0  0  0  0  0  0
   56.0011   46.6892    0.7009 C   0  0  0  0  0  0
   52.2556   45.4107   -1.5821 C   0  0  0  0  0  0
   53.8630   46.3887   -0.2822 O   0  0  0  0  0  0
   51.7188   46.4422    0.5050 O   0  0  0  0  0  0
   47.9907   40.4100   -4.2955 C   0  0  0  0  0  0
   52.5383   44.2699   -3.5528 N   0  0  0  0  0  0
   52.5425   46.1637   -0.3653 C   0  0  0  0  0  0
   48.9769   41.3568   -4.5643 C   0  0  0  0  0  0
   54.4875   46.6719    0.9506 C   0  0  0  0  0  0
   51.4291   43.7235   -3.1331 C   0  0  0  0  0  0
   54.3393   45.8223   -3.0962 C   0  0  0  0  0  0
   55.4680   45.0202   -3.2981 C   0  0  0  0  0  0
   56.7021   45.6041   -3.5729 C   0  0  0  0  0  0
   56.8016   46.9912   -3.6569 C   0  0  0  0  0  0
   55.6809   47.7981   -3.4669 C   0  0  0  0  0  0
   54.4494   47.2136   -3.1860 C   0  0  0  0  0  0
   46.0228   39.3220   -1.9189 H   0  0  0  0  0  0
   46.0281   38.8086   -3.5969 H   0  0  0  0  0  0
   47.0805   38.0098   -2.4112 H   0  0  0  0  0  0
   48.4211   38.8405   -0.4767 H   0  0  0  0  0  0
   49.2262   40.2755    0.1393 H   0  0  0  0  0  0
   47.4762   40.2620   -0.1097 H   0  0  0  0  0  0
   50.2703   41.6766   -1.4456 H   0  0  0  0  0  0
   50.9887   42.7532   -4.8677 H   0  0  0  0  0  0
   56.5607   46.8101    1.6261 H   0  0  0  0  0  0
   56.3294   45.7559    0.2438 H   0  0  0  0  0  0
   56.2817   47.5027    0.0307 H   0  0  0  0  0  0
   47.3627   40.0568   -5.0992 H   0  0  0  0  0  0
   49.1006   41.7196   -5.5734 H   0  0  0  0  0  0
   54.1376   47.6100    1.3741 H   0  0  0  0  0  0
   54.2261   45.8775    1.6486 H   0  0  0  0  0  0
   55.3923   43.9441   -3.2233 H   0  0  0  0  0  0
   57.5770   44.9868   -3.7144 H   0  0  0  0  0  0
   57.7591   47.4453   -3.8662 H   0  0  0  0  0  0
   55.7686   48.8724   -3.5320 H   0  0  0  0  0  0
   53.5827   47.8383   -3.0264 H   0  0  0  0  0  0
  1  2  2  0  0  0
  1  4  1  0  0  0
  1  5  1  0  0  0
  2 14  1  0  0  0
  2  3  1  0  0  0
  3 26  1  0  0  0
  3 27  1  0  0  0
  3 28  1  0  0  0
  4 29  1  0  0  0
  4 30  1  0  0  0
  4 31  1  0  0  0
  5  7  2  0  0  0
  5 32  1  0  0  0
  6 19  1  0  0  0
  6  7  1  0  0  0
  6 33  1  0  0  0
  7 17  1  0  0  0
  8 11  2  0  0  0
  8 15  1  0  0  0
  8 20  1  0  0  0
  9 19  1  0  0  0
  9 11  1  0  0  0
 10 18  1  0  0  0
 10 34  1  0  0  0
 10 35  1  0  0  0
 10 36  1  0  0  0
 11 16  1  0  0  0
 12 16  1  0  0  0
 12 18  1  0  0  0
 13 16  2  0  0  0
 14 17  2  0  0  0
 14 37  1  0  0  0
 15 19  2  0  0  0
 17 38  1  0  0  0
 18 39  1  0  0  0
 18 40  1  0  0  0
 20 21  1  0  0  0
 20 25  2  0  0  0
 21 22  2  0  0  0
 21 41  1  0  0  0
 22 23  1  0  0  0
 22 42  1  0  0  0
 23 24  2  0  0  0
 23 43  1  0  0  0
 24 25  1  0  0  0
 24 44  1  0  0  0
 25 45  1  0  0  0
M  END
> <s_m_entry_id>
25679

> <s_m_entry_name>
dock_pv.331

> <s_m_Source_Path>
/home/csk/Desktop/cluster/DUD-E-result/pyrd

> <s_m_Source_File>
dock_pv.maegz

> <i_m_Source_File_Index>
331

> <chembl_id>
CHEMBL3410594

> <chembl_pref_name>
None

> <i_lp_mmshare_version>
53161

> <r_lp_tautomer_probability>
1

> <s_lp_Force_Field>
OPLS_2005

> <r_lp_Energy>
16.461386

> <b_lp_Chiralities_Consistent>
1

> <s_lp_Variant>
CHEMBL1966_lig245-1

> <s_i_glide_gridfile>
glide-grid_1d3g

> <i_i_glide_lignum>
291

> <i_i_glide_rotatable_bonds>
6

> <r_i_docking_score>
-9.15631949138924

> <r_i_glide_ligand_efficiency>
-0.36625277965557

> <r_i_glide_ligand_efficiency_sa>
-1.07092962323359

> <r_i_glide_ligand_efficiency_ln>
-2.17032211221227

> <r_i_glide_gscore>
-9.15631949138924

> <r_i_glide_lipo>
-5.80860389872513

> <r_i_glide_hbond>
0

> <r_i_glide_metal>
0

> <r_i_glide_rewards>
-1.94718628282173

> <r_i_glide_evdw>
-44.0650444030762

> <r_i_glide_ecoul>
0.230253130197525

> <r_i_glide_erotb>
0.7681849407818

> <r_i_glide_esite>
0

> <r_i_glide_emodel>
-59.618555501622

> <r_i_glide_energy>
-43.8347912728786

> <r_i_glide_einternal>
10.7913284301758

> <i_i_glide_confnum>
34

> <i_i_glide_posenum>
289

> <r_i_glide_eff_state_penalty>
0

> <s_user_duplicate_titles>
CHEMBL1966_lig245

> <i_f3d_flags>
0

> <s_m_subgroup_title>
dock_pv

> <s_m_subgroupid>
dock_pv

> <b_m_subgroup_collapsed>
1

$$$$
CHEMBL1966_lig27
                    3D
 Schrodinger Suite 2021-1.
 40 42  0  0  1  0            999 V2000
   48.1656   40.4100   -3.1772 C   0  0  0  0  0  0
   49.2231   41.1742   -2.5017 C   0  0  0  0  0  0
   47.3336   39.4983   -2.5911 C   0  0  0  0  0  0
   49.6708   42.2407   -3.1980 N   0  0  0  0  0  0
   47.4279   38.9515   -1.2645 C   0  0  0  0  0  0
   50.6004   43.2115   -2.7711 C   0  0  0  0  0  0
   51.5746   43.6100   -3.6819 C   0  0  0  0  0  0
   52.5055   45.2100   -2.0990 C   0  0  0  0  0  0
   52.5633   44.5054   -3.3068 C   0  0  0  0  0  0
   49.6230   40.9257   -1.3657 O   0  0  0  0  0  0
   53.5264   46.2725   -1.8454 C   0  0  0  0  0  0
   47.3002   39.6100   -0.2458 O   0  0  0  0  0  0
   50.5670   43.8337   -1.5102 C   0  0  0  0  0  0
   51.4818   44.8564   -1.2006 C   0  0  0  0  0  0
   53.9898   47.0459   -2.9207 C   0  0  0  0  0  0
   54.0798   46.4947   -0.5770 C   0  0  0  0  0  0
   51.5294   43.2100   -4.9666 F   0  0  0  0  0  0
   47.6230   37.6062   -1.2973 O   0  0  0  0  0  0
   55.5121   48.2123   -1.4917 C   0  0  0  0  0  0
   47.7143   40.6438   -4.6194 C   0  0  0  0  0  0
   46.1135   39.2100   -3.4296 C   0  0  0  0  0  0
   55.0821   47.4527   -0.4020 C   0  0  0  0  0  0
   54.9682   48.0101   -2.7494 C   0  0  0  0  0  0
   56.8230   49.5731   -1.2990 Br  0  0  0  0  0  0
   46.2699   40.1462   -4.6192 C   0  0  0  0  0  0
   49.4066   42.2977   -4.1692 H   0  0  0  0  0  0
   53.3207   44.7407   -4.0355 H   0  0  0  0  0  0
   49.8049   43.5666   -0.7920 H   0  0  0  0  0  0
   51.4015   45.3603   -0.2483 H   0  0  0  0  0  0
   53.5895   46.9138   -3.9145 H   0  0  0  0  0  0
   53.7555   45.9107    0.2716 H   0  0  0  0  0  0
   47.8165   37.3132   -2.1906 H   0  0  0  0  0  0
   48.3413   40.0650   -5.2987 H   0  0  0  0  0  0
   47.7394   41.6816   -4.9545 H   0  0  0  0  0  0
   45.2230   39.4302   -2.8478 H   0  0  0  0  0  0
   46.0230   38.1620   -3.6990 H   0  0  0  0  0  0
   55.5123   47.6117    0.5760 H   0  0  0  0  0  0
   55.3026   48.6001   -3.5902 H   0  0  0  0  0  0
   45.9904   39.6683   -5.5573 H   0  0  0  0  0  0
   45.5950   40.9966   -4.4990 H   0  0  0  0  0  0
  1  2  1  0  0  0
  1  3  2  0  0  0
  1 20  1  0  0  0
  2  4  1  0  0  0
  2 10  2  0  0  0
  3  5  1  0  0  0
  3 21  1  0  0  0
  4  6  1  0  0  0
  4 26  1  0  0  0
  5 12  2  0  0  0
  5 18  1  0  0  0
  6  7  1  0  0  0
  6 13  2  0  0  0
  7  9  2  0  0  0
  7 17  1  0  0  0
  8 14  2  0  0  0
  8 11  1  0  0  0
  8  9  1  0  0  0
  9 27  1  0  0  0
 11 15  1  0  0  0
 11 16  2  0  0  0
 13 14  1  0  0  0
 13 28  1  0  0  0
 14 29  1  0  0  0
 15 23  2  0  0  0
 15 30  1  0  0  0
 16 22  1  0  0  0
 16 31  1  0  0  0
 18 32  1  0  0  0
 19 22  2  0  0  0
 19 24  1  0  0  0
 19 23  1  0  0  0
 20 25  1  0  0  0
 20 33  1  0  0  0
 20 34  1  0  0  0
 21 25  1  0  0  0
 21 35  1  0  0  0
 21 36  1  0  0  0
 22 37  1  0  0  0
 23 38  1  0  0  0
 25 39  1  0  0  0
 25 40  1  0  0  0
M  END
> <s_m_entry_id>
25680

> <s_m_entry_name>
dock_pv.332

> <s_m_Source_Path>
/home/csk/Desktop/cluster/DUD-E-result/pyrd

> <s_m_Source_File>
dock_pv.maegz

> <i_m_Source_File_Index>
332

> <chembl_id>
CHEMBL345446

> <chembl_pref_name>
None

> <i_lp_mmshare_version>
53161

> <r_lp_tautomer_probability>
1

> <s_lp_Force_Field>
OPLS_2005

> <r_lp_Energy>
41.395747

> <b_lp_Chiralities_Consistent>
1

> <s_lp_Variant>
CHEMBL1966_lig27-1

> <s_i_glide_gridfile>
glide-grid_1d3g

> <i_i_glide_lignum>
31

> <i_i_glide_rotatable_bonds>
6

> <r_i_docking_score>
-9.15055805752199

> <r_i_glide_ligand_efficiency>
-0.366022322300879

> <r_i_glide_ligand_efficiency_sa>
-1.0702557618413

> <r_i_glide_ligand_efficiency_ln>
-2.16895647972949

> <r_i_glide_gscore>
-9.15055805752199

> <r_i_glide_lipo>
-5.20661725319952

> <r_i_glide_hbond>
0

> <r_i_glide_metal>
0

> <r_i_glide_rewards>
-2.48794410786841

> <r_i_glide_evdw>
-38.5255737304688

> <r_i_glide_ecoul>
-0.871499240398407

> <r_i_glide_erotb>
0.601006876129146

> <r_i_glide_esite>
0

> <r_i_glide_emodel>
-38.1614454928727

> <r_i_glide_energy>
-39.3970729708672

> <r_i_glide_einternal>
4.80316209793091

> <i_i_glide_confnum>
39

> <i_i_glide_posenum>
286

> <r_i_glide_eff_state_penalty>
0

> <s_user_duplicate_titles>
CHEMBL1966_lig27,257768

> <i_f3d_flags>
0

> <s_m_subgroup_title>
dock_pv

> <s_m_subgroupid>
dock_pv

> <b_m_subgroup_collapsed>
1

$$$$
CHEMBL1966_lig474
                    3D
 Schrodinger Suite 2021-1.
 39 42  0  0  1  0            999 V2000
   47.4539   39.1118   -0.5290 O   0  0  0  0  0  0
   48.4221   40.0098   -0.8712 C   0  0  0  0  0  0
   49.2244   40.4435   -0.0490 O   0  0  0  0  0  0
   48.4728   40.4380   -2.3210 C   0  0  0  0  0  0
   47.5997   39.9015   -3.2821 C   0  0  0  0  0  0
   47.5593   40.3790   -4.5963 C   0  0  0  0  0  0
   48.4228   41.3682   -5.0636 C   0  0  0  0  0  0
   49.2832   41.9180   -4.1187 C   0  0  0  0  0  0
   50.1928   42.9462   -4.1616 N   0  0  0  0  0  0
   50.6723   43.1170   -2.8847 C   0  0  0  0  0  0
   50.1861   42.2512   -2.0424 N   0  0  0  0  0  0
   49.3164   41.4786   -2.7692 C   0  0  0  0  0  0
   51.6239   44.1776   -2.4926 C   0  0  0  0  0  0
   51.4369   44.9355   -1.3291 C   0  0  0  0  0  0
   52.3677   45.9160   -0.9824 C   0  0  0  0  0  0
   53.4866   46.1467   -1.7862 C   0  0  0  0  0  0
   54.3873   47.1028   -1.3497 O   0  0  0  0  0  0
   55.4885   47.4678   -2.0942 C   0  0  0  0  0  0
   56.4635   46.5446   -2.4891 C   0  0  0  0  0  0
   57.5151   46.9519   -3.3057 C   0  0  0  0  0  0
   57.6300   48.2913   -3.6701 C   0  0  0  0  0  0
   56.6978   49.2256   -3.2274 C   0  0  0  0  0  0
   55.6294   48.8099   -2.4376 C   0  0  0  0  0  0
   53.6395   45.4053   -2.9678 C   0  0  0  0  0  0
   52.7295   44.4121   -3.3009 C   0  0  0  0  0  0
   47.5141   38.9082    0.4139 H   0  0  0  0  0  0
   46.8979   39.1286   -2.9997 H   0  0  0  0  0  0
   46.8132   39.9887   -5.2684 H   0  0  0  0  0  0
   48.3683   41.7475   -6.0729 H   0  0  0  0  0  0
   50.4424   43.5442   -4.9350 H   0  0  0  0  0  0
   50.5788   44.7614   -0.6952 H   0  0  0  0  0  0
   52.2309   46.4880   -0.0764 H   0  0  0  0  0  0
   56.3850   45.5096   -2.1913 H   0  0  0  0  0  0
   58.2542   46.2348   -3.6325 H   0  0  0  0  0  0
   58.4565   48.6086   -4.2890 H   0  0  0  0  0  0
   56.7950   50.2673   -3.4992 H   0  0  0  0  0  0
   54.8971   49.5251   -2.0970 H   0  0  0  0  0  0
   54.4631   45.5690   -3.6432 H   0  0  0  0  0  0
   52.8777   43.8138   -4.1853 H   0  0  0  0  0  0
  1  2  1  0  0  0
  1 26  1  0  0  0
  2  3  2  0  0  0
  2  4  1  0  0  0
  4  5  2  0  0  0
  4 12  1  0  0  0
  5  6  1  0  0  0
  5 27  1  0  0  0
  6  7  2  0  0  0
  6 28  1  0  0  0
  7  8  1  0  0  0
  7 29  1  0  0  0
  8  9  1  0  0  0
  8 12  2  0  0  0
  9 10  1  0  0  0
  9 30  1  0  0  0
 10 11  2  0  0  0
 10 13  1  0  0  0
 11 12  1  0  0  0
 13 14  2  0  0  0
 13 25  1  0  0  0
 14 15  1  0  0  0
 14 31  1  0  0  0
 15 16  2  0  0  0
 15 32  1  0  0  0
 16 17  1  0  0  0
 16 24  1  0  0  0
 17 18  1  0  0  0
 18 19  2  0  0  0
 18 23  1  0  0  0
 19 20  1  0  0  0
 19 33  1  0  0  0
 20 21  2  0  0  0
 20 34  1  0  0  0
 21 22  1  0  0  0
 21 35  1  0  0  0
 22 23  2  0  0  0
 22 36  1  0  0  0
 23 37  1  0  0  0
 24 25  2  0  0  0
 24 38  1  0  0  0
 25 39  1  0  0  0
M  END
> <s_m_entry_id>
25681

> <s_m_entry_name>
dock_pv.333

> <s_m_Source_Path>
/home/csk/Desktop/cluster/DUD-E-result/pyrd

> <s_m_Source_File>
dock_pv.maegz

> <i_m_Source_File_Index>
333

> <chembl_id>
CHEMBL3677731

> <chembl_pref_name>
None

> <i_lp_mmshare_version>
53161

> <r_lp_tautomer_probability>
1

> <s_lp_Force_Field>
OPLS_2005

> <r_lp_Energy>
23.3253

> <b_lp_Chiralities_Consistent>
1

> <s_lp_Variant>
CHEMBL1966_lig474-1

> <s_i_glide_gridfile>
glide-grid_1d3g

> <i_i_glide_lignum>
524

> <i_i_glide_rotatable_bonds>
5

> <r_i_docking_score>
-9.14889585957037

> <r_i_glide_ligand_efficiency>
-0.365955834382815

> <r_i_glide_ligand_efficiency_sa>
-1.07006134998971

> <r_i_glide_ligand_efficiency_ln>
-2.1685624890029

> <r_i_glide_gscore>
-9.14889585957037

> <r_i_glide_lipo>
-4.73276376946463

> <r_i_glide_hbond>
0

> <r_i_glide_metal>
0

> <r_i_glide_rewards>
-2.56377894872967

> <r_i_glide_evdw>
-36.9322547912598

> <r_i_glide_ecoul>
-4.63415765762329

> <r_i_glide_erotb>
0.689383246830408

> <r_i_glide_esite>
0

> <r_i_glide_emodel>
-58.4512606921123

> <r_i_glide_energy>
-41.5664124488831

> <r_i_glide_einternal>
7.92668676376343

> <i_i_glide_confnum>
11

> <i_i_glide_posenum>
175

> <r_i_glide_eff_state_penalty>
0

> <s_user_duplicate_titles>
CHEMBL1966_lig474

> <i_f3d_flags>
0

> <s_m_subgroup_title>
dock_pv

> <s_m_subgroupid>
dock_pv

> <b_m_subgroup_collapsed>
1

$$$$
CHEMBL1966_lig33
                    3D
 Schrodinger Suite 2021-1.
 40 42  0  0  1  0            999 V2000
   48.5834   40.4731   -2.2802 C   0  0  0  0  0  0
   49.6233   41.4129   -2.6735 C   0  0  0  0  0  0
   47.6001   39.9812   -3.0946 C   0  0  0  0  0  0
   47.3819   40.3000   -4.4995 C   0  0  0  0  0  0
   51.6667   45.4876   -0.8056 C   0  0  0  0  0  0
   49.8095   42.4479   -1.8213 N   0  0  0  0  0  0
   52.6465   45.6099   -1.8108 C   0  0  0  0  0  0
   50.7255   44.4508   -0.8570 C   0  0  0  0  0  0
   52.5814   44.7314   -2.8990 C   0  0  0  0  0  0
   50.7181   43.5286   -1.9099 C   0  0  0  0  0  0
   53.7647   46.5945   -1.7640 C   0  0  0  0  0  0
   50.2699   41.2510   -3.6990 O   0  0  0  0  0  0
   48.2505   40.4103   -5.3620 O   0  0  0  0  0  0
   54.5680   46.7306   -0.6236 C   0  0  0  0  0  0
   54.0658   47.3592   -2.8961 C   0  0  0  0  0  0
   51.6231   46.5684    0.5461 Cl  0  0  0  0  0  0
   51.6230   43.7181   -2.9631 C   0  0  0  0  0  0
   46.0548   40.4101   -4.7930 O   0  0  0  0  0  0
   55.8707   48.4262   -1.7270 C   0  0  0  0  0  0
   48.3764   40.0098   -0.8409 C   0  0  0  0  0  0
   46.6559   39.0718   -2.3186 C   0  0  0  0  0  0
   55.1115   48.2725   -2.8803 C   0  0  0  0  0  0
   55.6188   47.6442   -0.6023 C   0  0  0  0  0  0
   57.2446   49.7360   -1.6990 Br  0  0  0  0  0  0
   47.3369   38.9028   -0.9688 C   0  0  0  0  0  0
   49.2241   42.4537   -1.0021 H   0  0  0  0  0  0
   50.0163   44.3563   -0.0473 H   0  0  0  0  0  0
   53.3046   44.8025   -3.6987 H   0  0  0  0  0  0
   54.3804   46.1259    0.2519 H   0  0  0  0  0  0
   53.4881   47.2437   -3.7988 H   0  0  0  0  0  0
   51.6676   43.0706   -3.8222 H   0  0  0  0  0  0
   45.5068   40.3472   -4.0099 H   0  0  0  0  0  0
   48.0231   40.8099   -0.1991 H   0  0  0  0  0  0
   49.2545   39.6122   -0.3420 H   0  0  0  0  0  0
   46.5011   38.1060   -2.8011 H   0  0  0  0  0  0
   45.6755   39.5363   -2.2056 H   0  0  0  0  0  0
   55.3270   48.8636   -3.7576 H   0  0  0  0  0  0
   56.2266   47.7512    0.2837 H   0  0  0  0  0  0
   46.6262   38.9154   -0.1408 H   0  0  0  0  0  0
   47.8346   37.9310   -0.9337 H   0  0  0  0  0  0
  1  2  1  0  0  0
  1  3  2  0  0  0
  1 20  1  0  0  0
  2  6  1  0  0  0
  2 12  2  0  0  0
  3  4  1  0  0  0
  3 21  1  0  0  0
  4 13  2  0  0  0
  4 18  1  0  0  0
  5  8  2  0  0  0
  5 16  1  0  0  0
  5  7  1  0  0  0
  6 10  1  0  0  0
  6 26  1  0  0  0
  7  9  2  0  0  0
  7 11  1  0  0  0
  8 10  1  0  0  0
  8 27  1  0  0  0
  9 17  1  0  0  0
  9 28  1  0  0  0
 10 17  2  0  0  0
 11 14  1  0  0  0
 11 15  2  0  0  0
 14 23  2  0  0  0
 14 29  1  0  0  0
 15 22  1  0  0  0
 15 30  1  0  0  0
 17 31  1  0  0  0
 18 32  1  0  0  0
 19 22  2  0  0  0
 19 24  1  0  0  0
 19 23  1  0  0  0
 20 25  1  0  0  0
 20 33  1  0  0  0
 20 34  1  0  0  0
 21 25  1  0  0  0
 21 35  1  0  0  0
 21 36  1  0  0  0
 22 37  1  0  0  0
 23 38  1  0  0  0
 25 39  1  0  0  0
 25 40  1  0  0  0
M  END
> <s_m_entry_id>
25682

> <s_m_entry_name>
dock_pv.334

> <s_m_Source_Path>
/home/csk/Desktop/cluster/DUD-E-result/pyrd

> <s_m_Source_File>
dock_pv.maegz

> <i_m_Source_File_Index>
334

> <chembl_id>
CHEMBL348871

> <chembl_pref_name>
None

> <i_lp_mmshare_version>
53161

> <r_lp_tautomer_probability>
1

> <s_lp_Force_Field>
OPLS_2005

> <r_lp_Energy>
44.494008

> <b_lp_Chiralities_Consistent>
1

> <s_lp_Variant>
CHEMBL1966_lig33-1

> <s_i_glide_gridfile>
glide-grid_1d3g

> <i_i_glide_lignum>
37

> <i_i_glide_rotatable_bonds>
6

> <r_i_docking_score>
-9.1417219546574

> <r_i_glide_ligand_efficiency>
-0.365668878186296

> <r_i_glide_ligand_efficiency_sa>
-1.0692222849819

> <r_i_glide_ligand_efficiency_ln>
-2.16686205855395

> <r_i_glide_gscore>
-9.1417219546574

> <r_i_glide_lipo>
-5.46311938365416

> <r_i_glide_hbond>
0

> <r_i_glide_metal>
0

> <r_i_glide_rewards>
-1.95463534437128

> <r_i_glide_evdw>
-43.0357246398926

> <r_i_glide_ecoul>
-0.876205503940582

> <r_i_glide_erotb>
0.559249830953759

> <r_i_glide_esite>
0

> <r_i_glide_emodel>
-61.1790398375465

> <r_i_glide_energy>
-43.9119301438332

> <r_i_glide_einternal>
8.69423580169678

> <i_i_glide_confnum>
185

> <i_i_glide_posenum>
106

> <r_i_glide_eff_state_penalty>
0

> <s_user_duplicate_titles>
CHEMBL1966_lig33,257068

> <i_f3d_flags>
0

> <s_m_subgroup_title>
dock_pv

> <s_m_subgroupid>
dock_pv

> <b_m_subgroup_collapsed>
1

$$$$
CHEMBL1966_lig84
                    3D
 Schrodinger Suite 2021-1.
 36 38  0  0  1  0            999 V2000
   52.8249   44.6896   -3.1882 C   0  0  0  0  0  0
   51.8835   43.6611   -3.2990 C   0  0  0  0  0  0
   50.8766   43.5152   -2.3286 C   0  0  0  0  0  0
   50.8192   44.4270   -1.2725 C   0  0  0  0  0  0
   51.7655   45.4464   -1.1635 C   0  0  0  0  0  0
   52.8032   45.5673   -2.0979 C   0  0  0  0  0  0
   53.9096   46.5443   -1.8943 C   0  0  0  0  0  0
   54.4939   46.6850   -0.6284 C   0  0  0  0  0  0
   55.5793   47.5344   -0.4378 C   0  0  0  0  0  0
   56.0740   48.2722   -1.5094 C   0  0  0  0  0  0
   55.4963   48.1574   -2.7714 C   0  0  0  0  0  0
   54.4226   47.2905   -2.9633 C   0  0  0  0  0  0
   49.9379   42.4587   -2.3092 N   0  0  0  0  0  0
   49.5209   41.6932   -3.3441 C   0  0  0  0  0  0
   48.4750   40.7189   -3.0219 C   0  0  0  0  0  0
   49.9333   41.8226   -4.4924 O   0  0  0  0  0  0
   47.4029   40.2988   -3.8740 C   0  0  0  0  0  0
   46.6124   39.3113   -3.2760 C   0  0  0  0  0  0
   47.1663   38.8255   -1.7161 S   0  0  0  0  0  0
   48.4232   40.0108   -1.8141 C   0  0  0  0  0  0
   47.0941   40.8080   -5.1859 C   0  0  0  0  0  0
   45.7938   41.2102   -5.3044 O   0  0  0  0  0  0
   47.9063   40.8101   -6.0990 O   0  0  0  0  0  0
   53.6195   44.7587   -3.9116 H   0  0  0  0  0  0
   51.9902   42.9660   -4.1164 H   0  0  0  0  0  0
   50.0519   44.3462   -0.5160 H   0  0  0  0  0  0
   51.7133   46.1201   -0.3203 H   0  0  0  0  0  0
   54.1305   46.1065    0.2087 H   0  0  0  0  0  0
   56.0378   47.6100    0.5371 H   0  0  0  0  0  0
   56.9165   48.9327   -1.3610 H   0  0  0  0  0  0
   55.8855   48.7303   -3.6004 H   0  0  0  0  0  0
   53.9894   47.1995   -3.9491 H   0  0  0  0  0  0
   49.4839   42.3077   -1.4228 H   0  0  0  0  0  0
   45.7452   38.8206   -3.6958 H   0  0  0  0  0  0
   49.1044   40.0945   -0.9796 H   0  0  0  0  0  0
   45.3519   41.3403   -4.4605 H   0  0  0  0  0  0
  1  6  2  0  0  0
  1  2  1  0  0  0
  1 24  1  0  0  0
  2  3  2  0  0  0
  2 25  1  0  0  0
  3 13  1  0  0  0
  3  4  1  0  0  0
  4  5  2  0  0  0
  4 26  1  0  0  0
  5  6  1  0  0  0
  5 27  1  0  0  0
  6  7  1  0  0  0
  7 12  2  0  0  0
  7  8  1  0  0  0
  8  9  2  0  0  0
  8 28  1  0  0  0
  9 10  1  0  0  0
  9 29  1  0  0  0
 10 11  2  0  0  0
 10 30  1  0  0  0
 11 12  1  0  0  0
 11 31  1  0  0  0
 12 32  1  0  0  0
 13 14  1  0  0  0
 13 33  1  0  0  0
 14 15  1  0  0  0
 14 16  2  0  0  0
 15 17  1  0  0  0
 15 20  2  0  0  0
 17 18  2  0  0  0
 17 21  1  0  0  0
 18 19  1  0  0  0
 18 34  1  0  0  0
 19 20  1  0  0  0
 20 35  1  0  0  0
 21 22  1  0  0  0
 21 23  2  0  0  0
 22 36  1  0  0  0
M  END
> <s_m_entry_id>
25683

> <s_m_entry_name>
dock_pv.335

> <s_m_Source_Path>
/home/csk/Desktop/cluster/DUD-E-result/pyrd

> <s_m_Source_File>
dock_pv.maegz

> <i_m_Source_File_Index>
335

> <chembl_id>
CHEMBL199501

> <chembl_pref_name>
None

> <i_lp_mmshare_version>
53161

> <r_lp_tautomer_probability>
1

> <s_lp_Force_Field>
OPLS_2005

> <r_lp_Energy>
23.972312

> <b_lp_Chiralities_Consistent>
1

> <s_lp_Variant>
CHEMBL1966_lig84-1

> <s_i_glide_gridfile>
glide-grid_1d3g

> <i_i_glide_lignum>
93

> <i_i_glide_rotatable_bonds>
6

> <r_i_docking_score>
-9.1408058934795

> <r_i_glide_ligand_efficiency>
-0.397426343194761

> <r_i_glide_ligand_efficiency_sa>
-1.13022765315346

> <r_i_glide_ligand_efficiency_ln>
-2.21032974928869

> <r_i_glide_gscore>
-9.1408058934795

> <r_i_glide_lipo>
-5.14111904887913

> <r_i_glide_hbond>
-0.259383595087686

> <r_i_glide_metal>
0

> <r_i_glide_rewards>
-2.01254572391324

> <r_i_glide_evdw>
-40.4793014526367

> <r_i_glide_ecoul>
-3.82102465629578

> <r_i_glide_erotb>
0.894796035405919

> <r_i_glide_esite>
-0.0254347899291625

> <r_i_glide_emodel>
-65.5568383664962

> <r_i_glide_energy>
-44.3003261089325

> <r_i_glide_einternal>
5.17367506027222

> <i_i_glide_confnum>
61

> <i_i_glide_posenum>
361

> <r_i_glide_eff_state_penalty>
0

> <s_user_duplicate_titles>
CHEMBL1966_lig84

> <i_f3d_flags>
0

> <s_m_subgroup_title>
dock_pv

> <s_m_subgroupid>
dock_pv

> <b_m_subgroup_collapsed>
1

$$$$
CHEMBL1966_lig388
                    3D
 Schrodinger Suite 2021-1.
 43 45  0  0  1  0            999 V2000
   49.3493   41.0743   -2.4607 C   0  0  0  0  0  0
   49.0452   40.5123   -1.1332 C   0  0  0  0  0  0
   48.0230   39.6111   -1.1240 N   0  0  0  0  0  0
   47.2312   39.1966   -2.1514 C   0  0  0  0  0  0
   47.5534   39.7600   -3.3463 N   0  0  0  0  0  0
   48.5756   40.6682   -3.5169 C   0  0  0  0  0  0
   48.7138   41.1119   -4.8987 C   0  0  0  0  0  0
   49.1317   42.4000   -5.0392 O   0  0  0  0  0  0
   48.4226   40.4160   -5.8676 O   0  0  0  0  0  0
   46.3035   38.4102   -2.0056 O   0  0  0  0  0  0
   49.6230   40.8169   -0.0936 O   0  0  0  0  0  0
   50.5656   42.0220   -2.5231 C   0  0  0  0  0  0
   50.2522   43.5071   -2.2125 C   0  0  0  0  0  0
   51.4810   44.4083   -2.0990 C   0  0  0  0  0  0
   52.4230   44.4101   -3.1293 C   0  0  0  0  0  0
   53.5387   45.2377   -3.0650 C   0  0  0  0  0  0
   51.6816   45.2105   -0.9758 C   0  0  0  0  0  0
   52.8824   45.9645   -0.8354 C   0  0  0  0  0  0
   53.8214   46.0360   -1.9174 C   0  0  0  0  0  0
   55.0066   46.8570   -1.7730 C   0  0  0  0  0  0
   55.2846   47.3778   -0.4980 C   0  0  0  0  0  0
   54.4230   47.2014    0.5712 C   0  0  0  0  0  0
   53.2046   46.5619    0.4023 C   0  0  0  0  0  0
   55.9469   47.1981   -2.9121 C   0  0  0  0  0  0
   57.0704   47.8502   -2.5120 O   0  0  0  0  0  0
   55.7209   46.9526   -4.0987 O   0  0  0  0  0  0
   58.0238   48.3076   -3.4598 C   0  0  0  0  0  0
   47.8034   39.2149   -0.2221 H   0  0  0  0  0  0
   47.0087   39.4412   -4.1341 H   0  0  0  0  0  0
   49.2471   42.8463   -4.2003 H   0  0  0  0  0  0
   51.0541   41.9266   -3.4922 H   0  0  0  0  0  0
   51.3290   41.6795   -1.8250 H   0  0  0  0  0  0
   49.6566   43.5769   -1.2989 H   0  0  0  0  0  0
   49.6434   43.9119   -3.0186 H   0  0  0  0  0  0
   52.2794   43.7979   -4.0078 H   0  0  0  0  0  0
   54.2211   45.2112   -3.8938 H   0  0  0  0  0  0
   50.9770   45.1831   -0.1569 H   0  0  0  0  0  0
   56.1794   47.9525   -0.3028 H   0  0  0  0  0  0
   54.6821   47.6101    1.5351 H   0  0  0  0  0  0
   52.5230   46.4694    1.2365 H   0  0  0  0  0  0
   58.8312   48.8292   -2.9480 H   0  0  0  0  0  0
   57.5707   48.9994   -4.1700 H   0  0  0  0  0  0
   58.4539   47.4737   -4.0148 H   0  0  0  0  0  0
  1  2  1  0  0  0
  1  6  2  0  0  0
  1 12  1  0  0  0
  2  3  1  0  0  0
  2 11  2  0  0  0
  3  4  1  0  0  0
  3 28  1  0  0  0
  4  5  1  0  0  0
  4 10  2  0  0  0
  5  6  1  0  0  0
  5 29  1  0  0  0
  6  7  1  0  0  0
  7  8  1  0  0  0
  7  9  2  0  0  0
  8 30  1  0  0  0
 12 13  1  0  0  0
 12 31  1  0  0  0
 12 32  1  0  0  0
 13 14  1  0  0  0
 13 33  1  0  0  0
 13 34  1  0  0  0
 14 15  2  0  0  0
 14 17  1  0  0  0
 15 16  1  0  0  0
 15 35  1  0  0  0
 16 19  2  0  0  0
 16 36  1  0  0  0
 17 18  2  0  0  0
 17 37  1  0  0  0
 18 19  1  0  0  0
 18 23  1  0  0  0
 19 20  1  0  0  0
 20 21  2  0  0  0
 20 24  1  0  0  0
 21 22  1  0  0  0
 21 38  1  0  0  0
 22 23  2  0  0  0
 22 39  1  0  0  0
 23 40  1  0  0  0
 24 25  1  0  0  0
 24 26  2  0  0  0
 25 27  1  0  0  0
 27 41  1  0  0  0
 27 42  1  0  0  0
 27 43  1  0  0  0
M  END
> <s_m_entry_id>
25684

> <s_m_entry_name>
dock_pv.336

> <s_m_Source_Path>
/home/csk/Desktop/cluster/DUD-E-result/pyrd

> <s_m_Source_File>
dock_pv.maegz

> <i_m_Source_File_Index>
336

> <chembl_id>
CHEMBL3933268

> <chembl_pref_name>
None

> <i_lp_mmshare_version>
53161

> <r_lp_tautomer_probability>
1

> <s_lp_Force_Field>
OPLS_2005

> <r_lp_Energy>
24.051645

> <b_lp_Chiralities_Consistent>
1

> <s_lp_Variant>
CHEMBL1966_lig388-1

> <s_i_glide_gridfile>
glide-grid_1d3g

> <i_i_glide_lignum>
438

> <i_i_glide_rotatable_bonds>
7

> <r_i_docking_score>
-9.13397796767453

> <r_i_glide_ligand_efficiency>
-0.338295480284242

> <r_i_glide_ligand_efficiency_sa>
-1.01488643973776

> <r_i_glide_ligand_efficiency_ln>
-2.12623948547895

> <r_i_glide_gscore>
-9.13397796767453

> <r_i_glide_lipo>
-4.35581582128076

> <r_i_glide_hbond>
-0.16

> <r_i_glide_metal>
0

> <r_i_glide_rewards>
-2.70779370822293

> <r_i_glide_evdw>
-37.4215774536133

> <r_i_glide_ecoul>
-4.99599742889404

> <r_i_glide_erotb>
0.710110048843938

> <r_i_glide_esite>
0

> <r_i_glide_emodel>
-62.0110068002312

> <r_i_glide_energy>
-42.4175748825073

> <r_i_glide_einternal>
1.72924602031708

> <i_i_glide_confnum>
52

> <i_i_glide_posenum>
207

> <r_i_glide_eff_state_penalty>
0

> <s_user_duplicate_titles>
CHEMBL1966_lig388

> <i_f3d_flags>
0

> <s_m_subgroup_title>
dock_pv

> <s_m_subgroupid>
dock_pv

> <b_m_subgroup_collapsed>
1

$$$$
CHEMBL1966_lig167
                    3D
 Schrodinger Suite 2021-1.
 39 41  0  0  1  0            999 V2000
   56.6962   48.6417   -2.2196 C   0  0  0  0  0  0
   56.4201   47.9946   -1.0173 C   0  0  0  0  0  0
   55.3331   47.1261   -0.9348 C   0  0  0  0  0  0
   54.5195   46.9029   -2.0529 C   0  0  0  0  0  0
   54.8230   47.5402   -3.2618 C   0  0  0  0  0  0
   55.9070   48.4100   -3.3427 C   0  0  0  0  0  0
   58.0199   49.7445   -2.3238 Cl  0  0  0  0  0  0
   53.3238   46.0050   -1.9623 C   0  0  0  0  0  0
   53.0921   45.1432   -2.9455 N   0  0  0  0  0  0
   52.0230   44.4100   -2.7602 C   0  0  0  0  0  0
   51.1693   44.8100   -1.2989 S   0  0  0  0  0  0
   52.3871   45.9901   -0.9106 C   0  0  0  0  0  0
   52.2922   46.7843    0.3692 C   0  0  0  0  0  0
   51.5524   43.4901   -3.6794 N   0  0  0  0  0  0
   50.5405   42.5299   -3.4959 C   0  0  0  0  0  0
   49.6824   42.1992   -4.5479 C   0  0  0  0  0  0
   48.7104   41.2100   -4.3798 C   0  0  0  0  0  0
   48.5699   40.5575   -3.1461 C   0  0  0  0  0  0
   49.4515   40.8834   -2.1079 C   0  0  0  0  0  0
   50.4230   41.8518   -2.2854 C   0  0  0  0  0  0
   47.4329   39.6100   -2.8990 C   0  0  0  0  0  0
   46.4965   39.4406   -3.6832 O   0  0  0  0  0  0
   47.5330   39.0126   -1.6883 O   0  0  0  0  0  0
   46.4789   38.2694   -1.1146 C   0  0  0  0  0  0
   57.0451   48.1683   -0.1527 H   0  0  0  0  0  0
   55.1258   46.6272    0.0007 H   0  0  0  0  0  0
   54.2053   47.3786   -4.1341 H   0  0  0  0  0  0
   56.1294   48.9142   -4.2711 H   0  0  0  0  0  0
   52.9954   47.6100    0.3798 H   0  0  0  0  0  0
   51.2985   47.2100    0.5071 H   0  0  0  0  0  0
   52.5037   46.1685    1.2438 H   0  0  0  0  0  0
   51.9096   43.5174   -4.6222 H   0  0  0  0  0  0
   49.7605   42.7136   -5.4947 H   0  0  0  0  0  0
   48.0359   40.9946   -5.1963 H   0  0  0  0  0  0
   49.3943   40.4100   -1.1377 H   0  0  0  0  0  0
   51.1073   42.0471   -1.4743 H   0  0  0  0  0  0
   46.8230   37.9294   -0.1374 H   0  0  0  0  0  0
   46.2098   37.3938   -1.6990 H   0  0  0  0  0  0
   45.5902   38.8864   -0.9738 H   0  0  0  0  0  0
  1  2  2  0  0  0
  1  6  1  0  0  0
  1  7  1  0  0  0
  2  3  1  0  0  0
  2 25  1  0  0  0
  3  4  2  0  0  0
  3 26  1  0  0  0
  4  5  1  0  0  0
  4  8  1  0  0  0
  5  6  2  0  0  0
  5 27  1  0  0  0
  6 28  1  0  0  0
  8  9  1  0  0  0
  8 12  2  0  0  0
  9 10  2  0  0  0
 10 11  1  0  0  0
 10 14  1  0  0  0
 11 12  1  0  0  0
 12 13  1  0  0  0
 13 29  1  0  0  0
 13 30  1  0  0  0
 13 31  1  0  0  0
 14 15  1  0  0  0
 14 32  1  0  0  0
 15 16  2  0  0  0
 15 20  1  0  0  0
 16 17  1  0  0  0
 16 33  1  0  0  0
 17 18  2  0  0  0
 17 34  1  0  0  0
 18 19  1  0  0  0
 18 21  1  0  0  0
 19 20  2  0  0  0
 19 35  1  0  0  0
 20 36  1  0  0  0
 21 22  2  0  0  0
 21 23  1  0  0  0
 23 24  1  0  0  0
 24 37  1  0  0  0
 24 38  1  0  0  0
 24 39  1  0  0  0
M  END
> <s_m_entry_id>
25685

> <s_m_entry_name>
dock_pv.337

> <s_m_Source_Path>
/home/csk/Desktop/cluster/DUD-E-result/pyrd

> <s_m_Source_File>
dock_pv.maegz

> <i_m_Source_File_Index>
337

> <chembl_id>
CHEMBL2177115

> <chembl_pref_name>
None

> <i_lp_mmshare_version>
53161

> <r_lp_tautomer_probability>
1

> <s_lp_Force_Field>
OPLS_2005

> <r_lp_Energy>
17.713879

> <b_lp_Chiralities_Consistent>
1

> <s_lp_Variant>
CHEMBL1966_lig167-1

> <s_i_glide_gridfile>
glide-grid_1d3g

> <i_i_glide_lignum>
212

> <i_i_glide_rotatable_bonds>
5

> <r_i_docking_score>
-9.13395365613287

> <r_i_glide_ligand_efficiency>
-0.38058140233887

> <r_i_glide_ligand_efficiency_sa>
-1.09778672681751

> <r_i_glide_ligand_efficiency_ln>
-2.18617423973501

> <r_i_glide_gscore>
-9.13395365613287

> <r_i_glide_lipo>
-5.38793589995665

> <r_i_glide_hbond>
0

> <r_i_glide_metal>
0

> <r_i_glide_rewards>
-2.16620736278453

> <r_i_glide_evdw>
-43.9636878967285

> <r_i_glide_ecoul>
0.154535129666328

> <r_i_glide_erotb>
0.595193731994783

> <r_i_glide_esite>
0

> <r_i_glide_emodel>
-63.4796923946326

> <r_i_glide_energy>
-43.8091527670622

> <r_i_glide_einternal>
4.90293025970459

> <i_i_glide_confnum>
37

> <i_i_glide_posenum>
294

> <r_i_glide_eff_state_penalty>
0

> <s_user_duplicate_titles>
CHEMBL1966_lig167

> <i_f3d_flags>
0

> <s_m_subgroup_title>
dock_pv

> <s_m_subgroupid>
dock_pv

> <b_m_subgroup_collapsed>
1

$$$$
CHEMBL1966_lig300
                    3D
 Schrodinger Suite 2021-1.
 33 36  0  0  1  0            999 V2000
   54.7918   46.3205   -3.1919 O   0  0  0  0  0  0
   54.4558   47.5726   -1.3335 O   0  0  0  0  0  0
   48.8226   40.8099   -5.8613 O   0  0  0  0  0  0
   49.2226   43.0295   -6.0989 O   0  0  0  0  0  0
   50.4229   42.6545   -1.3014 N   0  0  0  0  0  0
   50.8268   43.4148   -2.3483 C   0  0  0  0  0  0
   51.7201   44.5678   -2.0526 C   0  0  0  0  0  0
   49.1606   41.2347   -2.8501 C   0  0  0  0  0  0
   49.5979   42.0678   -3.9392 C   0  0  0  0  0  0
   49.6280   41.5767   -1.5388 C   0  0  0  0  0  0
   53.6659   45.8973   -2.5605 C   0  0  0  0  0  0
   50.4601   43.1297   -3.6528 C   0  0  0  0  0  0
   53.4668   46.6468   -1.4385 C   0  0  0  0  0  0
   52.8230   44.8460   -2.8988 C   0  0  0  0  0  0
   51.5269   45.3638   -0.8999 C   0  0  0  0  0  0
   52.4033   46.4089   -0.5767 C   0  0  0  0  0  0
   49.1724   41.8812   -5.3731 C   0  0  0  0  0  0
   48.2467   40.1411   -2.9609 C   0  0  0  0  0  0
   49.2230   40.8100   -0.4205 C   0  0  0  0  0  0
   55.1632   47.5077   -2.5436 C   0  0  0  0  0  0
   47.8095   39.4556   -1.8300 C   0  0  0  0  0  0
   48.2964   39.7841   -0.5697 C   0  0  0  0  0  0
   49.0591   43.8140   -5.5666 H   0  0  0  0  0  0
   50.8368   43.7685   -4.4390 H   0  0  0  0  0  0
   53.0263   44.2396   -3.7685 H   0  0  0  0  0  0
   50.6956   45.1604   -0.2407 H   0  0  0  0  0  0
   52.2516   46.9973    0.3153 H   0  0  0  0  0  0
   47.8477   39.8459   -3.9173 H   0  0  0  0  0  0
   49.6006   41.0586    0.5611 H   0  0  0  0  0  0
   54.8871   48.3584   -3.1695 H   0  0  0  0  0  0
   56.2382   47.5228   -2.3592 H   0  0  0  0  0  0
   47.1043   38.6437   -1.9349 H   0  0  0  0  0  0
   47.9721   39.2231    0.2960 H   0  0  0  0  0  0
  1 11  1  0  0  0
  1 20  1  0  0  0
  2 13  1  0  0  0
  2 20  1  0  0  0
  3 17  2  0  0  0
  4 17  1  0  0  0
  4 23  1  0  0  0
  5  6  2  0  0  0
  5 10  1  0  0  0
  6  7  1  0  0  0
  6 12  1  0  0  0
  7 14  1  0  0  0
  7 15  2  0  0  0
  8  9  1  0  0  0
  8 10  1  0  0  0
  8 18  2  0  0  0
  9 12  2  0  0  0
  9 17  1  0  0  0
 10 19  2  0  0  0
 11 13  1  0  0  0
 11 14  2  0  0  0
 12 24  1  0  0  0
 13 16  2  0  0  0
 14 25  1  0  0  0
 15 16  1  0  0  0
 15 26  1  0  0  0
 16 27  1  0  0  0
 18 21  1  0  0  0
 18 28  1  0  0  0
 19 22  1  0  0  0
 19 29  1  0  0  0
 20 30  1  0  0  0
 20 31  1  0  0  0
 21 22  2  0  0  0
 21 32  1  0  0  0
 22 33  1  0  0  0
M  END
> <s_m_entry_id>
25686

> <s_m_entry_name>
dock_pv.338

> <s_m_Source_Path>
/home/csk/Desktop/cluster/DUD-E-result/pyrd

> <s_m_Source_File>
dock_pv.maegz

> <i_m_Source_File_Index>
338

> <chembl_id>
CHEMBL1571058

> <chembl_pref_name>
None

> <i_lp_mmshare_version>
53161

> <r_lp_tautomer_probability>
1

> <s_lp_Force_Field>
OPLS_2005

> <r_lp_Energy>
32.981804

> <b_lp_Chiralities_Consistent>
1

> <s_lp_Variant>
CHEMBL1966_lig300-1

> <s_i_glide_gridfile>
glide-grid_1d3g

> <i_i_glide_lignum>
346

> <i_i_glide_rotatable_bonds>
3

> <r_i_docking_score>
-9.13301422483175

> <r_i_glide_ligand_efficiency>
-0.415137010219625

> <r_i_glide_ligand_efficiency_sa>
-1.16323022904755

> <r_i_glide_ligand_efficiency_ln>
-2.23244181133699

> <r_i_glide_gscore>
-9.13301422483175

> <r_i_glide_lipo>
-4.35429365997206

> <r_i_glide_hbond>
-0.143892694670615

> <r_i_glide_metal>
0

> <r_i_glide_rewards>
-2.66824052021769

> <r_i_glide_evdw>
-29.3582992553711

> <r_i_glide_ecoul>
-6.15676927566528

> <r_i_glide_erotb>
0.424843004146958

> <r_i_glide_esite>
0

> <r_i_glide_emodel>
-53.9312134840571

> <r_i_glide_energy>
-35.5150685310364

> <r_i_glide_einternal>
4.20111274719238

> <i_i_glide_confnum>
7

> <i_i_glide_posenum>
90

> <r_i_glide_eff_state_penalty>
0

> <s_user_duplicate_titles>
CHEMBL1966_lig300

> <i_f3d_flags>
0

> <s_m_subgroup_title>
dock_pv

> <s_m_subgroupid>
dock_pv

> <b_m_subgroup_collapsed>
1

$$$$
CHEMBL1966_lig535
                    3D
 Schrodinger Suite 2021-1.
 42 45  0  0  1  0            999 V2000
   54.9104   46.2663    0.7010 C   0  0  0  0  0  0
   55.1992   47.0229   -0.5580 C   0  0  0  0  0  0
   56.2243   47.9166   -0.7999 C   0  0  0  0  0  0
   56.1021   48.3785   -2.0955 C   0  0  0  0  0  0
   55.0462   47.7030   -2.6754 C   0  0  0  0  0  0
   54.5719   47.7793   -4.0987 C   0  0  0  0  0  0
   54.4735   46.8627   -1.7264 N   0  0  0  0  0  0
   53.4389   45.9162   -1.9617 C   0  0  0  0  0  0
   52.2649   45.8497   -1.1864 C   0  0  0  0  0  0
   52.0564   46.7192   -0.1719 F   0  0  0  0  0  0
   51.2946   44.8679   -1.4503 C   0  0  0  0  0  0
   50.1832   44.7937   -0.6800 F   0  0  0  0  0  0
   51.4640   43.9859   -2.5251 C   0  0  0  0  0  0
   52.6237   44.0704   -3.2991 C   0  0  0  0  0  0
   52.8235   43.2086   -4.3234 F   0  0  0  0  0  0
   53.6200   44.9908   -2.9954 C   0  0  0  0  0  0
   54.7787   44.9489   -3.6971 F   0  0  0  0  0  0
   50.4798   42.9382   -2.9129 C   0  0  0  0  0  0
   50.0514   42.8151   -4.1425 N   0  0  0  0  0  0
   49.1612   41.7881   -4.1023 C   0  0  0  0  0  0
   48.3230   41.3536   -5.1316 C   0  0  0  0  0  0
   47.3558   40.4057   -4.8173 C   0  0  0  0  0  0
   47.2889   39.8276   -3.5495 C   0  0  0  0  0  0
   48.1445   40.1970   -2.4992 C   0  0  0  0  0  0
   47.9395   39.6091   -1.1240 C   0  0  0  0  0  0
   47.0451   38.8012   -0.8881 O   0  0  0  0  0  0
   48.8217   40.0123   -0.1669 O   0  0  0  0  0  0
   49.0678   41.2182   -2.8031 C   0  0  0  0  0  0
   49.9605   41.9791   -2.0711 N   0  0  0  0  0  0
   55.7874   46.3003    1.3454 H   0  0  0  0  0  0
   54.0853   46.6953    1.2693 H   0  0  0  0  0  0
   54.6898   45.2151    0.5248 H   0  0  0  0  0  0
   56.9986   48.1835   -0.0998 H   0  0  0  0  0  0
   56.7512   49.0911   -2.5840 H   0  0  0  0  0  0
   54.4384   48.8118   -4.4036 H   0  0  0  0  0  0
   55.2970   47.3285   -4.7763 H   0  0  0  0  0  0
   53.6232   47.2869   -4.2843 H   0  0  0  0  0  0
   48.3534   41.8276   -6.0989 H   0  0  0  0  0  0
   46.6152   40.1280   -5.5509 H   0  0  0  0  0  0
   46.5093   39.1008   -3.3657 H   0  0  0  0  0  0
   48.5926   39.5501    0.6460 H   0  0  0  0  0  0
   50.1758   41.9166   -1.0873 H   0  0  0  0  0  0
  1  2  1  0  0  0
  1 30  1  0  0  0
  1 31  1  0  0  0
  1 32  1  0  0  0
  2  3  2  0  0  0
  2  7  1  0  0  0
  3  4  1  0  0  0
  3 33  1  0  0  0
  4  5  2  0  0  0
  4 34  1  0  0  0
  5  6  1  0  0  0
  5  7  1  0  0  0
  6 35  1  0  0  0
  6 36  1  0  0  0
  6 37  1  0  0  0
  7  8  1  0  0  0
  8  9  2  0  0  0
  8 16  1  0  0  0
  9 10  1  0  0  0
  9 11  1  0  0  0
 11 12  1  0  0  0
 11 13  2  0  0  0
 13 14  1  0  0  0
 13 18  1  0  0  0
 14 15  1  0  0  0
 14 16  2  0  0  0
 16 17  1  0  0  0
 18 19  2  0  0  0
 18 29  1  0  0  0
 19 20  1  0  0  0
 20 21  2  0  0  0
 20 28  1  0  0  0
 21 22  1  0  0  0
 21 38  1  0  0  0
 22 23  2  0  0  0
 22 39  1  0  0  0
 23 24  1  0  0  0
 23 40  1  0  0  0
 24 25  1  0  0  0
 24 28  2  0  0  0
 25 26  2  0  0  0
 25 27  1  0  0  0
 27 41  1  0  0  0
 28 29  1  0  0  0
 29 42  1  0  0  0
M  END
> <s_m_entry_id>
25687

> <s_m_entry_name>
dock_pv.339

> <s_m_Source_Path>
/home/csk/Desktop/cluster/DUD-E-result/pyrd

> <s_m_Source_File>
dock_pv.maegz

> <i_m_Source_File_Index>
339

> <chembl_id>
CHEMBL3677795

> <chembl_pref_name>
None

> <i_lp_mmshare_version>
53161

> <r_lp_tautomer_probability>
1

> <s_lp_Force_Field>
OPLS_2005

> <r_lp_Energy>
19.904345

> <b_lp_Chiralities_Consistent>
1

> <s_lp_Variant>
CHEMBL1966_lig535-1

> <s_i_glide_gridfile>
glide-grid_1d3g

> <i_i_glide_lignum>
589

> <i_i_glide_rotatable_bonds>
4

> <r_i_docking_score>
-9.13103883995949

> <r_i_glide_ligand_efficiency>
-0.314863408274465

> <r_i_glide_ligand_efficiency_sa>
-0.967360145948636

> <r_i_glide_ligand_efficiency_ln>
-2.09077635118383

> <r_i_glide_gscore>
-9.13103883995949

> <r_i_glide_lipo>
-4.76368492467182

> <r_i_glide_hbond>
0

> <r_i_glide_metal>
0

> <r_i_glide_rewards>
-2.6674487969697

> <r_i_glide_evdw>
-38.1251258850098

> <r_i_glide_ecoul>
-0.912592887878418

> <r_i_glide_erotb>
0.362054972154649

> <r_i_glide_esite>
-0.018814863040372

> <r_i_glide_emodel>
-50.2051285590711

> <r_i_glide_energy>
-39.0377187728882

> <r_i_glide_einternal>
3.72664856910706

> <i_i_glide_confnum>
13

> <i_i_glide_posenum>
233

> <r_i_glide_eff_state_penalty>
0

> <s_user_duplicate_titles>
CHEMBL1966_lig535

> <i_f3d_flags>
0

> <s_m_subgroup_title>
dock_pv

> <s_m_subgroupid>
dock_pv

> <b_m_subgroup_collapsed>
1

$$$$
CHEMBL1966_lig119
                    3D
 Schrodinger Suite 2021-1.
 39 41  0  0  1  0            999 V2000
   46.2673   39.2091   -0.7003 C   0  0  0  0  0  0
   47.2212   38.0665   -0.9090 C   0  0  0  0  0  0
   47.6377   39.4666   -1.2976 C   0  0  0  0  0  0
   47.7027   39.8333   -2.7940 C   0  0  0  0  0  0
   46.7386   39.6099   -3.5305 O   0  0  0  0  0  0
   49.0103   40.4223   -3.3658 C   0  0  1  0  0  0
   48.8591   40.6383   -4.8168 C   0  0  0  0  0  0
   48.7438   40.8126   -5.9540 N   0  0  0  0  0  0
   49.6614   41.6019   -2.6047 C   0  0  0  0  0  0
   49.7636   41.5776   -1.3789 O   0  0  0  0  0  0
   50.1952   42.5879   -3.3527 N   0  0  0  0  0  0
   51.0356   43.6092   -2.8945 C   0  0  0  0  0  0
   52.1408   43.8907   -3.6943 C   0  0  0  0  0  0
   53.0597   44.8468   -3.2771 C   0  0  0  0  0  0
   50.8231   44.3151   -1.6986 C   0  0  0  0  0  0
   51.7419   45.2846   -1.2991 C   0  0  0  0  0  0
   52.8771   45.5489   -2.0799 C   0  0  0  0  0  0
   53.9363   46.4857   -1.6209 C   0  0  0  0  0  0
   54.5204   47.3933   -2.5142 C   0  0  0  0  0  0
   55.5811   48.1994   -2.1113 C   0  0  0  0  0  0
   56.0672   48.0946   -0.8115 C   0  0  0  0  0  0
   55.4875   47.2095    0.0941 C   0  0  0  0  0  0
   54.4163   46.4175   -0.3070 C   0  0  0  0  0  0
   45.3724   39.2558   -1.3243 H   0  0  0  0  0  0
   46.0743   39.5829    0.3009 H   0  0  0  0  0  0
   47.7015   37.6102   -0.0433 H   0  0  0  0  0  0
   47.0320   37.3412   -1.6948 H   0  0  0  0  0  0
   48.4262   39.8888   -0.6830 H   0  0  0  0  0  0
   49.7344   39.6111   -3.2981 H   0  0  0  0  0  0
   50.1437   42.4927   -4.3560 H   0  0  0  0  0  0
   52.3208   43.3398   -4.6060 H   0  0  0  0  0  0
   53.9421   45.0334   -3.8677 H   0  0  0  0  0  0
   49.9613   44.1168   -1.0789 H   0  0  0  0  0  0
   51.5818   45.8134   -0.3704 H   0  0  0  0  0  0
   54.1605   47.4647   -3.5308 H   0  0  0  0  0  0
   56.0330   48.8919   -2.8068 H   0  0  0  0  0  0
   56.9022   48.7067   -0.5002 H   0  0  0  0  0  0
   55.8693   47.1354    1.1021 H   0  0  0  0  0  0
   53.9911   45.7178    0.3976 H   0  0  0  0  0  0
  1  2  1  0  0  0
  1 24  1  0  0  0
  1 25  1  0  0  0
  1  3  1  0  0  0
  2 26  1  0  0  0
  2 27  1  0  0  0
  2  3  1  0  0  0
  3  4  1  0  0  0
  3 28  1  0  0  0
  4  6  1  0  0  0
  4  5  2  0  0  0
  6  7  1  0  0  0
  6  9  1  0  0  0
  6 29  1  0  0  0
  7  8  3  0  0  0
  9 10  2  0  0  0
  9 11  1  0  0  0
 11 12  1  0  0  0
 11 30  1  0  0  0
 12 13  2  0  0  0
 12 15  1  0  0  0
 13 14  1  0  0  0
 13 31  1  0  0  0
 14 17  2  0  0  0
 14 32  1  0  0  0
 15 16  2  0  0  0
 15 33  1  0  0  0
 16 17  1  0  0  0
 16 34  1  0  0  0
 17 18  1  0  0  0
 18 19  2  0  0  0
 18 23  1  0  0  0
 19 20  1  0  0  0
 19 35  1  0  0  0
 20 21  2  0  0  0
 20 36  1  0  0  0
 21 22  1  0  0  0
 21 37  1  0  0  0
 22 23  2  0  0  0
 22 38  1  0  0  0
 23 39  1  0  0  0
M  END
> <s_m_entry_id>
25688

> <s_m_entry_name>
dock_pv.340

> <s_m_Source_Path>
/home/csk/Desktop/cluster/DUD-E-result/pyrd

> <s_m_Source_File>
dock_pv.maegz

> <i_m_Source_File_Index>
340

> <chembl_id>
CHEMBL142996

> <chembl_pref_name>
None

> <i_lp_mmshare_version>
53161

> <r_lp_tautomer_probability>
0.995394627300976

> <s_lp_Force_Field>
OPLS_2005

> <r_lp_Energy>
29.683526

> <b_lp_Chiralities_Consistent>
1

> <s_lp_Variant>
CHEMBL1966_lig119-2

> <s_i_glide_gridfile>
glide-grid_1d3g

> <i_i_glide_lignum>
140

> <i_i_glide_rotatable_bonds>
6

> <r_i_docking_score>
-9.12864330559199

> <r_i_glide_ligand_efficiency>
-0.396897535025738

> <r_i_glide_ligand_efficiency_sa>
-1.12872379306448

> <r_i_glide_ligand_efficiency_ln>
-2.20738872525324

> <r_i_glide_gscore>
-9.12864330559199

> <r_i_glide_lipo>
-4.67782761514422

> <r_i_glide_hbond>
-0.16

> <r_i_glide_metal>
0

> <r_i_glide_rewards>
-2.56495091833083

> <r_i_glide_evdw>
-40.1130790710449

> <r_i_glide_ecoul>
-4.77114152908325

> <r_i_glide_erotb>
0.995460410797792

> <r_i_glide_esite>
0

> <r_i_glide_emodel>
-61.6114500115387

> <r_i_glide_energy>
-44.8842206001282

> <r_i_glide_einternal>
13.6221532821655

> <i_i_glide_confnum>
30

> <i_i_glide_posenum>
341

> <r_i_glide_eff_state_penalty>
0

> <s_user_duplicate_titles>
CHEMBL1966_lig119,235768

> <i_f3d_flags>
0

> <s_m_subgroup_title>
dock_pv

> <s_m_subgroupid>
dock_pv

> <b_m_subgroup_collapsed>
1

$$$$
CHEMBL1966_lig761
                    3D
 Schrodinger Suite 2021-1.
 44 47  0  0  1  0            999 V2000
   53.5691   44.8666   -3.2991 N   0  0  0  0  0  0
   53.4278   46.3504   -0.9006 C   0  0  0  0  0  0
   52.4565   44.8121   -2.5201 C   0  0  0  0  0  0
   52.3194   45.6099   -1.3679 C   0  0  0  0  0  0
   54.5425   46.5211   -1.7871 C   0  0  0  0  0  0
   54.5755   45.7287   -2.9739 C   0  0  0  0  0  0
   53.5608   46.7924    0.5488 C   0  0  0  0  0  0
   51.4442   43.7622   -2.8977 C   0  0  0  0  0  0
   55.6062   47.4520   -1.5697 C   0  0  0  0  0  0
   49.5237   41.7542   -3.4813 C   0  0  0  0  0  0
   54.6536   46.8437    1.1005 O   0  0  0  0  0  0
   55.7002   45.8290   -3.8341 C   0  0  0  0  0  0
   50.9787   43.5791   -4.2035 C   0  0  0  0  0  0
   50.9133   42.9429   -1.8999 C   0  0  0  0  0  0
   49.9969   41.9570   -2.1818 C   0  0  0  0  0  0
   50.0250   42.5953   -4.4909 C   0  0  0  0  0  0
   48.4228   40.7597   -3.7137 C   0  0  0  0  0  0
   56.6530   47.5693   -2.4708 C   0  0  0  0  0  0
   52.4226   47.1308    1.2113 O   0  0  0  0  0  0
   50.9661   45.7069   -0.6796 C   0  0  0  0  0  0
   56.7138   46.7472   -3.5844 C   0  0  0  0  0  0
   57.6226   48.5085   -2.2617 O   0  0  0  0  0  0
   47.6182   40.8127   -4.8651 C   0  0  0  0  0  0
   48.0468   39.8587   -2.6992 C   0  0  0  0  0  0
   46.3940   40.1554   -4.8988 C   0  0  0  0  0  0
   46.8595   39.1473   -2.7601 C   0  0  0  0  0  0
   46.0236   39.3316   -3.8467 C   0  0  0  0  0  0
   55.5861   48.1123   -0.7174 H   0  0  0  0  0  0
   55.7678   45.2092   -4.7137 H   0  0  0  0  0  0
   51.3307   44.2184   -4.9957 H   0  0  0  0  0  0
   51.2237   43.0540   -0.8734 H   0  0  0  0  0  0
   49.6382   41.3969   -1.3354 H   0  0  0  0  0  0
   49.6849   42.5113   -5.5107 H   0  0  0  0  0  0
   52.6293   47.3777    2.1149 H   0  0  0  0  0  0
   50.8170   46.7671   -0.4962 H   0  0  0  0  0  0
   50.1274   45.4099   -1.3078 H   0  0  0  0  0  0
   50.9393   45.1603    0.2605 H   0  0  0  0  0  0
   57.5457   46.8324   -4.2679 H   0  0  0  0  0  0
   57.5433   48.9550   -1.4149 H   0  0  0  0  0  0
   47.8431   41.4879   -5.6746 H   0  0  0  0  0  0
   48.6378   39.7203   -1.8110 H   0  0  0  0  0  0
   45.7315   40.2747   -5.7432 H   0  0  0  0  0  0
   46.5792   38.4812   -1.9576 H   0  0  0  0  0  0
   45.0912   38.7956   -3.9037 H   0  0  0  0  0  0
  1  3  2  0  0  0
  1  6  1  0  0  0
  2  5  1  0  0  0
  2  7  1  0  0  0
  2  4  2  0  0  0
  3  4  1  0  0  0
  3  8  1  0  0  0
  4 20  1  0  0  0
  5  6  1  0  0  0
  5  9  2  0  0  0
  6 12  2  0  0  0
  7 11  2  0  0  0
  7 19  1  0  0  0
  8 13  2  0  0  0
  8 14  1  0  0  0
  9 18  1  0  0  0
  9 28  1  0  0  0
 10 15  1  0  0  0
 10 17  1  0  0  0
 10 16  2  0  0  0
 12 21  1  0  0  0
 12 29  1  0  0  0
 13 16  1  0  0  0
 13 30  1  0  0  0
 14 15  2  0  0  0
 14 31  1  0  0  0
 15 32  1  0  0  0
 16 33  1  0  0  0
 17 23  1  0  0  0
 17 24  2  0  0  0
 18 21  2  0  0  0
 18 22  1  0  0  0
 19 34  1  0  0  0
 20 35  1  0  0  0
 20 36  1  0  0  0
 20 37  1  0  0  0
 21 38  1  0  0  0
 22 39  1  0  0  0
 23 25  2  0  0  0
 23 40  1  0  0  0
 24 26  1  0  0  0
 24 41  1  0  0  0
 25 27  1  0  0  0
 25 42  1  0  0  0
 26 27  2  0  0  0
 26 43  1  0  0  0
 27 44  1  0  0  0
M  END
> <s_m_entry_id>
25689

> <s_m_entry_name>
dock_pv.341

> <s_m_Source_Path>
/home/csk/Desktop/cluster/DUD-E-result/pyrd

> <s_m_Source_File>
dock_pv.maegz

> <i_m_Source_File_Index>
341

> <chembl_id>
CHEMBL418062

> <chembl_pref_name>
None

> <i_lp_mmshare_version>
53161

> <r_lp_tautomer_probability>
1

> <s_lp_Force_Field>
OPLS_2005

> <r_lp_Energy>
31.732321

> <b_lp_Chiralities_Consistent>
1

> <s_lp_Variant>
CHEMBL1966_lig761-1

> <s_i_glide_gridfile>
glide-grid_1d3g

> <i_i_glide_lignum>
832

> <i_i_glide_rotatable_bonds>
5

> <r_i_docking_score>
-9.12776408191193

> <r_i_glide_ligand_efficiency>
-0.338065336367108

> <r_i_glide_ligand_efficiency_sa>
-1.01419600798712

> <r_i_glide_ligand_efficiency_ln>
-2.12479299531732

> <r_i_glide_gscore>
-9.12776408191193

> <r_i_glide_lipo>
-5.78530967201519

> <r_i_glide_hbond>
0

> <r_i_glide_metal>
0

> <r_i_glide_rewards>
-1.95374518881764

> <r_i_glide_evdw>
-36.7776679992676

> <r_i_glide_ecoul>
-0.0265617612749338

> <r_i_glide_erotb>
0.454158443075532

> <r_i_glide_esite>
0

> <r_i_glide_emodel>
-55.5838186294184

> <r_i_glide_energy>
-36.8042297605425

> <r_i_glide_einternal>
3.48647451400757

> <i_i_glide_confnum>
61

> <i_i_glide_posenum>
101

> <r_i_glide_eff_state_penalty>
0

> <s_user_duplicate_titles>
CHEMBL1966_lig761

> <i_f3d_flags>
0

> <s_m_subgroup_title>
dock_pv

> <s_m_subgroupid>
dock_pv

> <b_m_subgroup_collapsed>
1

$$$$
CHEMBL1966_lig11
                    3D
 Schrodinger Suite 2021-1.
 44 46  0  0  1  0            999 V2000
   48.8230   40.8592   -2.6448 C   0  0  0  0  0  0
   49.7100   41.9075   -3.1450 C   0  0  0  0  0  0
   47.8621   40.1963   -3.3593 C   0  0  0  0  0  0
   50.1619   42.7237   -2.1729 N   0  0  0  0  0  0
   58.2105   49.6258   -3.1332 C   0  0  0  0  0  0
   47.5118   40.4100   -4.7575 C   0  0  0  0  0  0
   51.0965   43.7695   -2.2528 C   0  0  0  0  0  0
   51.1403   44.6628   -1.1748 C   0  0  0  0  0  0
   53.0694   45.7803   -2.1395 C   0  0  0  0  0  0
   52.1092   45.6665   -1.1269 C   0  0  0  0  0  0
   50.0222   42.0330   -4.3256 O   0  0  0  0  0  0
   54.1594   46.7887   -2.0803 C   0  0  0  0  0  0
   57.3950   49.4408   -1.9742 O   0  0  0  0  0  0
   48.3011   40.4100   -5.6990 O   0  0  0  0  0  0
   52.0230   43.9119   -3.2990 C   0  0  0  0  0  0
   53.0030   44.8978   -3.2239 C   0  0  0  0  0  0
   54.9020   46.9860   -0.9101 C   0  0  0  0  0  0
   54.4897   47.5213   -3.2238 C   0  0  0  0  0  0
   57.6237   50.4106   -4.0354 F   0  0  0  0  0  0
   59.3370   50.2203   -2.7436 F   0  0  0  0  0  0
   58.5420   48.4641   -3.6991 F   0  0  0  0  0  0
   56.3162   48.5846   -2.0501 C   0  0  0  0  0  0
   50.2769   44.5243   -0.1408 F   0  0  0  0  0  0
   46.1668   40.5579   -4.9287 O   0  0  0  0  0  0
   48.8230   40.4100   -1.1811 C   0  0  0  0  0  0
   47.1285   39.1810   -2.4931 C   0  0  0  0  0  0
   55.5559   48.4100   -3.2108 C   0  0  0  0  0  0
   55.9738   47.8774   -0.8990 C   0  0  0  0  0  0
   47.6847   39.3921   -1.0880 C   0  0  0  0  0  0
   49.7497   42.6038   -1.2609 H   0  0  0  0  0  0
   52.1314   46.3349   -0.2787 H   0  0  0  0  0  0
   52.0521   43.2363   -4.1393 H   0  0  0  0  0  0
   53.7320   44.9716   -4.0134 H   0  0  0  0  0  0
   54.6707   46.4273   -0.0146 H   0  0  0  0  0  0
   53.9269   47.3948   -4.1373 H   0  0  0  0  0  0
   45.6953   40.6050   -4.0953 H   0  0  0  0  0  0
   48.7112   41.2094   -0.4517 H   0  0  0  0  0  0
   49.7901   40.0100   -0.9168 H   0  0  0  0  0  0
   47.3373   38.1720   -2.8528 H   0  0  0  0  0  0
   46.0456   39.3131   -2.5047 H   0  0  0  0  0  0
   55.7775   48.9589   -4.1103 H   0  0  0  0  0  0
   56.5590   48.0098   -0.0014 H   0  0  0  0  0  0
   46.9032   39.7592   -0.4210 H   0  0  0  0  0  0
   48.0230   38.4513   -0.6508 H   0  0  0  0  0  0
  1  2  1  0  0  0
  1  3  2  0  0  0
  1 25  1  0  0  0
  2  4  1  0  0  0
  2 11  2  0  0  0
  3  6  1  0  0  0
  3 26  1  0  0  0
  4  7  1  0  0  0
  4 30  1  0  0  0
  5 13  1  0  0  0
  5 19  1  0  0  0
  5 20  1  0  0  0
  5 21  1  0  0  0
  6 14  2  0  0  0
  6 24  1  0  0  0
  7  8  1  0  0  0
  7 15  2  0  0  0
  8 10  2  0  0  0
  8 23  1  0  0  0
  9 16  2  0  0  0
  9 12  1  0  0  0
  9 10  1  0  0  0
 10 31  1  0  0  0
 12 17  1  0  0  0
 12 18  2  0  0  0
 13 22  1  0  0  0
 15 16  1  0  0  0
 15 32  1  0  0  0
 16 33  1  0  0  0
 17 28  2  0  0  0
 17 34  1  0  0  0
 18 27  1  0  0  0
 18 35  1  0  0  0
 22 27  2  0  0  0
 22 28  1  0  0  0
 24 36  1  0  0  0
 25 29  1  0  0  0
 25 37  1  0  0  0
 25 38  1  0  0  0
 26 29  1  0  0  0
 26 39  1  0  0  0
 26 40  1  0  0  0
 27 41  1  0  0  0
 28 42  1  0  0  0
 29 43  1  0  0  0
 29 44  1  0  0  0
M  END
> <s_m_entry_id>
25690

> <s_m_entry_name>
dock_pv.342

> <s_m_Source_Path>
/home/csk/Desktop/cluster/DUD-E-result/pyrd

> <s_m_Source_File>
dock_pv.maegz

> <i_m_Source_File_Index>
342

> <chembl_id>
CHEMBL154214

> <chembl_pref_name>
None

> <i_lp_mmshare_version>
53161

> <r_lp_tautomer_probability>
1

> <s_lp_Force_Field>
OPLS_2005

> <r_lp_Energy>
42.637171

> <b_lp_Chiralities_Consistent>
1

> <s_lp_Variant>
CHEMBL1966_lig11-1

> <s_i_glide_gridfile>
glide-grid_1d3g

> <i_i_glide_lignum>
14

> <i_i_glide_rotatable_bonds>
8

> <r_i_docking_score>
-9.11637722081176

> <r_i_glide_ligand_efficiency>
-0.314357835200405

> <r_i_glide_ligand_efficiency_sa>
-0.965806865288332

> <r_i_glide_ligand_efficiency_ln>
-2.08741921218559

> <r_i_glide_gscore>
-9.11637722081176

> <r_i_glide_lipo>
-5.06085095434515

> <r_i_glide_hbond>
-0.121417227182298

> <r_i_glide_metal>
0

> <r_i_glide_rewards>
-2.17490611952969

> <r_i_glide_evdw>
-43.2955284118652

> <r_i_glide_ecoul>
-1.99675512313843

> <r_i_glide_erotb>
0.705086769309411

> <r_i_glide_esite>
0

> <r_i_glide_emodel>
-66.2821536670669

> <r_i_glide_energy>
-45.2922835350037

> <r_i_glide_einternal>
4.247802734375

> <i_i_glide_confnum>
10

> <i_i_glide_posenum>
38

> <r_i_glide_eff_state_penalty>
0

> <s_user_duplicate_titles>
CHEMBL1966_lig11

> <i_f3d_flags>
0

> <s_m_subgroup_title>
dock_pv

> <s_m_subgroupid>
dock_pv

> <b_m_subgroup_collapsed>
1

$$$$
CHEMBL1966_lig305
                    3D
 Schrodinger Suite 2021-1.
 39 41  0  0  1  0            999 V2000
   46.4267   38.9319   -2.4817 C   0  0  0  0  0  0
   47.3606   39.1527   -1.4861 C   0  0  0  0  0  0
   48.4230   40.0100   -1.7323 C   0  0  0  0  0  0
   48.6267   40.6302   -2.9778 C   0  0  0  0  0  0
   47.6426   40.4100   -3.9861 C   0  0  0  0  0  0
   46.5387   39.5936   -3.6990 C   0  0  0  0  0  0
   47.6852   41.0312   -5.3589 C   0  0  0  0  0  0
   46.5225   41.6531   -5.6990 O   0  0  0  0  0  0
   48.6665   40.9834   -6.0984 O   0  0  0  0  0  0
   49.8423   41.4803   -3.0765 C   0  0  0  0  0  0
   50.0022   42.4493   -3.8868 N   0  0  0  0  0  0
   51.2218   43.1696   -3.8876 N   0  0  0  0  0  0
   51.7053   44.0100   -2.8990 C   0  0  0  0  0  0
   52.7787   44.7596   -3.0547 N   0  0  0  0  0  0
   52.9854   45.6100   -2.0542 C   0  0  0  0  0  0
   52.0230   45.5882   -1.0249 C   0  0  0  0  0  0
   50.8230   44.3735   -1.4375 S   0  0  0  0  0  0
   51.9285   46.3834    0.2621 C   0  0  0  0  0  0
   54.1943   46.4913   -2.0823 C   0  0  0  0  0  0
   55.0201   46.5862   -0.9554 C   0  0  0  0  0  0
   56.1148   47.4459   -0.9548 C   0  0  0  0  0  0
   56.3977   48.2001   -2.0897 C   0  0  0  0  0  0
   55.5984   48.0966   -3.2257 C   0  0  0  0  0  0
   54.5000   47.2394   -3.2244 C   0  0  0  0  0  0
   45.6230   38.2439   -2.2982 H   0  0  0  0  0  0
   47.2659   38.6639   -0.5268 H   0  0  0  0  0  0
   49.1247   40.1655   -0.9241 H   0  0  0  0  0  0
   45.7743   39.4154   -4.4437 H   0  0  0  0  0  0
   46.6400   42.3473   -6.3591 H   0  0  0  0  0  0
   50.6350   41.2100   -2.3828 H   0  0  0  0  0  0
   51.3645   43.5687   -4.8043 H   0  0  0  0  0  0
   51.2230   47.2066    0.1679 H   0  0  0  0  0  0
   51.5968   45.7652    1.0968 H   0  0  0  0  0  0
   52.8675   46.8349    0.5716 H   0  0  0  0  0  0
   54.8174   45.9934   -0.0757 H   0  0  0  0  0  0
   56.7439   47.5281   -0.0801 H   0  0  0  0  0  0
   57.2471   48.8680   -2.0888 H   0  0  0  0  0  0
   55.8268   48.6876   -4.0991 H   0  0  0  0  0  0
   53.8748   47.1725   -4.1031 H   0  0  0  0  0  0
  1  2  2  0  0  0
  1  6  1  0  0  0
  1 25  1  0  0  0
  2  3  1  0  0  0
  2 26  1  0  0  0
  3  4  2  0  0  0
  3 27  1  0  0  0
  4  5  1  0  0  0
  4 10  1  0  0  0
  5  6  2  0  0  0
  5  7  1  0  0  0
  6 28  1  0  0  0
  7  8  1  0  0  0
  7  9  2  0  0  0
  8 29  1  0  0  0
 10 11  2  0  0  0
 10 30  1  0  0  0
 11 12  1  0  0  0
 12 13  1  0  0  0
 12 31  1  0  0  0
 13 14  2  0  0  0
 13 17  1  0  0  0
 14 15  1  0  0  0
 15 16  2  0  0  0
 15 19  1  0  0  0
 16 17  1  0  0  0
 16 18  1  0  0  0
 18 32  1  0  0  0
 18 33  1  0  0  0
 18 34  1  0  0  0
 19 20  2  0  0  0
 19 24  1  0  0  0
 20 21  1  0  0  0
 20 35  1  0  0  0
 21 22  2  0  0  0
 21 36  1  0  0  0
 22 23  1  0  0  0
 22 37  1  0  0  0
 23 24  2  0  0  0
 23 38  1  0  0  0
 24 39  1  0  0  0
M  END
> <s_m_entry_id>
25691

> <s_m_entry_name>
dock_pv.343

> <s_m_Source_Path>
/home/csk/Desktop/cluster/DUD-E-result/pyrd

> <s_m_Source_File>
dock_pv.maegz

> <i_m_Source_File_Index>
343

> <chembl_id>
CHEMBL3968151

> <chembl_pref_name>
None

> <i_lp_mmshare_version>
53161

> <r_lp_tautomer_probability>
1

> <s_lp_Force_Field>
OPLS_2005

> <r_lp_Energy>
23.913289

> <b_lp_Chiralities_Consistent>
1

> <s_lp_Variant>
CHEMBL1966_lig305-1

> <s_i_glide_gridfile>
glide-grid_1d3g

> <i_i_glide_lignum>
352

> <i_i_glide_rotatable_bonds>
6

> <r_i_docking_score>
-9.11530022742585

> <r_i_glide_ligand_efficiency>
-0.379804176142744

> <r_i_glide_ligand_efficiency_sa>
-1.0955448185251

> <r_i_glide_ligand_efficiency_ln>
-2.18170961829535

> <r_i_glide_gscore>
-9.11530022742585

> <r_i_glide_lipo>
-5.00287049560534

> <r_i_glide_hbond>
-0.16

> <r_i_glide_metal>
0

> <r_i_glide_rewards>
-1.71315211550206

> <r_i_glide_evdw>
-44.282585144043

> <r_i_glide_ecoul>
-5.70152282714844

> <r_i_glide_erotb>
0.830080064955966

> <r_i_glide_esite>
0

> <r_i_glide_emodel>
-64.3484420043796

> <r_i_glide_energy>
-49.9841079711914

> <r_i_glide_einternal>
14.0028610229492

> <i_i_glide_confnum>
155

> <i_i_glide_posenum>
373

> <r_i_glide_eff_state_penalty>
0

> <s_user_duplicate_titles>
CHEMBL1966_lig305

> <i_f3d_flags>
0

> <s_m_subgroup_title>
dock_pv

> <s_m_subgroupid>
dock_pv

> <b_m_subgroup_collapsed>
1

$$$$
CHEMBL1966_lig478
                    3D
 Schrodinger Suite 2021-1.
 42 45  0  0  1  0            999 V2000
   47.1058   38.6859   -0.4990 O   0  0  0  0  0  0
   48.0230   39.6100   -0.8918 C   0  0  0  0  0  0
   48.8230   40.0905   -0.0990 O   0  0  0  0  0  0
   48.0225   40.0100   -2.3473 C   0  0  0  0  0  0
   47.0018   39.5676   -3.2013 C   0  0  0  0  0  0
   46.8934   40.0100   -4.5178 C   0  0  0  0  0  0
   47.8270   40.8673   -5.0996 C   0  0  0  0  0  0
   48.8230   41.3514   -4.2551 C   0  0  0  0  0  0
   49.7723   42.3327   -4.3972 N   0  0  0  0  0  0
   50.3356   42.5170   -3.1594 C   0  0  0  0  0  0
   49.9151   41.6574   -2.2729 N   0  0  0  0  0  0
   48.9290   40.9432   -2.8990 C   0  0  0  0  0  0
   51.2521   43.6245   -2.8286 C   0  0  0  0  0  0
   52.3237   43.9263   -3.6675 C   0  0  0  0  0  0
   53.2241   44.9225   -3.2990 C   0  0  0  0  0  0
   53.0733   45.6225   -2.1000 C   0  0  0  0  0  0
   51.9564   45.3648   -1.2990 C   0  0  0  0  0  0
   51.0532   44.3670   -1.6578 C   0  0  0  0  0  0
   54.1381   46.5629   -1.6685 C   0  0  0  0  0  0
   54.6632   46.4871   -0.3732 C   0  0  0  0  0  0
   55.7356   47.2898    0.0050 C   0  0  0  0  0  0
   56.2821   48.2000   -0.8990 C   0  0  0  0  0  0
   55.7616   48.3028   -2.1930 C   0  0  0  0  0  0
   56.2355   49.2100   -3.1115 O   0  0  0  0  0  0
   57.6211   49.1543   -3.4447 C   0  0  0  0  0  0
   57.8080   49.9459   -4.4990 F   0  0  0  0  0  0
   58.3937   49.6100   -2.4584 F   0  0  0  0  0  0
   57.9931   47.9225   -3.7979 F   0  0  0  0  0  0
   54.6923   47.4869   -2.5648 C   0  0  0  0  0  0
   47.2229   38.5447    0.4498 H   0  0  0  0  0  0
   46.2414   38.8916   -2.8348 H   0  0  0  0  0  0
   46.0577   39.6610   -5.1078 H   0  0  0  0  0  0
   47.7109   41.2374   -6.1040 H   0  0  0  0  0  0
   49.9581   42.9310   -5.1885 H   0  0  0  0  0  0
   52.4876   43.3518   -4.5662 H   0  0  0  0  0  0
   54.0838   45.1232   -3.9193 H   0  0  0  0  0  0
   51.8090   45.9047   -0.3747 H   0  0  0  0  0  0
   50.2139   44.1529   -1.0111 H   0  0  0  0  0  0
   54.2657   45.7761    0.3370 H   0  0  0  0  0  0
   56.1422   47.2100    1.0031 H   0  0  0  0  0  0
   57.1015   48.8273   -0.5799 H   0  0  0  0  0  0
   54.2968   47.5704   -3.5670 H   0  0  0  0  0  0
  1  2  1  0  0  0
  1 30  1  0  0  0
  2  3  2  0  0  0
  2  4  1  0  0  0
  4  5  2  0  0  0
  4 12  1  0  0  0
  5  6  1  0  0  0
  5 31  1  0  0  0
  6  7  2  0  0  0
  6 32  1  0  0  0
  7  8  1  0  0  0
  7 33  1  0  0  0
  8  9  1  0  0  0
  8 12  2  0  0  0
  9 10  1  0  0  0
  9 34  1  0  0  0
 10 11  2  0  0  0
 10 13  1  0  0  0
 11 12  1  0  0  0
 13 14  2  0  0  0
 13 18  1  0  0  0
 14 15  1  0  0  0
 14 35  1  0  0  0
 15 16  2  0  0  0
 15 36  1  0  0  0
 16 17  1  0  0  0
 16 19  1  0  0  0
 17 18  2  0  0  0
 17 37  1  0  0  0
 18 38  1  0  0  0
 19 20  2  0  0  0
 19 29  1  0  0  0
 20 21  1  0  0  0
 20 39  1  0  0  0
 21 22  2  0  0  0
 21 40  1  0  0  0
 22 23  1  0  0  0
 22 41  1  0  0  0
 23 24  1  0  0  0
 23 29  2  0  0  0
 24 25  1  0  0  0
 25 26  1  0  0  0
 25 27  1  0  0  0
 25 28  1  0  0  0
 29 42  1  0  0  0
M  END
> <s_m_entry_id>
25692

> <s_m_entry_name>
dock_pv.344

> <s_m_Source_Path>
/home/csk/Desktop/cluster/DUD-E-result/pyrd

> <s_m_Source_File>
dock_pv.maegz

> <i_m_Source_File_Index>
344

> <chembl_id>
CHEMBL3677735

> <chembl_pref_name>
None

> <i_lp_mmshare_version>
53161

> <r_lp_tautomer_probability>
1

> <s_lp_Force_Field>
OPLS_2005

> <r_lp_Energy>
24.900635

> <b_lp_Chiralities_Consistent>
1

> <s_lp_Variant>
CHEMBL1966_lig478-1

> <s_i_glide_gridfile>
glide-grid_1d3g

> <i_i_glide_lignum>
528

> <i_i_glide_rotatable_bonds>
6

> <r_i_docking_score>
-9.11434312783433

> <r_i_glide_ligand_efficiency>
-0.314287694063253

> <r_i_glide_ligand_efficiency_sa>
-0.965591369492727

> <r_i_glide_ligand_efficiency_ln>
-2.0869534564739

> <r_i_glide_gscore>
-9.11434312783433

> <r_i_glide_lipo>
-5.2218964137591

> <r_i_glide_hbond>
0

> <r_i_glide_metal>
0

> <r_i_glide_rewards>
-1.38944585255034

> <r_i_glide_evdw>
-46.370174407959

> <r_i_glide_ecoul>
-4.52123260498047

> <r_i_glide_erotb>
0.493692749620126

> <r_i_glide_esite>
0

> <r_i_glide_emodel>
-64.6934722767641

> <r_i_glide_energy>
-50.8914070129395

> <r_i_glide_einternal>
7.42921447753906

> <i_i_glide_confnum>
7

> <i_i_glide_posenum>
72

> <r_i_glide_eff_state_penalty>
0

> <s_user_duplicate_titles>
CHEMBL1966_lig478

> <i_f3d_flags>
0

> <s_m_subgroup_title>
dock_pv

> <s_m_subgroupid>
dock_pv

> <b_m_subgroup_collapsed>
1

$$$$
CHEMBL1966_lig117
                    3D
 Schrodinger Suite 2021-1.
 38 39  0  0  1  0            999 V2000
   51.0024   44.4097   -1.6679 C   0  0  0  0  0  0
   51.1256   43.6252   -2.8259 C   0  0  0  0  0  0
   52.2417   43.8501   -3.6384 C   0  0  0  0  0  0
   53.1953   44.8099   -3.2990 C   0  0  0  0  0  0
   53.0773   45.5837   -2.1452 C   0  0  0  0  0  0
   51.9797   45.3564   -1.2934 C   0  0  0  0  0  0
   50.1251   42.5850   -3.2170 C   0  0  0  0  0  0
   54.1151   46.4521   -1.7637 N   0  0  0  0  0  0
   55.0400   47.0647   -2.5373 C   0  0  0  0  0  0
   56.3171   47.5419   -1.8233 C   0  0  2  0  0  0
   54.9300   47.2100   -3.7556 O   0  0  0  0  0  0
   56.3701   47.1445   -0.4049 C   0  0  0  0  0  0
   56.6304   49.0349   -2.0045 C   0  0  0  0  0  0
   57.2213   49.4825   -3.3386 C   0  0  0  0  0  0
   56.4240   49.8551   -1.1145 O   0  0  0  0  0  0
   56.3891   46.8101    0.7010 N   0  0  0  0  0  0
   49.6737   42.5486   -4.5470 C   0  0  0  0  0  0
   48.8239   41.5411   -5.0000 C   0  0  0  0  0  0
   48.4183   40.5347   -4.1289 C   0  0  0  0  0  0
   48.8161   40.5743   -2.7956 C   0  0  0  0  0  0
   49.6401   41.6015   -2.3291 C   0  0  0  0  0  0
   50.0238   41.6001   -0.6405 Cl  0  0  0  0  0  0
   51.8848   46.0099    0.0930 C   0  0  0  0  0  0
   53.0687   46.2528    0.6597 F   0  0  0  0  0  0
   51.2231   47.1518   -0.0045 F   0  0  0  0  0  0
   51.2313   45.2099    0.9270 F   0  0  0  0  0  0
   50.1449   44.2640   -1.0273 H   0  0  0  0  0  0
   52.3947   43.2537   -4.5259 H   0  0  0  0  0  0
   54.0614   44.9190   -3.9294 H   0  0  0  0  0  0
   54.2018   46.5715   -0.7630 H   0  0  0  0  0  0
   56.5613   49.2105   -4.1637 H   0  0  0  0  0  0
   58.2004   49.0264   -3.4940 H   0  0  0  0  0  0
   57.3457   50.5669   -3.3478 H   0  0  0  0  0  0
   57.1406   46.9930   -2.2796 H   0  0  0  0  0  0
   49.9909   43.3099   -5.2458 H   0  0  0  0  0  0
   48.4931   41.5421   -6.0278 H   0  0  0  0  0  0
   47.7711   39.7415   -4.4739 H   0  0  0  0  0  0
   48.4673   39.8088   -2.1164 H   0  0  0  0  0  0
  1  2  2  0  0  0
  1  6  1  0  0  0
  1 27  1  0  0  0
  2  7  1  0  0  0
  2  3  1  0  0  0
  3  4  2  0  0  0
  3 28  1  0  0  0
  4  5  1  0  0  0
  4 29  1  0  0  0
  5  8  1  0  0  0
  5  6  2  0  0  0
  6 23  1  0  0  0
  7 17  2  0  0  0
  7 21  1  0  0  0
  8  9  1  0  0  0
  8 30  1  0  0  0
  9 11  2  0  0  0
  9 10  1  0  0  0
 10 12  1  0  0  0
 10 34  1  0  0  0
 10 13  1  0  0  0
 12 16  3  0  0  0
 13 15  2  0  0  0
 13 14  1  0  0  0
 14 31  1  0  0  0
 14 32  1  0  0  0
 14 33  1  0  0  0
 17 18  1  0  0  0
 17 35  1  0  0  0
 18 19  2  0  0  0
 18 36  1  0  0  0
 19 20  1  0  0  0
 19 37  1  0  0  0
 20 21  2  0  0  0
 20 38  1  0  0  0
 21 22  1  0  0  0
 23 24  1  0  0  0
 23 25  1  0  0  0
 23 26  1  0  0  0
M  END
> <s_m_entry_id>
25693

> <s_m_entry_name>
dock_pv.345

> <s_m_Source_Path>
/home/csk/Desktop/cluster/DUD-E-result/pyrd

> <s_m_Source_File>
dock_pv.maegz

> <i_m_Source_File_Index>
345

> <chembl_id>
CHEMBL520306

> <chembl_pref_name>
None

> <i_lp_mmshare_version>
53161

> <r_lp_tautomer_probability>
0.995394628248396

> <s_lp_Force_Field>
OPLS_2005

> <r_lp_Energy>
26.961626

> <b_lp_Chiralities_Consistent>
1

> <s_lp_Variant>
CHEMBL1966_lig117-1

> <s_i_glide_gridfile>
glide-grid_1d3g

> <i_i_glide_lignum>
135

> <i_i_glide_rotatable_bonds>
6

> <r_i_docking_score>
-9.11016674196116

> <r_i_glide_ligand_efficiency>
-0.350391028536968

> <r_i_glide_ligand_efficiency_sa>
-1.03803204331864

> <r_i_glide_ligand_efficiency_ln>
-2.13949276645432

> <r_i_glide_gscore>
-9.11016674196116

> <r_i_glide_lipo>
-4.73292233554193

> <r_i_glide_hbond>
0

> <r_i_glide_metal>
0

> <r_i_glide_rewards>
-2.77420435444852

> <r_i_glide_evdw>
-38.8918952941895

> <r_i_glide_ecoul>
-1.29224121570587

> <r_i_glide_erotb>
0.53539089509465

> <r_i_glide_esite>
0

> <r_i_glide_emodel>
-54.5422057426628

> <r_i_glide_energy>
-40.1841365098953

> <r_i_glide_einternal>
9.39591884613037

> <i_i_glide_confnum>
63

> <i_i_glide_posenum>
294

> <r_i_glide_eff_state_penalty>
0

> <s_user_duplicate_titles>
CHEMBL1966_lig117,520608

> <i_f3d_flags>
0

> <s_m_subgroup_title>
dock_pv

> <s_m_subgroupid>
dock_pv

> <b_m_subgroup_collapsed>
1

$$$$
CHEMBL1966_lig83
                    3D
 Schrodinger Suite 2021-1.
 43 45  0  0  1  0            999 V2000
   51.3682   45.3609   -0.6059 C   0  0  0  0  0  0
   50.4619   44.3174   -0.8081 C   0  0  0  0  0  0
   50.5520   43.4905   -1.9347 C   0  0  0  0  0  0
   51.5271   43.8080   -2.9029 C   0  0  0  0  0  0
   52.4610   44.8102   -2.6518 C   0  0  0  0  0  0
   52.4470   45.5752   -1.4817 C   0  0  0  0  0  0
   53.6351   46.4081   -1.0903 C   0  0  0  0  0  0
   53.9612   46.4686    0.2715 C   0  0  0  0  0  0
   55.1352   47.0598    0.7045 C   0  0  0  0  0  0
   56.0244   47.6082   -0.1937 C   0  0  0  0  0  0
   55.7055   47.6261   -1.5360 C   0  0  0  0  0  0
   54.5307   47.0136   -2.0104 C   0  0  0  0  0  0
   49.6233   42.4200   -1.9753 N   0  0  0  0  0  0
   49.5436   41.3401   -2.7762 C   0  0  0  0  0  0
   48.4181   40.4536   -2.5363 C   0  0  0  0  0  0
   50.3029   41.0982   -3.6959 O   0  0  0  0  0  0
   47.4541   40.0119   -3.5078 C   0  0  0  0  0  0
   46.5195   39.1471   -2.9292 C   0  0  0  0  0  0
   46.8048   38.8093   -1.2663 S   0  0  0  0  0  0
   48.1225   39.9204   -1.2724 C   0  0  0  0  0  0
   47.3036   40.4142   -4.8995 C   0  0  0  0  0  0
   48.4593   40.8044   -5.5096 O   0  0  0  0  0  0
   46.2211   40.4111   -5.4855 O   0  0  0  0  0  0
   49.5076   44.0853    0.1246 F   0  0  0  0  0  0
   51.6201   43.1945   -4.0998 F   0  0  0  0  0  0
   54.2566   46.9727   -3.3629 O   0  0  0  0  0  0
   55.3042   47.2090   -4.3075 C   0  0  0  0  0  0
   56.4247   46.1479   -4.2806 C   0  0  0  0  0  0
   51.2704   45.9402    0.2994 H   0  0  0  0  0  0
   53.2522   44.9171   -3.3756 H   0  0  0  0  0  0
   53.3361   46.0096    1.0229 H   0  0  0  0  0  0
   55.3593   47.0932    1.7561 H   0  0  0  0  0  0
   56.9599   48.0207    0.1500 H   0  0  0  0  0  0
   56.4175   48.0976   -2.1920 H   0  0  0  0  0  0
   48.9404   42.4625   -1.2345 H   0  0  0  0  0  0
   45.6746   38.6847   -3.4219 H   0  0  0  0  0  0
   48.6680   40.0736   -0.3524 H   0  0  0  0  0  0
   49.2097   40.8533   -4.8945 H   0  0  0  0  0  0
   54.8407   47.2115   -5.2915 H   0  0  0  0  0  0
   55.7096   48.2151   -4.1973 H   0  0  0  0  0  0
   57.1385   46.3235   -5.0848 H   0  0  0  0  0  0
   56.9868   46.1503   -3.3483 H   0  0  0  0  0  0
   56.0238   45.1447   -4.4146 H   0  0  0  0  0  0
  1  2  2  0  0  0
  1  6  1  0  0  0
  1 29  1  0  0  0
  2  3  1  0  0  0
  2 24  1  0  0  0
  3  4  2  0  0  0
  3 13  1  0  0  0
  4  5  1  0  0  0
  4 25  1  0  0  0
  5  6  2  0  0  0
  5 30  1  0  0  0
  6  7  1  0  0  0
  7  8  2  0  0  0
  7 12  1  0  0  0
  8  9  1  0  0  0
  8 31  1  0  0  0
  9 10  2  0  0  0
  9 32  1  0  0  0
 10 11  1  0  0  0
 10 33  1  0  0  0
 11 12  2  0  0  0
 11 34  1  0  0  0
 12 26  1  0  0  0
 13 14  1  0  0  0
 13 35  1  0  0  0
 14 15  1  0  0  0
 14 16  2  0  0  0
 15 17  1  0  0  0
 15 20  2  0  0  0
 17 18  2  0  0  0
 17 21  1  0  0  0
 18 19  1  0  0  0
 18 36  1  0  0  0
 19 20  1  0  0  0
 20 37  1  0  0  0
 21 22  1  0  0  0
 21 23  2  0  0  0
 22 38  1  0  0  0
 26 27  1  0  0  0
 27 28  1  0  0  0
 27 39  1  0  0  0
 27 40  1  0  0  0
 28 41  1  0  0  0
 28 42  1  0  0  0
 28 43  1  0  0  0
M  END
> <s_m_entry_id>
25694

> <s_m_entry_name>
dock_pv.346

> <s_m_Source_Path>
/home/csk/Desktop/cluster/DUD-E-result/pyrd

> <s_m_Source_File>
dock_pv.maegz

> <i_m_Source_File_Index>
346

> <chembl_id>
CHEMBL383165

> <chembl_pref_name>
None

> <i_lp_mmshare_version>
53161

> <r_lp_tautomer_probability>
1

> <s_lp_Force_Field>
OPLS_2005

> <r_lp_Energy>
28.713531

> <b_lp_Chiralities_Consistent>
1

> <s_lp_Variant>
CHEMBL1966_lig83-1

> <s_i_glide_gridfile>
glide-grid_1d3g

> <i_i_glide_lignum>
92

> <i_i_glide_rotatable_bonds>
8

> <r_i_docking_score>
-9.10869605178983

> <r_i_glide_ligand_efficiency>
-0.325310573278208

> <r_i_glide_ligand_efficiency_sa>
-0.987834498153934

> <r_i_glide_ligand_efficiency_ln>
-2.10255449169029

> <r_i_glide_gscore>
-9.10869605178983

> <r_i_glide_lipo>
-5.34720445010791

> <r_i_glide_hbond>
-0.0266544514231865

> <r_i_glide_metal>
0

> <r_i_glide_rewards>
-2.26792393245409

> <r_i_glide_evdw>
-41.4204483032227

> <r_i_glide_ecoul>
-0.798485934734344

> <r_i_glide_erotb>
0.72388208756665

> <r_i_glide_esite>
0

> <r_i_glide_emodel>
-49.3184762992659

> <r_i_glide_energy>
-42.218934237957

> <r_i_glide_einternal>
8.55274105072021

> <i_i_glide_confnum>
118

> <i_i_glide_posenum>
354

> <r_i_glide_eff_state_penalty>
0

> <s_user_duplicate_titles>
CHEMBL1966_lig83,334877

> <i_f3d_flags>
0

> <s_m_subgroup_title>
dock_pv

> <s_m_subgroupid>
dock_pv

> <b_m_subgroup_collapsed>
1

$$$$
CHEMBL1966_lig297
                    3D
 Schrodinger Suite 2021-1.
 42 44  0  0  1  0            999 V2000
   47.8844   39.3853   -0.6920 C   0  0  0  0  0  0
   47.3566   39.0064   -1.9200 C   0  0  0  0  0  0
   47.7444   39.6602   -3.0857 C   0  0  0  0  0  0
   48.8230   40.4100   -0.6047 C   0  0  0  0  0  0
   49.2230   41.1012   -1.7693 C   0  0  0  0  0  0
   48.6744   40.7430   -3.0399 C   0  0  0  0  0  0
   49.0782   41.5299   -4.1683 C   0  0  0  0  0  0
   49.9912   42.5699   -3.9749 C   0  0  0  0  0  0
   50.4523   42.8623   -2.6950 C   0  0  0  0  0  0
   50.0824   42.1395   -1.6105 N   0  0  0  0  0  0
   51.3591   44.0100   -2.4317 C   0  0  0  0  0  0
   52.4230   44.2906   -3.2990 C   0  0  0  0  0  0
   53.3100   45.3295   -3.0204 C   0  0  0  0  0  0
   53.1402   46.1175   -1.8786 C   0  0  0  0  0  0
   52.0595   45.8689   -1.0291 C   0  0  0  0  0  0
   51.1851   44.8189   -1.2990 C   0  0  0  0  0  0
   54.1055   47.2596   -1.5607 C   0  0  0  0  0  0
   55.6022   46.9048   -1.7217 C   0  0  0  0  0  0
   48.5745   41.2845   -5.5582 C   0  0  0  0  0  0
   47.2193   41.2100   -5.6990 O   0  0  0  0  0  0
   49.3520   41.2100   -6.4990 O   0  0  0  0  0  0
   56.5744   47.9729   -1.1798 C   0  0  0  0  0  0
   56.4711   49.3430   -1.8678 C   0  0  0  0  0  0
   47.5753   38.8658    0.2012 H   0  0  0  0  0  0
   46.6456   38.1944   -1.9685 H   0  0  0  0  0  0
   47.3280   39.3343   -4.0258 H   0  0  0  0  0  0
   49.2346   40.6897    0.3540 H   0  0  0  0  0  0
   50.3044   43.1832   -4.8095 H   0  0  0  0  0  0
   52.5891   43.6755   -4.1708 H   0  0  0  0  0  0
   54.1285   45.5156   -3.6990 H   0  0  0  0  0  0
   51.9007   46.4751   -0.1490 H   0  0  0  0  0  0
   50.3643   44.6365   -0.6200 H   0  0  0  0  0  0
   53.9392   47.5918   -0.5345 H   0  0  0  0  0  0
   53.8497   48.1031   -2.2028 H   0  0  0  0  0  0
   55.8324   46.7181   -2.7713 H   0  0  0  0  0  0
   55.8032   45.9689   -1.1985 H   0  0  0  0  0  0
   46.7509   41.4547   -4.8976 H   0  0  0  0  0  0
   57.5961   47.6100   -1.2990 H   0  0  0  0  0  0
   56.4268   48.0908   -0.1054 H   0  0  0  0  0  0
   57.2276   50.0269   -1.4811 H   0  0  0  0  0  0
   55.5004   49.8064   -1.6990 H   0  0  0  0  0  0
   56.6209   49.2602   -2.9447 H   0  0  0  0  0  0
  1  2  2  0  0  0
  1  4  1  0  0  0
  1 24  1  0  0  0
  2  3  1  0  0  0
  2 25  1  0  0  0
  3  6  2  0  0  0
  3 26  1  0  0  0
  4  5  2  0  0  0
  4 27  1  0  0  0
  5  6  1  0  0  0
  5 10  1  0  0  0
  6  7  1  0  0  0
  7  8  2  0  0  0
  7 19  1  0  0  0
  8  9  1  0  0  0
  8 28  1  0  0  0
  9 10  2  0  0  0
  9 11  1  0  0  0
 11 12  2  0  0  0
 11 16  1  0  0  0
 12 13  1  0  0  0
 12 29  1  0  0  0
 13 14  2  0  0  0
 13 30  1  0  0  0
 14 15  1  0  0  0
 14 17  1  0  0  0
 15 16  2  0  0  0
 15 31  1  0  0  0
 16 32  1  0  0  0
 17 18  1  0  0  0
 17 33  1  0  0  0
 17 34  1  0  0  0
 18 22  1  0  0  0
 18 35  1  0  0  0
 18 36  1  0  0  0
 19 20  1  0  0  0
 19 21  2  0  0  0
 20 37  1  0  0  0
 22 23  1  0  0  0
 22 38  1  0  0  0
 22 39  1  0  0  0
 23 40  1  0  0  0
 23 41  1  0  0  0
 23 42  1  0  0  0
M  END
> <s_m_entry_id>
25695

> <s_m_entry_name>
dock_pv.347

> <s_m_Source_Path>
/home/csk/Desktop/cluster/DUD-E-result/pyrd

> <s_m_Source_File>
dock_pv.maegz

> <i_m_Source_File_Index>
347

> <chembl_id>
CHEMBL3818502

> <chembl_pref_name>
None

> <i_lp_mmshare_version>
53161

> <r_lp_tautomer_probability>
1

> <s_lp_Force_Field>
OPLS_2005

> <r_lp_Energy>
21.193946

> <b_lp_Chiralities_Consistent>
1

> <s_lp_Variant>
CHEMBL1966_lig297-1

> <s_i_glide_gridfile>
glide-grid_1d3g

> <i_i_glide_lignum>
343

> <i_i_glide_rotatable_bonds>
6

> <r_i_docking_score>
-9.10764372538986

> <r_i_glide_ligand_efficiency>
-0.395984509799559

> <r_i_glide_ligand_efficiency_sa>
-1.12612727077469

> <r_i_glide_ligand_efficiency_ln>
-2.2023108363467

> <r_i_glide_gscore>
-9.10764372538986

> <r_i_glide_lipo>
-5.50878243151032

> <r_i_glide_hbond>
-0.16

> <r_i_glide_metal>
0

> <r_i_glide_rewards>
-1.88926279276705

> <r_i_glide_evdw>
-34.0773696899414

> <r_i_glide_ecoul>
-4.24937009811401

> <r_i_glide_erotb>
0.791675498101685

> <r_i_glide_esite>
0

> <r_i_glide_emodel>
-57.3096883553896

> <r_i_glide_energy>
-38.3267397880554

> <r_i_glide_einternal>
5.49812984466553

> <i_i_glide_confnum>
4

> <i_i_glide_posenum>
361

> <r_i_glide_eff_state_penalty>
0

> <s_user_duplicate_titles>
CHEMBL1966_lig297

> <i_f3d_flags>
0

> <s_m_subgroup_title>
dock_pv

> <s_m_subgroupid>
dock_pv

> <b_m_subgroup_collapsed>
1

$$$$
CHEMBL1966_lig301
                    3D
 Schrodinger Suite 2021-1.
 30 32  0  0  1  0            999 V2000
   48.2569   39.8220   -0.5696 C   0  0  0  0  0  0
   47.7213   39.5324   -1.8179 C   0  0  0  0  0  0
   48.1799   40.1832   -2.9615 C   0  0  0  0  0  0
   49.2230   40.8100   -0.4333 C   0  0  0  0  0  0
   49.6230   41.5674   -1.5565 C   0  0  0  0  0  0
   49.1363   41.2388   -2.8626 C   0  0  0  0  0  0
   49.5883   42.0617   -3.9526 C   0  0  0  0  0  0
   50.4640   43.1134   -3.6724 C   0  0  0  0  0  0
   50.8321   43.3948   -2.3709 C   0  0  0  0  0  0
   50.4304   42.6327   -1.3251 N   0  0  0  0  0  0
   51.7298   44.5368   -2.0634 C   0  0  0  0  0  0
   51.5752   45.2637   -0.8753 C   0  0  0  0  0  0
   52.5111   46.2184   -0.4840 C   0  0  0  0  0  0
   53.6067   46.4966   -1.3114 C   0  0  0  0  0  0
   53.7453   45.8241   -2.5257 C   0  0  0  0  0  0
   52.8230   44.8469   -2.8990 C   0  0  0  0  0  0
   49.1661   41.8806   -5.3837 C   0  0  0  0  0  0
   49.2230   43.0343   -6.0990 O   0  0  0  0  0  0
   48.8230   40.8100   -5.8757 O   0  0  0  0  0  0
   46.3107   38.2704   -1.9424 Br  0  0  0  0  0  0
   54.8169   47.6420   -0.8507 Cl  0  0  0  0  0  0
   52.3038   46.9889    1.0504 Cl  0  0  0  0  0  0
   47.9115   39.2831    0.3010 H   0  0  0  0  0  0
   47.7420   39.9214   -3.9113 H   0  0  0  0  0  0
   49.6210   41.0485    0.5428 H   0  0  0  0  0  0
   50.8486   43.7476   -4.4589 H   0  0  0  0  0  0
   50.7490   45.0449   -0.2137 H   0  0  0  0  0  0
   54.5905   46.0337   -3.1654 H   0  0  0  0  0  0
   52.9899   44.2950   -3.8116 H   0  0  0  0  0  0
   49.0491   43.8146   -5.5626 H   0  0  0  0  0  0
  1  2  2  0  0  0
  1  4  1  0  0  0
  1 23  1  0  0  0
  2  3  1  0  0  0
  2 20  1  0  0  0
  3  6  2  0  0  0
  3 24  1  0  0  0
  4  5  2  0  0  0
  4 25  1  0  0  0
  5  6  1  0  0  0
  5 10  1  0  0  0
  6  7  1  0  0  0
  7  8  2  0  0  0
  7 17  1  0  0  0
  8  9  1  0  0  0
  8 26  1  0  0  0
  9 10  2  0  0  0
  9 11  1  0  0  0
 11 12  2  0  0  0
 11 16  1  0  0  0
 12 13  1  0  0  0
 12 27  1  0  0  0
 13 14  2  0  0  0
 13 22  1  0  0  0
 14 15  1  0  0  0
 14 21  1  0  0  0
 15 16  2  0  0  0
 15 28  1  0  0  0
 16 29  1  0  0  0
 17 18  1  0  0  0
 17 19  2  0  0  0
 18 30  1  0  0  0
M  END
> <s_m_entry_id>
25696

> <s_m_entry_name>
dock_pv.348

> <s_m_Source_Path>
/home/csk/Desktop/cluster/DUD-E-result/pyrd

> <s_m_Source_File>
dock_pv.maegz

> <i_m_Source_File_Index>
348

> <chembl_id>
CHEMBL3818640

> <chembl_pref_name>
None

> <i_lp_mmshare_version>
53161

> <r_lp_tautomer_probability>
1

> <s_lp_Force_Field>
OPLS_2005

> <r_lp_Energy>
18.21962

> <b_lp_Chiralities_Consistent>
1

> <s_lp_Variant>
CHEMBL1966_lig301-1

> <s_i_glide_gridfile>
glide-grid_1d3g

> <i_i_glide_lignum>
347

> <i_i_glide_rotatable_bonds>
3

> <r_i_docking_score>
-9.10006851483308

> <r_i_glide_ligand_efficiency>
-0.413639477946958

> <r_i_glide_ligand_efficiency_sa>
-1.15903408472493

> <r_i_glide_ligand_efficiency_ln>
-2.22438867808934

> <r_i_glide_gscore>
-9.10006851483308

> <r_i_glide_lipo>
-5.1240923361008

> <r_i_glide_hbond>
-0.149171882216122

> <r_i_glide_metal>
0

> <r_i_glide_rewards>
-1.5498276458056

> <r_i_glide_evdw>
-31.327075958252

> <r_i_glide_ecoul>
-6.39272308349609

> <r_i_glide_erotb>
0.248285609726457

> <r_i_glide_esite>
0

> <r_i_glide_emodel>
-54.1556478373964

> <r_i_glide_energy>
-37.719799041748

> <r_i_glide_einternal>
3.56625366210938

> <i_i_glide_confnum>
10

> <i_i_glide_posenum>
141

> <r_i_glide_eff_state_penalty>
0

> <s_user_duplicate_titles>
CHEMBL1966_lig301

> <i_f3d_flags>
0

> <s_m_subgroup_title>
dock_pv

> <s_m_subgroupid>
dock_pv

> <b_m_subgroup_collapsed>
1

$$$$
CHEMBL1966_lig243
                    3D
 Schrodinger Suite 2021-1.
 42 44  0  0  1  0            999 V2000
   48.8229   40.4138   -1.7778 C   0  0  0  0  0  0
   47.9562   39.8384   -2.7158 C   0  0  0  0  0  0
   46.9580   38.7682   -2.3042 C   0  0  0  0  0  0
   48.7919   40.0048   -0.0993 Cl  0  0  0  0  0  0
   49.7204   41.3983   -2.1741 C   0  0  0  0  0  0
   50.6908   42.8038   -3.9351 N   0  0  0  0  0  0
   49.7652   41.8451   -3.4958 C   0  0  0  0  0  0
   53.1719   45.0405   -2.8990 C   0  0  0  0  0  0
   50.9753   44.4099   -1.6989 S   0  0  0  0  0  0
   56.2765   46.6819    0.5326 C   0  0  0  0  0  0
   52.4549   45.3454   -1.7204 C   0  0  0  0  0  0
   54.1530   46.3535   -0.5144 O   0  0  0  0  0  0
   52.0181   46.5560    0.2994 O   0  0  0  0  0  0
   48.0117   40.2663   -4.0467 C   0  0  0  0  0  0
   52.5880   44.1500   -3.6910 N   0  0  0  0  0  0
   52.8138   46.1670   -0.5574 C   0  0  0  0  0  0
   48.9103   41.2613   -4.4338 C   0  0  0  0  0  0
   54.7960   47.0671    0.5301 C   0  0  0  0  0  0
   51.4602   43.6884   -3.2176 C   0  0  0  0  0  0
   54.5168   45.5725   -3.2709 C   0  0  0  0  0  0
   55.6180   44.7105   -3.2989 C   0  0  0  0  0  0
   56.8882   45.2127   -3.5664 C   0  0  0  0  0  0
   57.0543   46.5755   -3.8036 C   0  0  0  0  0  0
   55.9619   47.4404   -3.7773 C   0  0  0  0  0  0
   54.6905   46.9382   -3.5122 C   0  0  0  0  0  0
   47.4877   37.8975   -1.9165 H   0  0  0  0  0  0
   46.3135   39.1402   -1.5072 H   0  0  0  0  0  0
   46.3225   38.4487   -3.1309 H   0  0  0  0  0  0
   50.3985   41.7888   -1.4337 H   0  0  0  0  0  0
   50.8045   42.7932   -4.9372 H   0  0  0  0  0  0
   56.8196   47.2054    1.3189 H   0  0  0  0  0  0
   56.4060   45.6120    0.6913 H   0  0  0  0  0  0
   56.7438   46.9383   -0.4197 H   0  0  0  0  0  0
   47.3496   39.8354   -4.7823 H   0  0  0  0  0  0
   48.9335   41.5826   -5.4648 H   0  0  0  0  0  0
   54.7188   48.1358    0.3436 H   0  0  0  0  0  0
   54.3448   46.8503    1.5000 H   0  0  0  0  0  0
   55.4896   43.6563   -3.0966 H   0  0  0  0  0  0
   57.7430   44.5523   -3.5779 H   0  0  0  0  0  0
   58.0423   46.9649   -4.0029 H   0  0  0  0  0  0
   56.1000   48.4966   -3.9562 H   0  0  0  0  0  0
   53.8443   47.6095   -3.4767 H   0  0  0  0  0  0
  1  2  2  0  0  0
  1  4  1  0  0  0
  1  5  1  0  0  0
  2 14  1  0  0  0
  2  3  1  0  0  0
  3 26  1  0  0  0
  3 27  1  0  0  0
  3 28  1  0  0  0
  5  7  2  0  0  0
  5 29  1  0  0  0
  6 19  1  0  0  0
  6  7  1  0  0  0
  6 30  1  0  0  0
  7 17  1  0  0  0
  8 11  2  0  0  0
  8 15  1  0  0  0
  8 20  1  0  0  0
  9 19  1  0  0  0
  9 11  1  0  0  0
 10 18  1  0  0  0
 10 31  1  0  0  0
 10 32  1  0  0  0
 10 33  1  0  0  0
 11 16  1  0  0  0
 12 16  1  0  0  0
 12 18  1  0  0  0
 13 16  2  0  0  0
 14 17  2  0  0  0
 14 34  1  0  0  0
 15 19  2  0  0  0
 17 35  1  0  0  0
 18 36  1  0  0  0
 18 37  1  0  0  0
 20 21  1  0  0  0
 20 25  2  0  0  0
 21 22  2  0  0  0
 21 38  1  0  0  0
 22 23  1  0  0  0
 22 39  1  0  0  0
 23 24  2  0  0  0
 23 40  1  0  0  0
 24 25  1  0  0  0
 24 41  1  0  0  0
 25 42  1  0  0  0
M  END
> <s_m_entry_id>
25697

> <s_m_entry_name>
dock_pv.349

> <s_m_Source_Path>
/home/csk/Desktop/cluster/DUD-E-result/pyrd

> <s_m_Source_File>
dock_pv.maegz

> <i_m_Source_File_Index>
349

> <chembl_id>
CHEMBL3410596

> <chembl_pref_name>
None

> <i_lp_mmshare_version>
53161

> <r_lp_tautomer_probability>
1

> <s_lp_Force_Field>
OPLS_2005

> <r_lp_Energy>
16.038322

> <b_lp_Chiralities_Consistent>
1

> <s_lp_Variant>
CHEMBL1966_lig243-1

> <s_i_glide_gridfile>
glide-grid_1d3g

> <i_i_glide_lignum>
289

> <i_i_glide_rotatable_bonds>
6

> <r_i_docking_score>
-9.0975921232603

> <r_i_glide_ligand_efficiency>
-0.363903684930412

> <r_i_glide_ligand_efficiency_sa>
-1.06406082859586

> <r_i_glide_ligand_efficiency_ln>
-2.1564019660485

> <r_i_glide_gscore>
-9.0975921232603

> <r_i_glide_lipo>
-5.78460148759195

> <r_i_glide_hbond>
0

> <r_i_glide_metal>
0

> <r_i_glide_rewards>
-1.83650094542213

> <r_i_glide_evdw>
-43.4778327941895

> <r_i_glide_ecoul>
0.0175726246088743

> <r_i_glide_erotb>
0.694766055771921

> <r_i_glide_esite>
0

> <r_i_glide_emodel>
-60.2333684343711

> <r_i_glide_energy>
-43.4602601695806

> <r_i_glide_einternal>
9.17107963562012

> <i_i_glide_confnum>
77

> <i_i_glide_posenum>
238

> <r_i_glide_eff_state_penalty>
0

> <s_user_duplicate_titles>
CHEMBL1966_lig243

> <i_f3d_flags>
0

> <s_m_subgroup_title>
dock_pv

> <s_m_subgroupid>
dock_pv

> <b_m_subgroup_collapsed>
1

$$$$
CHEMBL1966_lig658 
                    3D
 Schrodinger Suite 2021-1.
 34 37  0  0  1  0            999 V2000
   46.7113   38.8095   -2.1277 C   0  0  0  0  0  0
   47.3916   39.0778   -0.9509 C   0  0  0  0  0  0
   48.4231   40.0101   -0.9495 C   0  0  0  0  0  0
   47.0796   39.4597   -3.2993 C   0  0  0  0  0  0
   48.1360   40.3845   -3.3294 C   0  0  0  0  0  0
   48.8202   40.6806   -2.1261 C   0  0  0  0  0  0
   49.8771   41.7509   -2.0463 C   0  0  0  0  0  0
   50.1143   42.4616   -3.3352 C   0  0  0  0  0  0
   49.4760   42.1177   -4.4891 C   0  0  0  0  0  0
   48.4758   41.0480   -4.6325 C   0  0  0  0  0  0
   47.9283   40.7449   -5.6992 O   0  0  0  0  0  0
   50.4238   42.0086   -0.9716 O   0  0  0  0  0  0
   49.6811   42.7783   -5.6714 O   0  0  0  0  0  0
   51.0415   43.4892   -3.4270 N   0  0  0  0  0  0
   51.6271   44.3595   -2.4982 C   0  0  0  0  0  0
   52.8830   44.8659   -2.8746 C   0  0  0  0  0  0
   51.6723   45.7078   -0.4569 C   0  0  0  0  0  0
   51.0121   44.8092   -1.3065 C   0  0  0  0  0  0
   52.9347   46.1473   -0.8383 C   0  0  0  0  0  0
   53.5136   45.7510   -2.0085 C   0  0  0  0  0  0
   54.7271   46.3482   -2.1364 O   0  0  0  0  0  0
   54.9737   46.9802   -0.9076 C   0  0  0  0  0  0
   53.7694   46.9992   -0.1884 O   0  0  0  0  0  0
   45.8999   38.0975   -2.1338 H   0  0  0  0  0  0
   47.1130   38.5737   -0.0391 H   0  0  0  0  0  0
   48.9168   40.2121   -0.0089 H   0  0  0  0  0  0
   46.5212   39.2315   -4.1956 H   0  0  0  0  0  0
   49.0069   42.5110   -6.3026 H   0  0  0  0  0  0
   51.3534   43.6882   -4.3665 H   0  0  0  0  0  0
   53.3627   44.5577   -3.7887 H   0  0  0  0  0  0
   51.2246   46.0389    0.4667 H   0  0  0  0  0  0
   50.0204   44.4780   -1.0413 H   0  0  0  0  0  0
   55.7159   46.4061   -0.3487 H   0  0  0  0  0  0
   55.3328   47.9973   -1.0687 H   0  0  0  0  0  0
  1  2  2  0  0  0
  1  4  1  0  0  0
  1 24  1  0  0  0
  2  3  1  0  0  0
  2 25  1  0  0  0
  3  6  2  0  0  0
  3 26  1  0  0  0
  4  5  2  0  0  0
  4 27  1  0  0  0
  5  6  1  0  0  0
  5 10  1  0  0  0
  6  7  1  0  0  0
  7  8  1  0  0  0
  7 12  2  0  0  0
  8  9  2  0  0  0
  8 14  1  0  0  0
  9 10  1  0  0  0
  9 13  1  0  0  0
 10 11  2  0  0  0
 13 28  1  0  0  0
 14 15  1  0  0  0
 14 29  1  0  0  0
 15 16  2  0  0  0
 15 18  1  0  0  0
 16 20  1  0  0  0
 16 30  1  0  0  0
 17 19  1  0  0  0
 17 18  2  0  0  0
 17 31  1  0  0  0
 18 32  1  0  0  0
 19 20  2  0  0  0
 19 23  1  0  0  0
 20 21  1  0  0  0
 21 22  1  0  0  0
 22 23  1  0  0  0
 22 33  1  0  0  0
 22 34  1  0  0  0
M  END
> <s_m_entry_id>
25698

> <s_m_entry_name>
dock_pv.350

> <s_m_Source_Path>
/home/csk/Desktop/cluster/DUD-E-result/pyrd

> <s_m_Source_File>
dock_pv.maegz

> <i_m_Source_File_Index>
350

> <chembl_id>
CHEMBL4524841

> <chembl_pref_name>
None

> <i_lp_mmshare_version>
53161

> <r_lp_tautomer_probability>
1

> <s_lp_Force_Field>
OPLS_2005

> <r_lp_Energy>
43.552351

> <b_lp_Chiralities_Consistent>
1

> <s_lp_Variant>
CHEMBL1966_lig658 -1

> <s_i_glide_gridfile>
glide-grid_1d3g

> <i_i_glide_lignum>
715

> <i_i_glide_rotatable_bonds>
3

> <r_i_docking_score>
-9.09701428323362

> <r_i_glide_ligand_efficiency>
-0.395522360140592

> <r_i_glide_ligand_efficiency_sa>
-1.12481297862117

> <r_i_glide_ligand_efficiency_ln>
-2.19974054085087

> <r_i_glide_gscore>
-9.09701428323362

> <r_i_glide_lipo>
-4.06852822074284

> <r_i_glide_hbond>
-0.0534731589811935

> <r_i_glide_metal>
0

> <r_i_glide_rewards>
-3.19708421817578

> <r_i_glide_evdw>
-38.414363861084

> <r_i_glide_ecoul>
-1.62884330749512

> <r_i_glide_erotb>
0.387116003844658

> <r_i_glide_esite>
0

> <r_i_glide_emodel>
-52.0049389671564

> <r_i_glide_energy>
-40.0432071685791

> <r_i_glide_einternal>
10.4701404571533

> <i_i_glide_confnum>
12

> <i_i_glide_posenum>
132

> <r_i_glide_eff_state_penalty>
0

> <s_user_duplicate_titles>
CHEMBL1966_lig658 

> <i_f3d_flags>
0

> <s_m_subgroup_title>
dock_pv

> <s_m_subgroupid>
dock_pv

> <b_m_subgroup_collapsed>
1

$$$$
CHEMBL1966_lig405
                    3D
 Schrodinger Suite 2021-1.
 46 48  0  0  1  0            999 V2000
   48.6564   40.5951   -3.8275 C   0  0  0  0  0  0
   48.6626   41.3193   -5.1131 C   0  0  0  0  0  0
   47.4413   41.3992   -5.6989 N   0  0  0  0  0  0
   46.2641   40.8518   -5.2940 C   0  0  0  0  0  0
   46.3842   40.0100   -4.2370 N   0  0  0  0  0  0
   47.5007   39.9619   -3.4429 C   0  0  0  0  0  0
   47.2705   39.2106   -2.2075 C   0  0  0  0  0  0
   48.0226   39.6108   -1.1458 O   0  0  0  0  0  0
   46.4027   38.3545   -2.0784 O   0  0  0  0  0  0
   45.1870   41.2391   -5.6990 O   0  0  0  0  0  0
   49.6228   41.8638   -5.6533 O   0  0  0  0  0  0
   49.9775   40.5890   -3.0577 C   0  0  0  0  0  0
   50.2456   41.7645   -2.1017 C   0  0  0  0  0  0
   50.2234   43.1275   -2.8083 C   0  0  0  0  0  0
   50.5456   44.3273   -1.8833 C   0  0  0  0  0  0
   51.9650   44.8978   -1.9142 C   0  0  0  0  0  0
   52.8226   44.8100   -3.0182 C   0  0  0  0  0  0
   54.0763   45.4024   -3.0027 C   0  0  0  0  0  0
   52.3739   45.6107   -0.7963 C   0  0  0  0  0  0
   53.6756   46.1425   -0.7178 C   0  0  0  0  0  0
   54.5533   46.0716   -1.8470 C   0  0  0  0  0  0
   55.8535   46.6733   -1.7536 C   0  0  0  0  0  0
   56.2446   47.2392   -0.5392 C   0  0  0  0  0  0
   55.4086   47.2101    0.5647 C   0  0  0  0  0  0
   54.1252   46.7107    0.4847 C   0  0  0  0  0  0
   56.8239   46.6844   -2.9042 C   0  0  0  0  0  0
   57.1313   45.6702   -3.5267 O   0  0  0  0  0  0
   57.3138   47.9249   -3.1798 O   0  0  0  0  0  0
   47.3737   42.0819   -6.4405 H   0  0  0  0  0  0
   45.5450   39.5121   -3.9747 H   0  0  0  0  0  0
   47.7812   39.1121   -0.3605 H   0  0  0  0  0  0
   50.0236   39.6392   -2.5508 H   0  0  0  0  0  0
   50.8231   40.5549   -3.7228 H   0  0  0  0  0  0
   49.5286   41.7547   -1.2812 H   0  0  0  0  0  0
   51.2235   41.6154   -1.6481 H   0  0  0  0  0  0
   50.8654   43.1000   -3.6842 H   0  0  0  0  0  0
   49.2235   43.2316   -3.2240 H   0  0  0  0  0  0
   49.8944   45.1707   -2.0992 H   0  0  0  0  0  0
   50.2897   44.0533   -0.8581 H   0  0  0  0  0  0
   52.5208   44.3106   -3.9242 H   0  0  0  0  0  0
   54.6930   45.3290   -3.8839 H   0  0  0  0  0  0
   51.7194   45.6996    0.0601 H   0  0  0  0  0  0
   57.2227   47.6843   -0.4232 H   0  0  0  0  0  0
   55.7411   47.6096    1.5007 H   0  0  0  0  0  0
   53.4785   46.7324    1.3508 H   0  0  0  0  0  0
   56.9187   48.5753   -2.5979 H   0  0  0  0  0  0
  1  2  1  0  0  0
  1  6  2  0  0  0
  1 12  1  0  0  0
  2  3  1  0  0  0
  2 11  2  0  0  0
  3  4  1  0  0  0
  3 29  1  0  0  0
  4  5  1  0  0  0
  4 10  2  0  0  0
  5  6  1  0  0  0
  5 30  1  0  0  0
  6  7  1  0  0  0
  7  8  1  0  0  0
  7  9  2  0  0  0
  8 31  1  0  0  0
 12 13  1  0  0  0
 12 32  1  0  0  0
 12 33  1  0  0  0
 13 14  1  0  0  0
 13 34  1  0  0  0
 13 35  1  0  0  0
 14 15  1  0  0  0
 14 36  1  0  0  0
 14 37  1  0  0  0
 15 16  1  0  0  0
 15 38  1  0  0  0
 15 39  1  0  0  0
 16 17  2  0  0  0
 16 19  1  0  0  0
 17 18  1  0  0  0
 17 40  1  0  0  0
 18 21  2  0  0  0
 18 41  1  0  0  0
 19 20  2  0  0  0
 19 42  1  0  0  0
 20 21  1  0  0  0
 20 25  1  0  0  0
 21 22  1  0  0  0
 22 23  2  0  0  0
 22 26  1  0  0  0
 23 24  1  0  0  0
 23 43  1  0  0  0
 24 25  2  0  0  0
 24 44  1  0  0  0
 25 45  1  0  0  0
 26 27  2  0  0  0
 26 28  1  0  0  0
 28 46  1  0  0  0
M  END
> <s_m_entry_id>
25699

> <s_m_entry_name>
dock_pv.351

> <s_m_Source_Path>
/home/csk/Desktop/cluster/DUD-E-result/pyrd

> <s_m_Source_File>
dock_pv.maegz

> <i_m_Source_File_Index>
351

> <chembl_id>
CHEMBL3981004

> <chembl_pref_name>
None

> <i_lp_mmshare_version>
53161

> <r_lp_tautomer_probability>
1

> <s_lp_Force_Field>
OPLS_2005

> <r_lp_Energy>
24.155508

> <b_lp_Chiralities_Consistent>
1

> <s_lp_Variant>
CHEMBL1966_lig405-1

> <s_i_glide_gridfile>
glide-grid_1d3g

> <i_i_glide_lignum>
455

> <i_i_glide_rotatable_bonds>
9

> <r_i_docking_score>
-9.09270923121291

> <r_i_glide_ligand_efficiency>
-0.324739615400461

> <r_i_glide_ligand_efficiency_sa>
-0.986100733760888

> <r_i_glide_ligand_efficiency_ln>
-2.09886426410769

> <r_i_glide_gscore>
-9.09270923121291

> <r_i_glide_lipo>
-4.9261268827294

> <r_i_glide_hbond>
-0.180972493518315

> <r_i_glide_metal>
0

> <r_i_glide_rewards>
-2.53534485506634

> <r_i_glide_evdw>
-40.7439727783203

> <r_i_glide_ecoul>
-1.72140336036682

> <r_i_glide_erotb>
0.929836739514085

> <r_i_glide_esite>
-0.0846925964419118

> <r_i_glide_emodel>
-50.7340640884746

> <r_i_glide_energy>
-42.4653761386871

> <r_i_glide_einternal>
6.61726379394531

> <i_i_glide_confnum>
76

> <i_i_glide_posenum>
394

> <r_i_glide_eff_state_penalty>
0

> <s_user_duplicate_titles>
CHEMBL1966_lig405

> <i_f3d_flags>
0

> <s_m_subgroup_title>
dock_pv

> <s_m_subgroupid>
dock_pv

> <b_m_subgroup_collapsed>
1

$$$$
CHEMBL1966_lig415
                    3D
 Schrodinger Suite 2021-1.
 42 45  0  0  1  0            999 V2000
   49.0781   42.5657   -5.6990 O   0  0  0  0  0  0
   48.4844   41.4706   -5.1553 C   0  0  0  0  0  0
   47.6649   40.8099   -5.7909 O   0  0  0  0  0  0
   48.8237   41.1807   -3.6999 C   0  0  0  0  0  0
   48.0446   40.2413   -3.0148 C   0  0  0  0  0  0
   48.2235   40.0100   -1.6485 C   0  0  0  0  0  0
   49.2222   40.6811   -0.9453 C   0  0  0  0  0  0
   50.0218   41.5889   -1.6061 C   0  0  0  0  0  0
   49.8327   41.8453   -2.9676 C   0  0  0  0  0  0
   50.7065   42.7279   -3.5831 N   0  0  0  0  0  0
   51.5204   43.6995   -3.0314 C   0  0  0  0  0  0
   52.6915   44.0104   -3.6986 C   0  0  0  0  0  0
   53.5401   44.9718   -3.2683 N   0  0  0  0  0  0
   53.1984   45.6103   -2.1154 C   0  0  0  0  0  0
   52.0626   45.3790   -1.3868 N   0  0  0  0  0  0
   51.2251   44.4122   -1.8621 C   0  0  0  0  0  0
   54.2443   46.5092   -1.5588 C   0  0  0  0  0  0
   55.0066   47.3244   -2.4080 C   0  0  0  0  0  0
   56.0685   48.0727   -1.9114 C   0  0  0  0  0  0
   56.3802   48.0003   -0.5591 C   0  0  0  0  0  0
   55.6223   47.2102    0.3015 C   0  0  0  0  0  0
   54.5461   46.4835   -0.1923 C   0  0  0  0  0  0
   47.3385   39.0352   -0.9025 C   0  0  0  0  0  0
   46.3763   38.0941   -1.5796 C   0  0  0  0  0  0
   47.6175   37.5545   -0.8992 C   0  0  0  0  0  0
   48.6265   42.8286   -6.5020 H   0  0  0  0  0  0
   47.2543   39.7264   -3.5384 H   0  0  0  0  0  0
   49.3764   40.4870    0.1070 H   0  0  0  0  0  0
   50.8212   42.0424   -1.0439 H   0  0  0  0  0  0
   50.6408   42.7362   -4.5922 H   0  0  0  0  0  0
   53.0152   43.3819   -4.5007 H   0  0  0  0  0  0
   50.3071   44.2621   -1.3138 H   0  0  0  0  0  0
   54.7919   47.3607   -3.4662 H   0  0  0  0  0  0
   56.6594   48.6871   -2.5747 H   0  0  0  0  0  0
   57.2225   48.5580   -0.1758 H   0  0  0  0  0  0
   55.8711   47.1588    1.3510 H   0  0  0  0  0  0
   53.9817   45.8577    0.4841 H   0  0  0  0  0  0
   46.9952   39.4364    0.0511 H   0  0  0  0  0  0
   46.3223   38.0103   -2.6642 H   0  0  0  0  0  0
   45.3937   37.9918   -1.1263 H   0  0  0  0  0  0
   47.5501   37.0307    0.0523 H   0  0  0  0  0  0
   48.4230   37.1660   -1.5216 H   0  0  0  0  0  0
  1  2  1  0  0  0
  1 26  1  0  0  0
  2  3  2  0  0  0
  2  4  1  0  0  0
  4  5  2  0  0  0
  4  9  1  0  0  0
  5  6  1  0  0  0
  5 27  1  0  0  0
  6  7  2  0  0  0
  6 23  1  0  0  0
  7  8  1  0  0  0
  7 28  1  0  0  0
  8  9  2  0  0  0
  8 29  1  0  0  0
  9 10  1  0  0  0
 10 11  1  0  0  0
 10 30  1  0  0  0
 11 12  2  0  0  0
 11 16  1  0  0  0
 12 13  1  0  0  0
 12 31  1  0  0  0
 13 14  2  0  0  0
 14 15  1  0  0  0
 14 17  1  0  0  0
 15 16  2  0  0  0
 16 32  1  0  0  0
 17 18  2  0  0  0
 17 22  1  0  0  0
 18 19  1  0  0  0
 18 33  1  0  0  0
 19 20  2  0  0  0
 19 34  1  0  0  0
 20 21  1  0  0  0
 20 35  1  0  0  0
 21 22  2  0  0  0
 21 36  1  0  0  0
 22 37  1  0  0  0
 23 24  1  0  0  0
 23 25  1  0  0  0
 23 38  1  0  0  0
 24 25  1  0  0  0
 24 39  1  0  0  0
 24 40  1  0  0  0
 25 41  1  0  0  0
 25 42  1  0  0  0
M  END
> <s_m_entry_id>
25700

> <s_m_entry_name>
dock_pv.352

> <s_m_Source_Path>
/home/csk/Desktop/cluster/DUD-E-result/pyrd

> <s_m_Source_File>
dock_pv.maegz

> <i_m_Source_File_Index>
352

> <chembl_id>
CHEMBL3674625

> <chembl_pref_name>
None

> <i_lp_mmshare_version>
53161

> <r_lp_tautomer_probability>
1

> <s_lp_Force_Field>
OPLS_2005

> <r_lp_Energy>
32.851414

> <b_lp_Chiralities_Consistent>
1

> <s_lp_Variant>
CHEMBL1966_lig415-1

> <s_i_glide_gridfile>
glide-grid_1d3g

> <i_i_glide_lignum>
465

> <i_i_glide_rotatable_bonds>
6

> <r_i_docking_score>
-9.08738260993835

> <r_i_glide_ligand_efficiency>
-0.363495304397534

> <r_i_glide_ligand_efficiency_sa>
-1.06286671667506

> <r_i_glide_ligand_efficiency_ln>
-2.15398200543678

> <r_i_glide_gscore>
-9.08738260993835

> <r_i_glide_lipo>
-4.86550025061534

> <r_i_glide_hbond>
-0.100629113907699

> <r_i_glide_metal>
0

> <r_i_glide_rewards>
-2.55492956937585

> <r_i_glide_evdw>
-38.9473533630371

> <r_i_glide_ecoul>
-3.17300128936768

> <r_i_glide_erotb>
0.856994185517548

> <r_i_glide_esite>
0

> <r_i_glide_emodel>
-51.6108691758983

> <r_i_glide_energy>
-42.1203546524048

> <r_i_glide_einternal>
18.6117572784424

> <i_i_glide_confnum>
92

> <i_i_glide_posenum>
3

> <r_i_glide_eff_state_penalty>
0

> <s_user_duplicate_titles>
CHEMBL1966_lig415

> <i_f3d_flags>
0

> <s_m_subgroup_title>
dock_pv

> <s_m_subgroupid>
dock_pv

> <b_m_subgroup_collapsed>
1

$$$$
CHEMBL1966_lig698
                    3D
 Schrodinger Suite 2021-1.
 44 48  0  0  1  0            999 V2000
   53.9338   45.8424   -2.2075 C   0  0  0  0  0  0
   54.5578   46.5759   -1.1919 C   0  0  0  0  0  0
   54.5501   45.6007   -3.3985 N   0  0  0  0  0  0
   55.7399   47.2597   -1.5335 C   0  0  0  0  0  0
   56.3271   47.1486   -2.8297 C   0  0  0  0  0  0
   52.5951   45.2100   -1.9448 C   0  0  0  0  0  0
   55.7374   46.1994   -3.6996 C   0  0  0  0  0  0
   56.4825   48.0099   -0.4990 C   0  0  0  0  0  0
   52.0230   44.3074   -2.8611 C   0  0  0  0  0  0
   54.0023   46.4982    0.2450 C   0  0  0  0  0  0
   50.8461   43.6048   -2.5516 C   0  0  0  0  0  0
   51.9256   45.4562   -0.7206 C   0  0  0  0  0  0
   57.4851   47.8605   -3.2865 C   0  0  0  0  0  0
   56.8123   47.2380    0.5847 O   0  0  0  0  0  0
   56.7717   49.1947   -0.6373 O   0  0  0  0  0  0
   52.4790   46.4099    0.3237 C   0  0  0  0  0  0
   50.2669   43.7967   -1.2992 C   0  0  0  0  0  0
   56.4230   45.8647   -4.8968 C   0  0  0  0  0  0
   50.7915   44.7121   -0.4099 C   0  0  0  0  0  0
   50.1938   42.6906   -3.5229 C   0  0  0  0  0  0
   58.0605   47.5808   -4.5181 C   0  0  0  0  0  0
   57.5539   46.5609   -5.3048 C   0  0  0  0  0  0
   59.1407   48.2805   -4.9325 F   0  0  0  0  0  0
   49.5193   41.5377   -3.0926 C   0  0  0  0  0  0
   50.2040   43.0014   -4.8837 C   0  0  0  0  0  0
   49.5466   42.1867   -5.7919 C   0  0  0  0  0  0
   48.8230   40.7437   -3.9980 C   0  0  0  0  0  0
   48.8229   41.0833   -5.3463 C   0  0  0  0  0  0
   52.5106   44.1184   -3.8059 H   0  0  0  0  0  0
   54.3121   47.3359    0.8684 H   0  0  0  0  0  0
   54.4298   45.6092    0.7099 H   0  0  0  0  0  0
   57.9523   48.6171   -2.6764 H   0  0  0  0  0  0
   52.2165   46.0484    1.3201 H   0  0  0  0  0  0
   52.0099   47.3887    0.2833 H   0  0  0  0  0  0
   49.3713   43.2661   -1.0138 H   0  0  0  0  0  0
   56.0535   45.0669   -5.5130 H   0  0  0  0  0  0
   50.3121   44.8100    0.5523 H   0  0  0  0  0  0
   58.0366   46.3151   -6.2392 H   0  0  0  0  0  0
   49.5133   41.2583   -2.0493 H   0  0  0  0  0  0
   50.7180   43.8786   -5.2490 H   0  0  0  0  0  0
   49.6231   42.4201   -6.8405 H   0  0  0  0  0  0
   48.2933   39.8658   -3.6562 H   0  0  0  0  0  0
   48.2892   40.4635   -6.0487 H   0  0  0  0  0  0
   57.3565   47.7592    1.1814 H   0  0  0  0  0  0
  1  2  1  0  0  0
  1  3  2  0  0  0
  1  6  1  0  0  0
  2  4  2  0  0  0
  2 10  1  0  0  0
  3  7  1  0  0  0
  4  8  1  0  0  0
  4  5  1  0  0  0
  5  7  1  0  0  0
  5 13  2  0  0  0
  6  9  1  0  0  0
  6 12  2  0  0  0
  7 18  2  0  0  0
  8 14  1  0  0  0
  8 15  2  0  0  0
  9 11  2  0  0  0
  9 29  1  0  0  0
 10 16  1  0  0  0
 10 30  1  0  0  0
 10 31  1  0  0  0
 11 20  1  0  0  0
 11 17  1  0  0  0
 12 16  1  0  0  0
 12 19  1  0  0  0
 13 21  1  0  0  0
 13 32  1  0  0  0
 14 44  1  0  0  0
 16 33  1  0  0  0
 16 34  1  0  0  0
 17 19  2  0  0  0
 17 35  1  0  0  0
 18 22  1  0  0  0
 18 36  1  0  0  0
 19 37  1  0  0  0
 20 24  2  0  0  0
 20 25  1  0  0  0
 21 22  2  0  0  0
 21 23  1  0  0  0
 22 38  1  0  0  0
 24 27  1  0  0  0
 24 39  1  0  0  0
 25 26  2  0  0  0
 25 40  1  0  0  0
 26 28  1  0  0  0
 26 41  1  0  0  0
 27 28  2  0  0  0
 27 42  1  0  0  0
 28 43  1  0  0  0
M  END
> <s_m_entry_id>
25701

> <s_m_entry_name>
dock_pv.353

> <s_m_Source_Path>
/home/csk/Desktop/cluster/DUD-E-result/pyrd

> <s_m_Source_File>
dock_pv.maegz

> <i_m_Source_File_Index>
353

> <chembl_id>
CHEMBL104712

> <chembl_pref_name>
None

> <i_lp_mmshare_version>
53161

> <r_lp_tautomer_probability>
1

> <s_lp_Force_Field>
OPLS_2005

> <r_lp_Energy>
31.754968

> <b_lp_Chiralities_Consistent>
1

> <s_lp_Variant>
CHEMBL1966_lig698-1

> <s_i_glide_gridfile>
glide-grid_1d3g

> <i_i_glide_lignum>
767

> <i_i_glide_rotatable_bonds>
3

> <r_i_docking_score>
-9.08611671116125

> <r_i_glide_ligand_efficiency>
-0.324504168255759

> <r_i_glide_ligand_efficiency_sa>
-0.98538577755862

> <r_i_glide_ligand_efficiency_ln>
-2.09734251691497

> <r_i_glide_gscore>
-9.08611671116125

> <r_i_glide_lipo>
-5.98264908655822

> <r_i_glide_hbond>
0

> <r_i_glide_metal>
0

> <r_i_glide_rewards>
-1.92310295070446

> <r_i_glide_evdw>
-27.959285736084

> <r_i_glide_ecoul>
-0.433377981185913

> <r_i_glide_erotb>
0.282606310083511

> <r_i_glide_esite>
0

> <r_i_glide_emodel>
-51.3330840638251

> <r_i_glide_energy>
-28.3926637172699

> <r_i_glide_einternal>
1.1768684387207

> <i_i_glide_confnum>
11

> <i_i_glide_posenum>
228

> <r_i_glide_eff_state_penalty>
0

> <s_user_duplicate_titles>
CHEMBL1966_lig698

> <i_f3d_flags>
0

> <s_m_subgroup_title>
dock_pv

> <s_m_subgroupid>
dock_pv

> <b_m_subgroup_collapsed>
1

$$$$
CHEMBL1966_lig580
                    3D
 Schrodinger Suite 2021-1.
 41 44  0  0  1  0            999 V2000
   48.7979   40.6471   -2.6236 C   0  0  0  0  0  0
   49.0212   40.5258   -1.2392 C   0  0  0  0  0  0
   48.2460   39.6381   -0.4981 C   0  0  0  0  0  0
   47.2965   38.8155   -1.0993 C   0  0  0  0  0  0
   47.0787   38.9107   -2.4687 C   0  0  0  0  0  0
   47.8168   39.8137   -3.1872 N   0  0  0  0  0  0
   47.7054   40.0114   -4.5102 N   0  0  0  0  0  0
   48.5973   40.9225   -4.8085 C   0  0  0  0  0  0
   49.2334   41.4759   -3.6901 C   0  0  0  0  0  0
   50.1169   42.5996   -3.7194 C   0  0  0  0  0  0
   50.4894   43.0999   -4.7808 O   0  0  0  0  0  0
   50.4220   43.0553   -2.4911 N   0  0  0  0  0  0
   51.2424   44.1317   -2.1731 C   0  0  0  0  0  0
   52.4158   44.4084   -2.9003 C   0  0  0  0  0  0
   53.2515   45.4381   -2.4979 C   0  0  0  0  0  0
   52.9161   46.2159   -1.3887 C   0  0  0  0  0  0
   51.7399   45.9551   -0.6836 C   0  0  0  0  0  0
   50.9121   44.9040   -1.0626 C   0  0  0  0  0  0
   53.7191   47.2086   -0.8893 O   0  0  0  0  0  0
   54.8157   47.6976   -1.5660 C   0  0  0  0  0  0
   54.7858   48.1118   -2.9031 C   0  0  0  0  0  0
   55.9501   48.6091   -3.4933 C   0  0  0  0  0  0
   57.1133   48.7192   -2.7573 C   0  0  0  0  0  0
   57.1192   48.3369   -1.4344 C   0  0  0  0  0  0
   55.9846   47.8275   -0.8234 C   0  0  0  0  0  0
   48.8187   41.2788   -6.0982 O   0  0  0  0  0  0
   49.7552   41.1273   -0.7290 H   0  0  0  0  0  0
   48.4224   39.6008    0.5681 H   0  0  0  0  0  0
   46.7553   38.0992   -0.4998 H   0  0  0  0  0  0
   46.3571   38.3197   -3.0123 H   0  0  0  0  0  0
   49.9441   42.6254   -1.7202 H   0  0  0  0  0  0
   52.7013   43.8063   -3.7467 H   0  0  0  0  0  0
   54.1714   45.5908   -3.0448 H   0  0  0  0  0  0
   51.4849   46.5603    0.1764 H   0  0  0  0  0  0
   50.0191   44.7005   -0.4906 H   0  0  0  0  0  0
   53.8741   48.0465   -3.4796 H   0  0  0  0  0  0
   56.0202   48.9470   -4.5000 H   0  0  0  0  0  0
   58.0068   49.1116   -3.2143 H   0  0  0  0  0  0
   58.0253   48.4370   -0.8977 H   0  0  0  0  0  0
   56.0097   47.5311    0.2161 H   0  0  0  0  0  0
   49.4136   42.0421   -6.0519 H   0  0  0  0  0  0
  1  2  1  0  0  0
  1  6  1  0  0  0
  1  9  2  0  0  0
  2  3  2  0  0  0
  2 27  1  0  0  0
  3  4  1  0  0  0
  3 28  1  0  0  0
  4  5  2  0  0  0
  4 29  1  0  0  0
  5  6  1  0  0  0
  5 30  1  0  0  0
  6  7  1  0  0  0
  7  8  2  0  0  0
  8  9  1  0  0  0
  8 26  1  0  0  0
  9 10  1  0  0  0
 10 11  2  0  0  0
 10 12  1  0  0  0
 12 13  1  0  0  0
 12 31  1  0  0  0
 13 14  1  0  0  0
 13 18  2  0  0  0
 14 15  2  0  0  0
 14 32  1  0  0  0
 15 16  1  0  0  0
 15 33  1  0  0  0
 16 17  2  0  0  0
 16 19  1  0  0  0
 17 18  1  0  0  0
 17 34  1  0  0  0
 18 35  1  0  0  0
 19 20  1  0  0  0
 20 21  1  0  0  0
 20 25  2  0  0  0
 21 22  2  0  0  0
 21 36  1  0  0  0
 22 23  1  0  0  0
 22 37  1  0  0  0
 23 24  2  0  0  0
 23 38  1  0  0  0
 24 25  1  0  0  0
 24 39  1  0  0  0
 25 40  1  0  0  0
 26 41  1  0  0  0
M  END
> <s_m_entry_id>
25702

> <s_m_entry_name>
dock_pv.354

> <s_m_Source_Path>
/home/csk/Desktop/cluster/DUD-E-result/pyrd

> <s_m_Source_File>
dock_pv.maegz

> <i_m_Source_File_Index>
354

> <chembl_id>
CHEMBL4175712

> <chembl_pref_name>
None

> <i_lp_mmshare_version>
53161

> <r_lp_tautomer_probability>
1

> <s_lp_Force_Field>
OPLS_2005

> <r_lp_Energy>
25.674495

> <b_lp_Chiralities_Consistent>
1

> <s_lp_Variant>
CHEMBL1966_lig580-1

> <s_i_glide_gridfile>
glide-grid_1d3g

> <i_i_glide_lignum>
634

> <i_i_glide_rotatable_bonds>
6

> <r_i_docking_score>
-9.08455447097683

> <r_i_glide_ligand_efficiency>
-0.349405941191417

> <r_i_glide_ligand_efficiency_sa>
-1.03511372593358

> <r_i_glide_ligand_efficiency_ln>
-2.13347780865437

> <r_i_glide_gscore>
-9.08455447097683

> <r_i_glide_lipo>
-5.21990837986896

> <r_i_glide_hbond>
0

> <r_i_glide_metal>
0

> <r_i_glide_rewards>
-2.17964992452774

> <r_i_glide_evdw>
-40.2624397277832

> <r_i_glide_ecoul>
-3.12232661247253

> <r_i_glide_erotb>
0.796474811679908

> <r_i_glide_esite>
0

> <r_i_glide_emodel>
-64.5667648485681

> <r_i_glide_energy>
-43.3847663402557

> <r_i_glide_einternal>
2.41650009155273

> <i_i_glide_confnum>
43

> <i_i_glide_posenum>
395

> <r_i_glide_eff_state_penalty>
0

> <s_user_duplicate_titles>
CHEMBL1966_lig580

> <i_f3d_flags>
0

> <s_m_subgroup_title>
dock_pv

> <s_m_subgroupid>
dock_pv

> <b_m_subgroup_collapsed>
1

$$$$
CHEMBL1966_lig155
                    3D
 Schrodinger Suite 2021-1.
 35 38  0  0  1  0            999 V2000
   49.7793   41.6889   -1.8684 N   0  0  0  0  0  0
   50.1310   42.4561   -2.9303 C   0  0  0  0  0  0
   49.6220   42.2064   -4.2224 C   0  0  0  0  0  0
   48.6847   41.1736   -4.4109 C   0  0  0  0  0  0
   48.8610   40.7050   -2.0258 C   0  0  0  0  0  0
   48.2680   40.4122   -3.2860 C   0  0  0  0  0  0
   47.2382   39.4400   -3.2904 C   0  0  0  0  0  0
   46.8112   38.7738   -2.1918 N   0  0  0  0  0  0
   47.4123   39.0582   -1.0114 C   0  0  0  0  0  0
   48.4229   40.0099   -0.8736 C   0  0  0  0  0  0
   51.0474   43.5906   -2.5603 C   0  0  0  0  0  0
   52.1925   43.8749   -3.3152 C   0  0  0  0  0  0
   53.0737   44.8805   -2.9342 C   0  0  0  0  0  0
   52.8359   45.6126   -1.7722 C   0  0  0  0  0  0
   51.6708   45.3880   -1.0355 C   0  0  0  0  0  0
   50.7914   44.3804   -1.4265 C   0  0  0  0  0  0
   53.8935   46.5423   -1.3006 C   0  0  0  0  0  0
   48.0960   40.9590   -5.6389 O   0  0  0  0  0  0
   50.0532   43.0002   -5.3635 C   0  0  0  0  0  0
   50.4230   43.6142   -6.2643 N   0  0  0  0  0  0
   54.3309   46.7449   -0.0007 C   0  0  0  0  0  0
   55.3855   47.6099   -0.0964 N   0  0  0  0  0  0
   55.6308   48.0077   -1.3460 N   0  0  0  0  0  0
   54.7373   47.3680   -2.0643 C   0  0  0  0  0  0
   46.7202   39.2108   -4.2085 H   0  0  0  0  0  0
   47.0584   38.5124   -0.1479 H   0  0  0  0  0  0
   48.8608   40.2200    0.0913 H   0  0  0  0  0  0
   52.4487   43.2755   -4.1761 H   0  0  0  0  0  0
   53.9750   45.0384   -3.5085 H   0  0  0  0  0  0
   51.4710   45.9567   -0.1390 H   0  0  0  0  0  0
   49.9095   44.2007   -0.8283 H   0  0  0  0  0  0
   48.1828   41.7522   -6.1760 H   0  0  0  0  0  0
   54.0225   46.3353    0.9507 H   0  0  0  0  0  0
   55.9369   47.9380    0.6840 H   0  0  0  0  0  0
   54.7033   47.4790   -3.1387 H   0  0  0  0  0  0
  1  2  1  0  0  0
  1  5  2  0  0  0
  2  3  2  0  0  0
  2 11  1  0  0  0
  3  4  1  0  0  0
  3 19  1  0  0  0
  4  6  2  0  0  0
  4 18  1  0  0  0
  5 10  1  0  0  0
  5  6  1  0  0  0
  6  7  1  0  0  0
  7  8  2  0  0  0
  7 25  1  0  0  0
  8  9  1  0  0  0
  9 10  2  0  0  0
  9 26  1  0  0  0
 10 27  1  0  0  0
 11 12  2  0  0  0
 11 16  1  0  0  0
 12 13  1  0  0  0
 12 28  1  0  0  0
 13 14  2  0  0  0
 13 29  1  0  0  0
 14 15  1  0  0  0
 14 17  1  0  0  0
 15 16  2  0  0  0
 15 30  1  0  0  0
 16 31  1  0  0  0
 17 21  2  0  0  0
 17 24  1  0  0  0
 18 32  1  0  0  0
 19 20  3  0  0  0
 21 22  1  0  0  0
 21 33  1  0  0  0
 22 23  1  0  0  0
 22 34  1  0  0  0
 23 24  2  0  0  0
 24 35  1  0  0  0
M  END
> <s_m_entry_id>
25703

> <s_m_entry_name>
dock_pv.355

> <s_m_Source_Path>
/home/csk/Desktop/cluster/DUD-E-result/pyrd

> <s_m_Source_File>
dock_pv.maegz

> <i_m_Source_File_Index>
355

> <chembl_id>
CHEMBL1957371

> <chembl_pref_name>
None

> <i_lp_mmshare_version>
53161

> <r_lp_tautomer_probability>
0.5

> <s_lp_Force_Field>
OPLS_2005

> <r_lp_Energy>
20.668549

> <b_lp_Chiralities_Consistent>
1

> <s_lp_Variant>
CHEMBL1966_lig155-1

> <s_i_glide_gridfile>
glide-grid_1d3g

> <i_i_glide_lignum>
200

> <i_i_glide_rotatable_bonds>
3

> <r_i_docking_score>
-9.08256118670662

> <r_i_glide_ligand_efficiency>
-0.378440049446109

> <r_i_glide_ligand_efficiency_sa>
-1.09160999624513

> <r_i_glide_ligand_efficiency_ln>
-2.17387366355455

> <r_i_glide_gscore>
-9.08256118670662

> <r_i_glide_lipo>
-4.93666105801825

> <r_i_glide_hbond>
-0.018549914400894

> <r_i_glide_metal>
0

> <r_i_glide_rewards>
-2.11095589120081

> <r_i_glide_evdw>
-42.7428131103516

> <r_i_glide_ecoul>
-1.7176206111908

> <r_i_glide_erotb>
0.378389424109539

> <r_i_glide_esite>
0

> <r_i_glide_emodel>
-64.1379091386387

> <r_i_glide_energy>
-44.4604337215424

> <r_i_glide_einternal>
1.92410898208618

> <i_i_glide_confnum>
5

> <i_i_glide_posenum>
23

> <r_i_glide_eff_state_penalty>
0

> <s_user_duplicate_titles>
CHEMBL1966_lig155

> <i_f3d_flags>
0

> <s_m_subgroup_title>
dock_pv

> <s_m_subgroupid>
dock_pv

> <b_m_subgroup_collapsed>
1

$$$$
CHEMBL1966_lig403
                    3D
 Schrodinger Suite 2021-1.
 49 51  0  0  1  0            999 V2000
   56.4157   46.7408   -2.6695 C   0  0  0  0  0  0
   56.6198   45.4551   -3.3613 C   0  0  0  0  0  0
   57.0811   45.5659   -4.6335 N   0  0  0  0  0  0
   57.3904   46.6790   -5.3483 C   0  0  0  0  0  0
   57.2230   47.8273   -4.6468 N   0  0  0  0  0  0
   56.7430   47.8879   -3.3535 C   0  0  0  0  0  0
   56.6268   49.2484   -2.8228 C   0  0  0  0  0  0
   57.2230   50.2036   -3.6010 O   0  0  0  0  0  0
   56.0230   49.5666   -1.8042 O   0  0  0  0  0  0
   57.7579   46.6520   -6.5177 O   0  0  0  0  0  0
   56.4230   44.3368   -2.8990 O   0  0  0  0  0  0
   55.9590   46.6253   -1.1954 C   0  0  0  0  0  0
   54.5870   45.9643   -0.8936 C   0  0  0  0  0  0
   53.3559   46.8821   -0.9695 C   0  0  0  0  0  0
   52.0999   46.3361   -0.2255 C   0  0  0  0  0  0
   51.3898   45.1096   -0.8111 C   0  0  0  0  0  0
   50.4732   44.4100   -0.0422 C   0  0  0  0  0  0
   49.8736   43.2346   -0.4990 C   0  0  0  0  0  0
   51.6230   44.6599   -2.0990 C   0  0  0  0  0  0
   50.8582   43.6036   -2.6748 C   0  0  0  0  0  0
   50.0485   42.7765   -1.8388 C   0  0  0  0  0  0
   49.4359   41.5877   -2.4088 C   0  0  0  0  0  0
   49.3941   41.4848   -3.8064 C   0  0  0  0  0  0
   50.0237   42.4100   -4.6217 C   0  0  0  0  0  0
   50.8448   43.3837   -4.0709 C   0  0  0  0  0  0
   48.8230   40.4802   -1.5800 C   0  0  0  0  0  0
   48.9906   40.3987   -0.3626 O   0  0  0  0  0  0
   48.0230   39.6305   -2.2827 O   0  0  0  0  0  0
   47.3300   38.5754   -1.6283 C   0  0  0  0  0  0
   57.2089   44.6924   -5.1197 H   0  0  0  0  0  0
   57.4933   48.6751   -5.1249 H   0  0  0  0  0  0
   56.9773   51.0803   -3.2796 H   0  0  0  0  0  0
   56.7158   46.0100   -0.7178 H   0  0  0  0  0  0
   56.0446   47.5502   -0.6341 H   0  0  0  0  0  0
   54.4230   45.0961   -1.5277 H   0  0  0  0  0  0
   54.6432   45.5817    0.1266 H   0  0  0  0  0  0
   53.6325   47.8231   -0.4990 H   0  0  0  0  0  0
   53.1271   47.1389   -2.0046 H   0  0  0  0  0  0
   52.3865   46.1033    0.8017 H   0  0  0  0  0  0
   51.3511   47.1255   -0.1441 H   0  0  0  0  0  0
   50.2879   44.7319    0.9705 H   0  0  0  0  0  0
   49.2230   42.7072    0.1795 H   0  0  0  0  0  0
   52.3081   45.1940   -2.7405 H   0  0  0  0  0  0
   48.8833   40.6666   -4.2943 H   0  0  0  0  0  0
   49.9736   42.3002   -5.6949 H   0  0  0  0  0  0
   51.4174   44.0314   -4.7171 H   0  0  0  0  0  0
   46.7336   38.0199   -2.3519 H   0  0  0  0  0  0
   48.0230   37.8785   -1.1552 H   0  0  0  0  0  0
   46.6577   38.9645   -0.8618 H   0  0  0  0  0  0
  1  2  1  0  0  0
  1  6  2  0  0  0
  1 12  1  0  0  0
  2  3  1  0  0  0
  2 11  2  0  0  0
  3  4  1  0  0  0
  3 30  1  0  0  0
  4  5  1  0  0  0
  4 10  2  0  0  0
  5  6  1  0  0  0
  5 31  1  0  0  0
  6  7  1  0  0  0
  7  8  1  0  0  0
  7  9  2  0  0  0
  8 32  1  0  0  0
 12 13  1  0  0  0
 12 33  1  0  0  0
 12 34  1  0  0  0
 13 14  1  0  0  0
 13 35  1  0  0  0
 13 36  1  0  0  0
 14 15  1  0  0  0
 14 37  1  0  0  0
 14 38  1  0  0  0
 15 16  1  0  0  0
 15 39  1  0  0  0
 15 40  1  0  0  0
 16 17  2  0  0  0
 16 19  1  0  0  0
 17 18  1  0  0  0
 17 41  1  0  0  0
 18 21  2  0  0  0
 18 42  1  0  0  0
 19 20  2  0  0  0
 19 43  1  0  0  0
 20 21  1  0  0  0
 20 25  1  0  0  0
 21 22  1  0  0  0
 22 23  2  0  0  0
 22 26  1  0  0  0
 23 24  1  0  0  0
 23 44  1  0  0  0
 24 25  2  0  0  0
 24 45  1  0  0  0
 25 46  1  0  0  0
 26 27  2  0  0  0
 26 28  1  0  0  0
 28 29  1  0  0  0
 29 47  1  0  0  0
 29 48  1  0  0  0
 29 49  1  0  0  0
M  END
> <s_m_entry_id>
25704

> <s_m_entry_name>
dock_pv.356

> <s_m_Source_Path>
/home/csk/Desktop/cluster/DUD-E-result/pyrd

> <s_m_Source_File>
dock_pv.maegz

> <i_m_Source_File_Index>
356

> <chembl_id>
CHEMBL3955099

> <chembl_pref_name>
None

> <i_lp_mmshare_version>
53161

> <r_lp_tautomer_probability>
1

> <s_lp_Force_Field>
OPLS_2005

> <r_lp_Energy>
27.363811

> <b_lp_Chiralities_Consistent>
1

> <s_lp_Variant>
CHEMBL1966_lig403-1

> <s_i_glide_gridfile>
glide-grid_1d3g

> <i_i_glide_lignum>
453

> <i_i_glide_rotatable_bonds>
9

> <r_i_docking_score>
-9.06948830902334

> <r_i_glide_ligand_efficiency>
-0.312740976173218

> <r_i_glide_ligand_efficiency_sa>
-0.960839362099919

> <r_i_glide_ligand_efficiency_ln>
-2.07668284038625

> <r_i_glide_gscore>
-9.06948830902334

> <r_i_glide_lipo>
-5.3404928338796

> <r_i_glide_hbond>
0

> <r_i_glide_metal>
0

> <r_i_glide_rewards>
-2.05799705428697

> <r_i_glide_evdw>
-40.3010635375977

> <r_i_glide_ecoul>
-3.51689720153809

> <r_i_glide_erotb>
0.871589336253834

> <r_i_glide_esite>
0

> <r_i_glide_emodel>
-51.015750741863

> <r_i_glide_energy>
-43.8179607391357

> <r_i_glide_einternal>
5.94951057434082

> <i_i_glide_confnum>
37

> <i_i_glide_posenum>
109

> <r_i_glide_eff_state_penalty>
0

> <s_user_duplicate_titles>
CHEMBL1966_lig403

> <i_f3d_flags>
0

> <s_m_subgroup_title>
dock_pv

> <s_m_subgroupid>
dock_pv

> <b_m_subgroup_collapsed>
1

$$$$
CHEMBL1966_lig342
                    3D
 Schrodinger Suite 2021-1.
 43 44  0  0  1  0            999 V2000
   49.2688   41.0840   -2.5837 C   0  0  0  0  0  0
   48.8230   40.4100   -1.3499 C   0  0  0  0  0  0
   47.7753   39.5575   -1.5178 N   0  0  0  0  0  0
   47.0553   39.2836   -2.6407 C   0  0  0  0  0  0
   47.5147   39.9317   -3.7428 N   0  0  0  0  0  0
   48.5742   40.8097   -3.7326 C   0  0  0  0  0  0
   48.8230   41.3939   -5.0404 C   0  0  0  0  0  0
   49.2231   42.6910   -5.0069 O   0  0  0  0  0  0
   48.6187   40.8100   -6.0990 O   0  0  0  0  0  0
   46.0400   38.5959   -2.6455 O   0  0  0  0  0  0
   49.2823   40.6115   -0.2272 O   0  0  0  0  0  0
   50.5168   41.9941   -2.4673 C   0  0  0  0  0  0
   50.2241   43.4873   -2.1676 C   0  0  0  0  0  0
   51.4454   44.4043   -2.0551 C   0  0  0  0  0  0
   51.5890   45.2512   -0.9538 C   0  0  0  0  0  0
   52.7184   46.0598   -0.8308 C   0  0  0  0  0  0
   53.7292   46.0464   -1.8064 C   0  0  0  0  0  0
   53.5537   45.2127   -2.9194 C   0  0  0  0  0  0
   52.4230   44.4101   -3.0545 C   0  0  0  0  0  0
   55.0191   46.9047   -1.6650 C   0  0  0  0  0  0
   54.8475   48.2106   -2.4727 C   0  0  0  0  0  0
   56.2771   46.1657   -2.1992 C   0  0  0  0  0  0
   55.3381   47.2609   -0.1882 C   0  0  0  0  0  0
   47.4474   39.1133   -0.6737 H   0  0  0  0  0  0
   47.0288   39.7168   -4.6006 H   0  0  0  0  0  0
   49.2635   43.0764   -5.8842 H   0  0  0  0  0  0
   51.0902   41.9097   -3.3899 H   0  0  0  0  0  0
   51.1914   41.6100   -1.7036 H   0  0  0  0  0  0
   49.6231   43.5604   -1.2598 H   0  0  0  0  0  0
   49.6232   43.8924   -2.9760 H   0  0  0  0  0  0
   50.8372   45.2726   -0.1787 H   0  0  0  0  0  0
   52.7916   46.6895    0.0419 H   0  0  0  0  0  0
   54.2943   45.1769   -3.6994 H   0  0  0  0  0  0
   52.3235   43.7792   -3.9252 H   0  0  0  0  0  0
   55.7412   48.8344   -2.4242 H   0  0  0  0  0  0
   54.0200   48.8106   -2.0990 H   0  0  0  0  0  0
   54.6503   48.0084   -3.5268 H   0  0  0  0  0  0
   56.4225   45.2100   -1.6992 H   0  0  0  0  0  0
   56.2378   45.9802   -3.2720 H   0  0  0  0  0  0
   57.1851   46.7483   -2.0338 H   0  0  0  0  0  0
   55.3996   46.3684    0.4367 H   0  0  0  0  0  0
   56.2919   47.7836   -0.0980 H   0  0  0  0  0  0
   54.5920   47.9212    0.2481 H   0  0  0  0  0  0
  1  2  1  0  0  0
  1  6  2  0  0  0
  1 12  1  0  0  0
  2  3  1  0  0  0
  2 11  2  0  0  0
  3  4  1  0  0  0
  3 24  1  0  0  0
  4  5  1  0  0  0
  4 10  2  0  0  0
  5  6  1  0  0  0
  5 25  1  0  0  0
  6  7  1  0  0  0
  7  8  1  0  0  0
  7  9  2  0  0  0
  8 26  1  0  0  0
 12 13  1  0  0  0
 12 27  1  0  0  0
 12 28  1  0  0  0
 13 14  1  0  0  0
 13 29  1  0  0  0
 13 30  1  0  0  0
 14 15  2  0  0  0
 14 19  1  0  0  0
 15 16  1  0  0  0
 15 31  1  0  0  0
 16 17  2  0  0  0
 16 32  1  0  0  0
 17 18  1  0  0  0
 17 20  1  0  0  0
 18 19  2  0  0  0
 18 33  1  0  0  0
 19 34  1  0  0  0
 20 21  1  0  0  0
 20 22  1  0  0  0
 20 23  1  0  0  0
 21 35  1  0  0  0
 21 36  1  0  0  0
 21 37  1  0  0  0
 22 38  1  0  0  0
 22 39  1  0  0  0
 22 40  1  0  0  0
 23 41  1  0  0  0
 23 42  1  0  0  0
 23 43  1  0  0  0
M  END
> <s_m_entry_id>
25705

> <s_m_entry_name>
dock_pv.357

> <s_m_Source_Path>
/home/csk/Desktop/cluster/DUD-E-result/pyrd

> <s_m_Source_File>
dock_pv.maegz

> <i_m_Source_File_Index>
357

> <chembl_id>
CHEMBL3892598

> <chembl_pref_name>
None

> <i_lp_mmshare_version>
53161

> <r_lp_tautomer_probability>
1

> <s_lp_Force_Field>
OPLS_2005

> <r_lp_Energy>
15.357088

> <b_lp_Chiralities_Consistent>
1

> <s_lp_Variant>
CHEMBL1966_lig342-1

> <s_i_glide_gridfile>
glide-grid_1d3g

> <i_i_glide_lignum>
392

> <i_i_glide_rotatable_bonds>
6

> <r_i_docking_score>
-9.06789634441252

> <r_i_glide_ligand_efficiency>
-0.394256362800544

> <r_i_glide_ligand_efficiency_sa>
-1.121212650593

> <r_i_glide_ligand_efficiency_ln>
-2.19269955921705

> <r_i_glide_gscore>
-9.06789634441252

> <r_i_glide_lipo>
-4.38771772916024

> <r_i_glide_hbond>
-0.16

> <r_i_glide_metal>
0

> <r_i_glide_rewards>
-2.78760850375723

> <r_i_glide_evdw>
-34.0855445861816

> <r_i_glide_ecoul>
-5.14887762069702

> <r_i_glide_erotb>
0.744038760918588

> <r_i_glide_esite>
0

> <r_i_glide_emodel>
-57.2419365144128

> <r_i_glide_energy>
-39.2344222068787

> <r_i_glide_einternal>
2.80840802192688

> <i_i_glide_confnum>
23

> <i_i_glide_posenum>
92

> <r_i_glide_eff_state_penalty>
0

> <s_user_duplicate_titles>
CHEMBL1966_lig342

> <i_f3d_flags>
0

> <s_m_subgroup_title>
dock_pv

> <s_m_subgroupid>
dock_pv

> <b_m_subgroup_collapsed>
1

$$$$
CHEMBL1966_lig390
                    3D
 Schrodinger Suite 2021-1.
 40 42  0  0  1  0            999 V2000
   49.0536   40.7902   -2.6760 C   0  0  0  0  0  0
   48.8230   40.4100   -1.2691 C   0  0  0  0  0  0
   47.7834   39.5560   -1.0889 N   0  0  0  0  0  0
   46.8908   39.0804   -1.9973 C   0  0  0  0  0  0
   47.0670   39.5870   -3.2483 N   0  0  0  0  0  0
   48.1256   40.3928   -3.6106 C   0  0  0  0  0  0
   48.0469   40.8100   -5.0124 C   0  0  0  0  0  0
   49.2230   41.2100   -5.5608 O   0  0  0  0  0  0
   47.0086   40.8100   -5.6755 O   0  0  0  0  0  0
   46.0230   38.2692   -1.6991 O   0  0  0  0  0  0
   49.4691   40.8100   -0.3000 O   0  0  0  0  0  0
   50.3110   41.6519   -2.8955 C   0  0  0  0  0  0
   50.0182   43.1426   -2.7391 C   0  0  0  0  0  0
   51.2230   44.0100   -2.4329 C   0  0  0  0  0  0
   52.3131   44.0447   -3.2990 C   0  0  0  0  0  0
   53.4113   44.8601   -3.0239 C   0  0  0  0  0  0
   51.2188   44.8285   -1.2990 C   0  0  0  0  0  0
   52.3537   45.6100   -0.9527 C   0  0  0  0  0  0
   53.4990   45.6121   -1.8152 C   0  0  0  0  0  0
   54.6871   46.3065   -1.3843 C   0  0  0  0  0  0
   54.7096   46.8811   -0.1105 C   0  0  0  0  0  0
   53.6105   46.8100    0.7323 C   0  0  0  0  0  0
   52.4205   46.2445    0.3063 C   0  0  0  0  0  0
   55.9386   46.4100   -2.2184 C   0  0  0  0  0  0
   56.4351   45.2210   -2.6565 O   0  0  0  0  0  0
   56.5033   47.4816   -2.4192 O   0  0  0  0  0  0
   47.6421   39.2392   -0.1408 H   0  0  0  0  0  0
   46.3475   39.3518   -3.9172 H   0  0  0  0  0  0
   49.9235   41.2169   -4.9093 H   0  0  0  0  0  0
   50.8230   41.4447   -3.8262 H   0  0  0  0  0  0
   51.0674   41.3863   -2.1585 H   0  0  0  0  0  0
   49.3188   43.2100   -1.9043 H   0  0  0  0  0  0
   49.5238   43.5252   -3.6346 H   0  0  0  0  0  0
   52.3143   43.4412   -4.1947 H   0  0  0  0  0  0
   54.2478   44.8436   -3.6990 H   0  0  0  0  0  0
   50.3719   44.8167   -0.6271 H   0  0  0  0  0  0
   55.6027   47.3711    0.2546 H   0  0  0  0  0  0
   53.6778   47.2128    1.7301 H   0  0  0  0  0  0
   51.5745   46.2012    0.9767 H   0  0  0  0  0  0
   57.2604   45.3727   -3.1209 H   0  0  0  0  0  0
  1  2  1  0  0  0
  1  6  2  0  0  0
  1 12  1  0  0  0
  2  3  1  0  0  0
  2 11  2  0  0  0
  3  4  1  0  0  0
  3 27  1  0  0  0
  4  5  1  0  0  0
  4 10  2  0  0  0
  5  6  1  0  0  0
  5 28  1  0  0  0
  6  7  1  0  0  0
  7  8  1  0  0  0
  7  9  2  0  0  0
  8 29  1  0  0  0
 12 13  1  0  0  0
 12 30  1  0  0  0
 12 31  1  0  0  0
 13 14  1  0  0  0
 13 32  1  0  0  0
 13 33  1  0  0  0
 14 15  2  0  0  0
 14 17  1  0  0  0
 15 16  1  0  0  0
 15 34  1  0  0  0
 16 19  2  0  0  0
 16 35  1  0  0  0
 17 18  2  0  0  0
 17 36  1  0  0  0
 18 19  1  0  0  0
 18 23  1  0  0  0
 19 20  1  0  0  0
 20 21  2  0  0  0
 20 24  1  0  0  0
 21 22  1  0  0  0
 21 37  1  0  0  0
 22 23  2  0  0  0
 22 38  1  0  0  0
 23 39  1  0  0  0
 24 25  1  0  0  0
 24 26  2  0  0  0
 25 40  1  0  0  0
M  END
> <s_m_entry_id>
25706

> <s_m_entry_name>
dock_pv.358

> <s_m_Source_Path>
/home/csk/Desktop/cluster/DUD-E-result/pyrd

> <s_m_Source_File>
dock_pv.maegz

> <i_m_Source_File_Index>
358

> <chembl_id>
CHEMBL3959702

> <chembl_pref_name>
None

> <i_lp_mmshare_version>
53161

> <r_lp_tautomer_probability>
1

> <s_lp_Force_Field>
OPLS_2005

> <r_lp_Energy>
22.793317

> <b_lp_Chiralities_Consistent>
1

> <s_lp_Variant>
CHEMBL1966_lig390-1

> <s_i_glide_gridfile>
glide-grid_1d3g

> <i_i_glide_lignum>
440

> <i_i_glide_rotatable_bonds>
7

> <r_i_docking_score>
-9.06745773087017

> <r_i_glide_ligand_efficiency>
-0.348748374264237

> <r_i_glide_ligand_efficiency_sa>
-1.03316568649921

> <r_i_glide_ligand_efficiency_ln>
-2.1294626953393

> <r_i_glide_gscore>
-9.06745773087017

> <r_i_glide_lipo>
-4.32381760084909

> <r_i_glide_hbond>
-0.113714700042468

> <r_i_glide_metal>
0

> <r_i_glide_rewards>
-2.62324421140547

> <r_i_glide_evdw>
-42.5109329223633

> <r_i_glide_ecoul>
-4.28099012374878

> <r_i_glide_erotb>
0.761013946107347

> <r_i_glide_esite>
0

> <r_i_glide_emodel>
-61.4443866650145

> <r_i_glide_energy>
-46.7919230461121

> <r_i_glide_einternal>
6.66603565216064

> <i_i_glide_confnum>
83

> <i_i_glide_posenum>
106

> <r_i_glide_eff_state_penalty>
0

> <s_user_duplicate_titles>
CHEMBL1966_lig390

> <i_f3d_flags>
0

> <s_m_subgroup_title>
dock_pv

> <s_m_subgroupid>
dock_pv

> <b_m_subgroup_collapsed>
1

$$$$
CHEMBL1966_lig345
                    3D
 Schrodinger Suite 2021-1.
 31 32  0  0  1  0            999 V2000
   49.9549   42.1621   -3.0689 C   0  0  0  0  0  0
   50.0725   42.7503   -4.4141 C   0  0  0  0  0  0
   49.2230   42.2292   -5.3282 N   0  0  0  0  0  0
   48.3573   41.1935   -5.2016 C   0  0  0  0  0  0
   48.3760   40.6115   -3.9781 N   0  0  0  0  0  0
   49.1119   41.0813   -2.9082 C   0  0  0  0  0  0
   48.8230   40.4101   -1.6328 C   0  0  0  0  0  0
   48.0230   39.2982   -1.7310 O   0  0  0  0  0  0
   49.2230   40.8100   -0.5414 O   0  0  0  0  0  0
   47.6226   40.8100   -6.0990 O   0  0  0  0  0  0
   50.8749   43.6100   -4.7642 O   0  0  0  0  0  0
   50.8626   42.8500   -2.0242 C   0  0  0  0  0  0
   50.4478   44.2960   -1.6177 C   0  0  0  0  0  0
   51.5900   45.1850   -1.1086 C   0  0  0  0  0  0
   51.6230   45.6100    0.2245 C   0  0  0  0  0  0
   52.6930   46.3725    0.7009 C   0  0  0  0  0  0
   53.7437   46.7117   -0.1531 C   0  0  0  0  0  0
   53.7025   46.3232   -1.4927 C   0  0  0  0  0  0
   52.6292   45.5692   -1.9670 C   0  0  0  0  0  0
   54.8061   47.4040    0.3204 F   0  0  0  0  0  0
   54.7104   46.6573   -2.3304 F   0  0  0  0  0  0
   49.2555   42.6695   -6.2343 H   0  0  0  0  0  0
   47.6359   39.9394   -3.8471 H   0  0  0  0  0  0
   48.1402   38.8136   -2.5500 H   0  0  0  0  0  0
   51.0293   42.2450   -1.1366 H   0  0  0  0  0  0
   51.8444   42.8880   -2.4990 H   0  0  0  0  0  0
   50.0230   44.8100   -2.4755 H   0  0  0  0  0  0
   49.6390   44.2567   -0.8857 H   0  0  0  0  0  0
   50.8392   45.3093    0.9048 H   0  0  0  0  0  0
   52.7233   46.6738    1.7377 H   0  0  0  0  0  0
   52.6227   45.2533   -3.0007 H   0  0  0  0  0  0
  1  2  1  0  0  0
  1  6  2  0  0  0
  1 12  1  0  0  0
  2  3  1  0  0  0
  2 11  2  0  0  0
  3  4  1  0  0  0
  3 22  1  0  0  0
  4  5  1  0  0  0
  4 10  2  0  0  0
  5  6  1  0  0  0
  5 23  1  0  0  0
  6  7  1  0  0  0
  7  8  1  0  0  0
  7  9  2  0  0  0
  8 24  1  0  0  0
 12 13  1  0  0  0
 12 25  1  0  0  0
 12 26  1  0  0  0
 13 14  1  0  0  0
 13 27  1  0  0  0
 13 28  1  0  0  0
 14 15  2  0  0  0
 14 19  1  0  0  0
 15 16  1  0  0  0
 15 29  1  0  0  0
 16 17  2  0  0  0
 16 30  1  0  0  0
 17 18  1  0  0  0
 17 20  1  0  0  0
 18 19  2  0  0  0
 18 21  1  0  0  0
 19 31  1  0  0  0
M  END
> <s_m_entry_id>
25707

> <s_m_entry_name>
dock_pv.359

> <s_m_Source_Path>
/home/csk/Desktop/cluster/DUD-E-result/pyrd

> <s_m_Source_File>
dock_pv.maegz

> <i_m_Source_File_Index>
359

> <chembl_id>
CHEMBL3984707

> <chembl_pref_name>
None

> <i_lp_mmshare_version>
53161

> <r_lp_tautomer_probability>
1

> <s_lp_Force_Field>
OPLS_2005

> <r_lp_Energy>
10.894565

> <b_lp_Chiralities_Consistent>
1

> <s_lp_Variant>
CHEMBL1966_lig345-1

> <s_i_glide_gridfile>
glide-grid_1d3g

> <i_i_glide_lignum>
395

> <i_i_glide_rotatable_bonds>
5

> <r_i_docking_score>
-9.06602735074781

> <r_i_glide_ligand_efficiency>
-0.431715588130848

> <r_i_glide_ligand_efficiency_sa>
-1.19107057220604

> <r_i_glide_ligand_efficiency_ln>
-2.24155694283919

> <r_i_glide_gscore>
-9.06602735074781

> <r_i_glide_lipo>
-3.47304902107885

> <r_i_glide_hbond>
-0.220924066881104

> <r_i_glide_metal>
0

> <r_i_glide_rewards>
-3.53970614647313

> <r_i_glide_evdw>
-36.6673622131348

> <r_i_glide_ecoul>
-5.55951642990112

> <r_i_glide_erotb>
0.834947458827181

> <r_i_glide_esite>
0

> <r_i_glide_emodel>
-62.1153416518305

> <r_i_glide_energy>
-42.2268786430359

> <r_i_glide_einternal>
2.02552509307861

> <i_i_glide_confnum>
33

> <i_i_glide_posenum>
22

> <r_i_glide_eff_state_penalty>
0

> <s_user_duplicate_titles>
CHEMBL1966_lig345

> <i_f3d_flags>
0

> <s_m_subgroup_title>
dock_pv

> <s_m_subgroupid>
dock_pv

> <b_m_subgroup_collapsed>
1

$$$$
CHEMBL1966_lig185
                    3D
 Schrodinger Suite 2021-1.
 44 47  0  0  1  0            999 V2000
   46.7789   40.4111   -4.9752 O   0  0  0  0  0  0
   48.0810   40.6958   -4.6800 C   0  0  0  0  0  0
   48.8880   41.0510   -5.5347 O   0  0  0  0  0  0
   48.4231   40.5835   -3.2089 C   0  0  0  0  0  0
   47.7780   39.6102   -2.4240 C   0  0  0  0  0  0
   48.0158   39.5450   -1.0511 C   0  0  0  0  0  0
   48.9521   40.4101   -0.4989 C   0  0  0  0  0  0
   49.6230   41.3177   -1.2310 N   0  0  0  0  0  0
   49.3375   41.4446   -2.5524 C   0  0  0  0  0  0
   49.9387   42.5269   -3.2127 N   0  0  0  0  0  0
   50.8262   43.5240   -2.7585 C   0  0  0  0  0  0
   50.6832   44.2397   -1.5522 C   0  0  0  0  0  0
   49.6393   44.0264   -0.7159 F   0  0  0  0  0  0
   51.6249   45.2098   -1.1946 C   0  0  0  0  0  0
   52.7307   45.4841   -2.0132 C   0  0  0  0  0  0
   52.8341   44.7995   -3.2284 C   0  0  0  0  0  0
   51.9006   43.8329   -3.5933 C   0  0  0  0  0  0
   52.0231   43.2100   -4.7829 F   0  0  0  0  0  0
   53.8148   46.4148   -1.6021 C   0  0  0  0  0  0
   54.3030   46.4195   -0.2895 C   0  0  0  0  0  0
   55.3969   47.2101    0.0587 C   0  0  0  0  0  0
   56.0061   48.0214   -0.8983 C   0  0  0  0  0  0
   55.5111   48.0604   -2.2106 C   0  0  0  0  0  0
   56.0230   48.8431   -3.2236 O   0  0  0  0  0  0
   57.0819   49.7397   -2.9254 C   0  0  0  0  0  0
   58.4947   49.2386   -3.0408 C   0  0  0  0  0  0
   57.9397   50.1728   -4.0887 C   0  0  0  0  0  0
   54.4236   47.2553   -2.5421 C   0  0  0  0  0  0
   46.2394   40.3193   -4.1875 H   0  0  0  0  0  0
   47.0832   38.9049   -2.8597 H   0  0  0  0  0  0
   47.5196   38.8099   -0.4324 H   0  0  0  0  0  0
   49.2220   40.3494    0.5458 H   0  0  0  0  0  0
   49.7724   42.5332   -4.2112 H   0  0  0  0  0  0
   51.5040   45.7332   -0.2572 H   0  0  0  0  0  0
   53.6687   44.9906   -3.8839 H   0  0  0  0  0  0
   53.8638   45.7804    0.4625 H   0  0  0  0  0  0
   55.7792   47.1879    1.0693 H   0  0  0  0  0  0
   56.8582   48.6166   -0.6037 H   0  0  0  0  0  0
   56.7919   50.4840   -2.1818 H   0  0  0  0  0  0
   59.2259   49.6100   -2.3217 H   0  0  0  0  0  0
   58.6463   48.1902   -3.2978 H   0  0  0  0  0  0
   57.7055   49.7762   -5.0763 H   0  0  0  0  0  0
   58.2727   51.2102   -4.1185 H   0  0  0  0  0  0
   54.0549   47.2857   -3.5575 H   0  0  0  0  0  0
  1  2  1  0  0  0
  1 29  1  0  0  0
  2  3  2  0  0  0
  2  4  1  0  0  0
  4  5  2  0  0  0
  4  9  1  0  0  0
  5  6  1  0  0  0
  5 30  1  0  0  0
  6  7  2  0  0  0
  6 31  1  0  0  0
  7  8  1  0  0  0
  7 32  1  0  0  0
  8  9  2  0  0  0
  9 10  1  0  0  0
 10 11  1  0  0  0
 10 33  1  0  0  0
 11 12  2  0  0  0
 11 17  1  0  0  0
 12 13  1  0  0  0
 12 14  1  0  0  0
 14 15  2  0  0  0
 14 34  1  0  0  0
 15 16  1  0  0  0
 15 19  1  0  0  0
 16 17  2  0  0  0
 16 35  1  0  0  0
 17 18  1  0  0  0
 19 20  2  0  0  0
 19 28  1  0  0  0
 20 21  1  0  0  0
 20 36  1  0  0  0
 21 22  2  0  0  0
 21 37  1  0  0  0
 22 23  1  0  0  0
 22 38  1  0  0  0
 23 24  1  0  0  0
 23 28  2  0  0  0
 24 25  1  0  0  0
 25 26  1  0  0  0
 25 27  1  0  0  0
 25 39  1  0  0  0
 26 27  1  0  0  0
 26 40  1  0  0  0
 26 41  1  0  0  0
 27 42  1  0  0  0
 27 43  1  0  0  0
 28 44  1  0  0  0
M  END
> <s_m_entry_id>
25708

> <s_m_entry_name>
dock_pv.360

> <s_m_Source_Path>
/home/csk/Desktop/cluster/DUD-E-result/pyrd

> <s_m_Source_File>
dock_pv.maegz

> <i_m_Source_File_Index>
360

> <chembl_id>
CHEMBL2263643

> <chembl_pref_name>
None

> <i_lp_mmshare_version>
53161

> <r_lp_tautomer_probability>
1

> <s_lp_Force_Field>
OPLS_2005

> <r_lp_Energy>
34.173108

> <b_lp_Chiralities_Consistent>
1

> <s_lp_Variant>
CHEMBL1966_lig185-1

> <s_i_glide_gridfile>
glide-grid_1d3g

> <i_i_glide_lignum>
230

> <i_i_glide_rotatable_bonds>
7

> <r_i_docking_score>
-9.06518595125062

> <r_i_glide_ligand_efficiency>
-0.323756641116094

> <r_i_glide_ligand_efficiency_sa>
-0.983115844892655

> <r_i_glide_ligand_efficiency_ln>
-2.09251108297378

> <r_i_glide_gscore>
-9.06518595125062

> <r_i_glide_lipo>
-5.17373109790914

> <r_i_glide_hbond>
0

> <r_i_glide_metal>
0

> <r_i_glide_rewards>
-2.00513836758826

> <r_i_glide_evdw>
-43.007682800293

> <r_i_glide_ecoul>
-3.55306553840637

> <r_i_glide_erotb>
0.797027485022381

> <r_i_glide_esite>
0

> <r_i_glide_emodel>
-67.2184031140949

> <r_i_glide_energy>
-46.5607483386993

> <r_i_glide_einternal>
3.45081233978271

> <i_i_glide_confnum>
61

> <i_i_glide_posenum>
11

> <r_i_glide_eff_state_penalty>
0

> <s_user_duplicate_titles>
CHEMBL1966_lig185

> <i_f3d_flags>
0

> <s_m_subgroup_title>
dock_pv

> <s_m_subgroupid>
dock_pv

> <b_m_subgroup_collapsed>
1

$$$$
CHEMBL1966_lig170
                    3D
 Schrodinger Suite 2021-1.
 31 33  0  0  1  0            999 V2000
   53.9129   46.1997   -1.6705 C   0  0  0  0  0  0
   54.0612   46.8328   -0.4299 C   0  0  0  0  0  0
   53.0739   46.7272    0.5432 C   0  0  0  0  0  0
   51.9376   45.9664    0.2994 C   0  0  0  0  0  0
   51.7654   45.2861   -0.9154 C   0  0  0  0  0  0
   52.7406   45.4647   -1.9147 C   0  0  0  0  0  0
   55.0092   46.2575   -2.7455 C   0  0  0  0  0  0
   55.4158   44.6072   -3.2990 Cl  0  0  0  0  0  0
   54.4230   47.2100   -4.1309 Cl  0  0  0  0  0  0
   56.5403   46.9986   -2.1849 Cl  0  0  0  0  0  0
   50.6462   44.2688   -1.0308 C   0  0  0  0  0  0
   50.8229   43.2456   -1.9049 N   0  0  0  0  0  0
   49.6564   44.3679   -0.3022 O   0  0  0  0  0  0
   49.9997   42.1294   -1.9549 C   0  0  0  0  0  0
   49.4827   41.6812   -3.0653 N   0  0  0  0  0  0
   49.6230   41.2100   -0.4990 S   0  0  0  0  0  0
   48.5110   40.2593   -1.4561 C   0  0  0  0  0  0
   48.5889   40.6796   -2.8128 C   0  0  0  0  0  0
   47.7099   40.1212   -3.7521 C   0  0  0  0  0  0
   46.7524   39.2100   -3.2990 C   0  0  0  0  0  0
   46.7290   38.7652   -1.9805 C   0  0  0  0  0  0
   47.6230   39.2606   -1.0374 C   0  0  0  0  0  0
   54.9388   47.4154   -0.1948 H   0  0  0  0  0  0
   53.2017   47.2100    1.5010 H   0  0  0  0  0  0
   51.2230   45.8503    1.1010 H   0  0  0  0  0  0
   52.6424   44.9611   -2.8658 H   0  0  0  0  0  0
   51.4443   43.3815   -2.6856 H   0  0  0  0  0  0
   47.7217   40.4470   -4.7800 H   0  0  0  0  0  0
   46.0230   38.8146   -3.9917 H   0  0  0  0  0  0
   45.9952   38.0307   -1.6823 H   0  0  0  0  0  0
   47.5870   38.9345   -0.0081 H   0  0  0  0  0  0
  1  2  2  0  0  0
  1  6  1  0  0  0
  1  7  1  0  0  0
  2  3  1  0  0  0
  2 23  1  0  0  0
  3  4  2  0  0  0
  3 24  1  0  0  0
  4  5  1  0  0  0
  4 25  1  0  0  0
  5  6  2  0  0  0
  5 11  1  0  0  0
  6 26  1  0  0  0
  7  8  1  0  0  0
  7  9  1  0  0  0
  7 10  1  0  0  0
 11 12  1  0  0  0
 11 13  2  0  0  0
 12 14  1  0  0  0
 12 27  1  0  0  0
 14 15  2  0  0  0
 14 16  1  0  0  0
 15 18  1  0  0  0
 16 17  1  0  0  0
 17 18  2  0  0  0
 17 22  1  0  0  0
 18 19  1  0  0  0
 19 20  2  0  0  0
 19 28  1  0  0  0
 20 21  1  0  0  0
 20 29  1  0  0  0
 21 22  2  0  0  0
 21 30  1  0  0  0
 22 31  1  0  0  0
M  END
> <s_m_entry_id>
25709

> <s_m_entry_name>
dock_pv.361

> <s_m_Source_Path>
/home/csk/Desktop/cluster/DUD-E-result/pyrd

> <s_m_Source_File>
dock_pv.maegz

> <i_m_Source_File_Index>
361

> <chembl_id>
CHEMBL2178105

> <chembl_pref_name>
None

> <i_lp_mmshare_version>
53161

> <r_lp_tautomer_probability>
1

> <s_lp_Force_Field>
OPLS_2005

> <r_lp_Energy>
19.615978

> <b_lp_Chiralities_Consistent>
1

> <s_lp_Variant>
CHEMBL1966_lig170-1

> <s_i_glide_gridfile>
glide-grid_1d3g

> <i_i_glide_lignum>
215

> <i_i_glide_rotatable_bonds>
4

> <r_i_docking_score>
-9.05982418079368

> <r_i_glide_ligand_efficiency>
-0.411810190036076

> <r_i_glide_ligand_efficiency_sa>
-1.15390834805683

> <r_i_glide_ligand_efficiency_ln>
-2.21455149490236

> <r_i_glide_gscore>
-9.05982418079368

> <r_i_glide_lipo>
-5.4599453343377

> <r_i_glide_hbond>
0

> <r_i_glide_metal>
0

> <r_i_glide_rewards>
-2.05447923495382

> <r_i_glide_evdw>
-37.4744758605957

> <r_i_glide_ecoul>
-0.606306552886963

> <r_i_glide_erotb>
0.41927016446067

> <r_i_glide_esite>
0

> <r_i_glide_emodel>
-49.4319525157471

> <r_i_glide_energy>
-38.0807824134827

> <r_i_glide_einternal>
8.95573329925537

> <i_i_glide_confnum>
4

> <i_i_glide_posenum>
350

> <r_i_glide_eff_state_penalty>
0

> <s_user_duplicate_titles>
CHEMBL1966_lig170

> <i_f3d_flags>
0

> <s_m_subgroup_title>
dock_pv

> <s_m_subgroupid>
dock_pv

> <b_m_subgroup_collapsed>
1

$$$$
CHEMBL1966_lig429
                    3D
 Schrodinger Suite 2021-1.
 46 48  0  0  1  0            999 V2000
   47.4376   37.3705   -0.7592 C   0  0  0  0  0  0
   47.4867   38.8646   -1.0782 C   0  0  0  0  0  0
   47.2825   39.0165   -2.4813 O   0  0  0  0  0  0
   47.9171   40.0100   -3.2028 C   0  0  0  0  0  0
   47.4440   40.2092   -4.4991 C   0  0  0  0  0  0
   47.9924   41.1858   -5.3241 C   0  0  0  0  0  0
   49.0178   41.9947   -4.8531 C   0  0  0  0  0  0
   49.4962   41.8488   -3.5464 C   0  0  0  0  0  0
   48.9582   40.8337   -2.7387 C   0  0  0  0  0  0
   50.4914   42.8200   -3.0264 C   0  0  0  0  0  0
   51.5896   43.2297   -3.7886 C   0  0  0  0  0  0
   52.4230   44.2293   -3.2990 C   0  0  0  0  0  0
   52.0975   44.8689   -2.0974 C   0  0  0  0  0  0
   52.8702   45.9003   -1.5389 N   0  0  0  0  0  0
   54.0196   46.5792   -1.9862 C   0  0  0  0  0  0
   54.1890   46.8349   -3.3502 C   0  0  0  0  0  0
   55.3316   47.4596   -3.8309 C   0  0  0  0  0  0
   56.3150   47.8902   -2.9473 C   0  0  0  0  0  0
   57.5430   48.6081   -3.4754 C   0  0  0  0  0  0
   56.1586   47.6575   -1.5799 C   0  0  0  0  0  0
   55.0159   47.0066   -1.0768 C   0  0  0  0  0  0
   54.8827   46.8097    0.4184 C   0  0  0  0  0  0
   53.8043   46.6454    0.9859 O   0  0  0  0  0  0
   56.0580   46.8100    1.1008 O   0  0  0  0  0  0
   50.9964   44.3942   -1.3787 C   0  0  0  0  0  0
   50.2257   43.3620   -1.8059 N   0  0  0  0  0  0
   47.6230   37.2052    0.3009 H   0  0  0  0  0  0
   46.4639   36.9462   -1.0000 H   0  0  0  0  0  0
   48.1957   36.8213   -1.3192 H   0  0  0  0  0  0
   48.4231   39.2550   -0.6968 H   0  0  0  0  0  0
   46.6935   39.3898   -0.5452 H   0  0  0  0  0  0
   46.6225   39.6099   -4.8611 H   0  0  0  0  0  0
   47.5961   41.3494   -6.3123 H   0  0  0  0  0  0
   49.3960   42.7826   -5.4896 H   0  0  0  0  0  0
   49.3488   40.7392   -1.7397 H   0  0  0  0  0  0
   51.7963   42.8101   -4.7568 H   0  0  0  0  0  0
   53.2975   44.4895   -3.8658 H   0  0  0  0  0  0
   52.6588   46.0966   -0.5685 H   0  0  0  0  0  0
   53.4240   46.5713   -4.0618 H   0  0  0  0  0  0
   55.4409   47.6100   -4.8950 H   0  0  0  0  0  0
   57.7643   48.3139   -4.5025 H   0  0  0  0  0  0
   58.4235   48.3590   -2.8871 H   0  0  0  0  0  0
   57.3983   49.6886   -3.4398 H   0  0  0  0  0  0
   56.9344   48.0070   -0.9107 H   0  0  0  0  0  0
   55.8654   46.8097    2.0451 H   0  0  0  0  0  0
   50.7239   44.8263   -0.4266 H   0  0  0  0  0  0
  1  2  1  0  0  0
  1 27  1  0  0  0
  1 28  1  0  0  0
  1 29  1  0  0  0
  2  3  1  0  0  0
  2 30  1  0  0  0
  2 31  1  0  0  0
  3  4  1  0  0  0
  4  5  2  0  0  0
  4  9  1  0  0  0
  5  6  1  0  0  0
  5 32  1  0  0  0
  6  7  2  0  0  0
  6 33  1  0  0  0
  7  8  1  0  0  0
  7 34  1  0  0  0
  8  9  2  0  0  0
  8 10  1  0  0  0
  9 35  1  0  0  0
 10 11  2  0  0  0
 10 26  1  0  0  0
 11 12  1  0  0  0
 11 36  1  0  0  0
 12 13  2  0  0  0
 12 37  1  0  0  0
 13 14  1  0  0  0
 13 25  1  0  0  0
 14 15  1  0  0  0
 14 38  1  0  0  0
 15 16  2  0  0  0
 15 21  1  0  0  0
 16 17  1  0  0  0
 16 39  1  0  0  0
 17 18  2  0  0  0
 17 40  1  0  0  0
 18 19  1  0  0  0
 18 20  1  0  0  0
 19 41  1  0  0  0
 19 42  1  0  0  0
 19 43  1  0  0  0
 20 21  2  0  0  0
 20 44  1  0  0  0
 21 22  1  0  0  0
 22 23  2  0  0  0
 22 24  1  0  0  0
 24 45  1  0  0  0
 25 26  2  0  0  0
 25 46  1  0  0  0
M  END
> <s_m_entry_id>
25710

> <s_m_entry_name>
dock_pv.362

> <s_m_Source_Path>
/home/csk/Desktop/cluster/DUD-E-result/pyrd

> <s_m_Source_File>
dock_pv.maegz

> <i_m_Source_File_Index>
362

> <chembl_id>
CHEMBL3674639

> <chembl_pref_name>
None

> <i_lp_mmshare_version>
53161

> <r_lp_tautomer_probability>
0.999999999999999

> <s_lp_Force_Field>
OPLS_2005

> <r_lp_Energy>
31.018971

> <b_lp_Chiralities_Consistent>
1

> <s_lp_Variant>
CHEMBL1966_lig429-1

> <s_i_glide_gridfile>
glide-grid_1d3g

> <i_i_glide_lignum>
479

> <i_i_glide_rotatable_bonds>
7

> <r_i_docking_score>
-9.05268996511045

> <r_i_glide_ligand_efficiency>
-0.348180383273479

> <r_i_glide_ligand_efficiency_sa>
-1.03148301542403

> <r_i_glide_ligand_efficiency_ln>
-2.12599453400762

> <r_i_glide_gscore>
-9.05268996511045

> <r_i_glide_lipo>
-5.48080311883356

> <r_i_glide_hbond>
0

> <r_i_glide_metal>
0

> <r_i_glide_rewards>
-1.78914581098552

> <r_i_glide_evdw>
-45.882251739502

> <r_i_glide_ecoul>
-1.81857168674469

> <r_i_glide_erotb>
0.78415730469543

> <r_i_glide_esite>
0

> <r_i_glide_emodel>
-68.8192008336456

> <r_i_glide_energy>
-47.7008234262466

> <r_i_glide_einternal>
6.03072214126587

> <i_i_glide_confnum>
12

> <i_i_glide_posenum>
374

> <r_i_glide_eff_state_penalty>
0

> <s_user_duplicate_titles>
CHEMBL1966_lig429

> <i_f3d_flags>
0

> <s_m_subgroup_title>
dock_pv

> <s_m_subgroupid>
dock_pv

> <b_m_subgroup_collapsed>
1

$$$$
CHEMBL1966_lig62
                    3D
 Schrodinger Suite 2021-1.
 42 44  0  0  1  0            999 V2000
   51.0344   43.8168   -2.6815 C   0  0  0  0  0  0
   48.8230   40.8498   -2.8990 C   0  0  0  0  0  0
   48.0247   39.9661   -2.2374 C   0  0  0  0  0  0
   52.9821   45.6836   -1.8804 C   0  0  0  0  0  0
   50.8266   44.6078   -1.5344 C   0  0  0  0  0  0
   52.2001   43.9810   -3.4309 C   0  0  0  0  0  0
   51.7936   45.5441   -1.1468 C   0  0  0  0  0  0
   53.1706   44.8937   -3.0207 C   0  0  0  0  0  0
   49.8217   41.7629   -2.3402 C   0  0  0  0  0  0
   50.1136   42.8373   -3.0951 N   0  0  0  0  0  0
   54.0764   46.5927   -1.4550 C   0  0  0  0  0  0
   48.0230   39.6102   -0.8278 C   0  0  0  0  0  0
   57.5296   49.1407   -3.3528 C   0  0  0  0  0  0
   54.5908   47.5412   -2.3476 C   0  0  0  0  0  0
   56.1619   49.2102   -2.9550 O   0  0  0  0  0  0
   50.3743   41.6101   -1.2548 O   0  0  0  0  0  0
   47.2390   40.0640   -4.4293 O   0  0  0  0  0  0
   48.8230   40.0100    0.0077 O   0  0  0  0  0  0
   55.7146   48.2999   -2.0268 C   0  0  0  0  0  0
   48.4617   40.7750   -4.3716 C   0  0  0  0  0  0
   47.0606   39.3515   -3.2173 C   0  0  0  0  0  0
   54.3378   44.9683   -3.6990 F   0  0  0  0  0  0
   51.5871   46.2990   -0.0415 F   0  0  0  0  0  0
   52.4230   43.2100   -4.5213 F   0  0  0  0  0  0
   49.6950   44.4766   -0.8000 F   0  0  0  0  0  0
   57.6705   49.9110   -4.4301 F   0  0  0  0  0  0
   58.3471   49.6101   -2.4101 F   0  0  0  0  0  0
   57.8803   47.9007   -3.6996 F   0  0  0  0  0  0
   47.0251   38.7508   -0.4990 O   0  0  0  0  0  0
   54.6784   46.4503   -0.2001 C   0  0  0  0  0  0
   55.7974   47.2100    0.1347 C   0  0  0  0  0  0
   56.3184   48.1286   -0.7774 C   0  0  0  0  0  0
   49.7199   42.9250   -4.0194 H   0  0  0  0  0  0
   54.1377   47.6671   -3.3208 H   0  0  0  0  0  0
   49.2229   40.2362   -4.9346 H   0  0  0  0  0  0
   48.3231   41.7480   -4.8454 H   0  0  0  0  0  0
   47.2646   38.2858   -3.2990 H   0  0  0  0  0  0
   46.0209   39.4572   -2.9035 H   0  0  0  0  0  0
   47.0942   38.5868    0.4505 H   0  0  0  0  0  0
   54.3036   45.7229    0.5060 H   0  0  0  0  0  0
   56.2653   47.0854    1.1008 H   0  0  0  0  0  0
   57.1825   48.7137   -0.4989 H   0  0  0  0  0  0
  1  5  2  0  0  0
  1  6  1  0  0  0
  1 10  1  0  0  0
  2  9  1  0  0  0
  2  3  2  0  0  0
  2 20  1  0  0  0
  3 12  1  0  0  0
  3 21  1  0  0  0
  4  8  1  0  0  0
  4 11  1  0  0  0
  4  7  2  0  0  0
  5  7  1  0  0  0
  5 25  1  0  0  0
  6  8  2  0  0  0
  6 24  1  0  0  0
  7 23  1  0  0  0
  8 22  1  0  0  0
  9 10  1  0  0  0
  9 16  2  0  0  0
 10 33  1  0  0  0
 11 14  1  0  0  0
 11 30  2  0  0  0
 12 18  2  0  0  0
 12 29  1  0  0  0
 13 15  1  0  0  0
 13 26  1  0  0  0
 13 27  1  0  0  0
 13 28  1  0  0  0
 14 19  2  0  0  0
 14 34  1  0  0  0
 15 19  1  0  0  0
 17 20  1  0  0  0
 17 21  1  0  0  0
 19 32  1  0  0  0
 20 35  1  0  0  0
 20 36  1  0  0  0
 21 37  1  0  0  0
 21 38  1  0  0  0
 29 39  1  0  0  0
 30 31  1  0  0  0
 30 40  1  0  0  0
 31 32  2  0  0  0
 31 41  1  0  0  0
 32 42  1  0  0  0
M  END
> <s_m_entry_id>
25711

> <s_m_entry_name>
dock_pv.363

> <s_m_Source_Path>
/home/csk/Desktop/cluster/DUD-E-result/pyrd

> <s_m_Source_File>
dock_pv.maegz

> <i_m_Source_File_Index>
363

> <chembl_id>
CHEMBL194954

> <chembl_pref_name>
None

> <i_lp_mmshare_version>
53161

> <r_lp_tautomer_probability>
1

> <s_lp_Force_Field>
OPLS_2005

> <r_lp_Energy>
42.525971

> <b_lp_Chiralities_Consistent>
1

> <s_lp_Variant>
CHEMBL1966_lig62-1

> <s_i_glide_gridfile>
glide-grid_1d3g

> <i_i_glide_lignum>
68

> <i_i_glide_rotatable_bonds>
8

> <r_i_docking_score>
-9.05023935579555

> <r_i_glide_ligand_efficiency>
-0.282819979868611

> <r_i_glide_ligand_efficiency_sa>
-0.897897466084825

> <r_i_glide_ligand_efficiency_ln>
-2.02659529197005

> <r_i_glide_gscore>
-9.05023935579555

> <r_i_glide_lipo>
-4.82637041040216

> <r_i_glide_hbond>
0

> <r_i_glide_metal>
0

> <r_i_glide_rewards>
-1.79797603924793

> <r_i_glide_evdw>
-43.106819152832

> <r_i_glide_ecoul>
-5.52979421615601

> <r_i_glide_erotb>
0.558917183919537

> <r_i_glide_esite>
0

> <r_i_glide_emodel>
-64.8396740631392

> <r_i_glide_energy>
-48.636613368988

> <r_i_glide_einternal>
7.21384048461914

> <i_i_glide_confnum>
85

> <i_i_glide_posenum>
41

> <r_i_glide_eff_state_penalty>
0

> <s_user_duplicate_titles>
CHEMBL1966_lig62,327343

> <i_f3d_flags>
0

> <s_m_subgroup_title>
dock_pv

> <s_m_subgroupid>
dock_pv

> <b_m_subgroup_collapsed>
1

$$$$
CHEMBL1966_lig89
                    3D
 Schrodinger Suite 2021-1.
 40 42  0  0  1  0            999 V2000
   56.1440   48.2258   -1.1334 C   0  0  0  0  0  0
   55.6069   48.1624   -2.4279 C   0  0  0  0  0  0
   54.4996   47.3442   -2.6554 C   0  0  0  0  0  0
   53.9207   46.5854   -1.6283 C   0  0  0  0  0  0
   52.8224   45.6255   -1.9151 C   0  0  0  0  0  0
   54.4586   46.6874   -0.3407 C   0  0  0  0  0  0
   55.5681   47.4927   -0.0990 C   0  0  0  0  0  0
   51.7338   45.4560   -1.0514 C   0  0  0  0  0  0
   50.8054   44.4372   -1.2744 C   0  0  0  0  0  0
   50.9184   43.5863   -2.3799 C   0  0  0  0  0  0
   52.9003   44.8105   -3.0482 C   0  0  0  0  0  0
   49.5052   41.8197   -3.4223 C   0  0  0  0  0  0
   48.5080   40.8100   -3.0523 C   0  0  0  0  0  0
   48.5048   40.1176   -1.8189 C   0  0  0  0  0  0
   47.4224   40.3687   -3.8472 C   0  0  0  0  0  0
   56.1047   48.8475   -3.5173 O   0  0  0  0  0  0
   57.2592   49.6624   -3.3512 C   0  0  0  0  0  0
   50.0639   42.4636   -2.3757 N   0  0  0  0  0  0
   51.9671   43.8106   -3.2988 C   0  0  0  0  0  0
   52.1638   43.0532   -4.3892 F   0  0  0  0  0  0
   49.7480   42.0852   -4.5948 O   0  0  0  0  0  0
   47.4748   39.2097   -1.6517 C   0  0  0  0  0  0
   46.4230   39.2100   -3.0086 S   0  0  0  0  0  0
   47.0377   40.7592   -5.1794 C   0  0  0  0  0  0
   47.8399   40.8098   -6.0990 O   0  0  0  0  0  0
   45.7094   41.0513   -5.3023 O   0  0  0  0  0  0
   57.0084   48.8333   -0.9097 H   0  0  0  0  0  0
   54.0999   47.2869   -3.6579 H   0  0  0  0  0  0
   54.0457   46.1069    0.4723 H   0  0  0  0  0  0
   55.9888   47.5414    0.8925 H   0  0  0  0  0  0
   51.6343   46.0778   -0.1732 H   0  0  0  0  0  0
   50.0132   44.2965   -0.5527 H   0  0  0  0  0  0
   53.7374   44.9149   -3.7192 H   0  0  0  0  0  0
   49.2468   40.2687   -1.0482 H   0  0  0  0  0  0
   57.4912   50.1566   -4.2948 H   0  0  0  0  0  0
   57.0977   50.4371   -2.6013 H   0  0  0  0  0  0
   58.1277   49.0667   -3.0643 H   0  0  0  0  0  0
   49.6993   42.2193   -1.4691 H   0  0  0  0  0  0
   47.2770   38.5775   -0.7970 H   0  0  0  0  0  0
   45.2562   41.0915   -4.4562 H   0  0  0  0  0  0
  1  2  2  0  0  0
  1  7  1  0  0  0
  1 27  1  0  0  0
  2  3  1  0  0  0
  2 16  1  0  0  0
  3  4  2  0  0  0
  3 28  1  0  0  0
  4  5  1  0  0  0
  4  6  1  0  0  0
  5  8  2  0  0  0
  5 11  1  0  0  0
  6  7  2  0  0  0
  6 29  1  0  0  0
  7 30  1  0  0  0
  8  9  1  0  0  0
  8 31  1  0  0  0
  9 10  2  0  0  0
  9 32  1  0  0  0
 10 18  1  0  0  0
 10 19  1  0  0  0
 11 19  2  0  0  0
 11 33  1  0  0  0
 12 13  1  0  0  0
 12 18  1  0  0  0
 12 21  2  0  0  0
 13 14  1  0  0  0
 13 15  2  0  0  0
 14 22  2  0  0  0
 14 34  1  0  0  0
 15 23  1  0  0  0
 15 24  1  0  0  0
 16 17  1  0  0  0
 17 35  1  0  0  0
 17 36  1  0  0  0
 17 37  1  0  0  0
 18 38  1  0  0  0
 19 20  1  0  0  0
 22 23  1  0  0  0
 22 39  1  0  0  0
 24 25  2  0  0  0
 24 26  1  0  0  0
 26 40  1  0  0  0
M  END
> <s_m_entry_id>
25712

> <s_m_entry_name>
dock_pv.364

> <s_m_Source_Path>
/home/csk/Desktop/cluster/DUD-E-result/pyrd

> <s_m_Source_File>
dock_pv.maegz

> <i_m_Source_File_Index>
364

> <chembl_id>
CHEMBL371732

> <chembl_pref_name>
None

> <i_lp_mmshare_version>
53161

> <r_lp_tautomer_probability>
1

> <s_lp_Force_Field>
OPLS_2005

> <r_lp_Energy>
27.568791

> <b_lp_Chiralities_Consistent>
1

> <s_lp_Variant>
CHEMBL1966_lig89-1

> <s_i_glide_gridfile>
glide-grid_1d3g

> <i_i_glide_lignum>
98

> <i_i_glide_rotatable_bonds>
7

> <r_i_docking_score>
-9.04519737030152

> <r_i_glide_ligand_efficiency>
-0.347892206550058

> <r_i_glide_ligand_efficiency_sa>
-1.03062929301482

> <r_i_glide_ligand_efficiency_ln>
-2.12423492270195

> <r_i_glide_gscore>
-9.04519737030152

> <r_i_glide_lipo>
-5.23643756351682

> <r_i_glide_hbond>
-0.2709315991664

> <r_i_glide_metal>
0

> <r_i_glide_rewards>
-1.58487622168516

> <r_i_glide_evdw>
-40.8313751220703

> <r_i_glide_ecoul>
-3.87771034240723

> <r_i_glide_erotb>
0.699745012677929

> <r_i_glide_esite>
-0.0294716911464673

> <r_i_glide_emodel>
-58.8347137232075

> <r_i_glide_energy>
-44.7090854644775

> <r_i_glide_einternal>
13.270899772644

> <i_i_glide_confnum>
51

> <i_i_glide_posenum>
2

> <r_i_glide_eff_state_penalty>
0

> <s_user_duplicate_titles>
CHEMBL1966_lig89,334809

> <i_f3d_flags>
0

> <s_m_subgroup_title>
dock_pv

> <s_m_subgroupid>
dock_pv

> <b_m_subgroup_collapsed>
1

$$$$
CHEMBL1966_lig13
                    3D
 Schrodinger Suite 2021-1.
 44 46  0  0  1  0            999 V2000
   52.4231   45.3252   -2.0094 C   0  0  0  0  0  0
   50.6274   43.1247   -1.9548 C   0  0  0  0  0  0
   50.5955   44.1228   -0.9529 C   0  0  0  0  0  0
   51.5247   43.3179   -3.0206 C   0  0  0  0  0  0
   51.4884   45.2099   -0.9695 C   0  0  0  0  0  0
   52.3883   44.4100   -3.0543 C   0  0  0  0  0  0
   53.4272   46.2989   -2.1082 N   0  0  0  0  0  0
   54.3715   46.5784   -1.1907 C   0  0  0  0  0  0
   55.4531   47.3766   -1.7391 C   0  0  0  0  0  0
   56.3228   47.0109   -2.7309 C   0  0  0  0  0  0
   49.7605   41.8866   -1.8750 C   0  0  0  0  0  0
   56.4225   45.7009   -3.3620 C   0  0  0  0  0  0
   54.3408   46.2306   -0.0106 O   0  0  0  0  0  0
   49.0457   41.3832   -2.9873 C   0  0  0  0  0  0
   55.9803   44.6524   -2.9039 O   0  0  0  0  0  0
   51.6356   42.4101   -4.0132 F   0  0  0  0  0  0
   49.7023   44.0355    0.0624 F   0  0  0  0  0  0
   53.2229   44.5467   -4.0989 F   0  0  0  0  0  0
   51.4444   46.1314    0.0215 F   0  0  0  0  0  0
   57.0950   45.7452   -4.5441 O   0  0  0  0  0  0
   55.6705   48.8141   -1.3289 C   0  0  0  0  0  0
   57.2198   48.1799   -3.1166 C   0  0  0  0  0  0
   49.1328   42.0820   -4.1769 O   0  0  0  0  0  0
   49.6230   41.2101   -0.6490 C   0  0  0  0  0  0
   56.9728   49.2010   -2.0161 C   0  0  0  0  0  0
   48.2089   40.2588   -2.8377 C   0  0  0  0  0  0
   48.3943   41.6637   -5.3153 C   0  0  0  0  0  0
   48.7471   40.1323   -0.5001 C   0  0  0  0  0  0
   48.0230   39.6604   -1.5938 C   0  0  0  0  0  0
   53.6477   46.5827   -3.0513 H   0  0  0  0  0  0
   57.1528   44.8629   -4.9155 H   0  0  0  0  0  0
   55.7353   48.9421   -0.2480 H   0  0  0  0  0  0
   54.8401   49.4145   -1.6990 H   0  0  0  0  0  0
   56.9269   48.5650   -4.0948 H   0  0  0  0  0  0
   58.2774   47.9207   -3.1790 H   0  0  0  0  0  0
   50.1645   41.5444    0.2207 H   0  0  0  0  0  0
   57.7936   49.1633   -1.2988 H   0  0  0  0  0  0
   56.9447   50.2216   -2.4012 H   0  0  0  0  0  0
   47.6529   39.8583   -3.6706 H   0  0  0  0  0  0
   48.5442   42.4027   -6.0989 H   0  0  0  0  0  0
   48.7459   40.6990   -5.6832 H   0  0  0  0  0  0
   47.3220   41.6087   -5.1251 H   0  0  0  0  0  0
   48.6459   39.6384    0.4562 H   0  0  0  0  0  0
   47.3598   38.8150   -1.4858 H   0  0  0  0  0  0
  1  5  2  0  0  0
  1  6  1  0  0  0
  1  7  1  0  0  0
  2  4  1  0  0  0
  2 11  1  0  0  0
  2  3  2  0  0  0
  3  5  1  0  0  0
  3 17  1  0  0  0
  4  6  2  0  0  0
  4 16  1  0  0  0
  5 19  1  0  0  0
  6 18  1  0  0  0
  7  8  1  0  0  0
  7 30  1  0  0  0
  8  9  1  0  0  0
  8 13  2  0  0  0
  9 10  2  0  0  0
  9 21  1  0  0  0
 10 12  1  0  0  0
 10 22  1  0  0  0
 11 14  1  0  0  0
 11 24  2  0  0  0
 12 15  2  0  0  0
 12 20  1  0  0  0
 14 23  1  0  0  0
 14 26  2  0  0  0
 20 31  1  0  0  0
 21 25  1  0  0  0
 21 32  1  0  0  0
 21 33  1  0  0  0
 22 25  1  0  0  0
 22 34  1  0  0  0
 22 35  1  0  0  0
 23 27  1  0  0  0
 24 28  1  0  0  0
 24 36  1  0  0  0
 25 37  1  0  0  0
 25 38  1  0  0  0
 26 29  1  0  0  0
 26 39  1  0  0  0
 27 40  1  0  0  0
 27 41  1  0  0  0
 27 42  1  0  0  0
 28 29  2  0  0  0
 28 43  1  0  0  0
 29 44  1  0  0  0
M  END
> <s_m_entry_id>
25713

> <s_m_entry_name>
dock_pv.365

> <s_m_Source_Path>
/home/csk/Desktop/cluster/DUD-E-result/pyrd

> <s_m_Source_File>
dock_pv.maegz

> <i_m_Source_File_Index>
365

> <chembl_id>
CHEMBL345701

> <chembl_pref_name>
None

> <i_lp_mmshare_version>
53161

> <r_lp_tautomer_probability>
1

> <s_lp_Force_Field>
OPLS_2005

> <r_lp_Energy>
50.243489

> <b_lp_Chiralities_Consistent>
1

> <s_lp_Variant>
CHEMBL1966_lig13-1

> <s_i_glide_gridfile>
glide-grid_1d3g

> <i_i_glide_lignum>
16

> <i_i_glide_rotatable_bonds>
7

> <r_i_docking_score>
-9.03895678736608

> <r_i_glide_ligand_efficiency>
-0.311688165081589

> <r_i_glide_ligand_efficiency_sa>
-0.957604792872467

> <r_i_glide_ligand_efficiency_ln>
-2.06969189613933

> <r_i_glide_gscore>
-9.03895678736608

> <r_i_glide_lipo>
-4.98351075949236

> <r_i_glide_hbond>
0

> <r_i_glide_metal>
0

> <r_i_glide_rewards>
-2.8466428612978

> <r_i_glide_evdw>
-33.719108581543

> <r_i_glide_ecoul>
-0.736133635044098

> <r_i_glide_erotb>
0.587572307757842

> <r_i_glide_esite>
0

> <r_i_glide_emodel>
-46.4500786563907

> <r_i_glide_energy>
-34.4552422165871

> <r_i_glide_einternal>
8.88932323455811

> <i_i_glide_confnum>
29

> <i_i_glide_posenum>
290

> <r_i_glide_eff_state_penalty>
0

> <s_user_duplicate_titles>
CHEMBL1966_lig13,257151

> <i_f3d_flags>
0

> <s_m_subgroup_title>
dock_pv

> <s_m_subgroupid>
dock_pv

> <b_m_subgroup_collapsed>
1

$$$$
CHEMBL1966_lig88
                    3D
 Schrodinger Suite 2021-1.
 43 45  0  0  1  0            999 V2000
   52.9609   44.8761   -3.0028 C   0  0  0  0  0  0
   52.0241   43.9167   -3.3616 C   0  0  0  0  0  0
   50.9275   43.6626   -2.5424 C   0  0  0  0  0  0
   50.7570   44.4030   -1.3614 C   0  0  0  0  0  0
   51.6968   45.3818   -1.0191 C   0  0  0  0  0  0
   52.8367   45.6086   -1.8147 C   0  0  0  0  0  0
   53.9718   46.4668   -1.3634 C   0  0  0  0  0  0
   54.2919   46.5399   -0.0028 C   0  0  0  0  0  0
   55.4351   47.2026    0.4248 C   0  0  0  0  0  0
   56.2730   47.8199   -0.4987 C   0  0  0  0  0  0
   55.9839   47.7795   -1.8580 C   0  0  0  0  0  0
   54.8200   47.1141   -2.2809 C   0  0  0  0  0  0
   50.0045   42.7294   -3.0186 N   0  0  0  0  0  0
   49.6228   41.5813   -2.4264 C   0  0  0  0  0  0
   48.6137   40.8432   -3.1793 C   0  0  0  0  0  0
   50.0230   41.2216   -1.3272 O   0  0  0  0  0  0
   47.7104   39.8597   -2.6925 C   0  0  0  0  0  0
   46.4203   39.6102   -3.8280 S   0  0  0  0  0  0
   47.2600   40.4692   -5.0503 C   0  0  0  0  0  0
   48.4263   41.0236   -4.5734 C   0  0  0  0  0  0
   47.5887   39.2082   -1.4037 C   0  0  0  0  0  0
   46.9393   38.0104   -1.4575 O   0  0  0  0  0  0
   48.0311   39.6693   -0.3682 O   0  0  0  0  0  0
   52.1966   43.2102   -4.4990 F   0  0  0  0  0  0
   49.6928   44.1913   -0.5494 F   0  0  0  0  0  0
   56.9013   48.3878   -2.6898 O   0  0  0  0  0  0
   56.8042   48.1989   -4.0935 C   0  0  0  0  0  0
   58.0234   48.8490   -4.7519 C   0  0  0  0  0  0
   53.8220   44.9980   -3.6433 H   0  0  0  0  0  0
   51.5566   45.9271   -0.0978 H   0  0  0  0  0  0
   53.6870   46.0348    0.7364 H   0  0  0  0  0  0
   55.6819   47.2099    1.4761 H   0  0  0  0  0  0
   57.1674   48.3185   -0.1508 H   0  0  0  0  0  0
   54.5836   47.0726   -3.3327 H   0  0  0  0  0  0
   49.6412   42.9198   -3.9393 H   0  0  0  0  0  0
   46.8385   40.5486   -6.0376 H   0  0  0  0  0  0
   49.0562   41.6387   -5.2008 H   0  0  0  0  0  0
   46.6880   37.7940   -2.3558 H   0  0  0  0  0  0
   56.7729   47.1356   -4.3419 H   0  0  0  0  0  0
   55.8921   48.6615   -4.4675 H   0  0  0  0  0  0
   57.9971   48.7237   -5.8342 H   0  0  0  0  0  0
   58.0585   49.9178   -4.5395 H   0  0  0  0  0  0
   58.9485   48.4052   -4.3849 H   0  0  0  0  0  0
  1  2  2  0  0  0
  1  6  1  0  0  0
  1 29  1  0  0  0
  2  3  1  0  0  0
  2 24  1  0  0  0
  3  4  2  0  0  0
  3 13  1  0  0  0
  4  5  1  0  0  0
  4 25  1  0  0  0
  5  6  2  0  0  0
  5 30  1  0  0  0
  6  7  1  0  0  0
  7  8  2  0  0  0
  7 12  1  0  0  0
  8  9  1  0  0  0
  8 31  1  0  0  0
  9 10  2  0  0  0
  9 32  1  0  0  0
 10 11  1  0  0  0
 10 33  1  0  0  0
 11 12  2  0  0  0
 11 26  1  0  0  0
 12 34  1  0  0  0
 13 14  1  0  0  0
 13 35  1  0  0  0
 14 15  1  0  0  0
 14 16  2  0  0  0
 15 17  2  0  0  0
 15 20  1  0  0  0
 17 18  1  0  0  0
 17 21  1  0  0  0
 18 19  1  0  0  0
 19 20  2  0  0  0
 19 36  1  0  0  0
 20 37  1  0  0  0
 21 22  1  0  0  0
 21 23  2  0  0  0
 22 38  1  0  0  0
 26 27  1  0  0  0
 27 28  1  0  0  0
 27 39  1  0  0  0
 27 40  1  0  0  0
 28 41  1  0  0  0
 28 42  1  0  0  0
 28 43  1  0  0  0
M  END
> <s_m_entry_id>
25714

> <s_m_entry_name>
dock_pv.366

> <s_m_Source_Path>
/home/csk/Desktop/cluster/DUD-E-result/pyrd

> <s_m_Source_File>
dock_pv.maegz

> <i_m_Source_File_Index>
366

> <chembl_id>
CHEMBL200699

> <chembl_pref_name>
None

> <i_lp_mmshare_version>
53161

> <r_lp_tautomer_probability>
1

> <s_lp_Force_Field>
OPLS_2005

> <r_lp_Energy>
26.919987

> <b_lp_Chiralities_Consistent>
1

> <s_lp_Variant>
CHEMBL1966_lig88-1

> <s_i_glide_gridfile>
glide-grid_1d3g

> <i_i_glide_lignum>
97

> <i_i_glide_rotatable_bonds>
8

> <r_i_docking_score>
-9.03817070932494

> <r_i_glide_ligand_efficiency>
-0.322791811047319

> <r_i_glide_ligand_efficiency_sa>
-0.980186052549336

> <r_i_glide_ligand_efficiency_ln>
-2.08627517193537

> <r_i_glide_gscore>
-9.03817070932494

> <r_i_glide_lipo>
-4.69173633790385

> <r_i_glide_hbond>
0

> <r_i_glide_metal>
0

> <r_i_glide_rewards>
-2.89208174322798

> <r_i_glide_evdw>
-44.0827484130859

> <r_i_glide_ecoul>
0.172684699296951

> <r_i_glide_erotb>
0.72388208756665

> <r_i_glide_esite>
0

> <r_i_glide_emodel>
-54.5240681033666

> <r_i_glide_energy>
-43.910063713789

> <r_i_glide_einternal>
6.44907999038696

> <i_i_glide_confnum>
4

> <i_i_glide_posenum>
89

> <r_i_glide_eff_state_penalty>
0

> <s_user_duplicate_titles>
CHEMBL1966_lig88,334815

> <i_f3d_flags>
0

> <s_m_subgroup_title>
dock_pv

> <s_m_subgroupid>
dock_pv

> <b_m_subgroup_collapsed>
1

$$$$
CHEMBL1966_lig75
                    3D
 Schrodinger Suite 2021-1.
 35 37  0  0  1  0            999 V2000
   51.2230   44.7832   -0.8990 C   0  0  0  0  0  0
   52.6568   44.4547   -3.2821 C   0  0  0  0  0  0
   51.6046   43.6100   -2.9775 C   0  0  0  0  0  0
   50.9220   43.7144   -1.7566 C   0  0  0  0  0  0
   50.0234   42.6007   -1.2773 C   0  0  0  0  0  0
   49.7471   41.6600   -2.2002 N   0  0  0  0  0  0
   49.6230   42.5807   -0.1140 O   0  0  0  0  0  0
   48.7825   40.6511   -2.1801 C   0  0  0  0  0  0
   48.4230   40.0100   -0.9798 C   0  0  0  0  0  0
   47.3861   39.0848   -0.9486 C   0  0  0  0  0  0
   46.6745   38.8100   -2.1064 C   0  0  0  0  0  0
   47.0237   39.4341   -3.2992 C   0  0  0  0  0  0
   48.0964   40.3365   -3.3810 C   0  0  0  0  0  0
   48.4230   40.9272   -4.7484 C   0  0  0  0  0  0
   49.1312   42.0904   -4.7646 O   0  0  0  0  0  0
   48.0230   40.4201   -5.7909 O   0  0  0  0  0  0
   53.0760   45.4491   -2.3722 C   0  0  0  0  0  0
   52.3502   45.6100   -1.1532 C   0  0  0  0  0  0
   52.8499   46.5020   -0.1756 C   0  0  0  0  0  0
   54.0274   47.2099   -0.4112 C   0  0  0  0  0  0
   54.7000   47.0970   -1.6212 C   0  0  0  0  0  0
   54.2321   46.2337   -2.6065 C   0  0  0  0  0  0
   56.2861   48.1081   -1.9120 Br  0  0  0  0  0  0
   50.7207   44.8808    0.0542 H   0  0  0  0  0  0
   53.2230   44.2745   -4.1602 H   0  0  0  0  0  0
   51.4248   42.8044   -3.6730 H   0  0  0  0  0  0
   50.0604   41.8794   -3.1336 H   0  0  0  0  0  0
   48.9455   40.2182   -0.0585 H   0  0  0  0  0  0
   47.1227   38.5939   -0.0258 H   0  0  0  0  0  0
   45.8547   38.1085   -2.0806 H   0  0  0  0  0  0
   46.4361   39.2100   -4.1775 H   0  0  0  0  0  0
   49.1613   42.4467   -5.6551 H   0  0  0  0  0  0
   52.3355   46.6022    0.7700 H   0  0  0  0  0  0
   54.4265   47.8587    0.3529 H   0  0  0  0  0  0
   54.7770   46.1219   -3.5328 H   0  0  0  0  0  0
  1 18  2  0  0  0
  1  4  1  0  0  0
  1 24  1  0  0  0
  2  3  1  0  0  0
  2 17  2  0  0  0
  2 25  1  0  0  0
  3  4  2  0  0  0
  3 26  1  0  0  0
  4  5  1  0  0  0
  5  6  1  0  0  0
  5  7  2  0  0  0
  6  8  1  0  0  0
  6 27  1  0  0  0
  8 13  2  0  0  0
  8  9  1  0  0  0
  9 10  2  0  0  0
  9 28  1  0  0  0
 10 11  1  0  0  0
 10 29  1  0  0  0
 11 12  2  0  0  0
 11 30  1  0  0  0
 12 13  1  0  0  0
 12 31  1  0  0  0
 13 14  1  0  0  0
 14 15  1  0  0  0
 14 16  2  0  0  0
 15 32  1  0  0  0
 17 18  1  0  0  0
 17 22  1  0  0  0
 18 19  1  0  0  0
 19 20  2  0  0  0
 19 33  1  0  0  0
 20 21  1  0  0  0
 20 34  1  0  0  0
 21 22  2  0  0  0
 21 23  1  0  0  0
 22 35  1  0  0  0
M  END
> <s_m_entry_id>
25715

> <s_m_entry_name>
dock_pv.367

> <s_m_Source_Path>
/home/csk/Desktop/cluster/DUD-E-result/pyrd

> <s_m_Source_File>
dock_pv.maegz

> <i_m_Source_File_Index>
367

> <chembl_id>
CHEMBL199574

> <chembl_pref_name>
None

> <i_lp_mmshare_version>
53161

> <r_lp_tautomer_probability>
1

> <s_lp_Force_Field>
OPLS_2005

> <r_lp_Energy>
28.639486

> <b_lp_Chiralities_Consistent>
1

> <s_lp_Variant>
CHEMBL1966_lig75-1

> <s_i_glide_gridfile>
glide-grid_1d3g

> <i_i_glide_lignum>
84

> <i_i_glide_rotatable_bonds>
5

> <r_i_docking_score>
-9.00979988156507

> <r_i_glide_ligand_efficiency>
-0.391730429633264

> <r_i_glide_ligand_efficiency_sa>
-1.11402923267276

> <r_i_glide_ligand_efficiency_ln>
-2.17865130771094

> <r_i_glide_gscore>
-9.00979988156507

> <r_i_glide_lipo>
-5.01549212744423

> <r_i_glide_hbond>
-0.13186686612235

> <r_i_glide_metal>
0

> <r_i_glide_rewards>
-2.10448722680772

> <r_i_glide_evdw>
-35.1749114990234

> <r_i_glide_ecoul>
-3.7481005191803

> <r_i_glide_erotb>
0.563006991637445

> <r_i_glide_esite>
0

> <r_i_glide_emodel>
-47.0671681348128

> <r_i_glide_energy>
-38.9230120182037

> <r_i_glide_einternal>
6.53054189682007

> <i_i_glide_confnum>
15

> <i_i_glide_posenum>
92

> <r_i_glide_eff_state_penalty>
0

> <s_user_duplicate_titles>
CHEMBL1966_lig75

> <i_f3d_flags>
0

> <s_m_subgroup_title>
dock_pv

> <s_m_subgroupid>
dock_pv

> <b_m_subgroup_collapsed>
1

$$$$
CHEMBL1966_lig162
                    3D
 Schrodinger Suite 2021-1.
 32 33  0  0  1  0            999 V2000
   54.9627   47.1041    0.0371 C   0  0  0  0  0  0
   55.2422   47.5724   -1.2429 C   0  0  0  0  0  0
   54.3481   47.3464   -2.2865 C   0  0  0  0  0  0
   53.1714   46.6384   -2.0505 C   0  0  0  0  0  0
   52.8809   46.1411   -0.7707 C   0  0  0  0  0  0
   53.7807   46.4100    0.2748 C   0  0  0  0  0  0
   56.6997   48.4508   -1.5307 Cl  0  0  0  0  0  0
   51.6225   45.3669   -0.4629 C   0  0  0  0  0  0
   50.9251   44.5423   -1.4399 C   0  0  0  0  0  0
   51.2342   45.2522    0.6976 O   0  0  0  0  0  0
   51.4495   44.0080   -2.5608 C   0  0  0  0  0  0
   50.6664   43.1207   -3.4272 C   0  0  0  0  0  0
   50.5994   43.3896   -4.7884 C   0  0  0  0  0  0
   49.7000   42.6997   -5.5872 C   0  0  0  0  0  0
   48.8848   41.7074   -5.0523 C   0  0  0  0  0  0
   49.0211   41.3298   -3.7004 C   0  0  0  0  0  0
   49.9158   42.0641   -2.9007 C   0  0  0  0  0  0
   47.9219   41.2048   -5.8855 O   0  0  0  0  0  0
   48.1818   40.2331   -3.0779 C   0  0  0  0  0  0
   48.4227   40.0100   -1.7575 O   0  0  0  0  0  0
   47.3169   39.6103   -3.6859 O   0  0  0  0  0  0
   55.6547   47.2791    0.8476 H   0  0  0  0  0  0
   54.5619   47.7234   -3.2763 H   0  0  0  0  0  0
   52.4879   46.5010   -2.8731 H   0  0  0  0  0  0
   53.5863   46.0612    1.2809 H   0  0  0  0  0  0
   49.8987   44.3235   -1.1818 H   0  0  0  0  0  0
   52.4723   44.1839   -2.8623 H   0  0  0  0  0  0
   51.1914   44.1824   -5.2196 H   0  0  0  0  0  0
   49.6250   42.9649   -6.6251 H   0  0  0  0  0  0
   50.0062   41.8568   -1.8429 H   0  0  0  0  0  0
   47.3011   41.9099   -6.0940 H   0  0  0  0  0  0
   47.8526   39.3036   -1.4499 H   0  0  0  0  0  0
  1  2  2  0  0  0
  1  6  1  0  0  0
  1 22  1  0  0  0
  2  3  1  0  0  0
  2  7  1  0  0  0
  3  4  2  0  0  0
  3 23  1  0  0  0
  4  5  1  0  0  0
  4 24  1  0  0  0
  5  6  2  0  0  0
  5  8  1  0  0  0
  6 25  1  0  0  0
  8  9  1  0  0  0
  8 10  2  0  0  0
  9 11  2  0  0  0
  9 26  1  0  0  0
 11 12  1  0  0  0
 11 27  1  0  0  0
 12 13  2  0  0  0
 12 17  1  0  0  0
 13 14  1  0  0  0
 13 28  1  0  0  0
 14 15  2  0  0  0
 14 29  1  0  0  0
 15 16  1  0  0  0
 15 18  1  0  0  0
 16 17  2  0  0  0
 16 19  1  0  0  0
 17 30  1  0  0  0
 18 31  1  0  0  0
 19 20  1  0  0  0
 19 21  2  0  0  0
 20 32  1  0  0  0
M  END
> <s_m_entry_id>
25716

> <s_m_entry_name>
dock_pv.368

> <s_m_Source_Path>
/home/csk/Desktop/cluster/DUD-E-result/pyrd

> <s_m_Source_File>
dock_pv.maegz

> <i_m_Source_File_Index>
368

> <chembl_id>
CHEMBL2178112

> <chembl_pref_name>
None

> <i_lp_mmshare_version>
53161

> <r_lp_tautomer_probability>
1

> <s_lp_Force_Field>
OPLS_2005

> <r_lp_Energy>
19.916281

> <b_lp_Chiralities_Consistent>
1

> <s_lp_Variant>
CHEMBL1966_lig162-1

> <s_i_glide_gridfile>
glide-grid_1d3g

> <i_i_glide_lignum>
207

> <i_i_glide_rotatable_bonds>
6

> <r_i_docking_score>
-8.99813450414554

> <r_i_glide_ligand_efficiency>
-0.428482595435502

> <r_i_glide_ligand_efficiency_sa>
-1.18215099050584

> <r_i_glide_ligand_efficiency_ln>
-2.22477057370719

> <r_i_glide_gscore>
-8.99813450414554

> <r_i_glide_lipo>
-4.48766058742838

> <r_i_glide_hbond>
0

> <r_i_glide_metal>
0

> <r_i_glide_rewards>
-2.74858197767671

> <r_i_glide_evdw>
-38.0411148071289

> <r_i_glide_ecoul>
-3.08514666557312

> <r_i_glide_erotb>
0.602935801151956

> <r_i_glide_esite>
0

> <r_i_glide_emodel>
-56.6394644342984

> <r_i_glide_energy>
-41.126261472702

> <r_i_glide_einternal>
10.7663974761963

> <i_i_glide_confnum>
1

> <i_i_glide_posenum>
92

> <r_i_glide_eff_state_penalty>
0

> <s_user_duplicate_titles>
CHEMBL1966_lig162

> <i_f3d_flags>
0

> <s_m_subgroup_title>
dock_pv

> <s_m_subgroupid>
dock_pv

> <b_m_subgroup_collapsed>
1

$$$$
CHEMBL1966_lig469
                    3D
 Schrodinger Suite 2021-1.
 42 45  0  0  1  0            999 V2000
   48.8229   40.0760   -0.2215 O   0  0  0  0  0  0
   48.0230   39.6100   -1.2187 C   0  0  0  0  0  0
   47.1899   38.7282   -1.0163 O   0  0  0  0  0  0
   48.2252   40.2399   -2.5819 C   0  0  0  0  0  0
   47.3663   39.8450   -3.6238 C   0  0  0  0  0  0
   47.4079   40.4100   -4.8981 C   0  0  0  0  0  0
   48.3464   41.3709   -5.2460 C   0  0  0  0  0  0
   49.1856   41.7999   -4.2252 C   0  0  0  0  0  0
   50.1036   42.8061   -4.1741 N   0  0  0  0  0  0
   50.5284   42.8994   -2.8763 C   0  0  0  0  0  0
   50.0228   41.9716   -2.1006 N   0  0  0  0  0  0
   49.1489   41.2698   -2.9014 C   0  0  0  0  0  0
   51.4038   44.0100   -2.4453 C   0  0  0  0  0  0
   52.4292   44.4100   -3.2991 C   0  0  0  0  0  0
   53.2232   45.5005   -2.9767 C   0  0  0  0  0  0
   53.0572   46.1687   -1.7559 C   0  0  0  0  0  0
   53.8619   47.2096   -1.3212 O   0  0  0  0  0  0
   54.6904   47.9456   -2.2355 C   0  0  0  0  0  0
   55.8449   47.1469   -2.8419 C   0  0  0  0  0  0
   56.4077   47.5831   -4.0449 C   0  0  0  0  0  0
   57.3658   46.8066   -4.6902 C   0  0  0  0  0  0
   57.7570   45.5929   -4.1312 C   0  0  0  0  0  0
   57.2229   45.1659   -2.9185 C   0  0  0  0  0  0
   56.2886   45.9567   -2.2581 C   0  0  0  0  0  0
   52.0373   45.7544   -0.8954 C   0  0  0  0  0  0
   51.2059   44.6880   -1.2386 C   0  0  0  0  0  0
   48.6048   39.6051    0.5883 H   0  0  0  0  0  0
   46.6100   39.0935   -3.4398 H   0  0  0  0  0  0
   46.6827   40.0835   -5.6287 H   0  0  0  0  0  0
   48.3563   41.8350   -6.2157 H   0  0  0  0  0  0
   50.3667   43.4609   -4.8952 H   0  0  0  0  0  0
   52.6010   43.8860   -4.2262 H   0  0  0  0  0  0
   53.9704   45.7869   -3.6963 H   0  0  0  0  0  0
   54.0600   48.3557   -3.0277 H   0  0  0  0  0  0
   55.1087   48.7977   -1.6990 H   0  0  0  0  0  0
   56.0831   48.5090   -4.4969 H   0  0  0  0  0  0
   57.7924   47.1360   -5.6265 H   0  0  0  0  0  0
   58.4944   44.9832   -4.6330 H   0  0  0  0  0  0
   57.5445   44.2276   -2.4910 H   0  0  0  0  0  0
   55.8700   45.6137   -1.3232 H   0  0  0  0  0  0
   51.8913   46.2648    0.0453 H   0  0  0  0  0  0
   50.4105   44.3907   -0.5699 H   0  0  0  0  0  0
  1  2  1  0  0  0
  1 27  1  0  0  0
  2  3  2  0  0  0
  2  4  1  0  0  0
  4  5  2  0  0  0
  4 12  1  0  0  0
  5  6  1  0  0  0
  5 28  1  0  0  0
  6  7  2  0  0  0
  6 29  1  0  0  0
  7  8  1  0  0  0
  7 30  1  0  0  0
  8  9  1  0  0  0
  8 12  2  0  0  0
  9 10  1  0  0  0
  9 31  1  0  0  0
 10 11  2  0  0  0
 10 13  1  0  0  0
 11 12  1  0  0  0
 13 14  2  0  0  0
 13 26  1  0  0  0
 14 15  1  0  0  0
 14 32  1  0  0  0
 15 16  2  0  0  0
 15 33  1  0  0  0
 16 17  1  0  0  0
 16 25  1  0  0  0
 17 18  1  0  0  0
 18 19  1  0  0  0
 18 34  1  0  0  0
 18 35  1  0  0  0
 19 20  2  0  0  0
 19 24  1  0  0  0
 20 21  1  0  0  0
 20 36  1  0  0  0
 21 22  2  0  0  0
 21 37  1  0  0  0
 22 23  1  0  0  0
 22 38  1  0  0  0
 23 24  2  0  0  0
 23 39  1  0  0  0
 24 40  1  0  0  0
 25 26  2  0  0  0
 25 41  1  0  0  0
 26 42  1  0  0  0
M  END
> <s_m_entry_id>
25717

> <s_m_entry_name>
dock_pv.369

> <s_m_Source_Path>
/home/csk/Desktop/cluster/DUD-E-result/pyrd

> <s_m_Source_File>
dock_pv.maegz

> <i_m_Source_File_Index>
369

> <chembl_id>
CHEMBL3677726

> <chembl_pref_name>
None

> <i_lp_mmshare_version>
53161

> <r_lp_tautomer_probability>
1

> <s_lp_Force_Field>
OPLS_2005

> <r_lp_Energy>
26.463813

> <b_lp_Chiralities_Consistent>
1

> <s_lp_Variant>
CHEMBL1966_lig469-1

> <s_i_glide_gridfile>
glide-grid_1d3g

> <i_i_glide_lignum>
519

> <i_i_glide_rotatable_bonds>
6

> <r_i_docking_score>
-8.99122034752181

> <r_i_glide_ligand_efficiency>
-0.345816167212377

> <r_i_glide_ligand_efficiency_sa>
-1.02447903464576

> <r_i_glide_ligand_efficiency_ln>
-2.1115585960152

> <r_i_glide_gscore>
-8.99122034752181

> <r_i_glide_lipo>
-4.97299140952285

> <r_i_glide_hbond>
0

> <r_i_glide_metal>
0

> <r_i_glide_rewards>
-2.45329577561701

> <r_i_glide_evdw>
-42.3872261047363

> <r_i_glide_ecoul>
-1.64072012901306

> <r_i_glide_erotb>
0.800536162206831

> <r_i_glide_esite>
0

> <r_i_glide_emodel>
-62.3997144697182

> <r_i_glide_energy>
-44.0279462337494

> <r_i_glide_einternal>
8.47417736053467

> <i_i_glide_confnum>
53

> <i_i_glide_posenum>
264

> <r_i_glide_eff_state_penalty>
0

> <s_user_duplicate_titles>
CHEMBL1966_lig469

> <i_f3d_flags>
0

> <s_m_subgroup_title>
dock_pv

> <s_m_subgroupid>
dock_pv

> <b_m_subgroup_collapsed>
1

$$$$
CHEMBL1966_lig30
                    3D
 Schrodinger Suite 2021-1.
 44 46  0  0  1  0            999 V2000
   48.2770   40.2894   -2.4918 C   0  0  0  0  0  0
   49.4353   41.1079   -2.7871 C   0  0  0  0  0  0
   47.2865   39.9605   -3.3816 C   0  0  0  0  0  0
   49.6230   42.1853   -2.0063 N   0  0  0  0  0  0
   47.1474   40.4100   -4.7694 C   0  0  0  0  0  0
   52.4849   45.3223   -2.0967 C   0  0  0  0  0  0
   50.5691   43.2284   -2.1119 C   0  0  0  0  0  0
   50.5804   44.1732   -1.0777 C   0  0  0  0  0  0
   51.5079   45.2165   -1.0925 C   0  0  0  0  0  0
   53.5763   46.3526   -2.0261 C   0  0  0  0  0  0
   50.1735   40.8100   -3.6990 O   0  0  0  0  0  0
   52.4230   44.4100   -3.1589 C   0  0  0  0  0  0
   48.0579   40.7421   -5.5263 O   0  0  0  0  0  0
   54.1988   46.6921   -0.8064 C   0  0  0  0  0  0
   51.4734   43.3861   -3.1786 C   0  0  0  0  0  0
   49.4767   44.0504    0.2557 Cl  0  0  0  0  0  0
   45.8454   40.4100   -5.1737 O   0  0  0  0  0  0
   47.9904   39.6862   -1.1160 C   0  0  0  0  0  0
   46.2650   39.0554   -2.7019 C   0  0  0  0  0  0
   53.8471   46.0100    0.3327 O   0  0  0  0  0  0
   46.9883   38.5971   -1.4446 C   0  0  0  0  0  0
   54.0230   46.9944   -3.1921 C   0  0  0  0  0  0
   55.2244   47.6452   -0.7753 C   0  0  0  0  0  0
   53.5574   46.7526    1.5010 C   0  0  0  0  0  0
   55.0318   47.9550   -3.1536 C   0  0  0  0  0  0
   55.6335   48.2822   -1.9431 C   0  0  0  0  0  0
   48.9924   42.2814   -1.2260 H   0  0  0  0  0  0
   51.4887   45.9267   -0.2802 H   0  0  0  0  0  0
   53.1430   44.4617   -3.9603 H   0  0  0  0  0  0
   51.4950   42.7117   -4.0186 H   0  0  0  0  0  0
   45.2493   40.1904   -4.4567 H   0  0  0  0  0  0
   47.5398   40.4100   -0.4475 H   0  0  0  0  0  0
   48.8230   39.2835   -0.5446 H   0  0  0  0  0  0
   45.9617   38.1946   -3.2990 H   0  0  0  0  0  0
   45.3617   39.6100   -2.4484 H   0  0  0  0  0  0
   46.3082   38.4100   -0.6150 H   0  0  0  0  0  0
   47.5196   37.6630   -1.6415 H   0  0  0  0  0  0
   53.5794   46.7590   -4.1478 H   0  0  0  0  0  0
   55.7236   47.8827    0.1515 H   0  0  0  0  0  0
   53.2234   46.0523    2.2680 H   0  0  0  0  0  0
   54.4313   47.2723    1.8894 H   0  0  0  0  0  0
   52.7407   47.4568    1.3407 H   0  0  0  0  0  0
   55.3514   48.4394   -4.0648 H   0  0  0  0  0  0
   56.4254   49.0166   -1.9111 H   0  0  0  0  0  0
  1  2  1  0  0  0
  1  3  2  0  0  0
  1 18  1  0  0  0
  2  4  1  0  0  0
  2 11  2  0  0  0
  3  5  1  0  0  0
  3 19  1  0  0  0
  4  7  1  0  0  0
  4 27  1  0  0  0
  5 13  2  0  0  0
  5 17  1  0  0  0
  6 12  2  0  0  0
  6 10  1  0  0  0
  6  9  1  0  0  0
  7  8  1  0  0  0
  7 15  2  0  0  0
  8  9  2  0  0  0
  8 16  1  0  0  0
  9 28  1  0  0  0
 10 14  1  0  0  0
 10 22  2  0  0  0
 12 15  1  0  0  0
 12 29  1  0  0  0
 14 20  1  0  0  0
 14 23  2  0  0  0
 15 30  1  0  0  0
 17 31  1  0  0  0
 18 21  1  0  0  0
 18 32  1  0  0  0
 18 33  1  0  0  0
 19 21  1  0  0  0
 19 34  1  0  0  0
 19 35  1  0  0  0
 20 24  1  0  0  0
 21 36  1  0  0  0
 21 37  1  0  0  0
 22 25  1  0  0  0
 22 38  1  0  0  0
 23 26  1  0  0  0
 23 39  1  0  0  0
 24 40  1  0  0  0
 24 41  1  0  0  0
 24 42  1  0  0  0
 25 26  2  0  0  0
 25 43  1  0  0  0
 26 44  1  0  0  0
M  END
> <s_m_entry_id>
25718

> <s_m_entry_name>
dock_pv.370

> <s_m_Source_Path>
/home/csk/Desktop/cluster/DUD-E-result/pyrd

> <s_m_Source_File>
dock_pv.maegz

> <i_m_Source_File_Index>
370

> <chembl_id>
CHEMBL157277

> <chembl_pref_name>
None

> <i_lp_mmshare_version>
53161

> <r_lp_tautomer_probability>
1

> <s_lp_Force_Field>
OPLS_2005

> <r_lp_Energy>
48.614746

> <b_lp_Chiralities_Consistent>
1

> <s_lp_Variant>
CHEMBL1966_lig30-1

> <s_i_glide_gridfile>
glide-grid_1d3g

> <i_i_glide_lignum>
34

> <i_i_glide_rotatable_bonds>
7

> <r_i_docking_score>
-8.97432568676647

> <r_i_glide_ligand_efficiency>
-0.345166372567941

> <r_i_glide_ligand_efficiency_sa>
-1.02255402056843

> <r_i_glide_ligand_efficiency_ln>
-2.10759094037271

> <r_i_glide_gscore>
-8.97432568676647

> <r_i_glide_lipo>
-5.23663846984531

> <r_i_glide_hbond>
-0.00427680779793075

> <r_i_glide_metal>
0

> <r_i_glide_rewards>
-2.08655236023763

> <r_i_glide_evdw>
-42.0020179748535

> <r_i_glide_ecoul>
-1.63368916511536

> <r_i_glide_erotb>
0.69829622462437

> <r_i_glide_esite>
0

> <r_i_glide_emodel>
-59.7425371903138

> <r_i_glide_energy>
-43.6357071399689

> <r_i_glide_einternal>
5.2614049911499

> <i_i_glide_confnum>
92

> <i_i_glide_posenum>
58

> <r_i_glide_eff_state_penalty>
0

> <s_user_duplicate_titles>
CHEMBL1966_lig30,257149

> <i_f3d_flags>
0

> <s_m_subgroup_title>
dock_pv

> <s_m_subgroupid>
dock_pv

> <b_m_subgroup_collapsed>
1

$$$$
CHEMBL1966_lig444
                    3D
 Schrodinger Suite 2021-1.
 39 41  0  0  1  0            999 V2000
   57.9137   48.4169   -3.5834 C   0  0  0  0  0  0
   56.6483   47.8369   -2.9787 C   0  0  0  0  0  0
   55.5814   47.4906   -3.8001 C   0  0  0  0  0  0
   54.4121   46.9812   -3.2485 C   0  0  0  0  0  0
   54.2972   46.7674   -1.8703 C   0  0  0  0  0  0
   53.1263   46.2027   -1.3418 N   0  0  0  0  0  0
   52.2560   45.2101   -1.8015 C   0  0  0  0  0  0
   51.1721   44.8546   -0.9975 C   0  0  0  0  0  0
   50.3283   43.8193   -1.3961 C   0  0  0  0  0  0
   50.5732   43.1708   -2.6150 C   0  0  0  0  0  0
   51.6231   43.5058   -3.4048 N   0  0  0  0  0  0
   52.4482   44.4907   -2.9897 C   0  0  0  0  0  0
   49.6825   42.1258   -3.1820 C   0  0  0  0  0  0
   49.2688   42.2504   -4.5179 C   0  0  0  0  0  0
   48.3931   41.3363   -5.0888 C   0  0  0  0  0  0
   47.9110   40.2791   -4.3281 C   0  0  0  0  0  0
   48.3348   40.1128   -3.0114 C   0  0  0  0  0  0
   49.2113   41.0321   -2.4314 C   0  0  0  0  0  0
   49.6230   40.8103   -0.7629 Cl  0  0  0  0  0  0
   55.3703   47.1240   -1.0223 C   0  0  0  0  0  0
   56.5351   47.6597   -1.6003 C   0  0  0  0  0  0
   55.3769   46.8788    0.4724 C   0  0  0  0  0  0
   56.4230   46.8098    1.1010 O   0  0  0  0  0  0
   54.1732   46.7695    1.1009 O   0  0  0  0  0  0
   57.6638   49.1524   -4.3481 H   0  0  0  0  0  0
   58.5065   47.6317   -4.0527 H   0  0  0  0  0  0
   58.5219   48.9289   -2.8373 H   0  0  0  0  0  0
   55.6553   47.6098   -4.8699 H   0  0  0  0  0  0
   53.5905   46.7623   -3.9119 H   0  0  0  0  0  0
   53.0025   46.4317   -0.3635 H   0  0  0  0  0  0
   50.9843   45.3678   -0.0662 H   0  0  0  0  0  0
   49.4753   43.5608   -0.7869 H   0  0  0  0  0  0
   53.2995   44.6571   -3.6280 H   0  0  0  0  0  0
   49.5978   43.0913   -5.1131 H   0  0  0  0  0  0
   48.0512   41.4834   -6.0995 H   0  0  0  0  0  0
   47.1877   39.6064   -4.7562 H   0  0  0  0  0  0
   47.9583   39.2836   -2.4300 H   0  0  0  0  0  0
   57.3763   47.9372   -0.9772 H   0  0  0  0  0  0
   54.3394   46.6261    2.0391 H   0  0  0  0  0  0
  1  2  1  0  0  0
  1 25  1  0  0  0
  1 26  1  0  0  0
  1 27  1  0  0  0
  2  3  2  0  0  0
  2 21  1  0  0  0
  3  4  1  0  0  0
  3 28  1  0  0  0
  4  5  2  0  0  0
  4 29  1  0  0  0
  5  6  1  0  0  0
  5 20  1  0  0  0
  6  7  1  0  0  0
  6 30  1  0  0  0
  7  8  2  0  0  0
  7 12  1  0  0  0
  8  9  1  0  0  0
  8 31  1  0  0  0
  9 10  2  0  0  0
  9 32  1  0  0  0
 10 11  1  0  0  0
 10 13  1  0  0  0
 11 12  2  0  0  0
 12 33  1  0  0  0
 13 14  2  0  0  0
 13 18  1  0  0  0
 14 15  1  0  0  0
 14 34  1  0  0  0
 15 16  2  0  0  0
 15 35  1  0  0  0
 16 17  1  0  0  0
 16 36  1  0  0  0
 17 18  2  0  0  0
 17 37  1  0  0  0
 18 19  1  0  0  0
 20 21  2  0  0  0
 20 22  1  0  0  0
 21 38  1  0  0  0
 22 23  2  0  0  0
 22 24  1  0  0  0
 24 39  1  0  0  0
M  END
> <s_m_entry_id>
25719

> <s_m_entry_name>
dock_pv.371

> <s_m_Source_Path>
/home/csk/Desktop/cluster/DUD-E-result/pyrd

> <s_m_Source_File>
dock_pv.maegz

> <i_m_Source_File_Index>
371

> <chembl_id>
CHEMBL3674654

> <chembl_pref_name>
None

> <i_lp_mmshare_version>
53161

> <r_lp_tautomer_probability>
0.999999999999999

> <s_lp_Force_Field>
OPLS_2005

> <r_lp_Energy>
29.074342

> <b_lp_Chiralities_Consistent>
1

> <s_lp_Variant>
CHEMBL1966_lig444-1

> <s_i_glide_gridfile>
glide-grid_1d3g

> <i_i_glide_lignum>
494

> <i_i_glide_rotatable_bonds>
5

> <r_i_docking_score>
-8.97144765101952

> <r_i_glide_ligand_efficiency>
-0.37381031879248

> <r_i_glide_ligand_efficiency_sa>
-1.07825554216761

> <r_i_glide_ligand_efficiency_ln>
-2.14727909579671

> <r_i_glide_gscore>
-8.97144765101952

> <r_i_glide_lipo>
-5.16843246495309

> <r_i_glide_hbond>
-0.0142299427551212

> <r_i_glide_metal>
0

> <r_i_glide_rewards>
-1.90067976513781

> <r_i_glide_evdw>
-42.3624992370605

> <r_i_glide_ecoul>
-2.86148381233215

> <r_i_glide_erotb>
0.659242055529348

> <r_i_glide_esite>
0

> <r_i_glide_emodel>
-61.6307905757731

> <r_i_glide_energy>
-45.2239830493927

> <r_i_glide_einternal>
10.2454814910889

> <i_i_glide_confnum>
56

> <i_i_glide_posenum>
179

> <r_i_glide_eff_state_penalty>
0

> <s_user_duplicate_titles>
CHEMBL1966_lig444

> <i_f3d_flags>
0

> <s_m_subgroup_title>
dock_pv

> <s_m_subgroupid>
dock_pv

> <b_m_subgroup_collapsed>
1

$$$$
CHEMBL1966_lig367
                    3D
 Schrodinger Suite 2021-1.
 38 39  0  0  1  0            999 V2000
   49.9379   42.1676   -3.0610 C   0  0  0  0  0  0
   50.0517   42.7489   -4.4092 C   0  0  0  0  0  0
   49.2052   42.2172   -5.3204 N   0  0  0  0  0  0
   48.3646   41.1602   -5.1988 C   0  0  0  0  0  0
   48.4103   40.5702   -3.9758 N   0  0  0  0  0  0
   49.1062   41.0817   -2.8990 C   0  0  0  0  0  0
   48.8230   40.4100   -1.6237 C   0  0  0  0  0  0
   47.9274   39.3804   -1.7102 O   0  0  0  0  0  0
   49.2673   40.7592   -0.5334 O   0  0  0  0  0  0
   47.6136   40.8100   -6.0990 O   0  0  0  0  0  0
   50.8487   43.6100   -4.7661 O   0  0  0  0  0  0
   50.8581   42.8389   -2.0188 C   0  0  0  0  0  0
   50.5279   44.3155   -1.6312 C   0  0  0  0  0  0
   51.7584   45.1716   -1.3035 C   0  0  0  0  0  0
   52.7512   45.3329   -2.2768 C   0  0  0  0  0  0
   53.9231   46.0139   -1.9860 C   0  0  0  0  0  0
   54.1291   46.5368   -0.7053 C   0  0  0  0  0  0
   53.1253   46.4100    0.2643 C   0  0  0  0  0  0
   51.9392   45.7385   -0.0379 C   0  0  0  0  0  0
   55.4434   47.1812   -0.3615 C   0  0  0  0  0  0
   56.0108   46.9256    0.7009 O   0  0  0  0  0  0
   55.9289   48.0150   -1.2964 N   0  0  0  0  0  0
   57.2110   48.6974   -1.2109 C   0  0  0  0  0  0
   49.2168   42.6674   -6.2220 H   0  0  0  0  0  0
   47.8331   39.7491   -3.8546 H   0  0  0  0  0  0
   47.7731   39.0148   -0.8351 H   0  0  0  0  0  0
   51.8368   42.7981   -2.4990 H   0  0  0  0  0  0
   51.0035   42.2480   -1.1191 H   0  0  0  0  0  0
   49.8139   44.3337   -0.8062 H   0  0  0  0  0  0
   50.0230   44.8100   -2.4570 H   0  0  0  0  0  0
   52.6257   44.9024   -3.2601 H   0  0  0  0  0  0
   54.6828   46.0885   -2.7516 H   0  0  0  0  0  0
   53.2715   46.8025    1.2617 H   0  0  0  0  0  0
   51.1964   45.6100    0.7338 H   0  0  0  0  0  0
   55.3637   48.2004   -2.1106 H   0  0  0  0  0  0
   57.4867   49.1025   -2.1843 H   0  0  0  0  0  0
   57.9962   48.0100   -0.8990 H   0  0  0  0  0  0
   57.1639   49.5214   -0.4990 H   0  0  0  0  0  0
  1  2  1  0  0  0
  1  6  2  0  0  0
  1 12  1  0  0  0
  2  3  1  0  0  0
  2 11  2  0  0  0
  3  4  1  0  0  0
  3 24  1  0  0  0
  4  5  1  0  0  0
  4 10  2  0  0  0
  5  6  1  0  0  0
  5 25  1  0  0  0
  6  7  1  0  0  0
  7  8  1  0  0  0
  7  9  2  0  0  0
  8 26  1  0  0  0
 12 13  1  0  0  0
 12 27  1  0  0  0
 12 28  1  0  0  0
 13 14  1  0  0  0
 13 29  1  0  0  0
 13 30  1  0  0  0
 14 15  2  0  0  0
 14 19  1  0  0  0
 15 16  1  0  0  0
 15 31  1  0  0  0
 16 17  2  0  0  0
 16 32  1  0  0  0
 17 18  1  0  0  0
 17 20  1  0  0  0
 18 19  2  0  0  0
 18 33  1  0  0  0
 19 34  1  0  0  0
 20 21  2  0  0  0
 20 22  1  0  0  0
 22 23  1  0  0  0
 22 35  1  0  0  0
 23 36  1  0  0  0
 23 37  1  0  0  0
 23 38  1  0  0  0
M  END
> <s_m_entry_id>
25720

> <s_m_entry_name>
dock_pv.372

> <s_m_Source_Path>
/home/csk/Desktop/cluster/DUD-E-result/pyrd

> <s_m_Source_File>
dock_pv.maegz

> <i_m_Source_File_Index>
372

> <chembl_id>
CHEMBL3946910

> <chembl_pref_name>
None

> <i_lp_mmshare_version>
53161

> <r_lp_tautomer_probability>
1

> <s_lp_Force_Field>
OPLS_2005

> <r_lp_Energy>
16.74296

> <b_lp_Chiralities_Consistent>
1

> <s_lp_Variant>
CHEMBL1966_lig367-1

> <s_i_glide_gridfile>
glide-grid_1d3g

> <i_i_glide_lignum>
417

> <i_i_glide_rotatable_bonds>
7

> <r_i_docking_score>
-8.96763851509466

> <r_i_glide_ligand_efficiency>
-0.389897326743246

> <r_i_glide_ligand_efficiency_sa>
-1.10881613189862

> <r_i_glide_ligand_efficiency_ln>
-2.16845630700026

> <r_i_glide_gscore>
-8.96763851509466

> <r_i_glide_lipo>
-3.68818630528283

> <r_i_glide_hbond>
-0.270180157197804

> <r_i_glide_metal>
0

> <r_i_glide_rewards>
-2.9383508084649

> <r_i_glide_evdw>
-43.7978324890137

> <r_i_glide_ecoul>
-5.37472152709961

> <r_i_glide_erotb>
0.925178609366502

> <r_i_glide_esite>
0

> <r_i_glide_emodel>
-71.0142450387365

> <r_i_glide_energy>
-49.1725540161133

> <r_i_glide_einternal>
4.29250907897949

> <i_i_glide_confnum>
28

> <i_i_glide_posenum>
386

> <r_i_glide_eff_state_penalty>
0

> <s_user_duplicate_titles>
CHEMBL1966_lig367

> <i_f3d_flags>
0

> <s_m_subgroup_title>
dock_pv

> <s_m_subgroupid>
dock_pv

> <b_m_subgroup_collapsed>
1

$$$$
CHEMBL1966_lig426
                    3D
 Schrodinger Suite 2021-1.
 47 49  0  0  1  0            999 V2000
   46.9553   38.6067   -0.8482 C   0  0  0  0  0  0
   47.8309   39.6100   -1.5732 C   0  0  0  0  0  0
   48.7929   40.3267   -0.8608 C   0  0  0  0  0  0
   49.6230   41.2111   -1.5273 C   0  0  0  0  0  0
   49.4832   41.4495   -2.8993 C   0  0  0  0  0  0
   50.3236   42.3879   -3.5198 N   0  0  0  0  0  0
   51.1134   43.4182   -2.9935 C   0  0  0  0  0  0
   52.2378   43.8196   -3.6990 C   0  0  0  0  0  0
   53.0634   44.8101   -3.2872 N   0  0  0  0  0  0
   52.8229   45.4306   -2.0974 C   0  0  0  0  0  0
   53.8257   46.3422   -1.7584 N   0  0  0  0  0  0
   54.2146   46.6758   -0.3781 C   0  0  0  0  0  0
   55.6963   47.0898   -0.2455 C   0  0  0  0  0  0
   56.0894   48.2172   -1.2055 C   0  0  0  0  0  0
   55.6432   47.8580   -2.6261 C   0  0  0  0  0  0
   54.1576   47.4449   -2.6856 C   0  0  0  0  0  0
   51.6852   45.0811   -1.3147 C   0  0  0  0  0  0
   51.3454   45.6696    0.0441 C   0  0  0  0  0  0
   50.8231   44.0871   -1.8022 C   0  0  0  0  0  0
   48.5006   40.7428   -3.6327 C   0  0  0  0  0  0
   47.6891   39.8189   -2.9479 C   0  0  0  0  0  0
   48.3052   40.9345   -5.1230 C   0  0  0  0  0  0
   49.2226   41.2100   -5.8949 O   0  0  0  0  0  0
   47.0127   40.8098   -5.5383 O   0  0  0  0  0  0
   46.3471   39.1176   -0.1007 H   0  0  0  0  0  0
   47.5768   37.8819   -0.3206 H   0  0  0  0  0  0
   46.2969   38.0603   -1.5245 H   0  0  0  0  0  0
   48.9223   40.1578    0.1986 H   0  0  0  0  0  0
   50.3969   41.6950   -0.9537 H   0  0  0  0  0  0
   50.3704   42.2804   -4.5246 H   0  0  0  0  0  0
   52.5046   43.3256   -4.6205 H   0  0  0  0  0  0
   53.5503   47.4393    0.0257 H   0  0  0  0  0  0
   54.1084   45.7775    0.2285 H   0  0  0  0  0  0
   55.8830   47.4103    0.7790 H   0  0  0  0  0  0
   56.3336   46.2154   -0.3852 H   0  0  0  0  0  0
   57.1669   48.3858   -1.1723 H   0  0  0  0  0  0
   55.6231   49.1527   -0.8984 H   0  0  0  0  0  0
   56.2616   47.0611   -3.0427 H   0  0  0  0  0  0
   55.8032   48.7151   -3.2810 H   0  0  0  0  0  0
   53.9450   47.1481   -3.7137 H   0  0  0  0  0  0
   53.5088   48.2963   -2.4783 H   0  0  0  0  0  0
   51.2230   46.7507   -0.0209 H   0  0  0  0  0  0
   50.4333   45.2099    0.4348 H   0  0  0  0  0  0
   52.1148   45.4598    0.7828 H   0  0  0  0  0  0
   49.9333   43.8317   -1.2478 H   0  0  0  0  0  0
   46.9492   39.2355   -3.4783 H   0  0  0  0  0  0
   46.4206   40.7633   -4.7850 H   0  0  0  0  0  0
  1  2  1  0  0  0
  1 25  1  0  0  0
  1 26  1  0  0  0
  1 27  1  0  0  0
  2  3  2  0  0  0
  2 21  1  0  0  0
  3  4  1  0  0  0
  3 28  1  0  0  0
  4  5  2  0  0  0
  4 29  1  0  0  0
  5  6  1  0  0  0
  5 20  1  0  0  0
  6  7  1  0  0  0
  6 30  1  0  0  0
  7  8  2  0  0  0
  7 19  1  0  0  0
  8  9  1  0  0  0
  8 31  1  0  0  0
  9 10  2  0  0  0
 10 11  1  0  0  0
 10 17  1  0  0  0
 11 12  1  0  0  0
 11 16  1  0  0  0
 12 13  1  0  0  0
 12 32  1  0  0  0
 12 33  1  0  0  0
 13 14  1  0  0  0
 13 34  1  0  0  0
 13 35  1  0  0  0
 14 15  1  0  0  0
 14 36  1  0  0  0
 14 37  1  0  0  0
 15 16  1  0  0  0
 15 38  1  0  0  0
 15 39  1  0  0  0
 16 40  1  0  0  0
 16 41  1  0  0  0
 17 18  1  0  0  0
 17 19  2  0  0  0
 18 42  1  0  0  0
 18 43  1  0  0  0
 18 44  1  0  0  0
 19 45  1  0  0  0
 20 21  2  0  0  0
 20 22  1  0  0  0
 21 46  1  0  0  0
 22 23  2  0  0  0
 22 24  1  0  0  0
 24 47  1  0  0  0
M  END
> <s_m_entry_id>
25721

> <s_m_entry_name>
dock_pv.373

> <s_m_Source_Path>
/home/csk/Desktop/cluster/DUD-E-result/pyrd

> <s_m_Source_File>
dock_pv.maegz

> <i_m_Source_File_Index>
373

> <chembl_id>
CHEMBL3674636

> <chembl_pref_name>
None

> <i_lp_mmshare_version>
53161

> <r_lp_tautomer_probability>
0.999999999999999

> <s_lp_Force_Field>
OPLS_2005

> <r_lp_Energy>
34.471919

> <b_lp_Chiralities_Consistent>
1

> <s_lp_Variant>
CHEMBL1966_lig426-1

> <s_i_glide_gridfile>
glide-grid_1d3g

> <i_i_glide_lignum>
476

> <i_i_glide_rotatable_bonds>
5

> <r_i_docking_score>
-8.96028317300887

> <r_i_glide_ligand_efficiency>
-0.373345132208703

> <r_i_glide_ligand_efficiency_sa>
-1.0769137118679

> <r_i_glide_ligand_efficiency_ln>
-2.14460692390425

> <r_i_glide_gscore>
-8.96028317300887

> <r_i_glide_lipo>
-5.26169266503912

> <r_i_glide_hbond>
-0.0554196848618292

> <r_i_glide_metal>
0

> <r_i_glide_rewards>
-2.0977707402305

> <r_i_glide_evdw>
-39.8482246398926

> <r_i_glide_ecoul>
-1.73956084251404

> <r_i_glide_erotb>
0.707945275494316

> <r_i_glide_esite>
0

> <r_i_glide_emodel>
-58.8843623061226

> <r_i_glide_energy>
-41.5877854824066

> <r_i_glide_einternal>
10.5948152542114

> <i_i_glide_confnum>
117

> <i_i_glide_posenum>
87

> <r_i_glide_eff_state_penalty>
0

> <s_user_duplicate_titles>
CHEMBL1966_lig426

> <i_f3d_flags>
0

> <s_m_subgroup_title>
dock_pv

> <s_m_subgroupid>
dock_pv

> <b_m_subgroup_collapsed>
1

$$$$
CHEMBL1966_lig427
                    3D
 Schrodinger Suite 2021-1.
 50 52  0  0  1  0            999 V2000
   46.5042   38.3916   -1.1874 C   0  0  0  0  0  0
   47.4600   39.3578   -1.8549 C   0  0  0  0  0  0
   48.4228   40.0100   -1.0922 C   0  0  0  0  0  0
   49.3350   40.8547   -1.7085 C   0  0  0  0  0  0
   49.2503   41.1581   -3.0725 C   0  0  0  0  0  0
   50.1621   42.0715   -3.6447 N   0  0  0  0  0  0
   50.9350   43.1071   -3.0884 C   0  0  0  0  0  0
   52.0408   43.6098   -3.7710 C   0  0  0  0  0  0
   52.8228   44.6168   -3.2986 N   0  0  0  0  0  0
   52.5169   45.2102   -2.0987 C   0  0  0  0  0  0
   53.3232   46.3256   -1.7314 N   0  0  0  0  0  0
   53.5976   46.5967   -0.3095 C   0  0  0  0  0  0
   54.8472   47.3976    0.1053 C   0  0  0  0  0  0
   56.1894   46.7499   -0.2312 C   0  0  0  0  0  0
   56.6285   46.9224   -1.6974 C   0  0  0  0  0  0
   55.6781   46.3249   -2.7491 C   0  0  0  0  0  0
   54.2529   46.9101   -2.7148 C   0  0  0  0  0  0
   51.4010   44.7399   -1.3523 C   0  0  0  0  0  0
   50.9654   45.2707   -0.0055 C   0  0  0  0  0  0
   50.6207   43.7043   -1.8721 C   0  0  0  0  0  0
   48.2313   40.5466   -3.8418 C   0  0  0  0  0  0
   47.3600   39.6340   -3.2174 C   0  0  0  0  0  0
   48.0200   40.8751   -5.2998 C   0  0  0  0  0  0
   48.9280   41.2081   -6.0595 O   0  0  0  0  0  0
   46.7182   40.8100   -5.6984 O   0  0  0  0  0  0
   46.1525   38.8146   -0.2462 H   0  0  0  0  0  0
   47.0080   37.4508   -0.9624 H   0  0  0  0  0  0
   45.6251   38.1950   -1.7992 H   0  0  0  0  0  0
   48.5087   39.8045   -0.0344 H   0  0  0  0  0  0
   50.1189   41.2719   -1.0978 H   0  0  0  0  0  0
   50.1982   42.0142   -4.6546 H   0  0  0  0  0  0
   52.3325   43.1976   -4.7244 H   0  0  0  0  0  0
   52.7578   47.1289    0.1324 H   0  0  0  0  0  0
   53.7522   45.6270    0.1673 H   0  0  0  0  0  0
   54.8226   48.4098   -0.2981 H   0  0  0  0  0  0
   54.8020   47.5251    1.1878 H   0  0  0  0  0  0
   56.9240   47.2207    0.4191 H   0  0  0  0  0  0
   56.1758   45.6952    0.0431 H   0  0  0  0  0  0
   57.6141   46.4784   -1.8311 H   0  0  0  0  0  0
   56.7655   47.9849   -1.9036 H   0  0  0  0  0  0
   55.6347   45.2472   -2.5806 H   0  0  0  0  0  0
   56.1073   46.4765   -3.7407 H   0  0  0  0  0  0
   53.8213   46.8626   -3.7160 H   0  0  0  0  0  0
   54.2674   47.9867   -2.5430 H   0  0  0  0  0  0
   50.8231   46.3448   -0.0989 H   0  0  0  0  0  0
   50.0333   44.8099    0.3327 H   0  0  0  0  0  0
   51.7073   45.0832    0.7688 H   0  0  0  0  0  0
   49.7421   43.3857   -1.3332 H   0  0  0  0  0  0
   46.5829   39.1336   -3.7764 H   0  0  0  0  0  0
   46.1422   40.7378   -4.9340 H   0  0  0  0  0  0
  1  2  1  0  0  0
  1 26  1  0  0  0
  1 27  1  0  0  0
  1 28  1  0  0  0
  2  3  2  0  0  0
  2 22  1  0  0  0
  3  4  1  0  0  0
  3 29  1  0  0  0
  4  5  2  0  0  0
  4 30  1  0  0  0
  5  6  1  0  0  0
  5 21  1  0  0  0
  6  7  1  0  0  0
  6 31  1  0  0  0
  7  8  2  0  0  0
  7 20  1  0  0  0
  8  9  1  0  0  0
  8 32  1  0  0  0
  9 10  2  0  0  0
 10 11  1  0  0  0
 10 18  1  0  0  0
 11 12  1  0  0  0
 11 17  1  0  0  0
 12 13  1  0  0  0
 12 33  1  0  0  0
 12 34  1  0  0  0
 13 14  1  0  0  0
 13 35  1  0  0  0
 13 36  1  0  0  0
 14 15  1  0  0  0
 14 37  1  0  0  0
 14 38  1  0  0  0
 15 16  1  0  0  0
 15 39  1  0  0  0
 15 40  1  0  0  0
 16 17  1  0  0  0
 16 41  1  0  0  0
 16 42  1  0  0  0
 17 43  1  0  0  0
 17 44  1  0  0  0
 18 19  1  0  0  0
 18 20  2  0  0  0
 19 45  1  0  0  0
 19 46  1  0  0  0
 19 47  1  0  0  0
 20 48  1  0  0  0
 21 22  2  0  0  0
 21 23  1  0  0  0
 22 49  1  0  0  0
 23 24  2  0  0  0
 23 25  1  0  0  0
 25 50  1  0  0  0
M  END
> <s_m_entry_id>
25722

> <s_m_entry_name>
dock_pv.374

> <s_m_Source_Path>
/home/csk/Desktop/cluster/DUD-E-result/pyrd

> <s_m_Source_File>
dock_pv.maegz

> <i_m_Source_File_Index>
374

> <chembl_id>
CHEMBL3674637

> <chembl_pref_name>
None

> <i_lp_mmshare_version>
53161

> <r_lp_tautomer_probability>
0.999999999999999

> <s_lp_Force_Field>
OPLS_2005

> <r_lp_Energy>
39.961403

> <b_lp_Chiralities_Consistent>
1

> <s_lp_Variant>
CHEMBL1966_lig427-1

> <s_i_glide_gridfile>
glide-grid_1d3g

> <i_i_glide_lignum>
477

> <i_i_glide_rotatable_bonds>
5

> <r_i_docking_score>
-8.95516485330973

> <r_i_glide_ligand_efficiency>
-0.358206594132389

> <r_i_glide_ligand_efficiency_sa>
-1.0474024340641

> <r_i_glide_ligand_efficiency_ln>
-2.12264243486936

> <r_i_glide_gscore>
-8.95516485330973

> <r_i_glide_lipo>
-5.3412369257992

> <r_i_glide_hbond>
-0.13283750719114

> <r_i_glide_metal>
0

> <r_i_glide_rewards>
-1.80722751736698

> <r_i_glide_evdw>
-40.5632553100586

> <r_i_glide_ecoul>
-2.01817846298218

> <r_i_glide_erotb>
0.657026631997848

> <r_i_glide_esite>
0

> <r_i_glide_emodel>
-58.6301617445685

> <r_i_glide_energy>
-42.5814337730408

> <r_i_glide_einternal>
10.3521776199341

> <i_i_glide_confnum>
5

> <i_i_glide_posenum>
339

> <r_i_glide_eff_state_penalty>
0

> <s_user_duplicate_titles>
CHEMBL1966_lig427

> <i_f3d_flags>
0

> <s_m_subgroup_title>
dock_pv

> <s_m_subgroupid>
dock_pv

> <b_m_subgroup_collapsed>
1

$$$$
CHEMBL1966_lig773
                    3D
 Schrodinger Suite 2021-1.
 39 42  0  0  1  0            999 V2000
   50.6822   42.9207   -3.0125 C   0  0  0  0  0  0
   50.4672   42.1653   -1.9066 N   0  0  0  0  0  0
   50.0176   42.6519   -4.2292 C   0  0  0  0  0  0
   49.0785   41.5916   -4.2656 C   0  0  0  0  0  0
   48.7997   40.8478   -3.0765 C   0  0  0  0  0  0
   51.7033   44.0101   -2.7911 C   0  0  0  0  0  0
   49.5235   41.2023   -1.9033 C   0  0  0  0  0  0
   48.3620   41.2138   -5.5316 C   0  0  0  0  0  0
   51.7673   44.8443   -1.6080 C   0  0  0  0  0  0
   47.8239   39.8067   -2.9776 C   0  0  0  0  0  0
   47.1427   41.2104   -5.6766 O   0  0  0  0  0  0
   49.2230   40.5714   -0.6722 C   0  0  0  0  0  0
   52.8741   45.7480   -1.3971 C   0  0  0  0  0  0
   47.5389   39.2101   -1.7612 C   0  0  0  0  0  0
   49.2230   40.8130   -6.4899 O   0  0  0  0  0  0
   50.2677   43.5024   -5.4826 C   0  0  0  0  0  0
   48.2095   39.6118   -0.6181 C   0  0  0  0  0  0
   52.7885   44.1253   -3.6627 C   0  0  0  0  0  0
   46.5862   38.2552   -1.6836 F   0  0  0  0  0  0
   50.8662   44.7158   -0.5366 C   0  0  0  0  0  0
   53.8287   45.0343   -3.4346 C   0  0  0  0  0  0
   53.8565   45.8818   -2.3634 C   0  0  0  0  0  0
   53.0679   46.4105   -0.1631 C   0  0  0  0  0  0
   51.2232   45.2058    0.7019 C   0  0  0  0  0  0
   52.2663   46.0849    0.9092 C   0  0  0  0  0  0
   47.2634   39.4826   -3.8407 H   0  0  0  0  0  0
   49.7589   40.8525    0.2218 H   0  0  0  0  0  0
   50.1285   40.8989   -6.1726 H   0  0  0  0  0  0
   49.3208   43.8201   -5.9259 H   0  0  0  0  0  0
   50.8233   44.4095   -5.2796 H   0  0  0  0  0  0
   50.8174   42.9413   -6.2396 H   0  0  0  0  0  0
   47.9674   39.1188    0.3017 H   0  0  0  0  0  0
   52.8423   43.4492   -4.4993 H   0  0  0  0  0  0
   49.9775   44.1089   -0.6068 H   0  0  0  0  0  0
   54.6819   45.0990   -4.0980 H   0  0  0  0  0  0
   54.6925   46.5489   -2.2119 H   0  0  0  0  0  0
   53.9104   47.0724   -0.0236 H   0  0  0  0  0  0
   50.5991   44.8762    1.5010 H   0  0  0  0  0  0
   52.4606   46.4902    1.8912 H   0  0  0  0  0  0
  1  2  2  0  0  0
  1  3  1  0  0  0
  1  6  1  0  0  0
  2  7  1  0  0  0
  3  4  2  0  0  0
  3 16  1  0  0  0
  4  5  1  0  0  0
  4  8  1  0  0  0
  5 10  2  0  0  0
  5  7  1  0  0  0
  6  9  1  0  0  0
  6 18  2  0  0  0
  7 12  2  0  0  0
  8 11  2  0  0  0
  8 15  1  0  0  0
  9 13  1  0  0  0
  9 20  2  0  0  0
 10 14  1  0  0  0
 10 26  1  0  0  0
 12 17  1  0  0  0
 12 27  1  0  0  0
 13 23  2  0  0  0
 13 22  1  0  0  0
 14 19  1  0  0  0
 14 17  2  0  0  0
 15 28  1  0  0  0
 16 29  1  0  0  0
 16 30  1  0  0  0
 16 31  1  0  0  0
 17 32  1  0  0  0
 18 21  1  0  0  0
 18 33  1  0  0  0
 20 24  1  0  0  0
 20 34  1  0  0  0
 21 22  2  0  0  0
 21 35  1  0  0  0
 22 36  1  0  0  0
 23 25  1  0  0  0
 23 37  1  0  0  0
 24 25  2  0  0  0
 24 38  1  0  0  0
 25 39  1  0  0  0
M  END
> <s_m_entry_id>
25723

> <s_m_entry_name>
dock_pv.375

> <s_m_Source_Path>
/home/csk/Desktop/cluster/DUD-E-result/pyrd

> <s_m_Source_File>
dock_pv.maegz

> <i_m_Source_File_Index>
375

> <chembl_id>
CHEMBL43638

> <chembl_pref_name>
None

> <i_lp_mmshare_version>
53161

> <r_lp_tautomer_probability>
1

> <s_lp_Force_Field>
OPLS_2005

> <r_lp_Energy>
29.936702

> <b_lp_Chiralities_Consistent>
1

> <s_lp_Variant>
CHEMBL1966_lig773-1

> <s_i_glide_gridfile>
glide-grid_1d3g

> <i_i_glide_lignum>
844

> <i_i_glide_rotatable_bonds>
3

> <r_i_docking_score>
-8.95399565937512

> <r_i_glide_ligand_efficiency>
-0.358159826375005

> <r_i_glide_ligand_efficiency_sa>
-1.04726568431208

> <r_i_glide_ligand_efficiency_ln>
-2.12236530086894

> <r_i_glide_gscore>
-8.95399565937512

> <r_i_glide_lipo>
-5.23179917230382

> <r_i_glide_hbond>
-0.0936229817838261

> <r_i_glide_metal>
0

> <r_i_glide_rewards>
-2.36320044140735

> <r_i_glide_evdw>
-19.4638175964355

> <r_i_glide_ecoul>
-4.23354196548462

> <r_i_glide_erotb>
0.342849110764347

> <r_i_glide_esite>
0

> <r_i_glide_emodel>
-20.8048586323056

> <r_i_glide_energy>
-23.6973595619202

> <r_i_glide_einternal>
7.5473895072937

> <i_i_glide_confnum>
5

> <i_i_glide_posenum>
109

> <r_i_glide_eff_state_penalty>
0

> <s_user_duplicate_titles>
CHEMBL1966_lig773

> <i_f3d_flags>
0

> <s_m_subgroup_title>
dock_pv

> <s_m_subgroupid>
dock_pv

> <b_m_subgroup_collapsed>
1

$$$$
CHEMBL1966_lig784
                    3D
 Schrodinger Suite 2021-1.
 35 37  0  0  1  0            999 V2000
   50.6881   42.9750   -2.9859 C   0  0  0  0  0  0
   50.4127   42.3133   -1.8408 N   0  0  0  0  0  0
   49.1598   41.6100   -4.2681 C   0  0  0  0  0  0
   48.8553   40.8885   -3.0672 C   0  0  0  0  0  0
   50.0946   42.6648   -4.2209 C   0  0  0  0  0  0
   49.5260   41.2915   -1.8698 C   0  0  0  0  0  0
   48.5300   41.2100   -5.5746 C   0  0  0  0  0  0
   51.6230   44.0100   -2.9171 N   0  0  0  0  0  0
   47.9135   39.8190   -2.9834 C   0  0  0  0  0  0
   47.1734   41.3277   -5.6533 O   0  0  0  0  0  0
   49.2230   40.8100   -6.4990 O   0  0  0  0  0  0
   49.2230   40.6572   -0.6429 C   0  0  0  0  0  0
   47.6230   39.2211   -1.7651 C   0  0  0  0  0  0
   52.0230   44.8918   -1.8999 C   0  0  0  0  0  0
   48.2552   39.6508   -0.6093 C   0  0  0  0  0  0
   46.7105   38.2266   -1.6995 F   0  0  0  0  0  0
   50.4275   43.4754   -5.4902 C   0  0  0  0  0  0
   53.2090   45.6092   -2.0990 C   0  0  0  0  0  0
   51.2739   45.0965   -0.7357 C   0  0  0  0  0  0
   51.7719   45.9328    0.2616 C   0  0  0  0  0  0
   53.7043   46.4382   -1.0976 C   0  0  0  0  0  0
   52.9922   46.5777    0.0894 C   0  0  0  0  0  0
   52.0191   44.2413   -3.8137 H   0  0  0  0  0  0
   47.4010   39.4613   -3.8628 H   0  0  0  0  0  0
   49.7240   40.9689    0.2628 H   0  0  0  0  0  0
   48.0151   39.1434    0.3010 H   0  0  0  0  0  0
   50.8232   42.8278   -6.2722 H   0  0  0  0  0  0
   49.5219   43.9362   -5.8878 H   0  0  0  0  0  0
   51.1563   44.2689   -5.3445 H   0  0  0  0  0  0
   53.7767   45.4860   -3.0100 H   0  0  0  0  0  0
   50.3305   44.5943   -0.5842 H   0  0  0  0  0  0
   51.2230   46.0705    1.1770 H   0  0  0  0  0  0
   54.6390   46.9611   -1.2363 H   0  0  0  0  0  0
   53.3784   47.2101    0.8756 H   0  0  0  0  0  0
   46.7871   41.7794   -4.8990 H   0  0  0  0  0  0
  1  2  2  0  0  0
  1  5  1  0  0  0
  1  8  1  0  0  0
  2  6  1  0  0  0
  3  5  2  0  0  0
  3  4  1  0  0  0
  3  7  1  0  0  0
  4  9  2  0  0  0
  4  6  1  0  0  0
  5 17  1  0  0  0
  6 12  2  0  0  0
  7 10  1  0  0  0
  7 11  2  0  0  0
  8 14  1  0  0  0
  8 23  1  0  0  0
  9 13  1  0  0  0
  9 24  1  0  0  0
 10 35  1  0  0  0
 12 15  1  0  0  0
 12 25  1  0  0  0
 13 16  1  0  0  0
 13 15  2  0  0  0
 14 18  2  0  0  0
 14 19  1  0  0  0
 15 26  1  0  0  0
 17 27  1  0  0  0
 17 28  1  0  0  0
 17 29  1  0  0  0
 18 21  1  0  0  0
 18 30  1  0  0  0
 19 20  2  0  0  0
 19 31  1  0  0  0
 20 22  1  0  0  0
 20 32  1  0  0  0
 21 22  2  0  0  0
 21 33  1  0  0  0
 22 34  1  0  0  0
M  END
> <s_m_entry_id>
25724

> <s_m_entry_name>
dock_pv.376

> <s_m_Source_Path>
/home/csk/Desktop/cluster/DUD-E-result/pyrd

> <s_m_Source_File>
dock_pv.maegz

> <i_m_Source_File_Index>
376

> <chembl_id>
CHEMBL49328

> <chembl_pref_name>
None

> <i_lp_mmshare_version>
53161

> <r_lp_tautomer_probability>
1

> <s_lp_Force_Field>
OPLS_2005

> <r_lp_Energy>
24.098345

> <b_lp_Chiralities_Consistent>
1

> <s_lp_Variant>
CHEMBL1966_lig784-1

> <s_i_glide_gridfile>
glide-grid_1d3g

> <i_i_glide_lignum>
855

> <i_i_glide_rotatable_bonds>
4

> <r_i_docking_score>
-8.9497188151917

> <r_i_glide_ligand_efficiency>
-0.406805400690532

> <r_i_glide_ligand_efficiency_sa>
-1.13988473148342

> <r_i_glide_ligand_efficiency_ln>
-2.18763772735844

> <r_i_glide_gscore>
-8.9497188151917

> <r_i_glide_lipo>
-4.55936817205048

> <r_i_glide_hbond>
-0.16

> <r_i_glide_metal>
0

> <r_i_glide_rewards>
-2.41772771131545

> <r_i_glide_evdw>
-28.2279205322266

> <r_i_glide_ecoul>
-6.8478741645813

> <r_i_glide_erotb>
0.62595421947276

> <r_i_glide_esite>
0

> <r_i_glide_emodel>
-48.9454726145443

> <r_i_glide_energy>
-35.0757946968079

> <r_i_glide_einternal>
6.69373273849487

> <i_i_glide_confnum>
11

> <i_i_glide_posenum>
180

> <r_i_glide_eff_state_penalty>
0

> <s_user_duplicate_titles>
CHEMBL1966_lig784

> <i_f3d_flags>
0

> <s_m_subgroup_title>
dock_pv

> <s_m_subgroupid>
dock_pv

> <b_m_subgroup_collapsed>
1

$$$$
CHEMBL1966_lig728
                    3D
 Schrodinger Suite 2021-1.
 33 35  0  0  1  0            999 V2000
   50.1059   42.0969   -1.7063 N   0  0  0  0  0  0
   49.0014   41.4747   -4.2114 C   0  0  0  0  0  0
   49.8923   42.5620   -4.0730 C   0  0  0  0  0  0
   50.4230   42.8373   -2.7985 C   0  0  0  0  0  0
   48.6273   40.7070   -3.0568 C   0  0  0  0  0  0
   49.2230   41.0736   -1.8141 C   0  0  0  0  0  0
   48.4625   41.1178   -5.5662 C   0  0  0  0  0  0
   47.6691   39.6421   -3.0481 C   0  0  0  0  0  0
   51.3480   43.9729   -2.4990 C   0  0  0  0  0  0
   49.2230   40.8100   -6.4786 O   0  0  0  0  0  0
   48.8397   40.4100   -0.6229 C   0  0  0  0  0  0
   47.2968   39.0260   -1.8565 C   0  0  0  0  0  0
   47.1079   41.2100   -5.6990 O   0  0  0  0  0  0
   50.2054   43.4605   -5.2819 C   0  0  0  0  0  0
   47.8753   39.4104   -0.6566 C   0  0  0  0  0  0
   46.3543   38.0591   -1.8570 F   0  0  0  0  0  0
   52.4810   44.1988   -3.2990 C   0  0  0  0  0  0
   51.1205   44.8100   -1.3928 C   0  0  0  0  0  0
   51.9973   45.8508   -1.0972 C   0  0  0  0  0  0
   53.3639   45.2330   -2.9940 C   0  0  0  0  0  0
   53.1175   46.0556   -1.8978 C   0  0  0  0  0  0
   47.1973   39.3166   -3.9617 H   0  0  0  0  0  0
   49.2869   40.7003    0.3168 H   0  0  0  0  0  0
   46.6845   41.5718   -4.9160 H   0  0  0  0  0  0
   49.2852   43.7226   -5.8055 H   0  0  0  0  0  0
   50.6691   44.4083   -5.0307 H   0  0  0  0  0  0
   50.8428   42.9418   -5.9968 H   0  0  0  0  0  0
   47.5756   38.9228    0.2575 H   0  0  0  0  0  0
   52.7015   43.5462   -4.1307 H   0  0  0  0  0  0
   50.2547   44.6590   -0.7638 H   0  0  0  0  0  0
   51.8100   46.4910   -0.2474 H   0  0  0  0  0  0
   54.2393   45.3946   -3.6059 H   0  0  0  0  0  0
   53.8020   46.8586   -1.6661 H   0  0  0  0  0  0
  1  4  2  0  0  0
  1  6  1  0  0  0
  2  5  1  0  0  0
  2  7  1  0  0  0
  2  3  2  0  0  0
  3  4  1  0  0  0
  3 14  1  0  0  0
  4  9  1  0  0  0
  5  6  1  0  0  0
  5  8  2  0  0  0
  6 11  2  0  0  0
  7 10  2  0  0  0
  7 13  1  0  0  0
  8 12  1  0  0  0
  8 22  1  0  0  0
  9 17  1  0  0  0
  9 18  2  0  0  0
 11 15  1  0  0  0
 11 23  1  0  0  0
 12 15  2  0  0  0
 12 16  1  0  0  0
 13 24  1  0  0  0
 14 25  1  0  0  0
 14 26  1  0  0  0
 14 27  1  0  0  0
 15 28  1  0  0  0
 17 20  2  0  0  0
 17 29  1  0  0  0
 18 19  1  0  0  0
 18 30  1  0  0  0
 19 21  2  0  0  0
 19 31  1  0  0  0
 20 21  1  0  0  0
 20 32  1  0  0  0
 21 33  1  0  0  0
M  END
> <s_m_entry_id>
25725

> <s_m_entry_name>
dock_pv.377

> <s_m_Source_Path>
/home/csk/Desktop/cluster/DUD-E-result/pyrd

> <s_m_Source_File>
dock_pv.maegz

> <i_m_Source_File_Index>
377

> <chembl_id>
CHEMBL43521

> <chembl_pref_name>
None

> <i_lp_mmshare_version>
53161

> <r_lp_tautomer_probability>
1

> <s_lp_Force_Field>
OPLS_2005

> <r_lp_Energy>
24.795366

> <b_lp_Chiralities_Consistent>
1

> <s_lp_Variant>
CHEMBL1966_lig728-1

> <s_i_glide_gridfile>
glide-grid_1d3g

> <i_i_glide_lignum>
799

> <i_i_glide_rotatable_bonds>
3

> <r_i_docking_score>
-8.94921859970445

> <r_i_glide_ligand_efficiency>
-0.426153266652593

> <r_i_glide_ligand_efficiency_sa>
-1.17572454901846

> <r_i_glide_ligand_efficiency_ln>
-2.21267621517802

> <r_i_glide_gscore>
-8.94921859970445

> <r_i_glide_lipo>
-4.63367779912894

> <r_i_glide_hbond>
-0.16

> <r_i_glide_metal>
0

> <r_i_glide_rewards>
-2.24888240567773

> <r_i_glide_evdw>
-26.4653244018555

> <r_i_glide_ecoul>
-6.93520498275757

> <r_i_glide_erotb>
0.456888572608634

> <r_i_glide_esite>
0

> <r_i_glide_emodel>
-48.8676150296835

> <r_i_glide_energy>
-33.400529384613

> <r_i_glide_einternal>
1.7683881521225

> <i_i_glide_confnum>
7

> <i_i_glide_posenum>
82

> <r_i_glide_eff_state_penalty>
0

> <s_user_duplicate_titles>
CHEMBL1966_lig728

> <i_f3d_flags>
0

> <s_m_subgroup_title>
dock_pv

> <s_m_subgroupid>
dock_pv

> <b_m_subgroup_collapsed>
1

$$$$
CHEMBL1966_lig71
                    3D
 Schrodinger Suite 2021-1.
 45 47  0  0  1  0            999 V2000
   54.7129   47.2076   -1.4202 C   0  0  0  0  0  0
   54.3342   46.5603   -2.5608 C   0  0  0  0  0  0
   53.6347   45.2935   -2.6708 C   0  0  0  0  0  0
   52.4083   45.2267   -2.1043 N   0  0  0  0  0  0
   54.4314   46.7680   -0.0662 C   0  0  0  0  0  0
   51.5116   44.1246   -2.1568 C   0  0  0  0  0  0
   54.8883   47.2584   -3.7900 C   0  0  0  0  0  0
   49.7881   41.8649   -2.0681 C   0  0  0  0  0  0
   51.2734   43.3400   -3.3058 C   0  0  0  0  0  0
   55.5374   48.4488   -1.7579 C   0  0  2  0  0  0
   50.4231   42.2398   -3.2522 C   0  0  0  0  0  0
   48.8229   40.7164   -2.0465 C   0  0  0  0  0  0
   54.1521   44.3745   -3.2990 O   0  0  0  0  0  0
   53.3315   46.4038    0.3439 O   0  0  0  0  0  0
   48.0316   40.4100   -3.1711 C   0  0  0  0  0  0
   55.9215   48.2144   -3.2126 C   0  0  0  0  0  0
   50.8230   43.8011   -0.9860 C   0  0  0  0  0  0
   50.0230   42.6589   -0.9316 C   0  0  0  0  0  0
   51.8443   43.6101   -4.4953 F   0  0  0  0  0  0
   55.5515   46.8105    0.7011 O   0  0  0  0  0  0
   46.9633   39.5000   -3.0977 C   0  0  0  0  0  0
   56.6727   48.6349   -0.9306 O   0  0  0  0  0  0
   46.0230   39.3046   -4.0874 O   0  0  0  0  0  0
   48.5478   40.0100   -0.8630 C   0  0  0  0  0  0
   47.5825   39.0088   -0.8225 C   0  0  0  0  0  0
   46.7871   38.7640   -1.9323 C   0  0  0  0  0  0
   45.8534   40.3120   -5.0744 C   0  0  0  0  0  0
   52.2102   45.9280   -1.4047 H   0  0  0  0  0  0
   55.3592   46.5767   -4.4991 H   0  0  0  0  0  0
   54.0909   47.7831   -4.3191 H   0  0  0  0  0  0
   54.8897   49.3227   -1.6990 H   0  0  0  0  0  0
   50.2780   41.6663   -4.1542 H   0  0  0  0  0  0
   48.1726   40.9760   -4.0772 H   0  0  0  0  0  0
   55.9905   49.1440   -3.7794 H   0  0  0  0  0  0
   56.9034   47.7385   -3.2700 H   0  0  0  0  0  0
   50.9590   44.3947   -0.0923 H   0  0  0  0  0  0
   49.5288   42.4314    0.0007 H   0  0  0  0  0  0
   56.2457   47.2674    0.2065 H   0  0  0  0  0  0
   57.1696   49.3974   -1.2414 H   0  0  0  0  0  0
   49.1168   40.2055    0.0338 H   0  0  0  0  0  0
   47.4227   38.4460    0.0825 H   0  0  0  0  0  0
   45.9981   38.0297   -1.8736 H   0  0  0  0  0  0
   45.0053   40.0404   -5.6989 H   0  0  0  0  0  0
   45.6231   41.2771   -4.6235 H   0  0  0  0  0  0
   46.7280   40.4105   -5.7172 H   0  0  0  0  0  0
  1  2  2  0  0  0
  1  5  1  0  0  0
  1 10  1  0  0  0
  2  3  1  0  0  0
  2  7  1  0  0  0
  3  4  1  0  0  0
  3 13  2  0  0  0
  4  6  1  0  0  0
  4 28  1  0  0  0
  5 14  2  0  0  0
  5 20  1  0  0  0
  6  9  1  0  0  0
  6 17  2  0  0  0
  7 16  1  0  0  0
  7 29  1  0  0  0
  7 30  1  0  0  0
  8 18  2  0  0  0
  8 12  1  0  0  0
  8 11  1  0  0  0
  9 11  2  0  0  0
  9 19  1  0  0  0
 10 16  1  0  0  0
 10 22  1  0  0  0
 10 31  1  0  0  0
 11 32  1  0  0  0
 12 15  1  0  0  0
 12 24  2  0  0  0
 15 21  2  0  0  0
 15 33  1  0  0  0
 16 34  1  0  0  0
 16 35  1  0  0  0
 17 18  1  0  0  0
 17 36  1  0  0  0
 18 37  1  0  0  0
 20 38  1  0  0  0
 21 23  1  0  0  0
 21 26  1  0  0  0
 22 39  1  0  0  0
 23 27  1  0  0  0
 24 25  1  0  0  0
 24 40  1  0  0  0
 25 26  2  0  0  0
 25 41  1  0  0  0
 26 42  1  0  0  0
 27 43  1  0  0  0
 27 44  1  0  0  0
 27 45  1  0  0  0
M  END
> <s_m_entry_id>
25726

> <s_m_entry_name>
dock_pv.378

> <s_m_Source_Path>
/home/csk/Desktop/cluster/DUD-E-result/pyrd

> <s_m_Source_File>
dock_pv.maegz

> <i_m_Source_File_Index>
378

> <chembl_id>
CHEMBL194395

> <chembl_pref_name>
None

> <i_lp_mmshare_version>
53161

> <r_lp_tautomer_probability>
1

> <s_lp_Force_Field>
OPLS_2005

> <r_lp_Energy>
47.766115

> <b_lp_Chiralities_Consistent>
1

> <s_lp_Variant>
CHEMBL1966_lig71-1

> <s_i_glide_gridfile>
glide-grid_1d3g

> <i_i_glide_lignum>
77

> <i_i_glide_rotatable_bonds>
8

> <r_i_docking_score>
-8.94199307548565

> <r_i_glide_ligand_efficiency>
-0.331184928721691

> <r_i_glide_ligand_efficiency_sa>
-0.993554785073541

> <r_i_glide_ligand_efficiency_ln>
-2.08154856769569

> <r_i_glide_gscore>
-8.94199307548565

> <r_i_glide_lipo>
-5.36180094533463

> <r_i_glide_hbond>
0

> <r_i_glide_metal>
0

> <r_i_glide_rewards>
-2.36834259926276

> <r_i_glide_evdw>
-38.7390518188477

> <r_i_glide_ecoul>
0.168511480093002

> <r_i_glide_erotb>
0.69982633804017

> <r_i_glide_esite>
0

> <r_i_glide_emodel>
-54.9674572601296

> <r_i_glide_energy>
-38.5705403387547

> <r_i_glide_einternal>
6.66164779663086

> <i_i_glide_confnum>
142

> <i_i_glide_posenum>
320

> <r_i_glide_eff_state_penalty>
0

> <s_user_duplicate_titles>
CHEMBL1966_lig71

> <i_f3d_flags>
0

> <s_m_subgroup_title>
dock_pv

> <s_m_subgroupid>
dock_pv

> <b_m_subgroup_collapsed>
1

$$$$
CHEMBL1966_lig93
                    3D
 Schrodinger Suite 2021-1.
 31 33  0  0  1  0            999 V2000
   47.3255   38.9952   -1.7872 C   0  0  0  0  0  0
   47.9084   39.3895   -0.5962 C   0  0  0  0  0  0
   48.8504   40.4100   -0.5595 C   0  0  0  0  0  0
   47.6771   39.6175   -2.9777 C   0  0  0  0  0  0
   48.6199   40.6960   -2.9943 C   0  0  0  0  0  0
   49.2230   41.0674   -1.7533 C   0  0  0  0  0  0
   50.1072   42.0890   -1.6455 N   0  0  0  0  0  0
   50.4054   42.8334   -2.7368 C   0  0  0  0  0  0
   49.8488   42.5660   -3.9943 C   0  0  0  0  0  0
   48.9772   41.4682   -4.1526 C   0  0  0  0  0  0
   51.3196   43.9835   -2.4652 C   0  0  0  0  0  0
   51.1172   44.8100   -1.3463 C   0  0  0  0  0  0
   51.9926   45.8569   -1.0690 C   0  0  0  0  0  0
   53.0869   46.0793   -1.9009 C   0  0  0  0  0  0
   53.3053   45.2689   -3.0123 C   0  0  0  0  0  0
   52.4230   44.2291   -3.2990 C   0  0  0  0  0  0
   48.3962   41.1501   -5.5055 C   0  0  0  0  0  0
   49.3191   41.2100   -6.4990 O   0  0  0  0  0  0
   47.2230   40.8426   -5.6990 O   0  0  0  0  0  0
   50.1094   43.4203   -5.0432 O   0  0  0  0  0  0
   54.1790   47.3693   -1.5535 Cl  0  0  0  0  0  0
   46.4021   38.0100   -1.7782 F   0  0  0  0  0  0
   47.6265   38.8747    0.3010 H   0  0  0  0  0  0
   49.3011   40.7006    0.3786 H   0  0  0  0  0  0
   47.1972   39.2795   -3.8808 H   0  0  0  0  0  0
   50.2737   44.6446   -0.6912 H   0  0  0  0  0  0
   51.8240   46.4873   -0.2081 H   0  0  0  0  0  0
   54.1561   45.4458   -3.6538 H   0  0  0  0  0  0
   52.6120   43.5937   -4.1515 H   0  0  0  0  0  0
   50.1323   41.6109   -6.1763 H   0  0  0  0  0  0
   49.3032   43.7886   -5.4241 H   0  0  0  0  0  0
  1  2  2  0  0  0
  1  4  1  0  0  0
  1 22  1  0  0  0
  2  3  1  0  0  0
  2 23  1  0  0  0
  3  6  2  0  0  0
  3 24  1  0  0  0
  4  5  2  0  0  0
  4 25  1  0  0  0
  5  6  1  0  0  0
  5 10  1  0  0  0
  6  7  1  0  0  0
  7  8  2  0  0  0
  8 11  1  0  0  0
  8  9  1  0  0  0
  9 20  1  0  0  0
  9 10  2  0  0  0
 10 17  1  0  0  0
 11 12  2  0  0  0
 11 16  1  0  0  0
 12 13  1  0  0  0
 12 26  1  0  0  0
 13 14  2  0  0  0
 13 27  1  0  0  0
 14 15  1  0  0  0
 14 21  1  0  0  0
 15 16  2  0  0  0
 15 28  1  0  0  0
 16 29  1  0  0  0
 17 18  1  0  0  0
 17 19  2  0  0  0
 18 30  1  0  0  0
 20 31  1  0  0  0
M  END
> <s_m_entry_id>
25727

> <s_m_entry_name>
dock_pv.379

> <s_m_Source_Path>
/home/csk/Desktop/cluster/DUD-E-result/pyrd

> <s_m_Source_File>
dock_pv.maegz

> <i_m_Source_File_Index>
379

> <chembl_id>
CHEMBL218464

> <chembl_pref_name>
None

> <i_lp_mmshare_version>
53161

> <r_lp_tautomer_probability>
1

> <s_lp_Force_Field>
OPLS_2005

> <r_lp_Energy>
24.623189

> <b_lp_Chiralities_Consistent>
1

> <s_lp_Variant>
CHEMBL1966_lig93-1

> <s_i_glide_gridfile>
glide-grid_1d3g

> <i_i_glide_lignum>
102

> <i_i_glide_rotatable_bonds>
4

> <r_i_docking_score>
-8.93290755368367

> <r_i_glide_ligand_efficiency>
-0.406041252440167

> <r_i_glide_ligand_efficiency_sa>
-1.13774355803365

> <r_i_glide_ligand_efficiency_ln>
-2.18352844184022

> <r_i_glide_gscore>
-8.93290755368367

> <r_i_glide_lipo>
-4.657788889247

> <r_i_glide_hbond>
-0.100577799754626

> <r_i_glide_metal>
0

> <r_i_glide_rewards>
-2.09578580154138

> <r_i_glide_evdw>
-31.0609645843506

> <r_i_glide_ecoul>
-5.96636247634888

> <r_i_glide_erotb>
0.369247537529193

> <r_i_glide_esite>
0

> <r_i_glide_emodel>
-55.546373032424

> <r_i_glide_energy>
-37.0273270606995

> <r_i_glide_einternal>
2.36226224899292

> <i_i_glide_confnum>
13

> <i_i_glide_posenum>
323

> <r_i_glide_eff_state_penalty>
0

> <s_user_duplicate_titles>
CHEMBL1966_lig93,365593

> <i_f3d_flags>
0

> <s_m_subgroup_title>
dock_pv

> <s_m_subgroupid>
dock_pv

> <b_m_subgroup_collapsed>
1

$$$$
CHEMBL1966_lig298
                    3D
 Schrodinger Suite 2021-1.
 43 45  0  0  1  0            999 V2000
   47.9804   39.4213   -0.8990 C   0  0  0  0  0  0
   47.5662   39.2100   -2.2070 C   0  0  0  0  0  0
   48.0578   40.0003   -3.2437 C   0  0  0  0  0  0
   48.9123   40.4100   -0.6102 C   0  0  0  0  0  0
   49.4213   41.2395   -1.6429 C   0  0  0  0  0  0
   49.0003   41.0442   -2.9963 C   0  0  0  0  0  0
   49.4988   41.9675   -3.9842 C   0  0  0  0  0  0
   50.3286   43.0155   -3.5558 C   0  0  0  0  0  0
   50.6164   43.1872   -2.2071 C   0  0  0  0  0  0
   50.2051   42.2892   -1.2739 N   0  0  0  0  0  0
   51.3575   44.3865   -1.6989 C   0  0  0  0  0  0
   51.0657   44.9119   -0.4331 C   0  0  0  0  0  0
   51.8437   45.9213    0.1238 C   0  0  0  0  0  0
   52.9200   46.4347   -0.5873 C   0  0  0  0  0  0
   53.1946   45.9970   -1.8906 C   0  0  0  0  0  0
   52.4230   44.9584   -2.4226 C   0  0  0  0  0  0
   49.1487   41.8794   -5.4512 C   0  0  0  0  0  0
   49.2230   43.0741   -6.0990 O   0  0  0  0  0  0
   48.8231   40.8380   -6.0232 O   0  0  0  0  0  0
   54.1903   46.5218   -2.6921 O   0  0  0  0  0  0
   54.9539   47.6332   -2.2224 C   0  0  0  0  0  0
   55.6542   48.2939   -3.4177 C   0  0  0  0  0  0
   56.5675   49.4788   -3.0426 C   0  0  0  0  0  0
   57.8457   49.0652   -2.3026 C   0  0  0  0  0  0
   47.5872   38.8061   -0.1016 H   0  0  0  0  0  0
   46.8505   38.4295   -2.4210 H   0  0  0  0  0  0
   47.6825   39.8113   -4.2353 H   0  0  0  0  0  0
   49.2231   40.5746    0.4111 H   0  0  0  0  0  0
   50.7120   43.7416   -4.2581 H   0  0  0  0  0  0
   50.2505   44.5084    0.1505 H   0  0  0  0  0  0
   51.6231   46.2913    1.1144 H   0  0  0  0  0  0
   53.5096   47.2046   -0.1146 H   0  0  0  0  0  0
   52.6795   44.5829   -3.4020 H   0  0  0  0  0  0
   49.0317   43.8232   -5.5252 H   0  0  0  0  0  0
   55.6751   47.2850   -1.4818 H   0  0  0  0  0  0
   54.3197   48.3872   -1.7530 H   0  0  0  0  0  0
   54.8819   48.6496   -4.0990 H   0  0  0  0  0  0
   56.2257   47.5470   -3.9707 H   0  0  0  0  0  0
   56.0230   50.2010   -2.4338 H   0  0  0  0  0  0
   56.8474   50.0110   -3.9532 H   0  0  0  0  0  0
   58.4804   49.9295   -2.1045 H   0  0  0  0  0  0
   58.4231   48.3590   -2.8990 H   0  0  0  0  0  0
   57.6252   48.5979   -1.3422 H   0  0  0  0  0  0
  1  2  2  0  0  0
  1  4  1  0  0  0
  1 25  1  0  0  0
  2  3  1  0  0  0
  2 26  1  0  0  0
  3  6  2  0  0  0
  3 27  1  0  0  0
  4  5  2  0  0  0
  4 28  1  0  0  0
  5  6  1  0  0  0
  5 10  1  0  0  0
  6  7  1  0  0  0
  7  8  2  0  0  0
  7 17  1  0  0  0
  8  9  1  0  0  0
  8 29  1  0  0  0
  9 10  2  0  0  0
  9 11  1  0  0  0
 11 12  2  0  0  0
 11 16  1  0  0  0
 12 13  1  0  0  0
 12 30  1  0  0  0
 13 14  2  0  0  0
 13 31  1  0  0  0
 14 15  1  0  0  0
 14 32  1  0  0  0
 15 16  2  0  0  0
 15 20  1  0  0  0
 16 33  1  0  0  0
 17 18  1  0  0  0
 17 19  2  0  0  0
 18 34  1  0  0  0
 20 21  1  0  0  0
 21 22  1  0  0  0
 21 35  1  0  0  0
 21 36  1  0  0  0
 22 23  1  0  0  0
 22 37  1  0  0  0
 22 38  1  0  0  0
 23 24  1  0  0  0
 23 39  1  0  0  0
 23 40  1  0  0  0
 24 41  1  0  0  0
 24 42  1  0  0  0
 24 43  1  0  0  0
M  END
> <s_m_entry_id>
25728

> <s_m_entry_name>
dock_pv.380

> <s_m_Source_Path>
/home/csk/Desktop/cluster/DUD-E-result/pyrd

> <s_m_Source_File>
dock_pv.maegz

> <i_m_Source_File_Index>
380

> <chembl_id>
CHEMBL3817894

> <chembl_pref_name>
None

> <i_lp_mmshare_version>
53161

> <r_lp_tautomer_probability>
1

> <s_lp_Force_Field>
OPLS_2005

> <r_lp_Energy>
24.598838

> <b_lp_Chiralities_Consistent>
1

> <s_lp_Variant>
CHEMBL1966_lig298-1

> <s_i_glide_gridfile>
glide-grid_1d3g

> <i_i_glide_lignum>
344

> <i_i_glide_rotatable_bonds>
7

> <r_i_docking_score>
-8.92188276152064

> <r_i_glide_ligand_efficiency>
-0.37174511506336

> <r_i_glide_ligand_efficiency_sa>
-1.07229846379208

> <r_i_glide_ligand_efficiency_ln>
-2.13541594335505

> <r_i_glide_gscore>
-8.92188276152064

> <r_i_glide_lipo>
-5.19771062281083

> <r_i_glide_hbond>
-0.16

> <r_i_glide_metal>
0

> <r_i_glide_rewards>
-1.89993319781292

> <r_i_glide_evdw>
-32.5799827575684

> <r_i_glide_ecoul>
-6.26575326919556

> <r_i_glide_erotb>
0.904623187360858

> <r_i_glide_esite>
0

> <r_i_glide_emodel>
-55.844685934009

> <r_i_glide_energy>
-38.8457360267639

> <r_i_glide_einternal>
8.79325199127197

> <i_i_glide_confnum>
77

> <i_i_glide_posenum>
395

> <r_i_glide_eff_state_penalty>
0

> <s_user_duplicate_titles>
CHEMBL1966_lig298

> <i_f3d_flags>
0

> <s_m_subgroup_title>
dock_pv

> <s_m_subgroupid>
dock_pv

> <b_m_subgroup_collapsed>
1

$$$$
CHEMBL1966_lig369
                    3D
 Schrodinger Suite 2021-1.
 37 39  0  0  1  0            999 V2000
   50.1815   42.3047   -3.1504 C   0  0  0  0  0  0
   50.1046   42.7695   -4.5419 C   0  0  0  0  0  0
   49.1557   42.1482   -5.2820 N   0  0  0  0  0  0
   48.3276   41.1269   -4.9426 C   0  0  0  0  0  0
   48.5126   40.6767   -3.6724 N   0  0  0  0  0  0
   49.3535   41.2830   -2.7592 C   0  0  0  0  0  0
   49.2230   40.8100   -1.3767 C   0  0  0  0  0  0
   48.2158   39.9033   -1.1936 O   0  0  0  0  0  0
   49.8705   41.2101   -0.4145 O   0  0  0  0  0  0
   47.4581   40.7120   -5.6990 O   0  0  0  0  0  0
   50.8230   43.6102   -5.0702 O   0  0  0  0  0  0
   51.2230   43.0345   -2.2901 C   0  0  0  0  0  0
   50.6912   44.3458   -1.6805 C   0  0  0  0  0  0
   51.7196   45.2100   -0.9250 C   0  0  0  0  0  0
   53.5679   46.6101    0.7010 C   0  0  0  0  0  0
   52.4299   46.0429    1.2438 C   0  0  0  0  0  0
   51.5339   45.3521    0.4483 C   0  0  0  0  0  0
   53.8205   46.5062   -0.6821 C   0  0  0  0  0  0
   52.8955   45.8006   -1.5269 C   0  0  0  0  0  0
   53.2230   45.7173   -2.9091 C   0  0  0  0  0  0
   54.3695   46.3218   -3.4197 C   0  0  0  0  0  0
   55.2470   47.0013   -2.5896 C   0  0  0  0  0  0
   54.9867   47.0944   -1.2304 C   0  0  0  0  0  0
   49.0448   42.5119   -6.2151 H   0  0  0  0  0  0
   47.9411   39.8917   -3.3912 H   0  0  0  0  0  0
   48.1602   39.6430   -0.2703 H   0  0  0  0  0  0
   51.6056   42.3793   -1.5130 H   0  0  0  0  0  0
   52.1044   43.2186   -2.8997 H   0  0  0  0  0  0
   50.1421   44.9069   -2.4251 H   0  0  0  0  0  0
   49.8976   44.0664   -0.9849 H   0  0  0  0  0  0
   54.2657   47.1348    1.3387 H   0  0  0  0  0  0
   52.2504   46.1177    2.3010 H   0  0  0  0  0  0
   50.6840   44.8893    0.9282 H   0  0  0  0  0  0
   52.5589   45.2098   -3.5907 H   0  0  0  0  0  0
   54.5809   46.2715   -4.4765 H   0  0  0  0  0  0
   56.1337   47.4599   -3.0028 H   0  0  0  0  0  0
   55.6745   47.6226   -0.5851 H   0  0  0  0  0  0
  1  2  1  0  0  0
  1  6  2  0  0  0
  1 12  1  0  0  0
  2  3  1  0  0  0
  2 11  2  0  0  0
  3  4  1  0  0  0
  3 24  1  0  0  0
  4  5  1  0  0  0
  4 10  2  0  0  0
  5  6  1  0  0  0
  5 25  1  0  0  0
  6  7  1  0  0  0
  7  8  1  0  0  0
  7  9  2  0  0  0
  8 26  1  0  0  0
 12 13  1  0  0  0
 12 27  1  0  0  0
 12 28  1  0  0  0
 13 14  1  0  0  0
 13 29  1  0  0  0
 13 30  1  0  0  0
 14 19  2  0  0  0
 14 17  1  0  0  0
 15 18  2  0  0  0
 15 16  1  0  0  0
 15 31  1  0  0  0
 16 17  2  0  0  0
 16 32  1  0  0  0
 17 33  1  0  0  0
 18 19  1  0  0  0
 18 23  1  0  0  0
 19 20  1  0  0  0
 20 21  2  0  0  0
 20 34  1  0  0  0
 21 22  1  0  0  0
 21 35  1  0  0  0
 22 23  2  0  0  0
 22 36  1  0  0  0
 23 37  1  0  0  0
M  END
> <s_m_entry_id>
25729

> <s_m_entry_name>
dock_pv.381

> <s_m_Source_Path>
/home/csk/Desktop/cluster/DUD-E-result/pyrd

> <s_m_Source_File>
dock_pv.maegz

> <i_m_Source_File_Index>
381

> <chembl_id>
CHEMBL3955618

> <chembl_pref_name>
None

> <i_lp_mmshare_version>
53161

> <r_lp_tautomer_probability>
1

> <s_lp_Force_Field>
OPLS_2005

> <r_lp_Energy>
16.637454

> <b_lp_Chiralities_Consistent>
1

> <s_lp_Variant>
CHEMBL1966_lig369-1

> <s_i_glide_gridfile>
glide-grid_1d3g

> <i_i_glide_lignum>
419

> <i_i_glide_rotatable_bonds>
5

> <r_i_docking_score>
-8.92155350526942

> <r_i_glide_ligand_efficiency>
-0.387893630663888

> <r_i_glide_ligand_efficiency_sa>
-1.10311788678683

> <r_i_glide_ligand_efficiency_ln>
-2.15731253374875

> <r_i_glide_gscore>
-8.92155350526942

> <r_i_glide_lipo>
-4.50044648082055

> <r_i_glide_hbond>
-0.06423143270223

> <r_i_glide_metal>
0

> <r_i_glide_rewards>
-2.64431222353166

> <r_i_glide_evdw>
-37.9129638671875

> <r_i_glide_ecoul>
-3.91090154647827

> <r_i_glide_erotb>
0.769720057116136

> <r_i_glide_esite>
0

> <r_i_glide_emodel>
-60.2043587200557

> <r_i_glide_energy>
-41.8238654136658

> <r_i_glide_einternal>
1.04392075538635

> <i_i_glide_confnum>
45

> <i_i_glide_posenum>
115

> <r_i_glide_eff_state_penalty>
0

> <s_user_duplicate_titles>
CHEMBL1966_lig369

> <i_f3d_flags>
0

> <s_m_subgroup_title>
dock_pv

> <s_m_subgroupid>
dock_pv

> <b_m_subgroup_collapsed>
1

$$$$
CHEMBL1966_lig281
                    3D
 Schrodinger Suite 2021-1.
 53 56  0  0  1  0            999 V2000
   53.8561   46.7918   -2.4436 C   0  0  0  0  0  0
   54.3931   47.2206   -1.2225 C   0  0  0  0  0  0
   52.8229   45.8617   -2.4736 C   0  0  0  0  0  0
   51.2229   44.4101   -1.1976 N   0  0  0  0  0  0
   52.1819   45.4478   -1.2983 C   0  0  0  0  0  0
   49.6235   41.5942   -2.6099 C   0  0  0  0  0  0
   51.1483   43.3395   -3.7407 S   0  0  0  0  0  0
   45.7519   41.6100   -5.5861 C   0  0  0  0  0  0
   49.9229   42.1344   -3.8843 C   0  0  0  0  0  0
   48.0230   41.7972   -4.9842 O   0  0  0  0  0  0
   49.8618   42.0101   -6.2824 O   0  0  0  0  0  0
   53.7562   46.8103   -0.0468 C   0  0  0  0  0  0
   50.1039   42.3661   -1.6344 N   0  0  0  0  0  0
   49.3070   41.9555   -5.1855 C   0  0  0  0  0  0
   52.6154   46.0101   -0.0928 C   0  0  0  0  0  0
   47.1718   41.2241   -5.9222 C   0  0  0  0  0  0
   50.8156   43.3927   -2.0478 C   0  0  0  0  0  0
   48.7134   40.4100   -2.2659 C   0  0  0  0  0  0
   48.4229   40.0818   -0.9358 C   0  0  0  0  0  0
   47.3759   39.2078   -0.6590 C   0  0  0  0  0  0
   46.6051   38.6378   -1.6398 C   0  0  0  0  0  0
   46.9479   38.8624   -2.9423 C   0  0  0  0  0  0
   48.0524   39.6494   -3.2449 C   0  0  0  0  0  0
   55.5449   47.9844   -1.1035 O   0  0  0  0  0  0
   56.2616   48.4620   -2.2526 C   0  0  0  0  0  0
   54.4153   47.2100    1.4941 Cl  0  0  0  0  0  0
   56.8078   47.3682   -3.1768 C   0  0  0  0  0  0
   56.8487   46.0268   -2.7802 C   0  0  0  0  0  0
   57.2329   45.0438   -3.6836 C   0  0  0  0  0  0
   57.6254   45.4013   -4.9705 C   0  0  0  0  0  0
   57.6319   46.7377   -5.3623 C   0  0  0  0  0  0
   57.2215   47.7207   -4.4652 C   0  0  0  0  0  0
   54.2820   47.0958   -3.3867 H   0  0  0  0  0  0
   52.5547   45.4883   -3.4432 H   0  0  0  0  0  0
   50.8745   44.3495   -0.2535 H   0  0  0  0  0  0
   45.2068   41.5256   -6.4990 H   0  0  0  0  0  0
   45.3083   40.9868   -4.8087 H   0  0  0  0  0  0
   45.6710   42.6593   -5.2993 H   0  0  0  0  0  0
   52.1638   45.7041    0.8405 H   0  0  0  0  0  0
   47.3974   41.6101   -6.8990 H   0  0  0  0  0  0
   47.2857   40.1432   -5.9660 H   0  0  0  0  0  0
   48.9290   40.5704   -0.1164 H   0  0  0  0  0  0
   47.0596   38.9723    0.3011 H   0  0  0  0  0  0
   45.7639   38.0082   -1.3894 H   0  0  0  0  0  0
   46.3421   38.4101   -3.6991 H   0  0  0  0  0  0
   48.3758   39.6568   -4.2656 H   0  0  0  0  0  0
   55.6195   49.1416   -2.8160 H   0  0  0  0  0  0
   57.1034   49.0559   -1.8935 H   0  0  0  0  0  0
   56.5543   45.7336   -1.7835 H   0  0  0  0  0  0
   57.2232   44.0101   -3.3789 H   0  0  0  0  0  0
   57.9288   44.6349   -5.6683 H   0  0  0  0  0  0
   57.9408   47.0085   -6.3614 H   0  0  0  0  0  0
   57.2039   48.7537   -4.7819 H   0  0  0  0  0  0
  1  2  2  0  0  0
  1  3  1  0  0  0
  1 33  1  0  0  0
  2 12  1  0  0  0
  2 24  1  0  0  0
  3  5  2  0  0  0
  3 34  1  0  0  0
  4 17  1  0  0  0
  4  5  1  0  0  0
  4 35  1  0  0  0
  5 15  1  0  0  0
  6  9  2  0  0  0
  6 13  1  0  0  0
  6 18  1  0  0  0
  7 17  1  0  0  0
  7  9  1  0  0  0
  8 16  1  0  0  0
  8 36  1  0  0  0
  8 37  1  0  0  0
  8 38  1  0  0  0
  9 14  1  0  0  0
 10 14  1  0  0  0
 10 16  1  0  0  0
 11 14  2  0  0  0
 12 15  2  0  0  0
 12 26  1  0  0  0
 13 17  2  0  0  0
 15 39  1  0  0  0
 16 40  1  0  0  0
 16 41  1  0  0  0
 18 19  2  0  0  0
 18 23  1  0  0  0
 19 20  1  0  0  0
 19 42  1  0  0  0
 20 21  2  0  0  0
 20 43  1  0  0  0
 21 22  1  0  0  0
 21 44  1  0  0  0
 22 23  2  0  0  0
 22 45  1  0  0  0
 23 46  1  0  0  0
 24 25  1  0  0  0
 25 27  1  0  0  0
 25 47  1  0  0  0
 25 48  1  0  0  0
 27 28  1  0  0  0
 27 32  2  0  0  0
 28 29  2  0  0  0
 28 49  1  0  0  0
 29 30  1  0  0  0
 29 50  1  0  0  0
 30 31  2  0  0  0
 30 51  1  0  0  0
 31 32  1  0  0  0
 31 52  1  0  0  0
 32 53  1  0  0  0
M  END
> <s_m_entry_id>
25730

> <s_m_entry_name>
dock_pv.382

> <s_m_Source_Path>
/home/csk/Desktop/cluster/DUD-E-result/pyrd

> <s_m_Source_File>
dock_pv.maegz

> <i_m_Source_File_Index>
382

> <chembl_id>
CHEMBL3410618

> <chembl_pref_name>
None

> <i_lp_mmshare_version>
53161

> <r_lp_tautomer_probability>
1

> <s_lp_Force_Field>
OPLS_2005

> <r_lp_Energy>
26.01438

> <b_lp_Chiralities_Consistent>
1

> <s_lp_Variant>
CHEMBL1966_lig281-1

> <s_i_glide_gridfile>
glide-grid_1d3g

> <i_i_glide_lignum>
327

> <i_i_glide_rotatable_bonds>
9

> <r_i_docking_score>
-8.92116126589423

> <r_i_glide_ligand_efficiency>
-0.278786289559195

> <r_i_glide_ligand_efficiency_sa>
-0.885091297618656

> <r_i_glide_ligand_efficiency_ln>
-1.9976911891053

> <r_i_glide_gscore>
-8.92116126589423

> <r_i_glide_lipo>
-6.56510180761906

> <r_i_glide_hbond>
0

> <r_i_glide_metal>
0

> <r_i_glide_rewards>
-1.12271101748179

> <r_i_glide_evdw>
-43.0840835571289

> <r_i_glide_ecoul>
1.16483199596405

> <r_i_glide_erotb>
0.746130937668465

> <r_i_glide_esite>
0

> <r_i_glide_emodel>
-42.7750076200609

> <r_i_glide_energy>
-41.9192515611649

> <r_i_glide_einternal>
11.5815544128418

> <i_i_glide_confnum>
2

> <i_i_glide_posenum>
78

> <r_i_glide_eff_state_penalty>
0

> <s_user_duplicate_titles>
CHEMBL1966_lig281

> <i_f3d_flags>
0

> <s_m_subgroup_title>
dock_pv

> <s_m_subgroupid>
dock_pv

> <b_m_subgroup_collapsed>
1

$$$$
CHEMBL1966_lig91
                    3D
 Schrodinger Suite 2021-1.
 40 42  0  0  1  0            999 V2000
   56.0836   48.2749   -1.0469 C   0  0  0  0  0  0
   55.5387   48.2329   -2.3340 C   0  0  0  0  0  0
   54.4336   47.4197   -2.5855 C   0  0  0  0  0  0
   53.8778   46.6188   -1.5773 C   0  0  0  0  0  0
   52.7856   45.6576   -1.8755 C   0  0  0  0  0  0
   54.4342   46.6798   -0.2935 C   0  0  0  0  0  0
   55.5337   47.4931   -0.0347 C   0  0  0  0  0  0
   52.8388   44.8908   -3.0415 C   0  0  0  0  0  0
   51.9145   43.8825   -3.2976 C   0  0  0  0  0  0
   50.9142   43.5868   -2.3443 C   0  0  0  0  0  0
   51.7287   45.4343   -0.9835 C   0  0  0  0  0  0
   49.4993   41.8255   -3.4208 C   0  0  0  0  0  0
   48.5059   40.8100   -3.0546 C   0  0  0  0  0  0
   48.5007   40.1168   -1.8214 C   0  0  0  0  0  0
   47.4202   40.3720   -3.8499 C   0  0  0  0  0  0
   56.0540   48.9807   -3.3664 O   0  0  0  0  0  0
   57.4065   48.7127   -3.7363 C   0  0  0  0  0  0
   58.2689   49.2103   -2.8497 F   0  0  0  0  0  0
   57.6227   47.4071   -3.9171 F   0  0  0  0  0  0
   57.6294   49.3187   -4.8991 F   0  0  0  0  0  0
   52.0586   43.2099   -4.4530 F   0  0  0  0  0  0
   50.0692   42.4536   -2.3706 N   0  0  0  0  0  0
   50.8195   44.3995   -1.2044 C   0  0  0  0  0  0
   49.8686   44.1572   -0.2705 F   0  0  0  0  0  0
   49.7277   42.1082   -4.5917 O   0  0  0  0  0  0
   47.4701   39.2105   -1.6573 C   0  0  0  0  0  0
   46.4232   39.2100   -3.0169 S   0  0  0  0  0  0
   47.0353   40.7683   -5.1791 C   0  0  0  0  0  0
   45.7090   41.0738   -5.2990 O   0  0  0  0  0  0
   47.8368   40.8100   -6.0990 O   0  0  0  0  0  0
   56.9329   48.9064   -0.8272 H   0  0  0  0  0  0
   54.0243   47.3950   -3.5853 H   0  0  0  0  0  0
   54.0394   46.0676    0.5039 H   0  0  0  0  0  0
   55.9619   47.5116    0.9562 H   0  0  0  0  0  0
   53.6368   45.0481   -3.7480 H   0  0  0  0  0  0
   51.6458   46.0193   -0.0793 H   0  0  0  0  0  0
   49.2398   40.2688   -1.0488 H   0  0  0  0  0  0
   49.7131   42.1924   -1.4639 H   0  0  0  0  0  0
   47.2702   38.5778   -0.8028 H   0  0  0  0  0  0
   45.2549   41.1280   -4.4544 H   0  0  0  0  0  0
  1  2  2  0  0  0
  1  7  1  0  0  0
  1 31  1  0  0  0
  2  3  1  0  0  0
  2 16  1  0  0  0
  3  4  2  0  0  0
  3 32  1  0  0  0
  4  5  1  0  0  0
  4  6  1  0  0  0
  5  8  2  0  0  0
  5 11  1  0  0  0
  6  7  2  0  0  0
  6 33  1  0  0  0
  7 34  1  0  0  0
  8  9  1  0  0  0
  8 35  1  0  0  0
  9 10  2  0  0  0
  9 21  1  0  0  0
 10 22  1  0  0  0
 10 23  1  0  0  0
 11 23  2  0  0  0
 11 36  1  0  0  0
 12 13  1  0  0  0
 12 22  1  0  0  0
 12 25  2  0  0  0
 13 14  1  0  0  0
 13 15  2  0  0  0
 14 26  2  0  0  0
 14 37  1  0  0  0
 15 27  1  0  0  0
 15 28  1  0  0  0
 16 17  1  0  0  0
 17 18  1  0  0  0
 17 19  1  0  0  0
 17 20  1  0  0  0
 22 38  1  0  0  0
 23 24  1  0  0  0
 26 27  1  0  0  0
 26 39  1  0  0  0
 28 29  1  0  0  0
 28 30  2  0  0  0
 29 40  1  0  0  0
M  END
> <s_m_entry_id>
25731

> <s_m_entry_name>
dock_pv.383

> <s_m_Source_Path>
/home/csk/Desktop/cluster/DUD-E-result/pyrd

> <s_m_Source_File>
dock_pv.maegz

> <i_m_Source_File_Index>
383

> <chembl_id>
CHEMBL202431

> <chembl_pref_name>
None

> <i_lp_mmshare_version>
53161

> <r_lp_tautomer_probability>
1

> <s_lp_Force_Field>
OPLS_2005

> <r_lp_Energy>
23.274256

> <b_lp_Chiralities_Consistent>
1

> <s_lp_Variant>
CHEMBL1966_lig91-1

> <s_i_glide_gridfile>
glide-grid_1d3g

> <i_i_glide_lignum>
100

> <i_i_glide_rotatable_bonds>
8

> <r_i_docking_score>
-8.91855724684403

> <r_i_glide_ligand_efficiency>
-0.297285241561468

> <r_i_glide_ligand_efficiency_sa>
-0.92373436507287

> <r_i_glide_ligand_efficiency_ln>
-2.02639338194731

> <r_i_glide_gscore>
-8.91855724684403

> <r_i_glide_lipo>
-5.2983089245389

> <r_i_glide_hbond>
-0.271503503502383

> <r_i_glide_metal>
0

> <r_i_glide_rewards>
-1.11147558978378

> <r_i_glide_evdw>
-44.3572654724121

> <r_i_glide_ecoul>
-4.00040864944458

> <r_i_glide_erotb>
0.610238801248635

> <r_i_glide_esite>
-0.0295834592303065

> <r_i_glide_emodel>
-61.4207341226759

> <r_i_glide_energy>
-48.3576741218567

> <r_i_glide_einternal>
10.3309259414673

> <i_i_glide_confnum>
14

> <i_i_glide_posenum>
177

> <r_i_glide_eff_state_penalty>
0

> <s_user_duplicate_titles>
CHEMBL1966_lig91,338648

> <i_f3d_flags>
0

> <s_m_subgroup_title>
dock_pv

> <s_m_subgroupid>
dock_pv

> <b_m_subgroup_collapsed>
1

$$$$
CHEMBL1966_lig158
                    3D
 Schrodinger Suite 2021-1.
 36 39  0  0  1  0            999 V2000
   51.7442   44.8100   -1.8389 N   0  0  0  0  0  0
   51.0795   43.7866   -2.4990 C   0  0  0  0  0  0
   50.1753   42.5268   -1.7008 S   0  0  0  0  0  0
   49.6933   41.8428   -3.2459 C   0  0  0  0  0  0
   50.2363   42.5779   -4.2938 C   0  0  0  0  0  0
   51.0714   43.6100   -3.8767 C   0  0  0  0  0  0
   51.2234   45.5513   -0.8017 C   0  0  0  0  0  0
   52.0673   46.3861   -0.2476 N   0  0  0  0  0  0
   53.0262   45.3058   -2.0321 C   0  0  0  0  0  0
   53.2201   46.2335   -0.9750 C   0  0  0  0  0  0
   54.4908   46.8092   -0.7900 C   0  0  0  0  0  0
   55.5025   46.4962   -1.6956 C   0  0  0  0  0  0
   55.2881   45.6100   -2.7511 C   0  0  0  0  0  0
   54.0504   44.9864   -2.9306 C   0  0  0  0  0  0
   48.8230   40.6983   -3.4009 C   0  0  0  0  0  0
   48.4230   40.0919   -2.2690 N   0  0  0  0  0  0
   48.4432   40.3534   -4.5230 O   0  0  0  0  0  0
   47.5438   38.9278   -2.2359 C   0  0  0  0  0  0
   46.5085   38.8217   -1.1588 C   0  0  0  0  0  0
   46.0863   39.0794   -2.5939 C   0  0  0  0  0  0
   54.7692   47.6100    0.2611 F   0  0  0  0  0  0
   56.4376   45.2578   -3.6783 C   0  0  0  0  0  0
   50.0568   42.3524   -5.3356 H   0  0  0  0  0  0
   51.5946   44.2596   -4.5617 H   0  0  0  0  0  0
   50.2011   45.3792   -0.4990 H   0  0  0  0  0  0
   56.4791   46.9369   -1.5546 H   0  0  0  0  0  0
   53.9064   44.2445   -3.6990 H   0  0  0  0  0  0
   48.9773   40.2511   -1.4418 H   0  0  0  0  0  0
   48.0230   37.9919   -2.4990 H   0  0  0  0  0  0
   46.4335   39.6100   -0.4112 H   0  0  0  0  0  0
   46.4230   37.8298   -0.7248 H   0  0  0  0  0  0
   45.6230   38.2829   -3.1756 H   0  0  0  0  0  0
   45.7332   40.0644   -2.8990 H   0  0  0  0  0  0
   57.4019   45.3866   -3.1842 H   0  0  0  0  0  0
   56.3842   44.2115   -3.9820 H   0  0  0  0  0  0
   56.4123   45.8790   -4.5737 H   0  0  0  0  0  0
  1  7  1  0  0  0
  1  2  1  0  0  0
  1  9  1  0  0  0
  2  6  2  0  0  0
  2  3  1  0  0  0
  3  4  1  0  0  0
  4  5  2  0  0  0
  4 15  1  0  0  0
  5  6  1  0  0  0
  5 23  1  0  0  0
  6 24  1  0  0  0
  7  8  2  0  0  0
  7 25  1  0  0  0
  8 10  1  0  0  0
  9 14  1  0  0  0
  9 10  2  0  0  0
 10 11  1  0  0  0
 11 12  2  0  0  0
 11 21  1  0  0  0
 12 13  1  0  0  0
 12 26  1  0  0  0
 13 14  2  0  0  0
 13 22  1  0  0  0
 14 27  1  0  0  0
 15 16  1  0  0  0
 15 17  2  0  0  0
 16 18  1  0  0  0
 16 28  1  0  0  0
 18 19  1  0  0  0
 18 20  1  0  0  0
 18 29  1  0  0  0
 19 20  1  0  0  0
 19 30  1  0  0  0
 19 31  1  0  0  0
 20 32  1  0  0  0
 20 33  1  0  0  0
 22 34  1  0  0  0
 22 35  1  0  0  0
 22 36  1  0  0  0
M  END
> <s_m_entry_id>
25732

> <s_m_entry_name>
dock_pv.384

> <s_m_Source_Path>
/home/csk/Desktop/cluster/DUD-E-result/pyrd

> <s_m_Source_File>
dock_pv.maegz

> <i_m_Source_File_Index>
384

> <chembl_id>
CHEMBL2012961

> <chembl_pref_name>
None

> <i_lp_mmshare_version>
53161

> <r_lp_tautomer_probability>
1

> <s_lp_Force_Field>
OPLS_2005

> <r_lp_Energy>
23.550549

> <b_lp_Chiralities_Consistent>
1

> <s_lp_Variant>
CHEMBL1966_lig158-1

> <s_i_glide_gridfile>
glide-grid_1d3g

> <i_i_glide_lignum>
203

> <i_i_glide_rotatable_bonds>
4

> <r_i_docking_score>
-8.91677210485668

> <r_i_glide_ligand_efficiency>
-0.405307822948031

> <r_i_glide_ligand_efficiency_sa>
-1.13568845975254

> <r_i_glide_ligand_efficiency_ln>
-2.17958434959211

> <r_i_glide_gscore>
-8.91677210485668

> <r_i_glide_lipo>
-4.51648729177841

> <r_i_glide_hbond>
0

> <r_i_glide_metal>
0

> <r_i_glide_rewards>
-3.03145071258254

> <r_i_glide_evdw>
-37.584716796875

> <r_i_glide_ecoul>
-1.58488440513611

> <r_i_glide_erotb>
0.748134400118428

> <r_i_glide_esite>
0

> <r_i_glide_emodel>
-54.1143473265002

> <r_i_glide_energy>
-39.1696012020111

> <r_i_glide_einternal>
4.28755474090576

> <i_i_glide_confnum>
41

> <i_i_glide_posenum>
36

> <r_i_glide_eff_state_penalty>
0

> <s_user_duplicate_titles>
CHEMBL1966_lig158

> <i_f3d_flags>
0

> <s_m_subgroup_title>
dock_pv

> <s_m_subgroupid>
dock_pv

> <b_m_subgroup_collapsed>
1

$$$$
CHEMBL1966_lig346
                    3D
 Schrodinger Suite 2021-1.
 34 35  0  0  1  0            999 V2000
   49.9490   42.1656   -3.0629 C   0  0  0  0  0  0
   50.0657   42.7456   -4.4116 C   0  0  0  0  0  0
   49.2229   42.2106   -5.3243 N   0  0  0  0  0  0
   48.3781   41.1569   -5.2011 C   0  0  0  0  0  0
   48.4230   40.5667   -3.9782 N   0  0  0  0  0  0
   49.1169   41.0784   -2.9003 C   0  0  0  0  0  0
   48.8230   40.4100   -1.6251 C   0  0  0  0  0  0
   47.9271   39.3807   -1.7131 O   0  0  0  0  0  0
   49.2623   40.7653   -0.5347 O   0  0  0  0  0  0
   47.6228   40.8100   -6.0990 O   0  0  0  0  0  0
   50.8611   43.6100   -4.7657 O   0  0  0  0  0  0
   50.8534   42.8580   -2.0193 C   0  0  0  0  0  0
   50.4410   44.3036   -1.6168 C   0  0  0  0  0  0
   51.5859   45.1888   -1.1070 C   0  0  0  0  0  0
   51.6230   45.6100    0.2265 C   0  0  0  0  0  0
   52.6957   46.3686    0.7010 C   0  0  0  0  0  0
   53.7452   46.7078   -0.1537 C   0  0  0  0  0  0
   53.7056   46.3220   -1.4974 C   0  0  0  0  0  0
   52.6238   45.5714   -1.9670 C   0  0  0  0  0  0
   54.8318   46.7082   -2.4410 C   0  0  0  0  0  0
   54.8055   47.3994    0.3267 F   0  0  0  0  0  0
   49.2390   42.6587   -6.2269 H   0  0  0  0  0  0
   47.8442   39.7468   -3.8573 H   0  0  0  0  0  0
   47.7672   39.0182   -0.8378 H   0  0  0  0  0  0
   51.0230   42.2558   -1.1306 H   0  0  0  0  0  0
   51.8332   42.8959   -2.4990 H   0  0  0  0  0  0
   50.0230   44.8100   -2.4813 H   0  0  0  0  0  0
   49.6288   44.2703   -0.8886 H   0  0  0  0  0  0
   50.8407   45.3099    0.9082 H   0  0  0  0  0  0
   52.7296   46.6683    1.7380 H   0  0  0  0  0  0
   52.6013   45.2513   -2.9995 H   0  0  0  0  0  0
   55.0566   47.7708   -2.3411 H   0  0  0  0  0  0
   55.7391   46.1549   -2.1965 H   0  0  0  0  0  0
   54.5731   46.5272   -3.4853 H   0  0  0  0  0  0
  1  2  1  0  0  0
  1  6  2  0  0  0
  1 12  1  0  0  0
  2  3  1  0  0  0
  2 11  2  0  0  0
  3  4  1  0  0  0
  3 22  1  0  0  0
  4  5  1  0  0  0
  4 10  2  0  0  0
  5  6  1  0  0  0
  5 23  1  0  0  0
  6  7  1  0  0  0
  7  8  1  0  0  0
  7  9  2  0  0  0
  8 24  1  0  0  0
 12 13  1  0  0  0
 12 25  1  0  0  0
 12 26  1  0  0  0
 13 14  1  0  0  0
 13 27  1  0  0  0
 13 28  1  0  0  0
 14 15  2  0  0  0
 14 19  1  0  0  0
 15 16  1  0  0  0
 15 29  1  0  0  0
 16 17  2  0  0  0
 16 30  1  0  0  0
 17 18  1  0  0  0
 17 21  1  0  0  0
 18 19  2  0  0  0
 18 20  1  0  0  0
 19 31  1  0  0  0
 20 32  1  0  0  0
 20 33  1  0  0  0
 20 34  1  0  0  0
M  END
> <s_m_entry_id>
25733

> <s_m_entry_name>
dock_pv.385

> <s_m_Source_Path>
/home/csk/Desktop/cluster/DUD-E-result/pyrd

> <s_m_Source_File>
dock_pv.maegz

> <i_m_Source_File_Index>
385

> <chembl_id>
CHEMBL3908056

> <chembl_pref_name>
None

> <i_lp_mmshare_version>
53161

> <r_lp_tautomer_probability>
1

> <s_lp_Force_Field>
OPLS_2005

> <r_lp_Energy>
13.43815

> <b_lp_Chiralities_Consistent>
1

> <s_lp_Variant>
CHEMBL1966_lig346-1

> <s_i_glide_gridfile>
glide-grid_1d3g

> <i_i_glide_lignum>
396

> <i_i_glide_rotatable_bonds>
5

> <r_i_docking_score>
-8.91614069014673

> <r_i_glide_ligand_efficiency>
-0.424578128102225

> <r_i_glide_ligand_efficiency_sa>
-1.17137886119511

> <r_i_glide_ligand_efficiency_ln>
-2.20449776888009

> <r_i_glide_gscore>
-8.91614069014673

> <r_i_glide_lipo>
-3.74191284260875

> <r_i_glide_hbond>
-0.27178892784289

> <r_i_glide_metal>
0

> <r_i_glide_rewards>
-3.15968855980164

> <r_i_glide_evdw>
-38.0041351318359

> <r_i_glide_ecoul>
-4.64911317825317

> <r_i_glide_erotb>
0.85482337343632

> <r_i_glide_esite>
0

> <r_i_glide_emodel>
-62.8894832074995

> <r_i_glide_energy>
-42.6532483100891

> <r_i_glide_einternal>
1.40152049064636

> <i_i_glide_confnum>
19

> <i_i_glide_posenum>
9

> <r_i_glide_eff_state_penalty>
0

> <s_user_duplicate_titles>
CHEMBL1966_lig346

> <i_f3d_flags>
0

> <s_m_subgroup_title>
dock_pv

> <s_m_subgroupid>
dock_pv

> <b_m_subgroup_collapsed>
1

$$$$
CHEMBL1966_lig592
                    3D
 Schrodinger Suite 2021-1.
 38 41  0  0  1  0            999 V2000
   55.9463   48.0610   -3.6106 C   0  0  0  0  0  0
   56.1649   48.4991   -2.3137 C   0  0  0  0  0  0
   55.3941   48.0098   -1.2653 C   0  0  0  0  0  0
   54.9627   47.1158   -3.8764 C   0  0  0  0  0  0
   54.1755   46.5715   -2.8310 C   0  0  0  0  0  0
   54.3683   47.0392   -1.4878 C   0  0  0  0  0  0
   53.4881   46.5081   -0.4795 C   0  0  0  0  0  0
   52.4603   45.6653   -0.8988 C   0  0  0  0  0  0
   52.4230   45.1439   -2.1830 C   0  0  0  0  0  0
   53.2571   45.6099   -3.1495 N   0  0  0  0  0  0
   51.4657   44.0100   -2.5178 C   0  0  0  0  0  0
   51.1901   43.6100   -3.8345 C   0  0  0  0  0  0
   50.2970   42.5739   -4.1071 C   0  0  0  0  0  0
   49.6834   41.8588   -3.0734 C   0  0  0  0  0  0
   49.9997   42.2200   -1.7615 C   0  0  0  0  0  0
   50.8230   43.2940   -1.4953 C   0  0  0  0  0  0
   53.5793   46.7433    1.0114 C   0  0  0  0  0  0
   54.7606   47.2100    1.4888 O   0  0  0  0  0  0
   52.6683   46.4100    1.7638 O   0  0  0  0  0  0
   48.6478   40.8100   -3.3322 C   0  0  0  0  0  0
   48.3329   40.0088   -2.2736 N   0  0  0  0  0  0
   47.2554   39.2100   -2.2939 N   0  0  0  0  0  0
   46.4367   39.2349   -3.3710 C   0  0  0  0  0  0
   46.7121   40.0100   -4.4987 C   0  0  0  0  0  0
   47.8711   40.7864   -4.4990 C   0  0  0  0  0  0
   56.5403   48.4632   -4.4185 H   0  0  0  0  0  0
   56.9284   49.2392   -2.1200 H   0  0  0  0  0  0
   55.5807   48.4162   -0.2867 H   0  0  0  0  0  0
   54.7922   46.8100   -4.8950 H   0  0  0  0  0  0
   51.7455   45.3276   -0.1669 H   0  0  0  0  0  0
   51.6248   44.1363   -4.6678 H   0  0  0  0  0  0
   50.0843   42.3413   -5.1391 H   0  0  0  0  0  0
   49.5612   41.7084   -0.9176 H   0  0  0  0  0  0
   50.9907   43.5054   -0.4554 H   0  0  0  0  0  0
   54.8183   47.0477    2.4400 H   0  0  0  0  0  0
   45.5701   38.5960   -3.3303 H   0  0  0  0  0  0
   46.0391   40.0116   -5.3429 H   0  0  0  0  0  0
   48.0720   41.4468   -5.3283 H   0  0  0  0  0  0
  1  2  2  0  0  0
  1  4  1  0  0  0
  1 26  1  0  0  0
  2  3  1  0  0  0
  2 27  1  0  0  0
  3  6  2  0  0  0
  3 28  1  0  0  0
  4  5  2  0  0  0
  4 29  1  0  0  0
  5  6  1  0  0  0
  5 10  1  0  0  0
  6  7  1  0  0  0
  7  8  2  0  0  0
  7 17  1  0  0  0
  8  9  1  0  0  0
  8 30  1  0  0  0
  9 10  2  0  0  0
  9 11  1  0  0  0
 11 12  2  0  0  0
 11 16  1  0  0  0
 12 13  1  0  0  0
 12 31  1  0  0  0
 13 14  2  0  0  0
 13 32  1  0  0  0
 14 15  1  0  0  0
 14 20  1  0  0  0
 15 16  2  0  0  0
 15 33  1  0  0  0
 16 34  1  0  0  0
 17 18  1  0  0  0
 17 19  2  0  0  0
 18 35  1  0  0  0
 20 21  2  0  0  0
 20 25  1  0  0  0
 21 22  1  0  0  0
 22 23  2  0  0  0
 23 24  1  0  0  0
 23 36  1  0  0  0
 24 25  2  0  0  0
 24 37  1  0  0  0
 25 38  1  0  0  0
M  END
> <s_m_entry_id>
25734

> <s_m_entry_name>
dock_pv.386

> <s_m_Source_Path>
/home/csk/Desktop/cluster/DUD-E-result/pyrd

> <s_m_Source_File>
dock_pv.maegz

> <i_m_Source_File_Index>
386

> <chembl_id>
CHEMBL4227258

> <chembl_pref_name>
None

> <i_lp_mmshare_version>
53161

> <r_lp_tautomer_probability>
1

> <s_lp_Force_Field>
OPLS_2005

> <r_lp_Energy>
34.466366

> <b_lp_Chiralities_Consistent>
1

> <s_lp_Variant>
CHEMBL1966_lig592-1

> <s_i_glide_gridfile>
glide-grid_1d3g

> <i_i_glide_lignum>
646

> <i_i_glide_rotatable_bonds>
4

> <r_i_docking_score>
-8.91596952378654

> <r_i_glide_ligand_efficiency>
-0.356638780951462

> <r_i_glide_ligand_efficiency_sa>
-1.04281812051779

> <r_i_glide_ligand_efficiency_ln>
-2.11335196718313

> <r_i_glide_gscore>
-8.91596952378654

> <r_i_glide_lipo>
-5.23124688046347

> <r_i_glide_hbond>
0

> <r_i_glide_metal>
0

> <r_i_glide_rewards>
-2.1937941889041

> <r_i_glide_evdw>
-32.6839637756348

> <r_i_glide_ecoul>
-2.54780721664429

> <r_i_glide_erotb>
0.525440816859412

> <r_i_glide_esite>
0

> <r_i_glide_emodel>
-38.623177354603

> <r_i_glide_energy>
-35.2317709922791

> <r_i_glide_einternal>
1.45320987701416

> <i_i_glide_confnum>
50

> <i_i_glide_posenum>
11

> <r_i_glide_eff_state_penalty>
0

> <s_user_duplicate_titles>
CHEMBL1966_lig592

> <i_f3d_flags>
0

> <s_m_subgroup_title>
dock_pv

> <s_m_subgroupid>
dock_pv

> <b_m_subgroup_collapsed>
1

$$$$
CHEMBL1966_lig799
                    3D
 Schrodinger Suite 2021-1.
 34 36  0  0  1  0            999 V2000
   50.7215   42.9968   -3.0697 C   0  0  0  0  0  0
   50.4453   42.3928   -1.8886 N   0  0  0  0  0  0
   49.1605   41.6072   -4.2776 C   0  0  0  0  0  0
   48.8560   40.9386   -3.0456 C   0  0  0  0  0  0
   50.1239   42.6326   -4.2786 C   0  0  0  0  0  0
   49.5398   41.3849   -1.8700 C   0  0  0  0  0  0
   48.5234   41.1712   -5.5651 C   0  0  0  0  0  0
   51.6581   44.0100   -3.0985 O   0  0  0  0  0  0
   47.9087   39.8770   -2.9119 C   0  0  0  0  0  0
   47.1605   41.2101   -5.6194 O   0  0  0  0  0  0
   49.2230   40.8100   -6.4990 O   0  0  0  0  0  0
   49.2230   40.8100   -0.6168 C   0  0  0  0  0  0
   47.6230   39.3258   -1.6693 C   0  0  0  0  0  0
   52.0230   44.8359   -2.0524 C   0  0  0  0  0  0
   48.2711   39.7965   -0.5358 C   0  0  0  0  0  0
   46.7131   38.3321   -1.5641 F   0  0  0  0  0  0
   50.5747   43.3444   -5.5620 C   0  0  0  0  0  0
   53.2356   45.5143   -2.2177 C   0  0  0  0  0  0
   51.2567   45.0734   -0.8990 C   0  0  0  0  0  0
   51.7697   45.8791    0.1175 C   0  0  0  0  0  0
   53.7377   46.3305   -1.2092 C   0  0  0  0  0  0
   53.0133   46.4840   -0.0321 C   0  0  0  0  0  0
   47.3921   39.4822   -3.7727 H   0  0  0  0  0  0
   49.7272   41.1576    0.2736 H   0  0  0  0  0  0
   48.0488   39.3379    0.4071 H   0  0  0  0  0  0
   50.5611   42.7378   -6.4616 H   0  0  0  0  0  0
   49.9644   44.2224   -5.7574 H   0  0  0  0  0  0
   51.6230   43.6100   -5.4786 H   0  0  0  0  0  0
   53.8075   45.3713   -3.1230 H   0  0  0  0  0  0
   50.2845   44.6252   -0.7661 H   0  0  0  0  0  0
   51.2230   46.0264    1.0349 H   0  0  0  0  0  0
   54.6903   46.8250   -1.3320 H   0  0  0  0  0  0
   53.4079   47.0987    0.7641 H   0  0  0  0  0  0
   46.7641   41.6574   -4.8683 H   0  0  0  0  0  0
  1  2  2  0  0  0
  1  5  1  0  0  0
  1  8  1  0  0  0
  2  6  1  0  0  0
  3  5  2  0  0  0
  3  4  1  0  0  0
  3  7  1  0  0  0
  4  9  2  0  0  0
  4  6  1  0  0  0
  5 17  1  0  0  0
  6 12  2  0  0  0
  7 10  1  0  0  0
  7 11  2  0  0  0
  8 14  1  0  0  0
  9 13  1  0  0  0
  9 23  1  0  0  0
 10 34  1  0  0  0
 12 15  1  0  0  0
 12 24  1  0  0  0
 13 16  1  0  0  0
 13 15  2  0  0  0
 14 18  2  0  0  0
 14 19  1  0  0  0
 15 25  1  0  0  0
 17 26  1  0  0  0
 17 27  1  0  0  0
 17 28  1  0  0  0
 18 21  1  0  0  0
 18 29  1  0  0  0
 19 20  2  0  0  0
 19 30  1  0  0  0
 20 22  1  0  0  0
 20 31  1  0  0  0
 21 22  2  0  0  0
 21 32  1  0  0  0
 22 33  1  0  0  0
M  END
> <s_m_entry_id>
25735

> <s_m_entry_name>
dock_pv.387

> <s_m_Source_Path>
/home/csk/Desktop/cluster/DUD-E-result/pyrd

> <s_m_Source_File>
dock_pv.maegz

> <i_m_Source_File_Index>
387

> <chembl_id>
CHEMBL48753

> <chembl_pref_name>
None

> <i_lp_mmshare_version>
53161

> <r_lp_tautomer_probability>
1

> <s_lp_Force_Field>
OPLS_2005

> <r_lp_Energy>
25.302095

> <b_lp_Chiralities_Consistent>
1

> <s_lp_Variant>
CHEMBL1966_lig799-1

> <s_i_glide_gridfile>
glide-grid_1d3g

> <i_i_glide_lignum>
870

> <i_i_glide_rotatable_bonds>
4

> <r_i_docking_score>
-8.91510502203588

> <r_i_glide_ligand_efficiency>
-0.405232046456176

> <r_i_glide_ligand_efficiency_sa>
-1.13547613104224

> <r_i_glide_ligand_efficiency_ln>
-2.17917685374238

> <r_i_glide_gscore>
-8.91510502203588

> <r_i_glide_lipo>
-4.66061248961339

> <r_i_glide_hbond>
-0.16

> <r_i_glide_metal>
0

> <r_i_glide_rewards>
-2.32292780615184

> <r_i_glide_evdw>
-27.9030170440674

> <r_i_glide_ecoul>
-6.65832090377808

> <r_i_glide_erotb>
0.622334261499427

> <r_i_glide_esite>
0

> <r_i_glide_emodel>
-46.5492658406639

> <r_i_glide_energy>
-34.5613379478455

> <r_i_glide_einternal>
8.20668029785156

> <i_i_glide_confnum>
11

> <i_i_glide_posenum>
166

> <r_i_glide_eff_state_penalty>
0

> <s_user_duplicate_titles>
CHEMBL1966_lig799

> <i_f3d_flags>
0

> <s_m_subgroup_title>
dock_pv

> <s_m_subgroupid>
dock_pv

> <b_m_subgroup_collapsed>
1

$$$$
CHEMBL1966_lig803
                    3D
 Schrodinger Suite 2021-1.
 35 37  0  0  1  0            999 V2000
   51.7790   44.6704   -2.0989 C   0  0  0  0  0  0
   52.2410   46.1468    0.2401 C   0  0  0  0  0  0
   51.2253   45.1971    0.1804 C   0  0  0  0  0  0
   51.0102   44.4101   -0.9585 C   0  0  0  0  0  0
   50.0230   43.2585   -0.8987 C   0  0  0  0  0  0
   50.0812   42.3261   -1.8877 N   0  0  0  0  0  0
   49.2287   43.2099    0.0461 O   0  0  0  0  0  0
   49.2282   41.2099   -2.0988 C   0  0  0  0  0  0
   48.8231   40.4109   -1.0054 C   0  0  0  0  0  0
   47.8609   39.4181   -1.1526 C   0  0  0  0  0  0
   47.3402   39.1530   -2.4116 C   0  0  0  0  0  0
   47.7970   39.8651   -3.5173 C   0  0  0  0  0  0
   48.7518   40.8909   -3.4007 C   0  0  0  0  0  0
   49.1343   41.6240   -4.6801 C   0  0  0  0  0  0
   49.7981   42.8037   -4.5381 O   0  0  0  0  0  0
   48.8238   41.1972   -5.7932 O   0  0  0  0  0  0
   53.0964   46.3381   -0.8674 C   0  0  0  0  0  0
   52.8410   45.6106   -2.0669 C   0  0  0  0  0  0
   53.6834   45.8191   -3.1837 C   0  0  0  0  0  0
   54.7555   46.7043   -3.1105 C   0  0  0  0  0  0
   55.0224   47.3895   -1.9308 C   0  0  0  0  0  0
   54.2113   47.2102   -0.8136 C   0  0  0  0  0  0
   51.6385   44.1062   -3.0092 H   0  0  0  0  0  0
   52.4135   46.6996    1.1529 H   0  0  0  0  0  0
   50.6538   45.0160    1.0783 H   0  0  0  0  0  0
   50.6572   42.5597   -2.6817 H   0  0  0  0  0  0
   49.2082   40.6100   -0.0160 H   0  0  0  0  0  0
   47.5302   38.8530   -0.2924 H   0  0  0  0  0  0
   46.5970   38.3797   -2.5367 H   0  0  0  0  0  0
   47.3764   39.6102   -4.4799 H   0  0  0  0  0  0
   49.8810   43.2228   -5.3971 H   0  0  0  0  0  0
   53.4920   45.2720   -4.0907 H   0  0  0  0  0  0
   55.3915   46.8505   -3.9715 H   0  0  0  0  0  0
   55.8657   48.0631   -1.8809 H   0  0  0  0  0  0
   54.4282   47.7397    0.1020 H   0  0  0  0  0  0
  1 18  2  0  0  0
  1  4  1  0  0  0
  1 23  1  0  0  0
  2 17  2  0  0  0
  2  3  1  0  0  0
  2 24  1  0  0  0
  3  4  2  0  0  0
  3 25  1  0  0  0
  4  5  1  0  0  0
  5  6  1  0  0  0
  5  7  2  0  0  0
  6  8  1  0  0  0
  6 26  1  0  0  0
  8 13  2  0  0  0
  8  9  1  0  0  0
  9 10  2  0  0  0
  9 27  1  0  0  0
 10 11  1  0  0  0
 10 28  1  0  0  0
 11 12  2  0  0  0
 11 29  1  0  0  0
 12 13  1  0  0  0
 12 30  1  0  0  0
 13 14  1  0  0  0
 14 15  1  0  0  0
 14 16  2  0  0  0
 15 31  1  0  0  0
 17 18  1  0  0  0
 17 22  1  0  0  0
 18 19  1  0  0  0
 19 20  2  0  0  0
 19 32  1  0  0  0
 20 21  1  0  0  0
 20 33  1  0  0  0
 21 22  2  0  0  0
 21 34  1  0  0  0
 22 35  1  0  0  0
M  END
> <s_m_entry_id>
25736

> <s_m_entry_name>
dock_pv.388

> <s_m_Source_Path>
/home/csk/Desktop/cluster/DUD-E-result/pyrd

> <s_m_Source_File>
dock_pv.maegz

> <i_m_Source_File_Index>
388

> <chembl_id>
CHEMBL200536

> <chembl_pref_name>
None

> <i_lp_mmshare_version>
53161

> <r_lp_tautomer_probability>
1

> <s_lp_Force_Field>
OPLS_2005

> <r_lp_Energy>
29.143496

> <b_lp_Chiralities_Consistent>
1

> <s_lp_Variant>
CHEMBL1966_lig803-1

> <s_i_glide_gridfile>
glide-grid_1d3g

> <i_i_glide_lignum>
874

> <i_i_glide_rotatable_bonds>
5

> <r_i_docking_score>
-8.90455772706761

> <r_i_glide_ligand_efficiency>
-0.404752623957619

> <r_i_glide_ligand_efficiency_sa>
-1.13413277034667

> <r_i_glide_ligand_efficiency_ln>
-2.1765987101302

> <r_i_glide_gscore>
-8.90455772706761

> <r_i_glide_lipo>
-4.63092981326545

> <r_i_glide_hbond>
-0.0503796013507774

> <r_i_glide_metal>
0

> <r_i_glide_rewards>
-3.00003079277086

> <r_i_glide_evdw>
-31.7582035064697

> <r_i_glide_ecoul>
-3.30040454864502

> <r_i_glide_erotb>
0.859753337939716

> <r_i_glide_esite>
0

> <r_i_glide_emodel>
-50.1141019331199

> <r_i_glide_energy>
-35.0586080551147

> <r_i_glide_einternal>
2.82117366790771

> <i_i_glide_confnum>
3

> <i_i_glide_posenum>
63

> <r_i_glide_eff_state_penalty>
0

> <s_user_duplicate_titles>
CHEMBL1966_lig803

> <i_f3d_flags>
0

> <s_m_subgroup_title>
dock_pv

> <s_m_subgroupid>
dock_pv

> <b_m_subgroup_collapsed>
1

$$$$
CHEMBL1966_lig378
                    3D
 Schrodinger Suite 2021-1.
 41 43  0  0  1  0            999 V2000
   49.5009   41.2579   -2.7990 C   0  0  0  0  0  0
   49.2230   40.8100   -1.4268 C   0  0  0  0  0  0
   48.1700   39.9523   -1.3275 N   0  0  0  0  0  0
   47.3613   39.4471   -2.3014 C   0  0  0  0  0  0
   47.6125   39.9715   -3.5270 N   0  0  0  0  0  0
   48.6595   40.8222   -3.7895 C   0  0  0  0  0  0
   48.7474   41.1720   -5.1958 C   0  0  0  0  0  0
   49.1386   42.4508   -5.4383 O   0  0  0  0  0  0
   48.4230   40.4108   -6.0990 O   0  0  0  0  0  0
   46.4896   38.6100   -2.0926 O   0  0  0  0  0  0
   49.8336   41.1220   -0.4071 O   0  0  0  0  0  0
   50.7988   42.0577   -3.0083 C   0  0  0  0  0  0
   50.6707   43.5876   -3.1864 C   0  0  0  0  0  0
   51.3608   44.4100   -2.0990 C   0  0  0  0  0  0
   50.7831   44.5309   -0.8399 C   0  0  0  0  0  0
   51.4038   45.3389    0.1222 C   0  0  0  0  0  0
   52.5322   45.1104   -2.4196 C   0  0  0  0  0  0
   53.1946   45.8993   -1.4543 C   0  0  0  0  0  0
   52.6260   46.0100   -0.1515 C   0  0  0  0  0  0
   53.3545   46.6799    0.8583 C   0  0  0  0  0  0
   54.6138   47.2061    0.5796 C   0  0  0  0  0  0
   55.1421   47.1513   -0.7049 C   0  0  0  0  0  0
   54.4403   46.5177   -1.7261 C   0  0  0  0  0  0
   49.6230   43.8100   -0.6390 O   0  0  0  0  0  0
   48.9569   43.8392    0.6092 C   0  0  0  0  0  0
   47.9845   39.6090   -0.3970 H   0  0  0  0  0  0
   47.0200   39.6331   -4.2710 H   0  0  0  0  0  0
   49.1977   42.9797   -4.6421 H   0  0  0  0  0  0
   51.5350   41.8251   -2.2361 H   0  0  0  0  0  0
   51.2369   41.6588   -3.9149 H   0  0  0  0  0  0
   51.0977   43.8658   -4.1524 H   0  0  0  0  0  0
   49.6254   43.8871   -3.2574 H   0  0  0  0  0  0
   50.9953   45.4138    1.1133 H   0  0  0  0  0  0
   52.9670   45.0225   -3.4052 H   0  0  0  0  0  0
   52.9552   46.7291    1.8612 H   0  0  0  0  0  0
   55.1843   47.6569    1.3741 H   0  0  0  0  0  0
   56.1133   47.5810   -0.9039 H   0  0  0  0  0  0
   54.8707   46.4435   -2.7146 H   0  0  0  0  0  0
   48.1582   43.1067    0.7010 H   0  0  0  0  0  0
   49.6230   43.6100    1.4310 H   0  0  0  0  0  0
   48.4965   44.8100    0.7010 H   0  0  0  0  0  0
  1  2  1  0  0  0
  1  6  2  0  0  0
  1 12  1  0  0  0
  2  3  1  0  0  0
  2 11  2  0  0  0
  3  4  1  0  0  0
  3 26  1  0  0  0
  4  5  1  0  0  0
  4 10  2  0  0  0
  5  6  1  0  0  0
  5 27  1  0  0  0
  6  7  1  0  0  0
  7  8  1  0  0  0
  7  9  2  0  0  0
  8 28  1  0  0  0
 12 13  1  0  0  0
 12 29  1  0  0  0
 12 30  1  0  0  0
 13 14  1  0  0  0
 13 31  1  0  0  0
 13 32  1  0  0  0
 14 15  2  0  0  0
 14 17  1  0  0  0
 15 16  1  0  0  0
 15 24  1  0  0  0
 16 19  2  0  0  0
 16 33  1  0  0  0
 17 18  2  0  0  0
 17 34  1  0  0  0
 18 19  1  0  0  0
 18 23  1  0  0  0
 19 20  1  0  0  0
 20 21  2  0  0  0
 20 35  1  0  0  0
 21 22  1  0  0  0
 21 36  1  0  0  0
 22 23  2  0  0  0
 22 37  1  0  0  0
 23 38  1  0  0  0
 24 25  1  0  0  0
 25 39  1  0  0  0
 25 40  1  0  0  0
 25 41  1  0  0  0
M  END
> <s_m_entry_id>
25737

> <s_m_entry_name>
dock_pv.389

> <s_m_Source_Path>
/home/csk/Desktop/cluster/DUD-E-result/pyrd

> <s_m_Source_File>
dock_pv.maegz

> <i_m_Source_File_Index>
389

> <chembl_id>
CHEMBL3935254

> <chembl_pref_name>
None

> <i_lp_mmshare_version>
53161

> <r_lp_tautomer_probability>
1

> <s_lp_Force_Field>
OPLS_2005

> <r_lp_Energy>
18.394245

> <b_lp_Chiralities_Consistent>
1

> <s_lp_Variant>
CHEMBL1966_lig378-1

> <s_i_glide_gridfile>
glide-grid_1d3g

> <i_i_glide_lignum>
428

> <i_i_glide_rotatable_bonds>
6

> <r_i_docking_score>
-8.89635182195783

> <r_i_glide_ligand_efficiency>
-0.355854072878313

> <r_i_glide_ligand_efficiency_sa>
-1.04052362019504

> <r_i_glide_ligand_efficiency_ln>
-2.10870198395464

> <r_i_glide_gscore>
-8.89635182195783

> <r_i_glide_lipo>
-4.47203896620153

> <r_i_glide_hbond>
-0.16

> <r_i_glide_metal>
0

> <r_i_glide_rewards>
-2.53289324931489

> <r_i_glide_evdw>
-28.9678001403809

> <r_i_glide_ecoul>
-6.24656009674072

> <r_i_glide_erotb>
0.653954415088751

> <r_i_glide_esite>
0

> <r_i_glide_emodel>
-44.3518541048276

> <r_i_glide_energy>
-35.2143602371216

> <r_i_glide_einternal>
7.23051261901855

> <i_i_glide_confnum>
33

> <i_i_glide_posenum>
20

> <r_i_glide_eff_state_penalty>
0

> <s_user_duplicate_titles>
CHEMBL1966_lig378

> <i_f3d_flags>
0

> <s_m_subgroup_title>
dock_pv

> <s_m_subgroupid>
dock_pv

> <b_m_subgroup_collapsed>
1

$$$$
CHEMBL1966_lig756
                    3D
 Schrodinger Suite 2021-1.
 42 45  0  0  1  0            999 V2000
   49.2632   41.6387   -3.9481 N   0  0  0  0  0  0
   48.1930   39.8972   -2.0167 C   0  0  0  0  0  0
   49.7099   41.7006   -2.6703 C   0  0  0  0  0  0
   49.2222   40.8153   -1.6745 C   0  0  0  0  0  0
   47.6110   39.9707   -3.3118 C   0  0  0  0  0  0
   48.2004   40.8588   -4.2512 C   0  0  0  0  0  0
   47.5512   38.9636   -1.0176 C   0  0  0  0  0  0
   50.6316   42.8828   -2.4563 C   0  0  0  0  0  0
   46.4242   39.2917   -3.6978 C   0  0  0  0  0  0
   46.7988   39.6032   -0.0990 O   0  0  0  0  0  0
   52.3640   45.1249   -2.0987 C   0  0  0  0  0  0
   47.6233   37.7400   -1.0812 O   0  0  0  0  0  0
   54.8586   47.2697   -0.2177 N   0  0  0  0  0  0
   47.5051   41.2091   -5.4314 C   0  0  0  0  0  0
   51.6130   43.2111   -3.4054 C   0  0  0  0  0  0
   50.4794   43.7583   -1.3702 C   0  0  0  0  0  0
   51.3251   44.8571   -1.1949 C   0  0  0  0  0  0
   52.4472   44.3222   -3.2518 C   0  0  0  0  0  0
   53.3953   46.1692   -1.8242 C   0  0  0  0  0  0
   45.8049   39.6097   -4.8919 C   0  0  0  0  0  0
   49.7070   40.9412   -0.2289 C   0  0  0  0  0  0
   46.2633   40.6437   -5.6820 C   0  0  0  0  0  0
   44.8237   38.8087   -5.3437 F   0  0  0  0  0  0
   53.8541   46.4087   -0.5195 C   0  0  0  0  0  0
   55.4323   47.9537   -1.2380 C   0  0  0  0  0  0
   54.0102   46.8994   -2.8538 C   0  0  0  0  0  0
   55.0322   47.8054   -2.5654 C   0  0  0  0  0  0
   45.9894   38.5241   -3.0766 H   0  0  0  0  0  0
   47.8805   42.0069   -6.0578 H   0  0  0  0  0  0
   51.7466   42.5913   -4.2753 H   0  0  0  0  0  0
   49.6911   43.6036   -0.6521 H   0  0  0  0  0  0
   51.1908   45.4807   -0.3232 H   0  0  0  0  0  0
   53.2096   44.5032   -3.9925 H   0  0  0  0  0  0
   49.6244   40.0100    0.3170 H   0  0  0  0  0  0
   50.7520   41.2315   -0.1538 H   0  0  0  0  0  0
   49.1102   41.6856    0.2896 H   0  0  0  0  0  0
   45.6484   40.9714   -6.4962 H   0  0  0  0  0  0
   53.4465   45.8695    0.3229 H   0  0  0  0  0  0
   56.2268   48.6367   -0.9719 H   0  0  0  0  0  0
   53.6992   46.7679   -3.8801 H   0  0  0  0  0  0
   55.5092   48.3709   -3.3529 H   0  0  0  0  0  0
   46.5447   38.9916    0.5981 H   0  0  0  0  0  0
  1  3  2  0  0  0
  1  6  1  0  0  0
  2  5  1  0  0  0
  2  7  1  0  0  0
  2  4  2  0  0  0
  3  4  1  0  0  0
  3  8  1  0  0  0
  4 21  1  0  0  0
  5  6  1  0  0  0
  5  9  2  0  0  0
  6 14  2  0  0  0
  7 10  1  0  0  0
  7 12  2  0  0  0
  8 15  1  0  0  0
  8 16  2  0  0  0
  9 20  1  0  0  0
  9 28  1  0  0  0
 10 42  1  0  0  0
 11 17  2  0  0  0
 11 19  1  0  0  0
 11 18  1  0  0  0
 13 24  2  0  0  0
 13 25  1  0  0  0
 14 22  1  0  0  0
 14 29  1  0  0  0
 15 18  2  0  0  0
 15 30  1  0  0  0
 16 17  1  0  0  0
 16 31  1  0  0  0
 17 32  1  0  0  0
 18 33  1  0  0  0
 19 24  1  0  0  0
 19 26  2  0  0  0
 20 22  2  0  0  0
 20 23  1  0  0  0
 21 34  1  0  0  0
 21 35  1  0  0  0
 21 36  1  0  0  0
 22 37  1  0  0  0
 24 38  1  0  0  0
 25 27  2  0  0  0
 25 39  1  0  0  0
 26 27  1  0  0  0
 26 40  1  0  0  0
 27 41  1  0  0  0
M  END
> <s_m_entry_id>
25738

> <s_m_entry_name>
dock_pv.390

> <s_m_Source_Path>
/home/csk/Desktop/cluster/DUD-E-result/pyrd

> <s_m_Source_File>
dock_pv.maegz

> <i_m_Source_File_Index>
390

> <chembl_id>
CHEMBL39151

> <chembl_pref_name>
None

> <i_lp_mmshare_version>
53161

> <r_lp_tautomer_probability>
1

> <s_lp_Force_Field>
OPLS_2005

> <r_lp_Energy>
34.968764

> <b_lp_Chiralities_Consistent>
1

> <s_lp_Variant>
CHEMBL1966_lig756-1

> <s_i_glide_gridfile>
glide-grid_1d3g

> <i_i_glide_lignum>
827

> <i_i_glide_rotatable_bonds>
4

> <r_i_docking_score>
-8.89074789599555

> <r_i_glide_ligand_efficiency>
-0.329286959110946

> <r_i_glide_ligand_efficiency_sa>
-0.987860876247563

> <r_i_glide_ligand_efficiency_ln>
-2.06961953475321

> <r_i_glide_gscore>
-8.89074789599555

> <r_i_glide_lipo>
-5.42228828118303

> <r_i_glide_hbond>
0

> <r_i_glide_metal>
0

> <r_i_glide_rewards>
-2.12591770303444

> <r_i_glide_evdw>
-29.9872970581055

> <r_i_glide_ecoul>
-1.93755197525024

> <r_i_glide_erotb>
0.447455737414731

> <r_i_glide_esite>
0

> <r_i_glide_emodel>
-45.539852023476

> <r_i_glide_energy>
-31.9248490333557

> <r_i_glide_einternal>
1.46135699748993

> <i_i_glide_confnum>
1

> <i_i_glide_posenum>
68

> <r_i_glide_eff_state_penalty>
0

> <s_user_duplicate_titles>
CHEMBL1966_lig756,57783

> <i_f3d_flags>
0

> <s_m_subgroup_title>
dock_pv

> <s_m_subgroupid>
dock_pv

> <b_m_subgroup_collapsed>
1

$$$$
CHEMBL1966_lig69
                    3D
 Schrodinger Suite 2021-1.
 42 44  0  0  1  0            999 V2000
   48.2782   40.3421   -2.4417 C   0  0  0  0  0  0
   47.2855   40.0027   -3.3057 C   0  0  0  0  0  0
   49.4249   41.1651   -2.7475 C   0  0  0  0  0  0
   55.6182   47.3698   -2.7780 C   0  0  0  0  0  0
   47.1194   40.4100   -4.6981 C   0  0  0  0  0  0
   49.6230   42.2343   -1.9477 N   0  0  0  0  0  0
   54.5561   46.2917   -3.0120 C   0  0  0  0  0  0
   51.6195   45.2100   -1.0435 C   0  0  0  0  0  0
   50.6596   44.1929   -1.0300 C   0  0  0  0  0  0
   50.5870   43.2606   -2.0707 C   0  0  0  0  0  0
   53.5156   46.2900   -2.0320 O   0  0  0  0  0  0
   52.5369   45.3119   -2.0990 C   0  0  0  0  0  0
   56.5254   47.6731   -3.8102 C   0  0  0  0  0  0
   55.7297   48.0610   -1.5596 C   0  0  0  0  0  0
   47.1203   38.6184   -1.4624 O   0  0  0  0  0  0
   50.1262   40.8848   -3.6990 O   0  0  0  0  0  0
   48.0230   40.5630   -5.5179 O   0  0  0  0  0  0
   47.9766   39.6865   -1.1024 C   0  0  0  0  0  0
   46.3482   39.0740   -2.5610 C   0  0  0  0  0  0
   52.4230   44.4100   -3.1717 C   0  0  0  0  0  0
   51.6907   46.3116    0.2872 Cl  0  0  0  0  0  0
   45.8072   40.5819   -5.0247 O   0  0  0  0  0  0
   51.4551   43.4103   -3.1658 C   0  0  0  0  0  0
   56.5126   46.8100   -5.3098 Cl  0  0  0  0  0  0
   54.9358   47.7657   -0.5057 F   0  0  0  0  0  0
   57.5539   49.3818   -2.4459 C   0  0  0  0  0  0
   57.4791   48.6776   -3.6433 C   0  0  0  0  0  0
   56.6841   49.0668   -1.4070 C   0  0  0  0  0  0
   49.0094   42.3187   -1.1537 H   0  0  0  0  0  0
   55.0582   45.3224   -3.0393 H   0  0  0  0  0  0
   54.1044   46.4686   -3.9902 H   0  0  0  0  0  0
   49.9854   44.1263   -0.1881 H   0  0  0  0  0  0
   47.4497   40.3704   -0.4385 H   0  0  0  0  0  0
   48.8230   39.3234   -0.5232 H   0  0  0  0  0  0
   45.4567   39.5910   -2.2020 H   0  0  0  0  0  0
   46.0237   38.2198   -3.1564 H   0  0  0  0  0  0
   53.0833   44.4579   -4.0213 H   0  0  0  0  0  0
   45.2248   40.5386   -4.2650 H   0  0  0  0  0  0
   51.4322   42.7581   -4.0224 H   0  0  0  0  0  0
   58.2928   50.1589   -2.3155 H   0  0  0  0  0  0
   58.1676   48.9076   -4.4433 H   0  0  0  0  0  0
   56.7571   49.6033   -0.4759 H   0  0  0  0  0  0
  1  2  2  0  0  0
  1  3  1  0  0  0
  1 18  1  0  0  0
  2  5  1  0  0  0
  2 19  1  0  0  0
  3  6  1  0  0  0
  3 16  2  0  0  0
  4  7  1  0  0  0
  4 13  2  0  0  0
  4 14  1  0  0  0
  5 17  2  0  0  0
  5 22  1  0  0  0
  6 10  1  0  0  0
  6 29  1  0  0  0
  7 11  1  0  0  0
  7 30  1  0  0  0
  7 31  1  0  0  0
  8  9  2  0  0  0
  8 21  1  0  0  0
  8 12  1  0  0  0
  9 10  1  0  0  0
  9 32  1  0  0  0
 10 23  2  0  0  0
 11 12  1  0  0  0
 12 20  2  0  0  0
 13 24  1  0  0  0
 13 27  1  0  0  0
 14 25  1  0  0  0
 14 28  2  0  0  0
 15 18  1  0  0  0
 15 19  1  0  0  0
 18 33  1  0  0  0
 18 34  1  0  0  0
 19 35  1  0  0  0
 19 36  1  0  0  0
 20 23  1  0  0  0
 20 37  1  0  0  0
 22 38  1  0  0  0
 23 39  1  0  0  0
 26 28  1  0  0  0
 26 27  2  0  0  0
 26 40  1  0  0  0
 27 41  1  0  0  0
 28 42  1  0  0  0
M  END
> <s_m_entry_id>
25739

> <s_m_entry_name>
dock_pv.391

> <s_m_Source_Path>
/home/csk/Desktop/cluster/DUD-E-result/pyrd

> <s_m_Source_File>
dock_pv.maegz

> <i_m_Source_File_Index>
391

> <chembl_id>
CHEMBL193371

> <chembl_pref_name>
None

> <i_lp_mmshare_version>
53161

> <r_lp_tautomer_probability>
1

> <s_lp_Force_Field>
OPLS_2005

> <r_lp_Energy>
43.713996

> <b_lp_Chiralities_Consistent>
1

> <s_lp_Variant>
CHEMBL1966_lig69-1

> <s_i_glide_gridfile>
glide-grid_1d3g

> <i_i_glide_lignum>
75

> <i_i_glide_rotatable_bonds>
8

> <r_i_docking_score>
-8.88487797837037

> <r_i_glide_ligand_efficiency>
-0.317317070656085

> <r_i_glide_ligand_efficiency_sa>
-0.963561516271895

> <r_i_glide_ligand_efficiency_ln>
-2.05089070876089

> <r_i_glide_gscore>
-8.88487797837037

> <r_i_glide_lipo>
-5.18336290561447

> <r_i_glide_hbond>
-0.0168834487846463

> <r_i_glide_metal>
0

> <r_i_glide_rewards>
-2.1893150650365

> <r_i_glide_evdw>
-43.053581237793

> <r_i_glide_ecoul>
-0.715210497379303

> <r_i_glide_erotb>
0.764644077561794

> <r_i_glide_esite>
0

> <r_i_glide_emodel>
-60.0537515311151

> <r_i_glide_energy>
-43.7687917351723

> <r_i_glide_einternal>
10.2919969558716

> <i_i_glide_confnum>
178

> <i_i_glide_posenum>
125

> <r_i_glide_eff_state_penalty>
0

> <s_user_duplicate_titles>
CHEMBL1966_lig69,327237

> <i_f3d_flags>
0

> <s_m_subgroup_title>
dock_pv

> <s_m_subgroupid>
dock_pv

> <b_m_subgroup_collapsed>
1

$$$$
CHEMBL1966_lig334
                    3D
 Schrodinger Suite 2021-1.
 49 51  0  0  1  0            999 V2000
   45.7241   37.6101   -1.4721 F   0  0  0  0  0  0
   47.6157   37.6440   -0.4445 F   0  0  0  0  0  0
   46.1235   39.2102   -0.0990 F   0  0  0  0  0  0
   49.2230   41.2099   -6.2509 O   0  0  0  0  0  0
   51.6683   44.4100   -2.3303 O   0  0  0  0  0  0
   53.3921   45.1913   -3.5848 N   0  0  0  0  0  0
   49.7522   42.7530   -4.6549 N   0  0  0  0  0  0
   54.3006   46.6954   -1.7443 C   0  0  0  0  0  0
   47.2811   39.2710   -2.0705 C   0  0  0  0  0  0
   46.6718   38.4044   -0.9982 C   0  0  0  0  0  0
   53.5680   46.5519   -3.0767 C   0  0  1  0  0  0
   55.6390   47.1538   -1.6944 C   0  0  0  0  0  0
   48.4875   40.8232   -4.0312 C   0  0  0  0  0  0
   46.7075   39.3515   -3.3375 C   0  0  0  0  0  0
   48.4230   40.0100   -1.7657 C   0  0  0  0  0  0
   47.3154   40.1207   -4.3205 C   0  0  0  0  0  0
   49.0356   40.7722   -2.7440 C   0  0  0  0  0  0
   49.1664   41.6286   -5.0963 C   0  0  0  0  0  0
   53.6523   46.3617   -0.5484 C   0  0  0  0  0  0
   54.2228   47.4139   -4.1762 C   0  0  0  0  0  0
   56.3855   47.6310   -2.9388 C   0  0  0  0  0  0
   56.2789   47.2197   -0.4618 C   0  0  0  0  0  0
   55.7343   47.1353   -4.2329 C   0  0  0  0  0  0
   52.4230   44.3152   -3.2990 C   0  0  0  0  0  0
   54.3193   46.4089    0.6692 C   0  0  0  0  0  0
   55.6475   46.8102    0.7011 C   0  0  0  0  0  0
   52.1690   43.1706   -4.2704 C   0  0  0  0  0  0
   50.9426   43.3921   -5.1965 C   0  0  0  0  0  0
   53.9732   44.9731   -4.3789 H   0  0  0  0  0  0
   49.4131   43.1426   -3.7881 H   0  0  0  0  0  0
   52.5619   46.9412   -2.8993 H   0  0  0  0  0  0
   45.8043   38.8088   -3.5772 H   0  0  0  0  0  0
   48.8474   39.9770   -0.7722 H   0  0  0  0  0  0
   46.8670   40.1698   -5.3010 H   0  0  0  0  0  0
   49.9419   41.3051   -2.4904 H   0  0  0  0  0  0
   52.6248   46.0281   -0.5658 H   0  0  0  0  0  0
   54.0571   48.4726   -3.9709 H   0  0  0  0  0  0
   53.7660   47.2105   -5.1457 H   0  0  0  0  0  0
   56.3906   48.7223   -2.9361 H   0  0  0  0  0  0
   57.4306   47.3187   -2.9027 H   0  0  0  0  0  0
   57.2806   47.6100   -0.4077 H   0  0  0  0  0  0
   56.2053   47.6099   -5.0911 H   0  0  0  0  0  0
   55.9193   46.0668   -4.3553 H   0  0  0  0  0  0
   53.8132   46.1195    1.5787 H   0  0  0  0  0  0
   56.1937   46.8294    1.6296 H   0  0  0  0  0  0
   53.0473   42.8728   -4.8412 H   0  0  0  0  0  0
   52.0228   42.2500   -3.7105 H   0  0  0  0  0  0
   50.8258   44.4092   -5.5640 H   0  0  0  0  0  0
   51.1934   42.9403   -6.1596 H   0  0  0  0  0  0
  1 10  1  0  0  0
  2 10  1  0  0  0
  3 10  1  0  0  0
  4 18  2  0  0  0
  5 24  2  0  0  0
  6 11  1  0  0  0
  6 24  1  0  0  0
  6 29  1  0  0  0
  7 18  1  0  0  0
  7 28  1  0  0  0
  7 30  1  0  0  0
  8 11  1  0  0  0
  8 12  1  0  0  0
  8 19  2  0  0  0
  9 10  1  0  0  0
  9 14  2  0  0  0
  9 15  1  0  0  0
 11 20  1  0  0  0
 11 31  1  0  0  0
 12 21  1  0  0  0
 12 22  2  0  0  0
 13 16  2  0  0  0
 13 17  1  0  0  0
 13 18  1  0  0  0
 14 16  1  0  0  0
 14 32  1  0  0  0
 15 17  2  0  0  0
 15 33  1  0  0  0
 16 34  1  0  0  0
 17 35  1  0  0  0
 19 25  1  0  0  0
 19 36  1  0  0  0
 20 23  1  0  0  0
 20 37  1  0  0  0
 20 38  1  0  0  0
 21 23  1  0  0  0
 21 39  1  0  0  0
 21 40  1  0  0  0
 22 26  1  0  0  0
 22 41  1  0  0  0
 23 42  1  0  0  0
 23 43  1  0  0  0
 24 27  1  0  0  0
 25 26  2  0  0  0
 25 44  1  0  0  0
 26 45  1  0  0  0
 27 28  1  0  0  0
 27 46  1  0  0  0
 27 47  1  0  0  0
 28 48  1  0  0  0
 28 49  1  0  0  0
M  END
> <s_m_entry_id>
25740

> <s_m_entry_name>
dock_pv.392

> <s_m_Source_Path>
/home/csk/Desktop/cluster/DUD-E-result/pyrd

> <s_m_Source_File>
dock_pv.maegz

> <i_m_Source_File_Index>
392

> <chembl_id>
CHEMBL3184096

> <chembl_pref_name>
None

> <i_lp_mmshare_version>
53161

> <r_lp_tautomer_probability>
1

> <s_lp_Force_Field>
OPLS_2005

> <r_lp_Energy>
17.746329

> <b_lp_Chiralities_Consistent>
1

> <s_lp_Variant>
CHEMBL1966_lig334-1

> <s_i_glide_gridfile>
glide-grid_1d3g

> <i_i_glide_lignum>
384

> <i_i_glide_rotatable_bonds>
8

> <r_i_docking_score>
-8.8745507465202

> <r_i_glide_ligand_efficiency>
-0.31694824094715

> <r_i_glide_ligand_efficiency_sa>
-0.962441532046488

> <r_i_glide_ligand_efficiency_ln>
-2.04850688042917

> <r_i_glide_gscore>
-8.8745507465202

> <r_i_glide_lipo>
-5.40697069689619

> <r_i_glide_hbond>
-0.16

> <r_i_glide_metal>
0

> <r_i_glide_rewards>
-2.28069359346122

> <r_i_glide_evdw>
-27.9411392211914

> <r_i_glide_ecoul>
-2.65099596977234

> <r_i_glide_erotb>
0.767819900362639

> <r_i_glide_esite>
0

> <r_i_glide_emodel>
-38.2277611186699

> <r_i_glide_energy>
-30.5921351909637

> <r_i_glide_einternal>
14.1111946105957

> <i_i_glide_confnum>
48

> <i_i_glide_posenum>
255

> <r_i_glide_eff_state_penalty>
0

> <s_user_duplicate_titles>
CHEMBL1966_lig334

> <i_f3d_flags>
0

> <s_m_subgroup_title>
dock_pv

> <s_m_subgroupid>
dock_pv

> <b_m_subgroup_collapsed>
1

$$$$
CHEMBL1966_lig317
                    3D
 Schrodinger Suite 2021-1.
 39 41  0  0  1  0            999 V2000
   56.3004   48.6841   -2.5642 C   0  0  0  0  0  0
   55.3722   48.2745   -3.5035 C   0  0  0  0  0  0
   54.3331   47.4193   -3.1542 C   0  0  0  0  0  0
   54.1843   46.9509   -1.8410 C   0  0  0  0  0  0
   55.1788   47.3224   -0.8893 C   0  0  0  0  0  0
   56.2056   48.2090   -1.2680 C   0  0  0  0  0  0
   55.1851   46.8102    0.5291 C   0  0  0  0  0  0
   56.4205   46.8017    1.1010 O   0  0  0  0  0  0
   54.1780   46.4094    1.1010 O   0  0  0  0  0  0
   52.9830   46.1392   -1.5242 C   0  0  0  0  0  0
   52.5160   45.2100   -2.2616 N   0  0  0  0  0  0
   51.3537   44.4093   -1.9196 N   0  0  0  0  0  0
   50.8336   43.4739   -2.8153 C   0  0  0  0  0  0
   49.9890   42.4997   -2.5425 N   0  0  0  0  0  0
   49.5088   41.8740   -3.6174 C   0  0  0  0  0  0
   50.0205   42.3943   -4.8083 C   0  0  0  0  0  0
   51.2071   43.6098   -4.4991 S   0  0  0  0  0  0
   48.4715   40.7729   -3.4670 C   0  0  0  0  0  0
   48.4306   40.0696   -2.2507 C   0  0  0  0  0  0
   47.4381   39.1352   -1.9740 C   0  0  0  0  0  0
   46.4173   38.9262   -2.8891 C   0  0  0  0  0  0
   46.4263   39.6101   -4.0989 C   0  0  0  0  0  0
   47.4796   40.4606   -4.4289 C   0  0  0  0  0  0
   47.3929   41.2099   -5.9847 Cl  0  0  0  0  0  0
   47.4705   38.2463   -0.4990 Cl  0  0  0  0  0  0
   50.7301   44.5933   -0.6006 C   0  0  0  0  0  0
   57.0917   49.3663   -2.8402 H   0  0  0  0  0  0
   55.4531   48.6533   -4.4990 H   0  0  0  0  0  0
   53.6230   47.1460   -3.9210 H   0  0  0  0  0  0
   56.9521   48.5623   -0.5690 H   0  0  0  0  0  0
   57.0792   47.1579    0.5052 H   0  0  0  0  0  0
   52.4969   46.4192   -0.5961 H   0  0  0  0  0  0
   49.8262   42.0988   -5.8261 H   0  0  0  0  0  0
   49.1808   40.2559   -1.4962 H   0  0  0  0  0  0
   45.6239   38.2288   -2.6687 H   0  0  0  0  0  0
   45.6297   39.4352   -4.8076 H   0  0  0  0  0  0
   49.8885   43.9219   -0.4291 H   0  0  0  0  0  0
   51.4539   44.4201    0.1928 H   0  0  0  0  0  0
   50.3524   45.6102   -0.5092 H   0  0  0  0  0  0
  1  2  2  0  0  0
  1  6  1  0  0  0
  1 27  1  0  0  0
  2  3  1  0  0  0
  2 28  1  0  0  0
  3  4  2  0  0  0
  3 29  1  0  0  0
  4  5  1  0  0  0
  4 10  1  0  0  0
  5  6  2  0  0  0
  5  7  1  0  0  0
  6 30  1  0  0  0
  7  8  1  0  0  0
  7  9  2  0  0  0
  8 31  1  0  0  0
 10 11  2  0  0  0
 10 32  1  0  0  0
 11 12  1  0  0  0
 12 13  1  0  0  0
 12 26  1  0  0  0
 13 14  2  0  0  0
 13 17  1  0  0  0
 14 15  1  0  0  0
 15 16  2  0  0  0
 15 18  1  0  0  0
 16 17  1  0  0  0
 16 33  1  0  0  0
 18 19  2  0  0  0
 18 23  1  0  0  0
 19 20  1  0  0  0
 19 34  1  0  0  0
 20 21  2  0  0  0
 20 25  1  0  0  0
 21 22  1  0  0  0
 21 35  1  0  0  0
 22 23  2  0  0  0
 22 36  1  0  0  0
 23 24  1  0  0  0
 26 37  1  0  0  0
 26 38  1  0  0  0
 26 39  1  0  0  0
M  END
> <s_m_entry_id>
25741

> <s_m_entry_name>
dock_pv.393

> <s_m_Source_Path>
/home/csk/Desktop/cluster/DUD-E-result/pyrd

> <s_m_Source_File>
dock_pv.maegz

> <i_m_Source_File_Index>
393

> <chembl_id>
CHEMBL3941922

> <chembl_pref_name>
None

> <i_lp_mmshare_version>
53161

> <r_lp_tautomer_probability>
1

> <s_lp_Force_Field>
OPLS_2005

> <r_lp_Energy>
33.355203

> <b_lp_Chiralities_Consistent>
1

> <s_lp_Variant>
CHEMBL1966_lig317-1

> <s_i_glide_gridfile>
glide-grid_1d3g

> <i_i_glide_lignum>
367

> <i_i_glide_rotatable_bonds>
6

> <r_i_docking_score>
-8.87239741832622

> <r_i_glide_ligand_efficiency>
-0.341246054551008

> <r_i_glide_ligand_efficiency_sa>
-1.01094009386898

> <r_i_glide_ligand_efficiency_ln>
-2.08365342098344

> <r_i_glide_gscore>
-8.87239741832622

> <r_i_glide_lipo>
-5.1322631338714

> <r_i_glide_hbond>
0

> <r_i_glide_metal>
0

> <r_i_glide_rewards>
-2.15330374221878

> <r_i_glide_evdw>
-43.0903511047363

> <r_i_glide_ecoul>
-0.185660481452942

> <r_i_glide_erotb>
0.595536085218731

> <r_i_glide_esite>
0

> <r_i_glide_emodel>
-52.7180571786293

> <r_i_glide_energy>
-43.2760115861893

> <r_i_glide_einternal>
8.69305992126465

> <i_i_glide_confnum>
43

> <i_i_glide_posenum>
344

> <r_i_glide_eff_state_penalty>
0

> <s_user_duplicate_titles>
CHEMBL1966_lig317

> <i_f3d_flags>
0

> <s_m_subgroup_title>
dock_pv

> <s_m_subgroupid>
dock_pv

> <b_m_subgroup_collapsed>
1

$$$$
CHEMBL1966_lig25
                    3D
 Schrodinger Suite 2021-1.
 48 50  0  0  1  0            999 V2000
   48.0247   40.1903   -3.2739 C   0  0  0  0  0  0
   49.2222   40.9352   -2.9343 C   0  0  0  0  0  0
   47.2654   40.2834   -4.4043 C   0  0  0  0  0  0
   49.3533   42.1596   -3.4536 N   0  0  0  0  0  0
   47.5513   41.0538   -5.5973 C   0  0  0  0  0  0
   50.3747   43.0212   -3.0849 C   0  0  0  0  0  0
   52.4266   44.8159   -2.5581 C   0  0  0  0  0  0
   50.4488   43.6238   -1.8150 C   0  0  0  0  0  0
   51.4194   44.6102   -1.6091 C   0  0  0  0  0  0
   53.4773   45.8566   -2.4063 C   0  0  0  0  0  0
   50.0089   40.5269   -2.0998 O   0  0  0  0  0  0
   48.6627   41.2099   -6.0974 O   0  0  0  0  0  0
   53.9252   46.1872   -1.1405 C   0  0  0  0  0  0
   51.3461   43.2484   -4.0367 C   0  0  0  0  0  0
   52.4228   44.0346   -3.6991 C   0  0  0  0  0  0
   46.4135   41.6100   -6.0962 O   0  0  0  0  0  0
   54.8547   47.2093   -0.9326 C   0  0  0  0  0  0
   47.3851   39.2756   -2.2434 C   0  0  0  0  0  0
   45.9297   39.6097   -4.2010 C   0  0  0  0  0  0
   49.6231   43.1676   -0.8150 O   0  0  0  0  0  0
   55.2364   47.6100    0.3193 O   0  0  0  0  0  0
   46.0230   38.9575   -2.8311 C   0  0  0  0  0  0
   54.0228   46.5504   -3.4977 C   0  0  0  0  0  0
   54.9837   47.5440   -3.3151 C   0  0  0  0  0  0
   55.3980   47.8742   -2.0288 C   0  0  0  0  0  0
   49.3336   43.9901    0.3011 C   0  0  0  0  0  0
   54.5046   47.0731    1.4079 C   0  0  0  0  0  0
   48.8154   42.3997   -4.2717 H   0  0  0  0  0  0
   51.4406   45.1768   -0.6943 H   0  0  0  0  0  0
   53.5220   45.6326   -0.3109 H   0  0  0  0  0  0
   51.2946   42.8101   -5.0177 H   0  0  0  0  0  0
   53.2226   44.1083   -4.3946 H   0  0  0  0  0  0
   46.5548   42.4607   -6.5476 H   0  0  0  0  0  0
   47.2902   39.7561   -1.2678 H   0  0  0  0  0  0
   47.9907   38.3776   -2.1071 H   0  0  0  0  0  0
   45.6228   38.9118   -4.9807 H   0  0  0  0  0  0
   45.2230   40.4318   -4.2045 H   0  0  0  0  0  0
   45.2234   39.3117   -2.1769 H   0  0  0  0  0  0
   45.8806   37.8862   -2.9140 H   0  0  0  0  0  0
   53.6758   46.3520   -4.4990 H   0  0  0  0  0  0
   55.3884   48.0722   -4.1648 H   0  0  0  0  0  0
   56.1233   48.6604   -1.8769 H   0  0  0  0  0  0
   48.7588   43.4153    1.0273 H   0  0  0  0  0  0
   50.2095   44.3869    0.8134 H   0  0  0  0  0  0
   48.7102   44.8100   -0.0288 H   0  0  0  0  0  0
   54.8225   47.5730    2.3008 H   0  0  0  0  0  0
   53.4257   47.2102    1.3216 H   0  0  0  0  0  0
   54.7046   46.0067    1.5010 H   0  0  0  0  0  0
  1  2  1  0  0  0
  1  3  2  0  0  0
  1 18  1  0  0  0
  2  4  1  0  0  0
  2 11  2  0  0  0
  3  5  1  0  0  0
  3 19  1  0  0  0
  4  6  1  0  0  0
  4 28  1  0  0  0
  5 12  2  0  0  0
  5 16  1  0  0  0
  6  8  1  0  0  0
  6 14  2  0  0  0
  7 15  2  0  0  0
  7 10  1  0  0  0
  7  9  1  0  0  0
  8  9  2  0  0  0
  8 20  1  0  0  0
  9 29  1  0  0  0
 10 13  1  0  0  0
 10 23  2  0  0  0
 13 17  2  0  0  0
 13 30  1  0  0  0
 14 15  1  0  0  0
 14 31  1  0  0  0
 15 32  1  0  0  0
 16 33  1  0  0  0
 17 21  1  0  0  0
 17 25  1  0  0  0
 18 22  1  0  0  0
 18 34  1  0  0  0
 18 35  1  0  0  0
 19 22  1  0  0  0
 19 36  1  0  0  0
 19 37  1  0  0  0
 20 26  1  0  0  0
 21 27  1  0  0  0
 22 38  1  0  0  0
 22 39  1  0  0  0
 23 24  1  0  0  0
 23 40  1  0  0  0
 24 25  2  0  0  0
 24 41  1  0  0  0
 25 42  1  0  0  0
 26 43  1  0  0  0
 26 44  1  0  0  0
 26 45  1  0  0  0
 27 46  1  0  0  0
 27 47  1  0  0  0
 27 48  1  0  0  0
M  END
> <s_m_entry_id>
25742

> <s_m_entry_name>
dock_pv.394

> <s_m_Source_Path>
/home/csk/Desktop/cluster/DUD-E-result/pyrd

> <s_m_Source_File>
dock_pv.maegz

> <i_m_Source_File_Index>
394

> <chembl_id>
CHEMBL154372

> <chembl_pref_name>
None

> <i_lp_mmshare_version>
53161

> <r_lp_tautomer_probability>
1

> <s_lp_Force_Field>
OPLS_2005

> <r_lp_Energy>
49.919785

> <b_lp_Chiralities_Consistent>
1

> <s_lp_Variant>
CHEMBL1966_lig25-1

> <s_i_glide_gridfile>
glide-grid_1d3g

> <i_i_glide_lignum>
29

> <i_i_glide_rotatable_bonds>
8

> <r_i_docking_score>
-8.87050551156133

> <r_i_glide_ligand_efficiency>
-0.328537241168938

> <r_i_glide_ligand_efficiency_sa>
-0.985611722424009

> <r_i_glide_ligand_efficiency_ln>
-2.06490744137871

> <r_i_glide_gscore>
-8.87050551156133

> <r_i_glide_lipo>
-5.06518610270519

> <r_i_glide_hbond>
-0.15299402921586

> <r_i_glide_metal>
0

> <r_i_glide_rewards>
-1.8565426640806

> <r_i_glide_evdw>
-21.8675670623779

> <r_i_glide_ecoul>
-9.28271961212158

> <r_i_glide_erotb>
0.713375991865385

> <r_i_glide_esite>
-0.023372412487926

> <r_i_glide_emodel>
-25.9358360229503

> <r_i_glide_energy>
-31.1502866744995

> <r_i_glide_einternal>
10.7750692367554

> <i_i_glide_confnum>
138

> <i_i_glide_posenum>
228

> <r_i_glide_eff_state_penalty>
0

> <s_user_duplicate_titles>
CHEMBL1966_lig25,257653

> <i_f3d_flags>
0

> <s_m_subgroup_title>
dock_pv

> <s_m_subgroupid>
dock_pv

> <b_m_subgroup_collapsed>
1

$$$$
CHEMBL1966_lig63
                    3D
 Schrodinger Suite 2021-1.
 42 44  0  0  1  0            999 V2000
   50.6828   43.4042   -2.1115 C   0  0  0  0  0  0
   48.4037   40.4950   -2.7029 C   0  0  0  0  0  0
   47.3776   40.0103   -3.4784 C   0  0  0  0  0  0
   52.4785   45.5560   -1.7476 C   0  0  0  0  0  0
   50.5103   44.3078   -1.0543 C   0  0  0  0  0  0
   51.6924   43.6523   -3.0622 C   0  0  0  0  0  0
   51.3904   45.3780   -0.8822 C   0  0  0  0  0  0
   52.5773   44.7217   -2.8743 C   0  0  0  0  0  0
   49.3580   41.5396   -3.0911 C   0  0  0  0  0  0
   49.8835   42.2424   -2.0680 N   0  0  0  0  0  0
   53.6003   46.4781   -1.4100 C   0  0  0  0  0  0
   47.0341   40.4100   -4.8383 C   0  0  0  0  0  0
   57.2448   48.6397   -3.4135 C   0  0  0  0  0  0
   47.1161   38.6939   -1.1418 S   0  0  0  0  0  0
   54.1786   47.3098   -2.3776 C   0  0  0  0  0  0
   55.8597   48.8100   -3.1171 O   0  0  0  0  0  0
   49.6163   41.7936   -4.2634 O   0  0  0  0  0  0
   48.3156   40.0101   -1.2409 C   0  0  0  0  0  0
   47.8188   40.4101   -5.7817 O   0  0  0  0  0  0
   46.4706   39.0042   -2.7744 C   0  0  0  0  0  0
   55.3265   48.0525   -2.1007 C   0  0  0  0  0  0
   53.6398   44.8379   -3.6990 F   0  0  0  0  0  0
   51.2286   46.1971    0.1825 F   0  0  0  0  0  0
   51.9523   42.8102   -4.0878 F   0  0  0  0  0  0
   49.5215   44.1138   -0.1457 F   0  0  0  0  0  0
   57.4827   49.2450   -4.5755 F   0  0  0  0  0  0
   58.0246   49.2101   -2.4947 F   0  0  0  0  0  0
   57.5627   47.3507   -3.5599 F   0  0  0  0  0  0
   45.7335   40.8049   -4.9599 O   0  0  0  0  0  0
   54.1737   46.4480   -0.1307 C   0  0  0  0  0  0
   55.3005   47.2102    0.1668 C   0  0  0  0  0  0
   55.8791   48.0099   -0.8155 C   0  0  0  0  0  0
   49.5226   42.0245   -1.1528 H   0  0  0  0  0  0
   53.7621   47.3495   -3.3739 H   0  0  0  0  0  0
   47.9813   40.7923   -0.5655 H   0  0  0  0  0  0
   49.2229   39.6630   -0.7813 H   0  0  0  0  0  0
   45.4607   39.3883   -2.6463 H   0  0  0  0  0  0
   46.4182   38.0530   -3.2985 H   0  0  0  0  0  0
   45.2857   40.9025   -4.1168 H   0  0  0  0  0  0
   53.7636   45.8095    0.6381 H   0  0  0  0  0  0
   55.7321   47.1748    1.1561 H   0  0  0  0  0  0
   56.7532   48.5930   -0.5665 H   0  0  0  0  0  0
  1  5  2  0  0  0
  1  6  1  0  0  0
  1 10  1  0  0  0
  2  9  1  0  0  0
  2  3  2  0  0  0
  2 18  1  0  0  0
  3 12  1  0  0  0
  3 20  1  0  0  0
  4  8  1  0  0  0
  4 11  1  0  0  0
  4  7  2  0  0  0
  5  7  1  0  0  0
  5 25  1  0  0  0
  6  8  2  0  0  0
  6 24  1  0  0  0
  7 23  1  0  0  0
  8 22  1  0  0  0
  9 10  1  0  0  0
  9 17  2  0  0  0
 10 33  1  0  0  0
 11 15  1  0  0  0
 11 30  2  0  0  0
 12 19  2  0  0  0
 12 29  1  0  0  0
 13 16  1  0  0  0
 13 26  1  0  0  0
 13 27  1  0  0  0
 13 28  1  0  0  0
 14 18  1  0  0  0
 14 20  1  0  0  0
 15 21  2  0  0  0
 15 34  1  0  0  0
 16 21  1  0  0  0
 18 35  1  0  0  0
 18 36  1  0  0  0
 20 37  1  0  0  0
 20 38  1  0  0  0
 21 32  1  0  0  0
 29 39  1  0  0  0
 30 31  1  0  0  0
 30 40  1  0  0  0
 31 32  2  0  0  0
 31 41  1  0  0  0
 32 42  1  0  0  0
M  END
> <s_m_entry_id>
25743

> <s_m_entry_name>
dock_pv.395

> <s_m_Source_Path>
/home/csk/Desktop/cluster/DUD-E-result/pyrd

> <s_m_Source_File>
dock_pv.maegz

> <i_m_Source_File_Index>
395

> <chembl_id>
CHEMBL194955

> <chembl_pref_name>
None

> <i_lp_mmshare_version>
53161

> <r_lp_tautomer_probability>
1

> <s_lp_Force_Field>
OPLS_2005

> <r_lp_Energy>
38.813705

> <b_lp_Chiralities_Consistent>
1

> <s_lp_Variant>
CHEMBL1966_lig63-1

> <s_i_glide_gridfile>
glide-grid_1d3g

> <i_i_glide_lignum>
69

> <i_i_glide_rotatable_bonds>
8

> <r_i_docking_score>
-8.8641390110687

> <r_i_glide_ligand_efficiency>
-0.277004344095897

> <r_i_glide_ligand_efficiency_sa>
-0.879433973419213

> <r_i_glide_ligand_efficiency_ln>
-1.98492235188191

> <r_i_glide_gscore>
-8.8641390110687

> <r_i_glide_lipo>
-5.15485218904329

> <r_i_glide_hbond>
-0.106224640741449

> <r_i_glide_metal>
0

> <r_i_glide_rewards>
-1.62865076794408

> <r_i_glide_evdw>
-43.888916015625

> <r_i_glide_ecoul>
-2.03530383110046

> <r_i_glide_erotb>
0.525329962106437

> <r_i_glide_esite>
0

> <r_i_glide_emodel>
-50.9058314390997

> <r_i_glide_energy>
-45.9242198467255

> <r_i_glide_einternal>
13.4032421112061

> <i_i_glide_confnum>
116

> <i_i_glide_posenum>
11

> <r_i_glide_eff_state_penalty>
0

> <s_user_duplicate_titles>
CHEMBL1966_lig63,327344

> <i_f3d_flags>
0

> <s_m_subgroup_title>
dock_pv

> <s_m_subgroupid>
dock_pv

> <b_m_subgroup_collapsed>
1

$$$$
CHEMBL1966_lig18
                    3D
 Schrodinger Suite 2021-1.
 49 52  0  0  1  0            999 V2000
   51.2234   43.3529   -2.7697 C   0  0  0  0  0  0
   53.7415   46.9100   -1.3777 C   0  0  0  0  0  0
   52.5252   46.2541   -0.8858 C   0  0  0  0  0  0
   51.8843   43.6416   -4.0990 C   0  0  0  0  0  0
   54.8941   47.1362   -0.6792 C   0  0  0  0  0  0
   51.2230   44.2315   -1.6667 C   0  0  0  0  0  0
   52.1724   45.2620   -1.6990 N   0  0  0  0  0  0
   50.5730   42.1408   -2.6974 C   0  0  0  0  0  0
   49.7156   41.8579   -1.6601 C   0  0  0  0  0  0
   48.8230   40.6758   -1.7741 C   0  0  0  0  0  0
   55.1817   46.8100    0.6956 C   0  0  0  0  0  0
   48.0552   40.3356   -2.9680 C   0  0  0  0  0  0
   51.9396   46.5500    0.1546 O   0  0  0  0  0  0
   50.4227   43.9319   -0.5632 C   0  0  0  0  0  0
   49.6637   42.7574   -0.5712 C   0  0  0  0  0  0
   56.3266   46.6283    1.1010 O   0  0  0  0  0  0
   52.4416   44.8220   -4.0990 F   0  0  0  0  0  0
   52.8494   42.8100   -4.4153 F   0  0  0  0  0  0
   50.9652   43.6101   -5.0666 F   0  0  0  0  0  0
   46.9786   39.3983   -2.8360 C   0  0  0  0  0  0
   54.0874   46.8100    1.5010 O   0  0  0  0  0  0
   53.9478   47.3489   -2.8251 C   0  0  0  0  0  0
   55.9891   47.7148   -1.5612 C   0  0  0  0  0  0
   48.5274   39.9992   -0.5917 C   0  0  0  0  0  0
   55.2426   48.1443   -2.8028 C   0  0  0  0  0  0
   48.2056   40.9363   -4.2643 C   0  0  0  0  0  0
   47.6230   38.9470   -0.5683 C   0  0  0  0  0  0
   46.8280   38.6612   -1.6548 C   0  0  0  0  0  0
   46.0230   39.2571   -3.8586 C   0  0  0  0  0  0
   47.2209   40.8100   -5.2399 C   0  0  0  0  0  0
   46.1088   40.0111   -5.0176 C   0  0  0  0  0  0
   52.7145   45.2339   -2.5513 H   0  0  0  0  0  0
   50.7009   41.4312   -3.5010 H   0  0  0  0  0  0
   50.3997   44.5748    0.3042 H   0  0  0  0  0  0
   49.0328   42.5599    0.2854 H   0  0  0  0  0  0
   53.2500   46.8908    1.0215 H   0  0  0  0  0  0
   53.1468   47.9724   -3.2097 H   0  0  0  0  0  0
   54.0438   46.4907   -3.4885 H   0  0  0  0  0  0
   56.7401   46.9531   -1.7792 H   0  0  0  0  0  0
   56.5161   48.5595   -1.1121 H   0  0  0  0  0  0
   49.0745   40.2184    0.3128 H   0  0  0  0  0  0
   55.0268   49.2097   -2.7220 H   0  0  0  0  0  0
   55.8317   48.0074   -3.7110 H   0  0  0  0  0  0
   48.9651   41.6628   -4.4809 H   0  0  0  0  0  0
   47.4966   38.3389    0.3010 H   0  0  0  0  0  0
   46.0610   37.9035   -1.5817 H   0  0  0  0  0  0
   45.2132   38.5611   -3.7283 H   0  0  0  0  0  0
   47.3008   41.3909   -6.1448 H   0  0  0  0  0  0
   45.3393   39.9270   -5.7705 H   0  0  0  0  0  0
  1  4  1  0  0  0
  1  6  1  0  0  0
  1  8  2  0  0  0
  2  3  1  0  0  0
  2  5  2  0  0  0
  2 22  1  0  0  0
  3  7  1  0  0  0
  3 13  2  0  0  0
  4 17  1  0  0  0
  4 18  1  0  0  0
  4 19  1  0  0  0
  5 11  1  0  0  0
  5 23  1  0  0  0
  6  7  1  0  0  0
  6 14  2  0  0  0
  7 32  1  0  0  0
  8  9  1  0  0  0
  8 33  1  0  0  0
  9 10  1  0  0  0
  9 15  2  0  0  0
 10 12  2  0  0  0
 10 24  1  0  0  0
 11 16  2  0  0  0
 11 21  1  0  0  0
 12 20  1  0  0  0
 12 26  1  0  0  0
 14 15  1  0  0  0
 14 34  1  0  0  0
 15 35  1  0  0  0
 20 29  1  0  0  0
 20 28  2  0  0  0
 21 36  1  0  0  0
 22 25  1  0  0  0
 22 37  1  0  0  0
 22 38  1  0  0  0
 23 25  1  0  0  0
 23 39  1  0  0  0
 23 40  1  0  0  0
 24 27  2  0  0  0
 24 41  1  0  0  0
 25 42  1  0  0  0
 25 43  1  0  0  0
 26 30  2  0  0  0
 26 44  1  0  0  0
 27 28  1  0  0  0
 27 45  1  0  0  0
 28 46  1  0  0  0
 29 31  2  0  0  0
 29 47  1  0  0  0
 30 31  1  0  0  0
 30 48  1  0  0  0
 31 49  1  0  0  0
M  END
> <s_m_entry_id>
25744

> <s_m_entry_name>
dock_pv.396

> <s_m_Source_Path>
/home/csk/Desktop/cluster/DUD-E-result/pyrd

> <s_m_Source_File>
dock_pv.maegz

> <i_m_Source_File_Index>
396

> <chembl_id>
CHEMBL349577

> <chembl_pref_name>
None

> <i_lp_mmshare_version>
53161

> <r_lp_tautomer_probability>
1

> <s_lp_Force_Field>
OPLS_2005

> <r_lp_Energy>
52.22279

> <b_lp_Chiralities_Consistent>
1

> <s_lp_Variant>
CHEMBL1966_lig18-1

> <s_i_glide_gridfile>
glide-grid_1d3g

> <i_i_glide_lignum>
21

> <i_i_glide_rotatable_bonds>
7

> <r_i_docking_score>
-8.85815864486282

> <r_i_glide_ligand_efficiency>
-0.285747053060091

> <r_i_glide_ligand_efficiency_sa>
-0.897640262933332

> <r_i_glide_ligand_efficiency_ln>
-1.99778624437672

> <r_i_glide_gscore>
-8.85815864486282

> <r_i_glide_lipo>
-6.0903586638963

> <r_i_glide_hbond>
-0.0459460136851284

> <r_i_glide_metal>
0

> <r_i_glide_rewards>
-2.27083469490658

> <r_i_glide_evdw>
-22.1796722412109

> <r_i_glide_ecoul>
0.799013674259186

> <r_i_glide_erotb>
0.548086178912209

> <r_i_glide_esite>
-0.00997389036535067

> <r_i_glide_emodel>
-43.9227294369615

> <r_i_glide_energy>
-21.3806585669518

> <r_i_glide_einternal>
12.5752248764038

> <i_i_glide_confnum>
62

> <i_i_glide_posenum>
324

> <r_i_glide_eff_state_penalty>
0

> <s_user_duplicate_titles>
CHEMBL1966_lig18,257815

> <i_f3d_flags>
0

> <s_m_subgroup_title>
dock_pv

> <s_m_subgroupid>
dock_pv

> <b_m_subgroup_collapsed>
1

$$$$
CHEMBL1966_lig256
                    3D
 Schrodinger Suite 2021-1.
 34 35  0  0  1  0            999 V2000
   48.9908   40.8362   -3.1787 C   0  0  0  0  0  0
   48.4230   40.2334   -2.1108 O   0  0  0  0  0  0
   50.0230   42.4591   -1.0985 S   0  0  0  0  0  0
   50.8231   43.8989   -1.6148 C   0  0  0  0  0  0
   51.0269   43.9551   -2.8990 N   0  0  0  0  0  0
   50.4230   42.9837   -3.5421 C   0  0  0  0  0  0
   49.7870   42.0031   -2.7774 C   0  0  0  0  0  0
   50.4184   43.0514   -4.8999 N   0  0  0  0  0  0
   51.2230   44.8100   -0.6654 N   0  0  0  0  0  0
   52.3222   45.6913   -0.6852 C   0  0  0  0  0  0
   53.0835   46.0078   -1.8235 C   0  0  0  0  0  0
   54.2850   46.7267   -1.7246 C   0  0  0  0  0  0
   54.7477   47.0942   -0.4533 C   0  0  0  0  0  0
   53.9821   46.8100    0.6737 C   0  0  0  0  0  0
   52.7624   46.1501    0.5583 C   0  0  0  0  0  0
   48.8230   40.5001   -4.3542 O   0  0  0  0  0  0
   47.4771   39.1911   -2.2732 C   0  0  0  0  0  0
   47.1363   38.6096   -0.8994 C   0  0  0  0  0  0
   55.0770   47.0973   -2.9829 C   0  0  0  0  0  0
   56.2699   47.8838   -0.2332 Cl  0  0  0  0  0  0
   54.4214   46.7928   -4.0990 F   0  0  0  0  0  0
   55.3118   48.4100   -3.0100 F   0  0  0  0  0  0
   56.2426   46.4499   -2.9922 F   0  0  0  0  0  0
   49.8813   42.3923   -5.4437 H   0  0  0  0  0  0
   50.8493   43.8214   -5.3878 H   0  0  0  0  0  0
   50.8115   44.7447    0.2532 H   0  0  0  0  0  0
   52.7901   45.6607   -2.7985 H   0  0  0  0  0  0
   54.3406   47.1197    1.6406 H   0  0  0  0  0  0
   52.2081   45.9257    1.4583 H   0  0  0  0  0  0
   47.8845   38.4100   -2.9105 H   0  0  0  0  0  0
   46.5779   39.5759   -2.7570 H   0  0  0  0  0  0
   46.4230   37.7923   -0.9965 H   0  0  0  0  0  0
   46.6958   39.3634   -0.2460 H   0  0  0  0  0  0
   48.0230   38.2155   -0.4025 H   0  0  0  0  0  0
  1  2  1  0  0  0
  1  7  1  0  0  0
  1 16  2  0  0  0
  2 17  1  0  0  0
  3  4  1  0  0  0
  3  7  1  0  0  0
  4  5  2  0  0  0
  4  9  1  0  0  0
  5  6  1  0  0  0
  6  7  2  0  0  0
  6  8  1  0  0  0
  8 24  1  0  0  0
  8 25  1  0  0  0
  9 10  1  0  0  0
  9 26  1  0  0  0
 10 11  2  0  0  0
 10 15  1  0  0  0
 11 12  1  0  0  0
 11 27  1  0  0  0
 12 13  2  0  0  0
 12 19  1  0  0  0
 13 14  1  0  0  0
 13 20  1  0  0  0
 14 15  2  0  0  0
 14 28  1  0  0  0
 15 29  1  0  0  0
 17 18  1  0  0  0
 17 30  1  0  0  0
 17 31  1  0  0  0
 18 32  1  0  0  0
 18 33  1  0  0  0
 18 34  1  0  0  0
 19 21  1  0  0  0
 19 22  1  0  0  0
 19 23  1  0  0  0
M  END
> <s_m_entry_id>
25745

> <s_m_entry_name>
dock_pv.397

> <s_m_Source_Path>
/home/csk/Desktop/cluster/DUD-E-result/pyrd

> <s_m_Source_File>
dock_pv.maegz

> <i_m_Source_File_Index>
397

> <chembl_id>
CHEMBL3410583

> <chembl_pref_name>
None

> <i_lp_mmshare_version>
53161

> <r_lp_tautomer_probability>
1

> <s_lp_Force_Field>
OPLS_2005

> <r_lp_Energy>
13.129659

> <b_lp_Chiralities_Consistent>
1

> <s_lp_Variant>
CHEMBL1966_lig256-1

> <s_i_glide_gridfile>
glide-grid_1d3g

> <i_i_glide_lignum>
302

> <i_i_glide_rotatable_bonds>
6

> <r_i_docking_score>
-8.84792905277248

> <r_i_glide_ligand_efficiency>
-0.384692567511847

> <r_i_glide_ligand_efficiency_sa>
-1.09401448899783

> <r_i_glide_ligand_efficiency_ln>
-2.13950947354537

> <r_i_glide_gscore>
-8.84792905277248

> <r_i_glide_lipo>
-4.28397704775854

> <r_i_glide_hbond>
0

> <r_i_glide_metal>
0

> <r_i_glide_rewards>
-2.9727162841059

> <r_i_glide_evdw>
-42.7669677734375

> <r_i_glide_ecoul>
-0.187693864107132

> <r_i_glide_erotb>
0.575266747379909

> <r_i_glide_esite>
0

> <r_i_glide_emodel>
-57.3882035565156

> <r_i_glide_energy>
-42.9546616375446

> <r_i_glide_einternal>
9.26167011260986

> <i_i_glide_confnum>
17

> <i_i_glide_posenum>
242

> <r_i_glide_eff_state_penalty>
0

> <s_user_duplicate_titles>
CHEMBL1966_lig256

> <i_f3d_flags>
0

> <s_m_subgroup_title>
dock_pv

> <s_m_subgroupid>
dock_pv

> <b_m_subgroup_collapsed>
1

$$$$
CHEMBL1966_lig453
                    3D
 Schrodinger Suite 2021-1.
 36 38  0  0  1  0            999 V2000
   54.1745   46.7096    1.1010 O   0  0  0  0  0  0
   55.3736   46.8521    0.4759 C   0  0  0  0  0  0
   56.4233   46.8098    1.1010 O   0  0  0  0  0  0
   55.3491   47.1048   -1.0158 C   0  0  0  0  0  0
   56.5121   47.6284   -1.6092 C   0  0  0  0  0  0
   56.5983   47.8139   -2.9860 C   0  0  0  0  0  0
   58.0412   48.4441   -3.6894 Cl  0  0  0  0  0  0
   55.5146   47.4890   -3.7914 C   0  0  0  0  0  0
   54.3474   46.9969   -3.2231 C   0  0  0  0  0  0
   54.2543   46.7715   -1.8458 C   0  0  0  0  0  0
   53.0817   46.2198   -1.3054 N   0  0  0  0  0  0
   52.2228   45.2150   -1.7549 C   0  0  0  0  0  0
   51.1282   44.8576   -0.9695 C   0  0  0  0  0  0
   50.2888   43.8295   -1.3924 C   0  0  0  0  0  0
   50.5538   43.1908   -2.6125 C   0  0  0  0  0  0
   51.6236   43.5195   -3.3766 N   0  0  0  0  0  0
   52.4388   44.5007   -2.9393 C   0  0  0  0  0  0
   49.6728   42.1580   -3.2104 C   0  0  0  0  0  0
   49.2723   42.3058   -4.5471 C   0  0  0  0  0  0
   48.4216   41.3862   -5.1451 C   0  0  0  0  0  0
   47.9540   40.3006   -4.4162 C   0  0  0  0  0  0
   48.3612   40.1183   -3.0963 C   0  0  0  0  0  0
   49.2119   41.0450   -2.4868 C   0  0  0  0  0  0
   49.6208   40.8100   -0.8185 Cl  0  0  0  0  0  0
   54.3362   46.5673    2.0407 H   0  0  0  0  0  0
   57.3742   47.8879   -1.0080 H   0  0  0  0  0  0
   55.5777   47.6093   -4.8607 H   0  0  0  0  0  0
   53.5118   46.7938   -3.8736 H   0  0  0  0  0  0
   52.9682   46.4468   -0.3270 H   0  0  0  0  0  0
   50.9218   45.3683   -0.0406 H   0  0  0  0  0  0
   49.4205   43.5712   -0.8050 H   0  0  0  0  0  0
   53.2982   44.6709   -3.5654 H   0  0  0  0  0  0
   49.6001   43.1627   -5.1208 H   0  0  0  0  0  0
   48.0958   41.5446   -6.1588 H   0  0  0  0  0  0
   47.2664   39.6101   -4.8753 H   0  0  0  0  0  0
   47.9997   39.2680   -2.5359 H   0  0  0  0  0  0
  1  2  1  0  0  0
  1 25  1  0  0  0
  2  3  2  0  0  0
  2  4  1  0  0  0
  4  5  2  0  0  0
  4 10  1  0  0  0
  5  6  1  0  0  0
  5 26  1  0  0  0
  6  7  1  0  0  0
  6  8  2  0  0  0
  8  9  1  0  0  0
  8 27  1  0  0  0
  9 10  2  0  0  0
  9 28  1  0  0  0
 10 11  1  0  0  0
 11 12  1  0  0  0
 11 29  1  0  0  0
 12 13  2  0  0  0
 12 17  1  0  0  0
 13 14  1  0  0  0
 13 30  1  0  0  0
 14 15  2  0  0  0
 14 31  1  0  0  0
 15 16  1  0  0  0
 15 18  1  0  0  0
 16 17  2  0  0  0
 17 32  1  0  0  0
 18 19  2  0  0  0
 18 23  1  0  0  0
 19 20  1  0  0  0
 19 33  1  0  0  0
 20 21  2  0  0  0
 20 34  1  0  0  0
 21 22  1  0  0  0
 21 35  1  0  0  0
 22 23  2  0  0  0
 22 36  1  0  0  0
 23 24  1  0  0  0
M  END
> <s_m_entry_id>
25746

> <s_m_entry_name>
dock_pv.398

> <s_m_Source_Path>
/home/csk/Desktop/cluster/DUD-E-result/pyrd

> <s_m_Source_File>
dock_pv.maegz

> <i_m_Source_File_Index>
398

> <chembl_id>
CHEMBL3674662

> <chembl_pref_name>
None

> <i_lp_mmshare_version>
53161

> <r_lp_tautomer_probability>
0.999999999999999

> <s_lp_Force_Field>
OPLS_2005

> <r_lp_Energy>
27.766224

> <b_lp_Chiralities_Consistent>
1

> <s_lp_Variant>
CHEMBL1966_lig453-1

> <s_i_glide_gridfile>
glide-grid_1d3g

> <i_i_glide_lignum>
503

> <i_i_glide_rotatable_bonds>
5

> <r_i_docking_score>
-8.84120035033659

> <r_i_glide_ligand_efficiency>
-0.368383347930691

> <r_i_glide_ligand_efficiency_sa>
-1.06260144939722

> <r_i_glide_ligand_efficiency_ln>
-2.1161049400841

> <r_i_glide_gscore>
-8.84120035033659

> <r_i_glide_lipo>
-5.1210032367653

> <r_i_glide_hbond>
-0.0142253324067466

> <r_i_glide_metal>
0

> <r_i_glide_rewards>
-1.74697370261505

> <r_i_glide_evdw>
-42.287052154541

> <r_i_glide_ecoul>
-2.92512035369873

> <r_i_glide_erotb>
0.594122582232375

> <r_i_glide_esite>
0

> <r_i_glide_emodel>
-63.3631494181677

> <r_i_glide_energy>
-45.2121725082397

> <r_i_glide_einternal>
10.1035137176514

> <i_i_glide_confnum>
14

> <i_i_glide_posenum>
330

> <r_i_glide_eff_state_penalty>
0

> <s_user_duplicate_titles>
CHEMBL1966_lig453

> <i_f3d_flags>
0

> <s_m_subgroup_title>
dock_pv

> <s_m_subgroupid>
dock_pv

> <b_m_subgroup_collapsed>
1

$$$$
CHEMBL1966_lig31
                    3D
 Schrodinger Suite 2021-1.
 44 46  0  0  1  0            999 V2000
   53.9981   46.2530   -2.2955 C   0  0  0  0  0  0
   52.7136   45.6100   -2.0530 C   0  0  0  0  0  0
   54.9185   46.6523   -1.3590 C   0  0  0  0  0  0
   52.4230   44.5882   -2.8990 N   0  0  0  0  0  0
   54.8574   46.4568    0.0893 C   0  0  0  0  0  0
   49.4417   41.5646   -2.6650 C   0  0  0  0  0  0
   51.3388   43.6755   -2.8170 C   0  0  0  0  0  0
   48.4093   40.4658   -2.5571 C   0  0  0  0  0  0
   49.9556   42.0086   -3.8866 C   0  0  0  0  0  0
   50.8279   43.0985   -3.9863 C   0  0  0  0  0  0
   51.9399   45.9945   -1.1757 O   0  0  0  0  0  0
   49.8996   42.2360   -1.5173 C   0  0  0  0  0  0
   47.4718   40.1119   -3.5709 C   0  0  0  0  0  0
   53.9091   46.0101    0.7248 O   0  0  0  0  0  0
   50.8230   43.2666   -1.5845 C   0  0  0  0  0  0
   56.0230   46.8099    0.7009 O   0  0  0  0  0  0
   54.5078   46.5376   -3.6985 C   0  0  0  0  0  0
   47.3997   40.8099   -5.1618 Cl  0  0  0  0  0  0
   56.1212   47.2974   -2.0455 C   0  0  0  0  0  0
   51.2230   43.6100   -5.2003 O   0  0  0  0  0  0
   55.6474   47.5140   -3.4731 C   0  0  0  0  0  0
   48.2579   39.8275   -1.3111 C   0  0  0  0  0  0
   46.4560   39.1971   -3.2988 C   0  0  0  0  0  0
   50.4232   43.3917   -6.3516 C   0  0  0  0  0  0
   47.2804   38.8722   -1.0682 C   0  0  0  0  0  0
   46.3790   38.5570   -2.0674 C   0  0  0  0  0  0
   53.0234   44.4639   -3.6997 H   0  0  0  0  0  0
   49.7001   41.4980   -4.7919 H   0  0  0  0  0  0
   49.5434   41.9861   -0.5314 H   0  0  0  0  0  0
   51.1736   43.7019   -0.6603 H   0  0  0  0  0  0
   56.6590   47.1691    0.0820 H   0  0  0  0  0  0
   53.7625   46.9552   -4.3772 H   0  0  0  0  0  0
   54.8753   45.6100   -4.1327 H   0  0  0  0  0  0
   56.9833   46.6279   -2.0115 H   0  0  0  0  0  0
   56.4316   48.2473   -1.6055 H   0  0  0  0  0  0
   55.2778   48.5353   -3.5869 H   0  0  0  0  0  0
   56.4505   47.3867   -4.2006 H   0  0  0  0  0  0
   48.9321   40.0237   -0.4929 H   0  0  0  0  0  0
   45.7289   38.9544   -4.0606 H   0  0  0  0  0  0
   50.8230   43.9929   -7.1689 H   0  0  0  0  0  0
   50.4233   42.3526   -6.6802 H   0  0  0  0  0  0
   49.3951   43.7063   -6.1595 H   0  0  0  0  0  0
   47.2234   38.3880   -0.1033 H   0  0  0  0  0  0
   45.6231   37.8131   -1.8792 H   0  0  0  0  0  0
  1  2  1  0  0  0
  1  3  2  0  0  0
  1 17  1  0  0  0
  2  4  1  0  0  0
  2 11  2  0  0  0
  3  5  1  0  0  0
  3 19  1  0  0  0
  4  7  1  0  0  0
  4 27  1  0  0  0
  5 14  2  0  0  0
  5 16  1  0  0  0
  6 12  2  0  0  0
  6  8  1  0  0  0
  6  9  1  0  0  0
  7 10  1  0  0  0
  7 15  2  0  0  0
  8 13  1  0  0  0
  8 22  2  0  0  0
  9 10  2  0  0  0
  9 28  1  0  0  0
 10 20  1  0  0  0
 12 15  1  0  0  0
 12 29  1  0  0  0
 13 18  1  0  0  0
 13 23  2  0  0  0
 15 30  1  0  0  0
 16 31  1  0  0  0
 17 21  1  0  0  0
 17 32  1  0  0  0
 17 33  1  0  0  0
 19 21  1  0  0  0
 19 34  1  0  0  0
 19 35  1  0  0  0
 20 24  1  0  0  0
 21 36  1  0  0  0
 21 37  1  0  0  0
 22 25  1  0  0  0
 22 38  1  0  0  0
 23 26  1  0  0  0
 23 39  1  0  0  0
 24 40  1  0  0  0
 24 41  1  0  0  0
 24 42  1  0  0  0
 25 26  2  0  0  0
 25 43  1  0  0  0
 26 44  1  0  0  0
M  END
> <s_m_entry_id>
25747

> <s_m_entry_name>
dock_pv.399

> <s_m_Source_Path>
/home/csk/Desktop/cluster/DUD-E-result/pyrd

> <s_m_Source_File>
dock_pv.maegz

> <i_m_Source_File_Index>
399

> <chembl_id>
CHEMBL155732

> <chembl_pref_name>
None

> <i_lp_mmshare_version>
53161

> <r_lp_tautomer_probability>
1

> <s_lp_Force_Field>
OPLS_2005

> <r_lp_Energy>
47.794611

> <b_lp_Chiralities_Consistent>
1

> <s_lp_Variant>
CHEMBL1966_lig31-1

> <s_i_glide_gridfile>
glide-grid_1d3g

> <i_i_glide_lignum>
35

> <i_i_glide_rotatable_bonds>
7

> <r_i_docking_score>
-8.83508977178408

> <r_i_glide_ligand_efficiency>
-0.339811145068619

> <r_i_glide_ligand_efficiency_sa>
-1.00668918017349

> <r_i_glide_ligand_efficiency_ln>
-2.0748918426094

> <r_i_glide_gscore>
-8.83508977178408

> <r_i_glide_lipo>
-5.20876550897602

> <r_i_glide_hbond>
0

> <r_i_glide_metal>
0

> <r_i_glide_rewards>
-2.10397504780764

> <r_i_glide_evdw>
-42.2785720825195

> <r_i_glide_ecoul>
-0.711445569992065

> <r_i_glide_erotb>
0.69829622462437

> <r_i_glide_esite>
0

> <r_i_glide_emodel>
-54.2142212369264

> <r_i_glide_energy>
-42.9900176525116

> <r_i_glide_einternal>
10.8484477996826

> <i_i_glide_confnum>
1

> <i_i_glide_posenum>
124

> <r_i_glide_eff_state_penalty>
0

> <s_user_duplicate_titles>
CHEMBL1966_lig31,257615

> <i_f3d_flags>
0

> <s_m_subgroup_title>
dock_pv

> <s_m_subgroupid>
dock_pv

> <b_m_subgroup_collapsed>
1

$$$$
CHEMBL1966_lig650 
                    3D
 Schrodinger Suite 2021-1.
 39 41  0  0  1  0            999 V2000
   46.2268   39.2100   -3.2930 C   0  0  0  0  0  0
   50.1146   43.2563   -4.5926 N   0  0  0  0  0  0
   53.4016   45.4738   -2.4990 C   0  0  0  0  0  0
   47.5628   39.0602   -1.3093 C   0  0  0  0  0  0
   52.2974   43.6100   -3.5392 C   0  0  0  0  0  0
   48.2644   40.5484   -3.1115 C   0  0  0  0  0  0
   46.7242   40.7397   -5.1867 C   0  0  0  0  0  0
   54.2804   47.5944   -1.7660 C   0  0  0  0  0  0
   53.2231   46.6986   -1.8729 C   0  0  0  0  0  0
   46.4616   38.6614   -2.0384 C   0  0  0  0  0  0
   54.6734   45.1297   -2.9830 C   0  0  0  0  0  0
   48.4230   40.0100   -1.8263 C   0  0  0  0  0  0
   47.1069   40.1495   -3.8527 C   0  0  0  0  0  0
   55.5410   47.2643   -2.2617 C   0  0  0  0  0  0
   52.2824   44.6697   -2.5880 O   0  0  0  0  0  0
   50.4266   41.8716   -2.9211 C   0  0  0  0  0  0
   49.0275   42.4221   -4.4991 N   0  0  0  0  0  0
   45.4864   41.2182   -5.2990 N   0  0  0  0  0  0
   47.5309   40.8100   -6.0990 O   0  0  0  0  0  0
   50.9541   42.9350   -3.6369 C   0  0  0  0  0  0
   49.2230   41.5497   -3.5035 N   0  0  0  0  0  0
   55.7372   46.0203   -2.8670 C   0  0  0  0  0  0
   56.6840   48.2657   -2.1348 C   0  0  0  0  0  0
   56.2484   49.5206   -2.2574 F   0  0  0  0  0  0
   57.2230   48.1240   -0.9275 F   0  0  0  0  0  0
   57.6230   48.0615   -3.0589 F   0  0  0  0  0  0
   47.8081   38.5247   -0.0990 F   0  0  0  0  0  0
   45.6231   37.7449   -1.5179 F   0  0  0  0  0  0
   45.3502   38.8780   -3.8327 H   0  0  0  0  0  0
   53.0451   42.8623   -3.2990 H   0  0  0  0  0  0
   52.5642   44.0145   -4.4990 H   0  0  0  0  0  0
   54.1183   48.5500   -1.2990 H   0  0  0  0  0  0
   52.2456   46.9494   -1.4919 H   0  0  0  0  0  0
   54.8556   44.1743   -3.4493 H   0  0  0  0  0  0
   49.2339   40.3079   -1.1819 H   0  0  0  0  0  0
   50.8313   41.3116   -2.0990 H   0  0  0  0  0  0
   44.9367   41.3695   -4.4640 H   0  0  0  0  0  0
   45.2230   41.7127   -6.1370 H   0  0  0  0  0  0
   56.7092   45.7391   -3.2472 H   0  0  0  0  0  0
  1 13  2  0  0  0
  1 10  1  0  0  0
  1 29  1  0  0  0
  2 20  1  0  0  0
  2 17  2  0  0  0
  3  9  1  0  0  0
  3 11  2  0  0  0
  3 15  1  0  0  0
  4 12  1  0  0  0
  4 10  2  0  0  0
  4 27  1  0  0  0
  5 20  1  0  0  0
  5 15  1  0  0  0
  5 30  1  0  0  0
  5 31  1  0  0  0
  6 21  1  0  0  0
  6 13  1  0  0  0
  6 12  2  0  0  0
  7 19  2  0  0  0
  7 13  1  0  0  0
  7 18  1  0  0  0
  8 14  1  0  0  0
  8  9  2  0  0  0
  8 32  1  0  0  0
  9 33  1  0  0  0
 10 28  1  0  0  0
 11 22  1  0  0  0
 11 34  1  0  0  0
 12 35  1  0  0  0
 14 22  2  0  0  0
 14 23  1  0  0  0
 16 21  1  0  0  0
 16 20  2  0  0  0
 16 36  1  0  0  0
 17 21  1  0  0  0
 18 37  1  0  0  0
 18 38  1  0  0  0
 22 39  1  0  0  0
 23 24  1  0  0  0
 23 25  1  0  0  0
 23 26  1  0  0  0
M  END
> <s_m_entry_id>
25748

> <s_m_entry_name>
dock_pv.400

> <s_m_Source_Path>
/home/csk/Desktop/cluster/DUD-E-result/pyrd

> <s_m_Source_File>
dock_pv.maegz

> <i_m_Source_File_Index>
400

> <chembl_id>
CHEMBL4458697

> <chembl_pref_name>
None

> <i_lp_mmshare_version>
53161

> <r_lp_tautomer_probability>
1

> <s_lp_Force_Field>
OPLS_2005

> <r_lp_Energy>
20.79545

> <b_lp_Chiralities_Consistent>
1

> <s_lp_Variant>
CHEMBL1966_lig650 -1

> <s_i_glide_gridfile>
glide-grid_1d3g

> <i_i_glide_lignum>
704

> <i_i_glide_rotatable_bonds>
6

> <r_i_docking_score>
-8.82664205696786

> <r_i_glide_ligand_efficiency>
-0.315237216320281

> <r_i_glide_ligand_efficiency_sa>
-0.957245853539701

> <r_i_glide_ligand_efficiency_ln>
-2.03744814822025

> <r_i_glide_gscore>
-8.82664205696786

> <r_i_glide_lipo>
-4.61395732791203

> <r_i_glide_hbond>
-0.301644265505851

> <r_i_glide_metal>
0

> <r_i_glide_rewards>
-2.16231112097085

> <r_i_glide_evdw>
-31.149974822998

> <r_i_glide_ecoul>
-3.76773715019226

> <r_i_glide_erotb>
0.493799529702165

> <r_i_glide_esite>
-0.119869558602555

> <r_i_glide_emodel>
-47.8440985662447

> <r_i_glide_energy>
-34.9177119731903

> <r_i_glide_einternal>
5.28017950057983

> <i_i_glide_confnum>
44

> <i_i_glide_posenum>
164

> <r_i_glide_eff_state_penalty>
0

> <s_user_duplicate_titles>
CHEMBL1966_lig650 

> <i_f3d_flags>
0

> <s_m_subgroup_title>
dock_pv

> <s_m_subgroupid>
dock_pv

> <b_m_subgroup_collapsed>
1

$$$$
CHEMBL1966_lig12
                    3D
 Schrodinger Suite 2021-1.
 44 46  0  0  1  0            999 V2000
   56.3256   47.6100   -0.2350 C   0  0  0  0  0  0
   56.7965   48.5147   -1.1810 C   0  0  0  0  0  0
   56.1992   48.6020   -2.4457 C   0  0  0  0  0  0
   55.2475   46.7872   -0.5314 C   0  0  0  0  0  0
   53.6661   45.0579   -3.2266 C   0  0  0  0  0  0
   52.6803   44.1088   -3.5008 C   0  0  0  0  0  0
   51.5576   44.0297   -2.6952 C   0  0  0  0  0  0
   51.4251   44.8752   -1.5800 C   0  0  0  0  0  0
   52.4231   45.8052   -1.2990 C   0  0  0  0  0  0
   50.2073   42.1300   -2.2682 C   0  0  0  0  0  0
   48.4230   40.3401   -2.2251 C   0  0  0  0  0  0
   47.4521   39.6782   -3.1995 C   0  0  0  0  0  0
   47.7184   40.3467   -4.5375 C   0  0  0  0  0  0
   48.8230   41.3618   -4.3458 C   0  0  0  0  0  0
   57.9047   50.0336   -3.4185 C   0  0  0  0  0  0
   55.1286   47.7543   -2.7378 C   0  0  0  0  0  0
   54.6470   46.8405   -1.7915 C   0  0  0  0  0  0
   53.5512   45.9060   -2.1205 C   0  0  0  0  0  0
   52.8230   43.2100   -4.4989 F   0  0  0  0  0  0
   50.5726   43.1321   -3.0636 N   0  0  0  0  0  0
   50.3388   44.8101   -0.7756 F   0  0  0  0  0  0
   49.2016   41.2624   -2.8662 C   0  0  0  0  0  0
   50.7168   42.0100   -1.1574 O   0  0  0  0  0  0
   48.4229   40.0100   -0.8002 C   0  0  0  0  0  0
   47.4483   39.1071   -0.4990 O   0  0  0  0  0  0
   49.1965   40.4100    0.0635 O   0  0  0  0  0  0
   56.5830   49.4942   -3.4268 O   0  0  0  0  0  0
   58.0232   50.7995   -4.4990 F   0  0  0  0  0  0
   58.1392   50.8124   -2.3618 F   0  0  0  0  0  0
   58.8230   49.0720   -3.5034 F   0  0  0  0  0  0
   56.8036   47.5481    0.7306 H   0  0  0  0  0  0
   57.6230   49.1431   -0.8990 H   0  0  0  0  0  0
   54.8998   46.0832    0.2116 H   0  0  0  0  0  0
   54.5561   45.1057   -3.8347 H   0  0  0  0  0  0
   52.3178   46.4443   -0.4344 H   0  0  0  0  0  0
   46.4163   39.8306   -2.8913 H   0  0  0  0  0  0
   47.6230   38.6017   -3.2464 H   0  0  0  0  0  0
   48.0230   39.6101   -5.2780 H   0  0  0  0  0  0
   46.8125   40.8187   -4.9224 H   0  0  0  0  0  0
   49.6712   41.1531   -4.9948 H   0  0  0  0  0  0
   48.4654   42.3624   -4.5982 H   0  0  0  0  0  0
   54.6670   47.8112   -3.7133 H   0  0  0  0  0  0
   50.2356   43.1585   -4.0133 H   0  0  0  0  0  0
   47.4891   38.8935    0.4425 H   0  0  0  0  0  0
  1  2  2  0  0  0
  1  4  1  0  0  0
  1 31  1  0  0  0
  2  3  1  0  0  0
  2 32  1  0  0  0
  3 16  2  0  0  0
  3 27  1  0  0  0
  4 17  2  0  0  0
  4 33  1  0  0  0
  5  6  2  0  0  0
  5 18  1  0  0  0
  5 34  1  0  0  0
  6  7  1  0  0  0
  6 19  1  0  0  0
  7  8  2  0  0  0
  7 20  1  0  0  0
  8  9  1  0  0  0
  8 21  1  0  0  0
  9 18  2  0  0  0
  9 35  1  0  0  0
 10 20  1  0  0  0
 10 22  1  0  0  0
 10 23  2  0  0  0
 11 12  1  0  0  0
 11 22  2  0  0  0
 11 24  1  0  0  0
 12 13  1  0  0  0
 12 36  1  0  0  0
 12 37  1  0  0  0
 13 14  1  0  0  0
 13 38  1  0  0  0
 13 39  1  0  0  0
 14 22  1  0  0  0
 14 40  1  0  0  0
 14 41  1  0  0  0
 15 27  1  0  0  0
 15 28  1  0  0  0
 15 29  1  0  0  0
 15 30  1  0  0  0
 16 17  1  0  0  0
 16 42  1  0  0  0
 17 18  1  0  0  0
 20 43  1  0  0  0
 24 25  1  0  0  0
 24 26  2  0  0  0
 25 44  1  0  0  0
M  END
> <s_m_entry_id>
25749

> <s_m_entry_name>
dock_pv.401

> <s_m_Source_Path>
/home/csk/Desktop/cluster/DUD-E-result/pyrd

> <s_m_Source_File>
dock_pv.maegz

> <i_m_Source_File_Index>
401

> <chembl_id>
CHEMBL157105

> <chembl_pref_name>
None

> <i_lp_mmshare_version>
53161

> <r_lp_tautomer_probability>
1

> <s_lp_Force_Field>
OPLS_2005

> <r_lp_Energy>
42.162116

> <b_lp_Chiralities_Consistent>
1

> <s_lp_Variant>
CHEMBL1966_lig12-1

> <s_i_glide_gridfile>
glide-grid_1d3g

> <i_i_glide_lignum>
15

> <i_i_glide_rotatable_bonds>
8

> <r_i_docking_score>
-8.82522546948352

> <r_i_glide_ligand_efficiency>
-0.294174182316117

> <r_i_glide_ligand_efficiency_sa>
-0.914067580668729

> <r_i_glide_ligand_efficiency_ln>
-2.00518738519984

> <r_i_glide_gscore>
-8.82522546948352

> <r_i_glide_lipo>
-4.52201124715532

> <r_i_glide_hbond>
0

> <r_i_glide_metal>
0

> <r_i_glide_rewards>
-2.25176960936535

> <r_i_glide_evdw>
-35.5914077758789

> <r_i_glide_ecoul>
-6.05850601196289

> <r_i_glide_erotb>
0.652359750203529

> <r_i_glide_esite>
-0.0154580725779998

> <r_i_glide_emodel>
-54.4255839206098

> <r_i_glide_energy>
-41.6499137878418

> <r_i_glide_einternal>
10.6693677902222

> <i_i_glide_confnum>
101

> <i_i_glide_posenum>
287

> <r_i_glide_eff_state_penalty>
0

> <s_user_duplicate_titles>
CHEMBL1966_lig12,257130

> <i_f3d_flags>
0

> <s_m_subgroup_title>
dock_pv

> <s_m_subgroupid>
dock_pv

> <b_m_subgroup_collapsed>
1

$$$$
CHEMBL1966_lig656 
                    3D
 Schrodinger Suite 2021-1.
 31 33  0  0  1  0            999 V2000
   46.7117   38.8815   -2.4946 C   0  0  0  0  0  0
   47.3928   39.0792   -1.3002 C   0  0  0  0  0  0
   48.4229   40.0099   -1.2437 C   0  0  0  0  0  0
   47.0887   39.5881   -3.6342 C   0  0  0  0  0  0
   48.1746   40.4718   -3.6185 C   0  0  0  0  0  0
   48.8229   40.7268   -2.3872 C   0  0  0  0  0  0
   49.8918   41.7731   -2.2389 C   0  0  0  0  0  0
   50.1639   42.5409   -3.4845 C   0  0  0  0  0  0
   49.5614   42.2351   -4.6731 C   0  0  0  0  0  0
   48.5746   41.1531   -4.8993 C   0  0  0  0  0  0
   48.0831   40.8275   -5.9874 O   0  0  0  0  0  0
   50.4352   41.9632   -1.1481 O   0  0  0  0  0  0
   49.8026   42.9440   -5.8162 O   0  0  0  0  0  0
   51.1216   43.5550   -3.4799 N   0  0  0  0  0  0
   51.6371   44.4100   -2.4853 C   0  0  0  0  0  0
   52.8685   45.0010   -2.7965 C   0  0  0  0  0  0
   53.4861   45.8663   -1.8994 C   0  0  0  0  0  0
   52.8726   46.1408   -0.6829 C   0  0  0  0  0  0
   51.6226   45.6084   -0.3854 C   0  0  0  0  0  0
   50.9847   44.7693   -1.2986 C   0  0  0  0  0  0
   53.5068   46.9106    0.2261 F   0  0  0  0  0  0
   45.8903   38.1829   -2.5396 H   0  0  0  0  0  0
   47.1056   38.5378   -0.4098 H   0  0  0  0  0  0
   48.9047   40.1686   -0.2884 H   0  0  0  0  0  0
   46.5290   39.4185   -4.5421 H   0  0  0  0  0  0
   50.0844   43.8335   -5.5868 H   0  0  0  0  0  0
   51.6538   43.6518   -4.3319 H   0  0  0  0  0  0
   53.3719   44.7741   -3.7247 H   0  0  0  0  0  0
   54.4503   46.2946   -2.1280 H   0  0  0  0  0  0
   51.1730   45.8209    0.5701 H   0  0  0  0  0  0
   50.0034   44.3880   -1.0631 H   0  0  0  0  0  0
  1  2  2  0  0  0
  1  4  1  0  0  0
  1 22  1  0  0  0
  2  3  1  0  0  0
  2 23  1  0  0  0
  3  6  2  0  0  0
  3 24  1  0  0  0
  4  5  2  0  0  0
  4 25  1  0  0  0
  5  6  1  0  0  0
  5 10  1  0  0  0
  6  7  1  0  0  0
  7  8  1  0  0  0
  7 12  2  0  0  0
  8  9  2  0  0  0
  8 14  1  0  0  0
  9 10  1  0  0  0
  9 13  1  0  0  0
 10 11  2  0  0  0
 13 26  1  0  0  0
 14 15  1  0  0  0
 14 27  1  0  0  0
 15 16  2  0  0  0
 15 20  1  0  0  0
 16 17  1  0  0  0
 16 28  1  0  0  0
 17 18  2  0  0  0
 17 29  1  0  0  0
 18 19  1  0  0  0
 18 21  1  0  0  0
 19 20  2  0  0  0
 19 30  1  0  0  0
 20 31  1  0  0  0
M  END
> <s_m_entry_id>
25750

> <s_m_entry_name>
dock_pv.402

> <s_m_Source_Path>
/home/csk/Desktop/cluster/DUD-E-result/pyrd

> <s_m_Source_File>
dock_pv.maegz

> <i_m_Source_File_Index>
402

> <chembl_id>
CHEMBL4566973

> <chembl_pref_name>
None

> <i_lp_mmshare_version>
53161

> <r_lp_tautomer_probability>
1

> <s_lp_Force_Field>
OPLS_2005

> <r_lp_Energy>
31.449881

> <b_lp_Chiralities_Consistent>
1

> <s_lp_Variant>
CHEMBL1966_lig656 -1

> <s_i_glide_gridfile>
glide-grid_1d3g

> <i_i_glide_lignum>
713

> <i_i_glide_rotatable_bonds>
3

> <r_i_docking_score>
-8.81838523730234

> <r_i_glide_ligand_efficiency>
-0.419923106538207

> <r_i_glide_ligand_efficiency_sa>
-1.15853600967359

> <r_i_glide_ligand_efficiency_ln>
-2.1803279306978

> <r_i_glide_gscore>
-8.81838523730234

> <r_i_glide_lipo>
-4.01873546303413

> <r_i_glide_hbond>
-0.18879000580566

> <r_i_glide_metal>
0

> <r_i_glide_rewards>
-3.04747309478137

> <r_i_glide_evdw>
-32.2016487121582

> <r_i_glide_ecoul>
-2.69783449172974

> <r_i_glide_erotb>
0.451370935686194

> <r_i_glide_esite>
0

> <r_i_glide_emodel>
-51.0723797157612

> <r_i_glide_energy>
-34.8994832038879

> <r_i_glide_einternal>
2.61446690559387

> <i_i_glide_confnum>
1

> <i_i_glide_posenum>
388

> <r_i_glide_eff_state_penalty>
0

> <s_user_duplicate_titles>
CHEMBL1966_lig656 

> <i_f3d_flags>
0

> <s_m_subgroup_title>
dock_pv

> <s_m_subgroupid>
dock_pv

> <b_m_subgroup_collapsed>
1

$$$$
CHEMBL1966_lig304
                    3D
 Schrodinger Suite 2021-1.
 36 38  0  0  1  0            999 V2000
   46.4221   38.7538   -1.9866 C   0  0  0  0  0  0
   47.4223   39.1569   -1.1170 C   0  0  0  0  0  0
   48.4229   40.0100   -1.5664 C   0  0  0  0  0  0
   48.4694   40.4622   -2.8960 C   0  0  0  0  0  0
   47.4229   40.0753   -3.7787 C   0  0  0  0  0  0
   46.4227   39.2101   -3.2990 C   0  0  0  0  0  0
   47.3042   40.5989   -5.1994 C   0  0  0  0  0  0
   46.0223   40.8465   -5.5894 O   0  0  0  0  0  0
   48.2671   40.8075   -5.9363 O   0  0  0  0  0  0
   49.5814   41.3586   -3.2698 C   0  0  0  0  0  0
   49.9799   42.3078   -2.5303 N   0  0  0  0  0  0
   51.0458   43.0880   -2.9973 N   0  0  0  0  0  0
   51.5702   44.1797   -2.3384 C   0  0  0  0  0  0
   52.6566   44.8100   -2.7165 N   0  0  0  0  0  0
   52.9785   45.8119   -1.9007 C   0  0  0  0  0  0
   52.0800   46.0056   -0.8445 C   0  0  0  0  0  0
   50.8230   44.8100   -0.8989 S   0  0  0  0  0  0
   54.2178   46.6223   -2.1295 C   0  0  0  0  0  0
   54.7250   46.8123   -3.4201 C   0  0  0  0  0  0
   55.8875   47.5529   -3.6183 C   0  0  0  0  0  0
   56.5470   48.1088   -2.5247 C   0  0  0  0  0  0
   56.0519   47.9325   -1.2357 C   0  0  0  0  0  0
   54.8881   47.1932   -1.0386 C   0  0  0  0  0  0
   45.6347   38.0969   -1.6435 H   0  0  0  0  0  0
   47.4228   38.8098   -0.0965 H   0  0  0  0  0  0
   49.1857   40.3075   -0.8597 H   0  0  0  0  0  0
   45.6206   38.8782   -3.9437 H   0  0  0  0  0  0
   45.4333   40.8615   -4.8319 H   0  0  0  0  0  0
   50.0385   41.1464   -4.2313 H   0  0  0  0  0  0
   51.4548   42.7575   -3.8592 H   0  0  0  0  0  0
   52.1077   46.7425   -0.0554 H   0  0  0  0  0  0
   54.2140   46.3928   -4.2733 H   0  0  0  0  0  0
   56.2785   47.6934   -4.6150 H   0  0  0  0  0  0
   57.4523   48.6783   -2.6775 H   0  0  0  0  0  0
   56.5736   48.3639   -0.3941 H   0  0  0  0  0  0
   54.5201   47.0528   -0.0322 H   0  0  0  0  0  0
  1  2  2  0  0  0
  1  6  1  0  0  0
  1 24  1  0  0  0
  2  3  1  0  0  0
  2 25  1  0  0  0
  3  4  2  0  0  0
  3 26  1  0  0  0
  4  5  1  0  0  0
  4 10  1  0  0  0
  5  6  2  0  0  0
  5  7  1  0  0  0
  6 27  1  0  0  0
  7  8  1  0  0  0
  7  9  2  0  0  0
  8 28  1  0  0  0
 10 11  2  0  0  0
 10 29  1  0  0  0
 11 12  1  0  0  0
 12 13  1  0  0  0
 12 30  1  0  0  0
 13 14  2  0  0  0
 13 17  1  0  0  0
 14 15  1  0  0  0
 15 16  2  0  0  0
 15 18  1  0  0  0
 16 17  1  0  0  0
 16 31  1  0  0  0
 18 19  2  0  0  0
 18 23  1  0  0  0
 19 20  1  0  0  0
 19 32  1  0  0  0
 20 21  2  0  0  0
 20 33  1  0  0  0
 21 22  1  0  0  0
 21 34  1  0  0  0
 22 23  2  0  0  0
 22 35  1  0  0  0
 23 36  1  0  0  0
M  END
> <s_m_entry_id>
25751

> <s_m_entry_name>
dock_pv.403

> <s_m_Source_Path>
/home/csk/Desktop/cluster/DUD-E-result/pyrd

> <s_m_Source_File>
dock_pv.maegz

> <i_m_Source_File_Index>
403

> <chembl_id>
CHEMBL3949527

> <chembl_pref_name>
None

> <i_lp_mmshare_version>
53161

> <r_lp_tautomer_probability>
1

> <s_lp_Force_Field>
OPLS_2005

> <r_lp_Energy>
21.957599

> <b_lp_Chiralities_Consistent>
1

> <s_lp_Variant>
CHEMBL1966_lig304-1

> <s_i_glide_gridfile>
glide-grid_1d3g

> <i_i_glide_lignum>
351

> <i_i_glide_rotatable_bonds>
6

> <r_i_docking_score>
-8.8131176865918

> <r_i_glide_ligand_efficiency>
-0.383179029851818

> <r_i_glide_ligand_efficiency_sa>
-1.08971018922821

> <r_i_glide_ligand_efficiency_ln>
-2.13109176955086

> <r_i_glide_gscore>
-8.8131176865918

> <r_i_glide_lipo>
-4.68618911822771

> <r_i_glide_hbond>
-0.16

> <r_i_glide_metal>
0

> <r_i_glide_rewards>
-2.21915487662731

> <r_i_glide_evdw>
-41.3318862915039

> <r_i_glide_ecoul>
-3.70987343788147

> <r_i_glide_erotb>
0.894779929481533

> <r_i_glide_esite>
-0.0194782909608946

> <r_i_glide_emodel>
-67.1931078304121

> <r_i_glide_energy>
-45.0417597293854

> <r_i_glide_einternal>
3.84316158294678

> <i_i_glide_confnum>
76

> <i_i_glide_posenum>
239

> <r_i_glide_eff_state_penalty>
0

> <s_user_duplicate_titles>
CHEMBL1966_lig304

> <i_f3d_flags>
0

> <s_m_subgroup_title>
dock_pv

> <s_m_subgroupid>
dock_pv

> <b_m_subgroup_collapsed>
1

$$$$
CHEMBL1966_lig328
                    3D
 Schrodinger Suite 2021-1.
 32 33  0  0  1  0            999 V2000
   55.2960   47.9959   -0.8248 F   0  0  0  0  0  0
   55.8152   46.2304   -1.9387 F   0  0  0  0  0  0
   54.6066   47.7937   -2.8490 F   0  0  0  0  0  0
   50.4274   43.3364   -5.1093 O   0  0  0  0  0  0
   48.5936   42.0455   -5.4071 O   0  0  0  0  0  0
   50.9569   43.9795   -2.4266 N   0  0  0  0  0  0
   50.2813   42.3134   -0.8991 N   0  0  0  0  0  0
   53.5734   46.3930   -1.2507 C   0  0  0  0  0  0
   52.8224   45.5425   -2.0992 C   0  0  0  0  0  0
   51.6580   44.8947   -1.6124 C   0  0  0  0  0  0
   54.8445   47.1184   -1.7226 C   0  0  0  0  0  0
   50.2874   42.7645   -2.1792 C   0  0  0  0  0  0
   53.1382   46.5884    0.0633 C   0  0  0  0  0  0
   49.6431   42.0477   -3.2212 C   0  0  0  0  0  0
   51.2226   45.1744   -0.3158 C   0  0  0  0  0  0
   51.9628   46.0089    0.5166 C   0  0  0  0  0  0
   53.2832   45.2830   -3.5344 C   0  0  0  0  0  0
   49.6218   42.5285   -4.6571 C   0  0  0  0  0  0
   48.9864   40.8478   -2.8855 C   0  0  0  0  0  0
   49.6229   41.1682   -0.6040 C   0  0  0  0  0  0
   48.9481   40.4113   -1.5623 C   0  0  0  0  0  0
   48.5447   42.5678   -6.2104 H   0  0  0  0  0  0
   51.0109   44.1756   -3.4193 H   0  0  0  0  0  0
   53.6950   47.2102    0.7470 H   0  0  0  0  0  0
   50.3166   44.7280    0.0651 H   0  0  0  0  0  0
   51.6232   46.2039    1.5190 H   0  0  0  0  0  0
   54.3644   45.3349   -3.6481 H   0  0  0  0  0  0
   53.0225   44.2782   -3.8697 H   0  0  0  0  0  0
   52.8240   46.0101   -4.2038 H   0  0  0  0  0  0
   48.4807   40.2559   -3.6341 H   0  0  0  0  0  0
   49.6354   40.8587    0.4315 H   0  0  0  0  0  0
   48.4230   39.5094   -1.2874 H   0  0  0  0  0  0
  1 11  1  0  0  0
  2 11  1  0  0  0
  3 11  1  0  0  0
  4 18  2  0  0  0
  5 18  1  0  0  0
  5 22  1  0  0  0
  6 10  1  0  0  0
  6 12  1  0  0  0
  6 23  1  0  0  0
  7 12  2  0  0  0
  7 20  1  0  0  0
  8  9  2  0  0  0
  8 11  1  0  0  0
  8 13  1  0  0  0
  9 10  1  0  0  0
  9 17  1  0  0  0
 10 15  2  0  0  0
 12 14  1  0  0  0
 13 16  2  0  0  0
 13 24  1  0  0  0
 14 18  1  0  0  0
 14 19  2  0  0  0
 15 16  1  0  0  0
 15 25  1  0  0  0
 16 26  1  0  0  0
 17 27  1  0  0  0
 17 28  1  0  0  0
 17 29  1  0  0  0
 19 21  1  0  0  0
 19 30  1  0  0  0
 20 21  2  0  0  0
 20 31  1  0  0  0
 21 32  1  0  0  0
M  END
> <s_m_entry_id>
25752

> <s_m_entry_name>
dock_pv.404

> <s_m_Source_Path>
/home/csk/Desktop/cluster/DUD-E-result/pyrd

> <s_m_Source_File>
dock_pv.maegz

> <i_m_Source_File_Index>
404

> <chembl_id>
CHEMBL1617398

> <chembl_pref_name>
FLUNIXIN

> <i_lp_mmshare_version>
53161

> <r_lp_tautomer_probability>
1

> <s_lp_Force_Field>
OPLS_2005

> <r_lp_Energy>
21.420778

> <b_lp_Chiralities_Consistent>
1

> <s_lp_Variant>
CHEMBL1966_lig328-1

> <s_i_glide_gridfile>
glide-grid_1d3g

> <i_i_glide_lignum>
378

> <i_i_glide_rotatable_bonds>
5

> <r_i_docking_score>
-8.805139412338

> <r_i_glide_ligand_efficiency>
-0.419292352968476

> <r_i_glide_ligand_efficiency_sa>
-1.15679580840249

> <r_i_glide_ligand_efficiency_ln>
-2.17705292724108

> <r_i_glide_gscore>
-8.805139412338

> <r_i_glide_lipo>
-3.89899139181408

> <r_i_glide_hbond>
0

> <r_i_glide_metal>
0

> <r_i_glide_rewards>
-3.6050208942425

> <r_i_glide_evdw>
-33.712890625

> <r_i_glide_ecoul>
-1.6108386516571

> <r_i_glide_erotb>
0.626143202717155

> <r_i_glide_esite>
0

> <r_i_glide_emodel>
-52.86657495293

> <r_i_glide_energy>
-35.3237292766571

> <r_i_glide_einternal>
0.890168726444244

> <i_i_glide_confnum>
9

> <i_i_glide_posenum>
223

> <r_i_glide_eff_state_penalty>
0

> <s_user_duplicate_titles>
CHEMBL1966_lig328

> <i_f3d_flags>
0

> <s_m_subgroup_title>
dock_pv

> <s_m_subgroupid>
dock_pv

> <b_m_subgroup_collapsed>
1

$$$$
CHEMBL1966_lig90
                    3D
 Schrodinger Suite 2021-1.
 36 38  0  0  1  0            999 V2000
   51.8073   45.3984   -1.2654 C   0  0  0  0  0  0
   50.8230   44.4100   -1.3076 C   0  0  0  0  0  0
   50.8230   43.4621   -2.3328 C   0  0  0  0  0  0
   51.7932   43.5599   -3.3478 C   0  0  0  0  0  0
   52.7825   44.5448   -3.2985 C   0  0  0  0  0  0
   52.8230   45.4564   -2.2327 C   0  0  0  0  0  0
   53.9318   46.4460   -2.1112 C   0  0  0  0  0  0
   54.4362   47.1044   -3.2404 C   0  0  0  0  0  0
   55.4878   48.0100   -3.1229 C   0  0  0  0  0  0
   56.0495   48.2577   -1.8730 C   0  0  0  0  0  0
   55.5643   47.6100   -0.7406 C   0  0  0  0  0  0
   54.5055   46.7145   -0.8602 C   0  0  0  0  0  0
   49.8698   42.4204   -2.2311 N   0  0  0  0  0  0
   49.4494   41.5644   -3.1917 C   0  0  0  0  0  0
   48.4387   40.5875   -2.7676 C   0  0  0  0  0  0
   49.8496   41.6100   -4.3486 O   0  0  0  0  0  0
   47.3721   40.0607   -3.5480 C   0  0  0  0  0  0
   46.4421   38.8693   -2.6504 S   0  0  0  0  0  0
   47.4235   39.0812   -1.2559 C   0  0  0  0  0  0
   48.4230   40.0100   -1.4753 C   0  0  0  0  0  0
   46.9563   40.4100   -4.8994 C   0  0  0  0  0  0
   45.6230   40.2347   -5.1151 O   0  0  0  0  0  0
   47.7108   40.8100   -5.7812 O   0  0  0  0  0  0
   51.7948   46.1059   -0.4491 H   0  0  0  0  0  0
   50.0806   44.3766   -0.5231 H   0  0  0  0  0  0
   51.8498   42.8433   -4.1506 H   0  0  0  0  0  0
   53.5438   44.5717   -4.0576 H   0  0  0  0  0  0
   54.0083   46.9224   -4.2157 H   0  0  0  0  0  0
   55.8682   48.5158   -3.9983 H   0  0  0  0  0  0
   56.8701   48.9547   -1.7808 H   0  0  0  0  0  0
   56.0073   47.7989    0.2261 H   0  0  0  0  0  0
   54.1470   46.2112    0.0260 H   0  0  0  0  0  0
   49.4306   42.3357   -1.3286 H   0  0  0  0  0  0
   47.2306   38.5182   -0.3527 H   0  0  0  0  0  0
   49.1436   40.2535   -0.7071 H   0  0  0  0  0  0
   45.1687   39.9581   -4.3174 H   0  0  0  0  0  0
  1  6  2  0  0  0
  1  2  1  0  0  0
  1 24  1  0  0  0
  2  3  2  0  0  0
  2 25  1  0  0  0
  3 13  1  0  0  0
  3  4  1  0  0  0
  4  5  2  0  0  0
  4 26  1  0  0  0
  5  6  1  0  0  0
  5 27  1  0  0  0
  6  7  1  0  0  0
  7 12  2  0  0  0
  7  8  1  0  0  0
  8  9  2  0  0  0
  8 28  1  0  0  0
  9 10  1  0  0  0
  9 29  1  0  0  0
 10 11  2  0  0  0
 10 30  1  0  0  0
 11 12  1  0  0  0
 11 31  1  0  0  0
 12 32  1  0  0  0
 13 14  1  0  0  0
 13 33  1  0  0  0
 14 15  1  0  0  0
 14 16  2  0  0  0
 15 17  2  0  0  0
 15 20  1  0  0  0
 17 18  1  0  0  0
 17 21  1  0  0  0
 18 19  1  0  0  0
 19 20  2  0  0  0
 19 34  1  0  0  0
 20 35  1  0  0  0
 21 22  1  0  0  0
 21 23  2  0  0  0
 22 36  1  0  0  0
M  END
> <s_m_entry_id>
25753

> <s_m_entry_name>
dock_pv.405

> <s_m_Source_Path>
/home/csk/Desktop/cluster/DUD-E-result/pyrd

> <s_m_Source_File>
dock_pv.maegz

> <i_m_Source_File_Index>
405

> <chembl_id>
CHEMBL381043

> <chembl_pref_name>
None

> <i_lp_mmshare_version>
53161

> <r_lp_tautomer_probability>
1

> <s_lp_Force_Field>
OPLS_2005

> <r_lp_Energy>
24.565199

> <b_lp_Chiralities_Consistent>
1

> <s_lp_Variant>
CHEMBL1966_lig90-1

> <s_i_glide_gridfile>
glide-grid_1d3g

> <i_i_glide_lignum>
99

> <i_i_glide_rotatable_bonds>
6

> <r_i_docking_score>
-8.80209309493367

> <r_i_glide_ligand_efficiency>
-0.382699699779725

> <r_i_glide_ligand_efficiency_sa>
-1.08834703826517

> <r_i_glide_ligand_efficiency_ln>
-2.12842592332246

> <r_i_glide_gscore>
-8.80209309493367

> <r_i_glide_lipo>
-5.12836082140841

> <r_i_glide_hbond>
-0.0928925040846855

> <r_i_glide_metal>
0

> <r_i_glide_rewards>
-2.18754178495666

> <r_i_glide_evdw>
-39.9892845153809

> <r_i_glide_ecoul>
-1.92419862747192

> <r_i_glide_erotb>
0.89479603540592

> <r_i_glide_esite>
0

> <r_i_glide_emodel>
-62.9425254915535

> <r_i_glide_energy>
-41.9134831428528

> <r_i_glide_einternal>
2.90857362747192

> <i_i_glide_confnum>
123

> <i_i_glide_posenum>
196

> <r_i_glide_eff_state_penalty>
0

> <s_user_duplicate_titles>
CHEMBL1966_lig90,334752

> <i_f3d_flags>
0

> <s_m_subgroup_title>
dock_pv

> <s_m_subgroupid>
dock_pv

> <b_m_subgroup_collapsed>
1

$$$$
CHEMBL1966_lig349
                    3D
 Schrodinger Suite 2021-1.
 34 35  0  0  1  0            999 V2000
   49.2526   41.0570   -2.5964 C   0  0  0  0  0  0
   48.8230   40.4100   -1.3415 C   0  0  0  0  0  0
   47.7940   39.5346   -1.4787 N   0  0  0  0  0  0
   47.0819   39.2100   -2.5899 C   0  0  0  0  0  0
   47.4809   39.8830   -3.7016 N   0  0  0  0  0  0
   48.5355   40.7691   -3.7290 C   0  0  0  0  0  0
   48.7408   41.3553   -5.0480 C   0  0  0  0  0  0
   49.2230   42.6237   -5.0340 O   0  0  0  0  0  0
   48.4230   40.8100   -6.0990 O   0  0  0  0  0  0
   46.1553   38.4100   -2.5828 O   0  0  0  0  0  0
   49.2912   40.6477   -0.2293 O   0  0  0  0  0  0
   50.5029   41.9682   -2.5128 C   0  0  0  0  0  0
   50.2042   43.4573   -2.2275 C   0  0  0  0  0  0
   51.4132   44.3789   -2.0833 C   0  0  0  0  0  0
   51.4922   45.2242   -0.9743 C   0  0  0  0  0  0
   52.5828   46.0739   -0.8198 C   0  0  0  0  0  0
   53.6031   46.0940   -1.7770 C   0  0  0  0  0  0
   53.5133   45.2628   -2.8990 C   0  0  0  0  0  0
   52.4230   44.4100   -3.0555 C   0  0  0  0  0  0
   54.8140   47.0103   -1.5993 C   0  0  0  0  0  0
   54.6094   48.1365   -2.2823 F   0  0  0  0  0  0
   55.0126   47.3236   -0.3171 F   0  0  0  0  0  0
   55.9249   46.4290   -2.0561 F   0  0  0  0  0  0
   47.5004   39.0809   -0.6269 H   0  0  0  0  0  0
   46.9589   39.6757   -4.5399 H   0  0  0  0  0  0
   49.1999   43.0190   -5.9079 H   0  0  0  0  0  0
   51.1872   41.6101   -1.7459 H   0  0  0  0  0  0
   51.0697   41.8732   -3.4385 H   0  0  0  0  0  0
   49.6232   43.8696   -3.0458 H   0  0  0  0  0  0
   49.5899   43.5238   -1.3279 H   0  0  0  0  0  0
   50.7152   45.2175   -0.2236 H   0  0  0  0  0  0
   52.6310   46.7137    0.0500 H   0  0  0  0  0  0
   54.2885   45.2742   -3.6519 H   0  0  0  0  0  0
   52.3665   43.7732   -3.9261 H   0  0  0  0  0  0
  1  2  1  0  0  0
  1  6  2  0  0  0
  1 12  1  0  0  0
  2  3  1  0  0  0
  2 11  2  0  0  0
  3  4  1  0  0  0
  3 24  1  0  0  0
  4  5  1  0  0  0
  4 10  2  0  0  0
  5  6  1  0  0  0
  5 25  1  0  0  0
  6  7  1  0  0  0
  7  8  1  0  0  0
  7  9  2  0  0  0
  8 26  1  0  0  0
 12 13  1  0  0  0
 12 27  1  0  0  0
 12 28  1  0  0  0
 13 14  1  0  0  0
 13 29  1  0  0  0
 13 30  1  0  0  0
 14 15  2  0  0  0
 14 19  1  0  0  0
 15 16  1  0  0  0
 15 31  1  0  0  0
 16 17  2  0  0  0
 16 32  1  0  0  0
 17 18  1  0  0  0
 17 20  1  0  0  0
 18 19  2  0  0  0
 18 33  1  0  0  0
 19 34  1  0  0  0
 20 21  1  0  0  0
 20 22  1  0  0  0
 20 23  1  0  0  0
M  END
> <s_m_entry_id>
25754

> <s_m_entry_name>
dock_pv.406

> <s_m_Source_Path>
/home/csk/Desktop/cluster/DUD-E-result/pyrd

> <s_m_Source_File>
dock_pv.maegz

> <i_m_Source_File_Index>
406

> <chembl_id>
CHEMBL3897952

> <chembl_pref_name>
None

> <i_lp_mmshare_version>
53161

> <r_lp_tautomer_probability>
1

> <s_lp_Force_Field>
OPLS_2005

> <r_lp_Energy>
15.793192

> <b_lp_Chiralities_Consistent>
1

> <s_lp_Variant>
CHEMBL1966_lig349-1

> <s_i_glide_gridfile>
glide-grid_1d3g

> <i_i_glide_lignum>
399

> <i_i_glide_rotatable_bonds>
6

> <r_i_docking_score>
-8.80151072550749

> <r_i_glide_ligand_efficiency>
-0.382674379369891

> <r_i_glide_ligand_efficiency_sa>
-1.0882750303878

> <r_i_glide_ligand_efficiency_ln>
-2.12828510111457

> <r_i_glide_gscore>
-8.80151072550749

> <r_i_glide_lipo>
-3.45064195723638

> <r_i_glide_hbond>
-0.16

> <r_i_glide_metal>
0

> <r_i_glide_rewards>
-3.47275908026307

> <r_i_glide_evdw>
-31.7604389190674

> <r_i_glide_ecoul>
-5.51506042480469

> <r_i_glide_erotb>
0.697171321666036

> <r_i_glide_esite>
0

> <r_i_glide_emodel>
-54.8784699123426

> <r_i_glide_energy>
-37.2754993438721

> <r_i_glide_einternal>
2.14139533042908

> <i_i_glide_confnum>
27

> <i_i_glide_posenum>
388

> <r_i_glide_eff_state_penalty>
0

> <s_user_duplicate_titles>
CHEMBL1966_lig349

> <i_f3d_flags>
0

> <s_m_subgroup_title>
dock_pv

> <s_m_subgroupid>
dock_pv

> <b_m_subgroup_collapsed>
1

$$$$
CHEMBL1966_lig10
                    3D
 Schrodinger Suite 2021-1.
 44 46  0  0  1  0            999 V2000
   49.1531   41.3189   -2.8857 C   0  0  0  0  0  0
   50.0230   42.3042   -2.2575 C   0  0  0  0  0  0
   48.4222   40.3482   -2.2527 C   0  0  0  0  0  0
   57.9196   50.0146   -3.5642 C   0  0  0  0  0  0
   48.4230   40.0100   -0.8276 C   0  0  0  0  0  0
   53.6089   45.9400   -2.1675 C   0  0  0  0  0  0
   52.4638   45.8064   -1.3649 C   0  0  0  0  0  0
   50.7849   42.9810   -3.1291 N   0  0  0  0  0  0
   54.7094   46.8735   -1.8397 C   0  0  0  0  0  0
   51.4947   44.8654   -1.6970 C   0  0  0  0  0  0
   53.7354   45.1277   -3.2985 C   0  0  0  0  0  0
   51.6610   44.0100   -2.8015 C   0  0  0  0  0  0
   56.5541   49.6096   -3.4488 O   0  0  0  0  0  0
   50.0233   42.5649   -1.0569 O   0  0  0  0  0  0
   55.1361   47.8333   -2.7669 C   0  0  0  0  0  0
   49.2230   40.3918    0.0182 O   0  0  0  0  0  0
   56.2000   48.6908   -2.4822 C   0  0  0  0  0  0
   58.7347   48.9688   -3.7007 F   0  0  0  0  0  0
   58.0240   50.7424   -4.6735 F   0  0  0  0  0  0
   58.3148   50.7841   -2.5485 F   0  0  0  0  0  0
   52.2118   46.7524    0.0645 Cl  0  0  0  0  0  0
   52.7715   44.1702   -3.6169 C   0  0  0  0  0  0
   47.4250   39.1415   -0.4992 O   0  0  0  0  0  0
   48.8234   41.3758   -4.3754 C   0  0  0  0  0  0
   47.4654   39.6693   -3.2268 C   0  0  0  0  0  0
   55.3696   46.7744   -0.6124 C   0  0  0  0  0  0
   47.7239   40.3486   -4.5615 C   0  0  0  0  0  0
   56.4221   47.6277   -0.3125 C   0  0  0  0  0  0
   56.8238   48.5916   -1.2328 C   0  0  0  0  0  0
   50.8020   42.6594   -4.0834 H   0  0  0  0  0  0
   50.6193   44.8174   -1.0682 H   0  0  0  0  0  0
   54.6168   45.2148   -3.9169 H   0  0  0  0  0  0
   54.6404   47.9143   -3.7237 H   0  0  0  0  0  0
   52.8974   43.5191   -4.4693 H   0  0  0  0  0  0
   47.4743   38.9350    0.4433 H   0  0  0  0  0  0
   49.6910   41.1528   -4.9920 H   0  0  0  0  0  0
   48.4704   42.3683   -4.6655 H   0  0  0  0  0  0
   46.4306   39.8195   -2.9122 H   0  0  0  0  0  0
   47.6230   38.5917   -3.2767 H   0  0  0  0  0  0
   55.0667   46.0331    0.1135 H   0  0  0  0  0  0
   48.0229   39.6110   -5.2998 H   0  0  0  0  0  0
   46.8119   40.8144   -4.9399 H   0  0  0  0  0  0
   56.9164   47.5706    0.6466 H   0  0  0  0  0  0
   57.6232   49.2546   -0.9480 H   0  0  0  0  0  0
  1  2  1  0  0  0
  1  3  2  0  0  0
  1 24  1  0  0  0
  2  8  1  0  0  0
  2 14  2  0  0  0
  3  5  1  0  0  0
  3 25  1  0  0  0
  4 13  1  0  0  0
  4 18  1  0  0  0
  4 19  1  0  0  0
  4 20  1  0  0  0
  5 16  2  0  0  0
  5 23  1  0  0  0
  6 11  2  0  0  0
  6  9  1  0  0  0
  6  7  1  0  0  0
  7 10  2  0  0  0
  7 21  1  0  0  0
  8 12  1  0  0  0
  8 30  1  0  0  0
  9 15  1  0  0  0
  9 26  2  0  0  0
 10 12  1  0  0  0
 10 31  1  0  0  0
 11 22  1  0  0  0
 11 32  1  0  0  0
 12 22  2  0  0  0
 13 17  1  0  0  0
 15 17  2  0  0  0
 15 33  1  0  0  0
 17 29  1  0  0  0
 22 34  1  0  0  0
 23 35  1  0  0  0
 24 27  1  0  0  0
 24 36  1  0  0  0
 24 37  1  0  0  0
 25 27  1  0  0  0
 25 38  1  0  0  0
 25 39  1  0  0  0
 26 28  1  0  0  0
 26 40  1  0  0  0
 27 41  1  0  0  0
 27 42  1  0  0  0
 28 29  2  0  0  0
 28 43  1  0  0  0
 29 44  1  0  0  0
M  END
> <s_m_entry_id>
25755

> <s_m_entry_name>
dock_pv.407

> <s_m_Source_Path>
/home/csk/Desktop/cluster/DUD-E-result/pyrd

> <s_m_Source_File>
dock_pv.maegz

> <i_m_Source_File_Index>
407

> <chembl_id>
CHEMBL345464

> <chembl_pref_name>
None

> <i_lp_mmshare_version>
53161

> <r_lp_tautomer_probability>
1

> <s_lp_Force_Field>
OPLS_2005

> <r_lp_Energy>
45.740107

> <b_lp_Chiralities_Consistent>
1

> <s_lp_Variant>
CHEMBL1966_lig10-1

> <s_i_glide_gridfile>
glide-grid_1d3g

> <i_i_glide_lignum>
13

> <i_i_glide_rotatable_bonds>
8

> <r_i_docking_score>
-8.79630870388219

> <r_i_glide_ligand_efficiency>
-0.303320989789041

> <r_i_glide_ligand_efficiency_sa>
-0.931898179466563

> <r_i_glide_ligand_efficiency_ln>
-2.01413163804601

> <r_i_glide_gscore>
-8.79630870388219

> <r_i_glide_lipo>
-4.72652432091452

> <r_i_glide_hbond>
0

> <r_i_glide_metal>
0

> <r_i_glide_rewards>
-1.77037152276421

> <r_i_glide_evdw>
-40.1578254699707

> <r_i_glide_ecoul>
-6.32098531723022

> <r_i_glide_erotb>
0.656626210879613

> <r_i_glide_esite>
0

> <r_i_glide_emodel>
-63.3216191842486

> <r_i_glide_energy>
-46.4788107872009

> <r_i_glide_einternal>
9.53796768188477

> <i_i_glide_confnum>
57

> <i_i_glide_posenum>
11

> <r_i_glide_eff_state_penalty>
0

> <s_user_duplicate_titles>
CHEMBL1966_lig10,257606

> <i_f3d_flags>
0

> <s_m_subgroup_title>
dock_pv

> <s_m_subgroupid>
dock_pv

> <b_m_subgroup_collapsed>
1

$$$$
CHEMBL1966_lig341
                    3D
 Schrodinger Suite 2021-1.
 37 38  0  0  1  0            999 V2000
   49.9425   42.1622   -3.0759 C   0  0  0  0  0  0
   50.0578   42.7497   -4.4217 C   0  0  0  0  0  0
   49.2082   42.2256   -5.3340 N   0  0  0  0  0  0
   48.3444   41.1888   -5.2049 C   0  0  0  0  0  0
   48.3693   40.6047   -3.9822 N   0  0  0  0  0  0
   49.1044   41.0791   -2.9136 C   0  0  0  0  0  0
   48.8230   40.4100   -1.6362 C   0  0  0  0  0  0
   48.0230   39.2973   -1.7314 O   0  0  0  0  0  0
   49.2230   40.8100   -0.5452 O   0  0  0  0  0  0
   47.6035   40.8100   -6.0990 O   0  0  0  0  0  0
   50.8583   43.6100   -4.7746 O   0  0  0  0  0  0
   50.8450   42.8516   -2.0293 C   0  0  0  0  0  0
   50.4369   44.3024   -1.6344 C   0  0  0  0  0  0
   51.5928   45.1776   -1.1409 C   0  0  0  0  0  0
   52.6364   45.5093   -2.0103 C   0  0  0  0  0  0
   53.7556   46.1863   -1.5383 C   0  0  0  0  0  0
   53.8415   46.5495   -0.1891 C   0  0  0  0  0  0
   52.7606   46.2908    0.6609 C   0  0  0  0  0  0
   51.6390   45.6100    0.1865 C   0  0  0  0  0  0
   55.1079   47.1761    0.4006 C   0  0  0  0  0  0
   56.1649   47.6653   -0.6085 C   0  0  0  0  0  0
   49.2358   42.6677   -6.2394 H   0  0  0  0  0  0
   47.6372   39.9236   -3.8522 H   0  0  0  0  0  0
   48.1437   38.8058   -2.5461 H   0  0  0  0  0  0
   51.0077   42.2540   -1.1364 H   0  0  0  0  0  0
   51.8291   42.8789   -2.4990 H   0  0  0  0  0  0
   50.0230   44.8100   -2.4990 H   0  0  0  0  0  0
   49.6303   44.2784   -0.8991 H   0  0  0  0  0  0
   52.6058   45.1918   -3.0430 H   0  0  0  0  0  0
   54.5633   46.3818   -2.2266 H   0  0  0  0  0  0
   52.8087   46.5696    1.7038 H   0  0  0  0  0  0
   50.8435   45.3511    0.8695 H   0  0  0  0  0  0
   54.8230   48.0100    1.0395 H   0  0  0  0  0  0
   55.5664   46.4394    1.0615 H   0  0  0  0  0  0
   57.0153   48.1180   -0.0990 H   0  0  0  0  0  0
   56.5584   46.8442   -1.2085 H   0  0  0  0  0  0
   55.7522   48.4155   -1.2840 H   0  0  0  0  0  0
  1  2  1  0  0  0
  1  6  2  0  0  0
  1 12  1  0  0  0
  2  3  1  0  0  0
  2 11  2  0  0  0
  3  4  1  0  0  0
  3 22  1  0  0  0
  4  5  1  0  0  0
  4 10  2  0  0  0
  5  6  1  0  0  0
  5 23  1  0  0  0
  6  7  1  0  0  0
  7  8  1  0  0  0
  7  9  2  0  0  0
  8 24  1  0  0  0
 12 13  1  0  0  0
 12 25  1  0  0  0
 12 26  1  0  0  0
 13 14  1  0  0  0
 13 27  1  0  0  0
 13 28  1  0  0  0
 14 15  2  0  0  0
 14 19  1  0  0  0
 15 16  1  0  0  0
 15 29  1  0  0  0
 16 17  2  0  0  0
 16 30  1  0  0  0
 17 18  1  0  0  0
 17 20  1  0  0  0
 18 19  2  0  0  0
 18 31  1  0  0  0
 19 32  1  0  0  0
 20 21  1  0  0  0
 20 33  1  0  0  0
 20 34  1  0  0  0
 21 35  1  0  0  0
 21 36  1  0  0  0
 21 37  1  0  0  0
M  END
> <s_m_entry_id>
25756

> <s_m_entry_name>
dock_pv.408

> <s_m_Source_Path>
/home/csk/Desktop/cluster/DUD-E-result/pyrd

> <s_m_Source_File>
dock_pv.maegz

> <i_m_Source_File_Index>
408

> <chembl_id>
CHEMBL3920594

> <chembl_pref_name>
None

> <i_lp_mmshare_version>
53161

> <r_lp_tautomer_probability>
1

> <s_lp_Force_Field>
OPLS_2005

> <r_lp_Energy>
10.975206

> <b_lp_Chiralities_Consistent>
1

> <s_lp_Variant>
CHEMBL1966_lig341-1

> <s_i_glide_gridfile>
glide-grid_1d3g

> <i_i_glide_lignum>
391

> <i_i_glide_rotatable_bonds>
6

> <r_i_docking_score>
-8.78638473953933

> <r_i_glide_ligand_efficiency>
-0.418399273311397

> <r_i_glide_ligand_efficiency_sa>
-1.15433186934764

> <r_i_glide_ligand_efficiency_ln>
-2.17241587228899

> <r_i_glide_gscore>
-8.78638473953933

> <r_i_glide_lipo>
-4.0499595916051

> <r_i_glide_hbond>
-0.213374579302527

> <r_i_glide_metal>
0

> <r_i_glide_rewards>
-2.55353601614967

> <r_i_glide_evdw>
-39.0950927734375

> <r_i_glide_ecoul>
-5.93455171585083

> <r_i_glide_erotb>
0.875422843567463

> <r_i_glide_esite>
0

> <r_i_glide_emodel>
-64.0219733063136

> <r_i_glide_energy>
-45.0296444892883

> <r_i_glide_einternal>
4.16944026947021

> <i_i_glide_confnum>
19

> <i_i_glide_posenum>
259

> <r_i_glide_eff_state_penalty>
0

> <s_user_duplicate_titles>
CHEMBL1966_lig341

> <i_f3d_flags>
0

> <s_m_subgroup_title>
dock_pv

> <s_m_subgroupid>
dock_pv

> <b_m_subgroup_collapsed>
1

$$$$
CHEMBL1966_lig680
                    3D
 Schrodinger Suite 2021-1.
 45 49  0  0  1  0            999 V2000
   52.3103   45.5027   -1.3445 C   0  0  0  0  0  0
   53.3392   46.3488   -0.8765 C   0  0  0  0  0  0
   52.4839   44.8100   -2.5473 C   0  0  0  0  0  0
   53.5942   44.9781   -3.2991 N   0  0  0  0  0  0
   54.4486   46.6371   -1.7439 C   0  0  0  0  0  0
   50.8230   45.2100   -0.4400 S   0  0  0  0  0  0
   51.4545   43.8154   -3.0295 C   0  0  0  0  0  0
   54.5484   45.8737   -2.9401 C   0  0  0  0  0  0
   53.3857   46.8098    0.5575 C   0  0  0  0  0  0
   50.6819   43.0981   -2.1018 C   0  0  0  0  0  0
   49.7908   42.1295   -2.5360 C   0  0  0  0  0  0
   49.5188   41.9462   -3.8883 C   0  0  0  0  0  0
   51.1872   43.6100   -4.3845 C   0  0  0  0  0  0
   50.7428   43.4354   -0.6463 C   0  0  0  0  0  0
   55.4682   47.6096   -1.4871 C   0  0  0  0  0  0
   48.3941   41.0771   -4.2905 C   0  0  0  0  0  0
   54.6206   46.6664    1.1010 O   0  0  0  0  0  0
   50.2057   42.7337   -4.8098 C   0  0  0  0  0  0
   52.4098   47.1816    1.2019 O   0  0  0  0  0  0
   55.6828   46.0270   -3.7749 C   0  0  0  0  0  0
   47.6048   41.4526   -5.3850 C   0  0  0  0  0  0
   47.9468   40.0384   -3.4574 C   0  0  0  0  0  0
   56.5486   47.7643   -2.3474 C   0  0  0  0  0  0
   56.6646   46.9652   -3.4750 C   0  0  0  0  0  0
   46.7341   39.4089   -3.6990 C   0  0  0  0  0  0
   46.4070   40.8091   -5.6495 C   0  0  0  0  0  0
   46.0230   39.7289   -4.8622 C   0  0  0  0  0  0
   57.4942   48.6921   -2.0798 F   0  0  0  0  0  0
   44.9203   38.8100   -5.3607 C   0  0  0  0  0  0
   49.2230   41.5991   -1.7878 H   0  0  0  0  0  0
   51.6230   44.2243   -5.1339 H   0  0  0  0  0  0
   49.8690   43.0808   -0.0990 H   0  0  0  0  0  0
   51.6230   42.9896   -0.2235 H   0  0  0  0  0  0
   55.4155   48.2449   -0.6163 H   0  0  0  0  0  0
   50.0003   42.6671   -5.8674 H   0  0  0  0  0  0
   55.7860   45.4143   -4.6563 H   0  0  0  0  0  0
   47.8568   42.3113   -5.9903 H   0  0  0  0  0  0
   48.5168   39.7283   -2.5944 H   0  0  0  0  0  0
   57.5196   47.0816   -4.1248 H   0  0  0  0  0  0
   46.4261   38.5863   -3.0698 H   0  0  0  0  0  0
   45.7953   41.1228   -6.4816 H   0  0  0  0  0  0
   44.2851   39.2940   -6.0990 H   0  0  0  0  0  0
   44.4156   38.4100   -4.4990 H   0  0  0  0  0  0
   45.2230   37.9095   -5.8740 H   0  0  0  0  0  0
   54.6054   46.8112    2.0533 H   0  0  0  0  0  0
  1  2  2  0  0  0
  1  3  1  0  0  0
  1  6  1  0  0  0
  2  5  1  0  0  0
  2  9  1  0  0  0
  3  4  2  0  0  0
  3  7  1  0  0  0
  4  8  1  0  0  0
  5 15  2  0  0  0
  5  8  1  0  0  0
  6 14  1  0  0  0
  7 13  1  0  0  0
  7 10  2  0  0  0
  8 20  2  0  0  0
  9 17  1  0  0  0
  9 19  2  0  0  0
 10 14  1  0  0  0
 10 11  1  0  0  0
 11 12  2  0  0  0
 11 30  1  0  0  0
 12 16  1  0  0  0
 12 18  1  0  0  0
 13 18  2  0  0  0
 13 31  1  0  0  0
 14 32  1  0  0  0
 14 33  1  0  0  0
 15 23  1  0  0  0
 15 34  1  0  0  0
 16 21  2  0  0  0
 16 22  1  0  0  0
 17 45  1  0  0  0
 18 35  1  0  0  0
 20 24  1  0  0  0
 20 36  1  0  0  0
 21 26  1  0  0  0
 21 37  1  0  0  0
 22 25  2  0  0  0
 22 38  1  0  0  0
 23 28  1  0  0  0
 23 24  2  0  0  0
 24 39  1  0  0  0
 25 27  1  0  0  0
 25 40  1  0  0  0
 26 27  2  0  0  0
 26 41  1  0  0  0
 27 29  1  0  0  0
 29 42  1  0  0  0
 29 43  1  0  0  0
 29 44  1  0  0  0
M  END
> <s_m_entry_id>
25757

> <s_m_entry_name>
dock_pv.409

> <s_m_Source_Path>
/home/csk/Desktop/cluster/DUD-E-result/pyrd

> <s_m_Source_File>
dock_pv.maegz

> <i_m_Source_File_Index>
409

> <chembl_id>
CHEMBL106674

> <chembl_pref_name>
None

> <i_lp_mmshare_version>
53161

> <r_lp_tautomer_probability>
1

> <s_lp_Force_Field>
OPLS_2005

> <r_lp_Energy>
33.190551

> <b_lp_Chiralities_Consistent>
1

> <s_lp_Variant>
CHEMBL1966_lig680-1

> <s_i_glide_gridfile>
glide-grid_1d3g

> <i_i_glide_lignum>
749

> <i_i_glide_rotatable_bonds>
3

> <r_i_docking_score>
-8.77847368213069

> <r_i_glide_ligand_efficiency>
-0.302705989038989

> <r_i_glide_ligand_efficiency_sa>
-0.930008702316491

> <r_i_glide_ligand_efficiency_ln>
-2.01004787032205

> <r_i_glide_gscore>
-8.77847368213069

> <r_i_glide_lipo>
-5.82678630823832

> <r_i_glide_hbond>
0

> <r_i_glide_metal>
0

> <r_i_glide_rewards>
-1.96075130936889

> <r_i_glide_evdw>
-21.0311717987061

> <r_i_glide_ecoul>
-1.21855056285858

> <r_i_glide_erotb>
0.243405109840607

> <r_i_glide_esite>
0

> <r_i_glide_emodel>
-47.5715550843002

> <r_i_glide_energy>
-22.2497223615646

> <r_i_glide_einternal>
3.88438320159912

> <i_i_glide_confnum>
4

> <i_i_glide_posenum>
11

> <r_i_glide_eff_state_penalty>
0

> <s_user_duplicate_titles>
CHEMBL1966_lig680,173866

> <i_f3d_flags>
0

> <s_m_subgroup_title>
dock_pv

> <s_m_subgroupid>
dock_pv

> <b_m_subgroup_collapsed>
1

$$$$
CHEMBL1966_lig55
                    3D
 Schrodinger Suite 2021-1.
 40 42  0  0  1  0            999 V2000
   53.9366   46.7655   -1.8935 C   0  0  0  0  0  0
   54.8623   47.1013   -0.9338 C   0  0  0  0  0  0
   56.2169   47.0395   -3.1917 S   0  0  0  0  0  0
   52.6836   46.0485   -1.6990 C   0  0  0  0  0  0
   54.3777   47.1433   -3.3141 C   0  0  0  0  0  0
   56.1051   47.7975   -1.5140 C   0  0  0  0  0  0
   54.7955   46.8100    0.4917 C   0  0  0  0  0  0
   52.5454   44.9711   -2.4990 N   0  0  0  0  0  0
   56.8474   47.9670   -4.1343 O   0  0  0  0  0  0
   56.6389   45.6383   -3.0978 O   0  0  0  0  0  0
   51.8334   46.4100   -0.8864 O   0  0  0  0  0  0
   49.7550   41.8130   -2.4567 C   0  0  0  0  0  0
   53.7635   46.6059    1.1197 O   0  0  0  0  0  0
   51.5183   44.0100   -2.4877 C   0  0  0  0  0  0
   48.7493   40.7013   -2.4493 C   0  0  0  0  0  0
   50.4230   42.1869   -3.6295 C   0  0  0  0  0  0
   50.0008   42.5592   -1.2974 C   0  0  0  0  0  0
   56.0117   46.8100    1.1010 O   0  0  0  0  0  0
   51.3170   43.2551   -3.6430 C   0  0  0  0  0  0
   50.8230   43.6731   -1.3186 C   0  0  0  0  0  0
   48.0095   40.4100   -3.6037 C   0  0  0  0  0  0
   48.4230   40.0100   -1.2668 C   0  0  0  0  0  0
   46.9358   39.5291   -3.5581 C   0  0  0  0  0  0
   47.3966   39.0710   -1.2359 C   0  0  0  0  0  0
   46.6490   38.8400   -2.3839 C   0  0  0  0  0  0
   54.0893   48.1629   -3.5666 H   0  0  0  0  0  0
   54.0503   46.4676   -4.0990 H   0  0  0  0  0  0
   57.0442   47.6099   -0.9972 H   0  0  0  0  0  0
   55.9572   48.8722   -1.6130 H   0  0  0  0  0  0
   53.2621   44.8265   -3.1924 H   0  0  0  0  0  0
   50.2743   41.6290   -4.5386 H   0  0  0  0  0  0
   49.5087   42.3197   -0.3675 H   0  0  0  0  0  0
   55.8745   46.7920    2.0552 H   0  0  0  0  0  0
   51.8574   43.4824   -4.5500 H   0  0  0  0  0  0
   50.9780   44.2061   -0.3928 H   0  0  0  0  0  0
   48.1929   40.9376   -4.5269 H   0  0  0  0  0  0
   48.9690   40.1915   -0.3533 H   0  0  0  0  0  0
   46.3362   39.3594   -4.4398 H   0  0  0  0  0  0
   47.1715   38.5446   -0.3190 H   0  0  0  0  0  0
   45.8360   38.1309   -2.3590 H   0  0  0  0  0  0
  1  2  2  0  0  0
  1  4  1  0  0  0
  1  5  1  0  0  0
  2  6  1  0  0  0
  2  7  1  0  0  0
  3  5  1  0  0  0
  3  9  2  0  0  0
  3 10  2  0  0  0
  3  6  1  0  0  0
  4  8  1  0  0  0
  4 11  2  0  0  0
  5 26  1  0  0  0
  5 27  1  0  0  0
  6 28  1  0  0  0
  6 29  1  0  0  0
  7 13  2  0  0  0
  7 18  1  0  0  0
  8 14  1  0  0  0
  8 30  1  0  0  0
 12 17  1  0  0  0
 12 15  1  0  0  0
 12 16  2  0  0  0
 14 19  2  0  0  0
 14 20  1  0  0  0
 15 21  2  0  0  0
 15 22  1  0  0  0
 16 19  1  0  0  0
 16 31  1  0  0  0
 17 20  2  0  0  0
 17 32  1  0  0  0
 18 33  1  0  0  0
 19 34  1  0  0  0
 20 35  1  0  0  0
 21 23  1  0  0  0
 21 36  1  0  0  0
 22 24  2  0  0  0
 22 37  1  0  0  0
 23 25  2  0  0  0
 23 38  1  0  0  0
 24 25  1  0  0  0
 24 39  1  0  0  0
 25 40  1  0  0  0
M  END
> <s_m_entry_id>
25758

> <s_m_entry_name>
dock_pv.410

> <s_m_Source_Path>
/home/csk/Desktop/cluster/DUD-E-result/pyrd

> <s_m_Source_File>
dock_pv.maegz

> <i_m_Source_File_Index>
410

> <chembl_id>
CHEMBL196173

> <chembl_pref_name>
None

> <i_lp_mmshare_version>
53161

> <r_lp_tautomer_probability>
1

> <s_lp_Force_Field>
OPLS_2005

> <r_lp_Energy>
27.276265

> <b_lp_Chiralities_Consistent>
1

> <s_lp_Variant>
CHEMBL1966_lig55-1

> <s_i_glide_gridfile>
glide-grid_1d3g

> <i_i_glide_lignum>
61

> <i_i_glide_rotatable_bonds>
6

> <r_i_docking_score>
-8.77067484216554

> <r_i_glide_ligand_efficiency>
-0.350826993686622

> <r_i_glide_ligand_efficiency_sa>
-1.02582435148291

> <r_i_glide_ligand_efficiency_ln>
-2.0789127735087

> <r_i_glide_gscore>
-8.77067484216554

> <r_i_glide_lipo>
-4.82045327550042

> <r_i_glide_hbond>
0

> <r_i_glide_metal>
0

> <r_i_glide_rewards>
-2.33559412567662

> <r_i_glide_evdw>
-43.191967010498

> <r_i_glide_ecoul>
-1.36299812793732

> <r_i_glide_erotb>
0.749420628727007

> <r_i_glide_esite>
0

> <r_i_glide_emodel>
-60.4691127762251

> <r_i_glide_energy>
-44.5549651384354

> <r_i_glide_einternal>
4.89163208007812

> <i_i_glide_confnum>
58

> <i_i_glide_posenum>
362

> <r_i_glide_eff_state_penalty>
0

> <s_user_duplicate_titles>
CHEMBL1966_lig55

> <i_f3d_flags>
0

> <s_m_subgroup_title>
dock_pv

> <s_m_subgroupid>
dock_pv

> <b_m_subgroup_collapsed>
1

$$$$
CHEMBL1966_lig159
                    3D
 Schrodinger Suite 2021-1.
 33 36  0  0  1  0            999 V2000
   51.6099   44.6161   -1.8123 N   0  0  0  0  0  0
   50.8977   43.6461   -2.4981 C   0  0  0  0  0  0
   50.0632   42.3393   -1.7075 S   0  0  0  0  0  0
   49.5262   41.6947   -3.2467 C   0  0  0  0  0  0
   50.0144   42.4698   -4.2975 C   0  0  0  0  0  0
   50.7874   43.5559   -3.8816 C   0  0  0  0  0  0
   51.2203   45.1812   -0.6133 C   0  0  0  0  0  0
   52.0803   46.0108   -0.0867 N   0  0  0  0  0  0
   52.8230   45.2193   -2.1181 C   0  0  0  0  0  0
   53.1163   46.0261   -0.9810 C   0  0  0  0  0  0
   54.3549   46.6871   -0.8970 C   0  0  0  0  0  0
   55.2378   46.5692   -1.9674 C   0  0  0  0  0  0
   54.9150   45.8223   -3.0962 C   0  0  0  0  0  0
   53.7017   45.1388   -3.2087 C   0  0  0  0  0  0
   48.6922   40.5177   -3.3775 C   0  0  0  0  0  0
   48.2128   40.0014   -2.2300 N   0  0  0  0  0  0
   48.4227   40.0658   -4.4927 O   0  0  0  0  0  0
   47.3342   38.8388   -2.1372 C   0  0  0  0  0  0
   47.4838   37.9222   -0.9440 C   0  0  0  0  0  0
   46.2744   38.8103   -1.0651 C   0  0  0  0  0  0
   54.8242   47.5869    0.4997 Cl  0  0  0  0  0  0
   55.8157   45.7435   -4.0989 F   0  0  0  0  0  0
   49.8104   42.2592   -5.3376 H   0  0  0  0  0  0
   51.2336   44.2520   -4.5753 H   0  0  0  0  0  0
   50.2796   44.8910   -0.1663 H   0  0  0  0  0  0
   56.1976   47.0632   -1.9238 H   0  0  0  0  0  0
   53.4755   44.5626   -4.0961 H   0  0  0  0  0  0
   48.4926   40.4242   -1.3586 H   0  0  0  0  0  0
   47.0859   38.3779   -3.0948 H   0  0  0  0  0  0
   48.2104   38.1592   -0.1677 H   0  0  0  0  0  0
   47.3840   36.8482   -1.0981 H   0  0  0  0  0  0
   45.3083   38.3675   -1.3001 H   0  0  0  0  0  0
   46.1839   39.6252   -0.3504 H   0  0  0  0  0  0
  1  7  1  0  0  0
  1  2  1  0  0  0
  1  9  1  0  0  0
  2  6  2  0  0  0
  2  3  1  0  0  0
  3  4  1  0  0  0
  4  5  2  0  0  0
  4 15  1  0  0  0
  5  6  1  0  0  0
  5 23  1  0  0  0
  6 24  1  0  0  0
  7  8  2  0  0  0
  7 25  1  0  0  0
  8 10  1  0  0  0
  9 14  1  0  0  0
  9 10  2  0  0  0
 10 11  1  0  0  0
 11 12  2  0  0  0
 11 21  1  0  0  0
 12 13  1  0  0  0
 12 26  1  0  0  0
 13 14  2  0  0  0
 13 22  1  0  0  0
 14 27  1  0  0  0
 15 16  1  0  0  0
 15 17  2  0  0  0
 16 18  1  0  0  0
 16 28  1  0  0  0
 18 19  1  0  0  0
 18 20  1  0  0  0
 18 29  1  0  0  0
 19 20  1  0  0  0
 19 30  1  0  0  0
 19 31  1  0  0  0
 20 32  1  0  0  0
 20 33  1  0  0  0
M  END
> <s_m_entry_id>
25759

> <s_m_entry_name>
dock_pv.411

> <s_m_Source_Path>
/home/csk/Desktop/cluster/DUD-E-result/pyrd

> <s_m_Source_File>
dock_pv.maegz

> <i_m_Source_File_Index>
411

> <chembl_id>
CHEMBL2012963

> <chembl_pref_name>
None

> <i_lp_mmshare_version>
53161

> <r_lp_tautomer_probability>
1

> <s_lp_Force_Field>
OPLS_2005

> <r_lp_Energy>
21.797223

> <b_lp_Chiralities_Consistent>
1

> <s_lp_Variant>
CHEMBL1966_lig159-1

> <s_i_glide_gridfile>
glide-grid_1d3g

> <i_i_glide_lignum>
204

> <i_i_glide_rotatable_bonds>
4

> <r_i_docking_score>
-8.76674469457021

> <r_i_glide_ligand_efficiency>
-0.398488395207737

> <r_i_glide_ligand_efficiency_sa>
-1.11658015503136

> <r_i_glide_ligand_efficiency_ln>
-2.14291217813534

> <r_i_glide_gscore>
-8.76674469457021

> <r_i_glide_lipo>
-4.64128853107361

> <r_i_glide_hbond>
0

> <r_i_glide_metal>
0

> <r_i_glide_rewards>
-2.81343426036128

> <r_i_glide_evdw>
-39.324764251709

> <r_i_glide_ecoul>
-0.103363215923309

> <r_i_glide_erotb>
0.669720791838634

> <r_i_glide_esite>
0

> <r_i_glide_emodel>
-51.4056784011001

> <r_i_glide_energy>
-39.4281274676323

> <r_i_glide_einternal>
6.34602975845337

> <i_i_glide_confnum>
43

> <i_i_glide_posenum>
54

> <r_i_glide_eff_state_penalty>
0

> <s_user_duplicate_titles>
CHEMBL1966_lig159

> <i_f3d_flags>
0

> <s_m_subgroup_title>
dock_pv

> <s_m_subgroupid>
dock_pv

> <b_m_subgroup_collapsed>
1

$$$$
CHEMBL1966_lig400
                    3D
 Schrodinger Suite 2021-1.
 43 44  0  0  1  0            999 V2000
   49.0021   41.0918   -3.6736 C   0  0  0  0  0  0
   48.8196   41.6963   -5.0019 C   0  0  0  0  0  0
   47.6151   41.4176   -5.5640 N   0  0  0  0  0  0
   46.6127   40.6130   -5.1088 C   0  0  0  0  0  0
   46.8815   40.0101   -3.9254 N   0  0  0  0  0  0
   48.0231   40.2522   -3.2043 C   0  0  0  0  0  0
   48.0231   39.6101   -1.9012 C   0  0  0  0  0  0
   47.6228   38.3058   -1.9542 O   0  0  0  0  0  0
   48.4225   40.1358   -0.8643 O   0  0  0  0  0  0
   45.5627   40.4309   -5.6989 O   0  0  0  0  0  0
   49.6229   42.4034   -5.6070 O   0  0  0  0  0  0
   50.3236   41.4378   -2.9786 C   0  0  0  0  0  0
   50.5616   42.9081   -2.5873 C   0  0  0  0  0  0
   50.2418   43.2017   -1.1158 C   0  0  0  0  0  0
   50.2384   44.6970   -0.7416 C   0  0  0  0  0  0
   51.6008   45.3893   -0.6285 C   0  0  0  0  0  0
   52.4082   45.5694   -1.7530 C   0  0  0  0  0  0
   53.6543   46.1691   -1.6513 C   0  0  0  0  0  0
   54.1271   46.5784   -0.4033 C   0  0  0  0  0  0
   53.3225   46.4100    0.7321 C   0  0  0  0  0  0
   52.0540   45.8422    0.6140 C   0  0  0  0  0  0
   55.5072   47.1193   -0.2750 C   0  0  0  0  0  0
   56.2215   46.9075    0.7037 O   0  0  0  0  0  0
   55.8415   47.9339   -1.3058 O   0  0  0  0  0  0
   57.0999   48.5930   -1.3353 C   0  0  0  0  0  0
   47.4263   41.9260   -6.4141 H   0  0  0  0  0  0
   46.1159   39.4800   -3.5340 H   0  0  0  0  0  0
   47.7825   37.9303   -2.8249 H   0  0  0  0  0  0
   51.1120   41.1895   -3.6847 H   0  0  0  0  0  0
   50.4641   40.8039   -2.1087 H   0  0  0  0  0  0
   50.0228   43.5884   -3.2479 H   0  0  0  0  0  0
   51.6193   43.1107   -2.7508 H   0  0  0  0  0  0
   50.9459   42.6502   -0.4990 H   0  0  0  0  0  0
   49.2536   42.7994   -0.8881 H   0  0  0  0  0  0
   49.7065   44.8064    0.2035 H   0  0  0  0  0  0
   49.6287   45.2100   -1.4764 H   0  0  0  0  0  0
   52.0918   45.2095   -2.7159 H   0  0  0  0  0  0
   54.2591   46.2698   -2.5421 H   0  0  0  0  0  0
   53.6756   46.7109    1.7100 H   0  0  0  0  0  0
   51.4525   45.7069    1.4996 H   0  0  0  0  0  0
   57.1957   49.1629   -2.2599 H   0  0  0  0  0  0
   57.9202   47.8763   -1.2941 H   0  0  0  0  0  0
   57.2040   49.2858   -0.4992 H   0  0  0  0  0  0
  1  2  1  0  0  0
  1  6  2  0  0  0
  1 12  1  0  0  0
  2  3  1  0  0  0
  2 11  2  0  0  0
  3  4  1  0  0  0
  3 26  1  0  0  0
  4  5  1  0  0  0
  4 10  2  0  0  0
  5  6  1  0  0  0
  5 27  1  0  0  0
  6  7  1  0  0  0
  7  8  1  0  0  0
  7  9  2  0  0  0
  8 28  1  0  0  0
 12 13  1  0  0  0
 12 29  1  0  0  0
 12 30  1  0  0  0
 13 14  1  0  0  0
 13 31  1  0  0  0
 13 32  1  0  0  0
 14 15  1  0  0  0
 14 33  1  0  0  0
 14 34  1  0  0  0
 15 16  1  0  0  0
 15 35  1  0  0  0
 15 36  1  0  0  0
 16 17  2  0  0  0
 16 21  1  0  0  0
 17 18  1  0  0  0
 17 37  1  0  0  0
 18 19  2  0  0  0
 18 38  1  0  0  0
 19 20  1  0  0  0
 19 22  1  0  0  0
 20 21  2  0  0  0
 20 39  1  0  0  0
 21 40  1  0  0  0
 22 23  2  0  0  0
 22 24  1  0  0  0
 24 25  1  0  0  0
 25 41  1  0  0  0
 25 42  1  0  0  0
 25 43  1  0  0  0
M  END
> <s_m_entry_id>
25760

> <s_m_entry_name>
dock_pv.412

> <s_m_Source_Path>
/home/csk/Desktop/cluster/DUD-E-result/pyrd

> <s_m_Source_File>
dock_pv.maegz

> <i_m_Source_File_Index>
412

> <chembl_id>
CHEMBL3929601

> <chembl_pref_name>
None

> <i_lp_mmshare_version>
53161

> <r_lp_tautomer_probability>
1

> <s_lp_Force_Field>
OPLS_2005

> <r_lp_Energy>
14.213959

> <b_lp_Chiralities_Consistent>
1

> <s_lp_Variant>
CHEMBL1966_lig400-1

> <s_i_glide_gridfile>
glide-grid_1d3g

> <i_i_glide_lignum>
450

> <i_i_glide_rotatable_bonds>
9

> <r_i_docking_score>
-8.74325334015655

> <r_i_glide_ligand_efficiency>
-0.349730133606262

> <r_i_glide_ligand_efficiency_sa>
-1.02261711315504

> <r_i_glide_ligand_efficiency_ln>
-2.07241305577646

> <r_i_glide_gscore>
-8.74325334015655

> <r_i_glide_lipo>
-4.23857279235162

> <r_i_glide_hbond>
-0.0745753417035326

> <r_i_glide_metal>
0

> <r_i_glide_rewards>
-2.69178216797198

> <r_i_glide_evdw>
-46.3515434265137

> <r_i_glide_ecoul>
-3.32090640068054

> <r_i_glide_erotb>
1.10944976840868

> <r_i_glide_esite>
-0.0320596751103306

> <r_i_glide_emodel>
-71.3357221142194

> <r_i_glide_energy>
-49.6724498271942

> <r_i_glide_einternal>
4.54754686355591

> <i_i_glide_confnum>
59

> <i_i_glide_posenum>
118

> <r_i_glide_eff_state_penalty>
0

> <s_user_duplicate_titles>
CHEMBL1966_lig400

> <i_f3d_flags>
0

> <s_m_subgroup_title>
dock_pv

> <s_m_subgroupid>
dock_pv

> <b_m_subgroup_collapsed>
1

$$$$
CHEMBL1966_lig364
                    3D
 Schrodinger Suite 2021-1.
 35 36  0  0  1  0            999 V2000
   49.9526   42.1672   -3.0591 C   0  0  0  0  0  0
   50.0681   42.7480   -4.4076 C   0  0  0  0  0  0
   49.2230   42.2154   -5.3210 N   0  0  0  0  0  0
   48.3778   41.1608   -5.2004 C   0  0  0  0  0  0
   48.4230   40.5709   -3.9774 N   0  0  0  0  0  0
   49.1185   41.0806   -2.8990 C   0  0  0  0  0  0
   48.8230   40.4100   -1.6251 C   0  0  0  0  0  0
   47.9248   39.3828   -1.7143 O   0  0  0  0  0  0
   49.2643   40.7622   -0.5344 O   0  0  0  0  0  0
   47.6230   40.8100   -6.0990 O   0  0  0  0  0  0
   50.8665   43.6100   -4.7607 O   0  0  0  0  0  0
   50.8632   42.8553   -2.0146 C   0  0  0  0  0  0
   50.4489   44.2955   -1.5911 C   0  0  0  0  0  0
   51.5860   45.1919   -1.0763 C   0  0  0  0  0  0
   52.6070   45.6100   -1.9386 C   0  0  0  0  0  0
   53.6620   46.4182   -1.4826 C   0  0  0  0  0  0
   53.6812   46.8020   -0.1347 C   0  0  0  0  0  0
   52.6608   46.4083    0.7285 C   0  0  0  0  0  0
   51.6230   45.6055    0.2588 C   0  0  0  0  0  0
   54.7724   46.8623   -2.4024 C   0  0  0  0  0  0
   54.4784   46.9767   -3.6977 N   0  0  0  0  0  0
   55.8970   47.1180   -1.9799 O   0  0  0  0  0  0
   49.2400   42.6640   -6.2233 H   0  0  0  0  0  0
   47.8444   39.7508   -3.8570 H   0  0  0  0  0  0
   47.7649   39.0192   -0.8395 H   0  0  0  0  0  0
   51.8403   42.9035   -2.4990 H   0  0  0  0  0  0
   51.0401   42.2429   -1.1341 H   0  0  0  0  0  0
   49.6397   44.2492   -0.8602 H   0  0  0  0  0  0
   50.0230   44.8100   -2.4475 H   0  0  0  0  0  0
   52.5789   45.2724   -2.9653 H   0  0  0  0  0  0
   54.4840   47.4151    0.2522 H   0  0  0  0  0  0
   52.6828   46.7103    1.7656 H   0  0  0  0  0  0
   50.8550   45.2763    0.9437 H   0  0  0  0  0  0
   55.2023   47.2624   -4.3377 H   0  0  0  0  0  0
   53.5322   46.8501   -4.0234 H   0  0  0  0  0  0
  1  2  1  0  0  0
  1  6  2  0  0  0
  1 12  1  0  0  0
  2  3  1  0  0  0
  2 11  2  0  0  0
  3  4  1  0  0  0
  3 23  1  0  0  0
  4  5  1  0  0  0
  4 10  2  0  0  0
  5  6  1  0  0  0
  5 24  1  0  0  0
  6  7  1  0  0  0
  7  8  1  0  0  0
  7  9  2  0  0  0
  8 25  1  0  0  0
 12 13  1  0  0  0
 12 26  1  0  0  0
 12 27  1  0  0  0
 13 14  1  0  0  0
 13 28  1  0  0  0
 13 29  1  0  0  0
 14 15  2  0  0  0
 14 19  1  0  0  0
 15 16  1  0  0  0
 15 30  1  0  0  0
 16 17  2  0  0  0
 16 20  1  0  0  0
 17 18  1  0  0  0
 17 31  1  0  0  0
 18 19  2  0  0  0
 18 32  1  0  0  0
 19 33  1  0  0  0
 20 21  1  0  0  0
 20 22  2  0  0  0
 21 34  1  0  0  0
 21 35  1  0  0  0
M  END
> <s_m_entry_id>
25761

> <s_m_entry_name>
dock_pv.413

> <s_m_Source_Path>
/home/csk/Desktop/cluster/DUD-E-result/pyrd

> <s_m_Source_File>
dock_pv.maegz

> <i_m_Source_File_Index>
413

> <chembl_id>
CHEMBL3916433

> <chembl_pref_name>
None

> <i_lp_mmshare_version>
53161

> <r_lp_tautomer_probability>
1

> <s_lp_Force_Field>
OPLS_2005

> <r_lp_Energy>
14.72235

> <b_lp_Chiralities_Consistent>
1

> <s_lp_Variant>
CHEMBL1966_lig364-1

> <s_i_glide_gridfile>
glide-grid_1d3g

> <i_i_glide_lignum>
414

> <i_i_glide_rotatable_bonds>
6

> <r_i_docking_score>
-8.72059937530738

> <r_i_glide_ligand_efficiency>
-0.39639088069579

> <r_i_glide_ligand_efficiency_sa>
-1.11070283687832

> <r_i_glide_ligand_efficiency_ln>
-2.13163257891609

> <r_i_glide_gscore>
-8.72059937530738

> <r_i_glide_lipo>
-3.47643400846635

> <r_i_glide_hbond>
-0.271824648457413

> <r_i_glide_metal>
0

> <r_i_glide_rewards>
-2.93309571917107

> <r_i_glide_evdw>
-41.9491958618164

> <r_i_glide_ecoul>
-4.95396614074707

> <r_i_glide_erotb>
0.801309714990335

> <r_i_glide_esite>
0

> <r_i_glide_emodel>
-68.7307602860893

> <r_i_glide_energy>
-46.9031620025635

> <r_i_glide_einternal>
1.76326739788055

> <i_i_glide_confnum>
11

> <i_i_glide_posenum>
115

> <r_i_glide_eff_state_penalty>
0

> <s_user_duplicate_titles>
CHEMBL1966_lig364

> <i_f3d_flags>
0

> <s_m_subgroup_title>
dock_pv

> <s_m_subgroupid>
dock_pv

> <b_m_subgroup_collapsed>
1

$$$$
CHEMBL1966_lig67
                    3D
 Schrodinger Suite 2021-1.
 42 44  0  0  1  0            999 V2000
   48.1441   40.4100   -3.2225 C   0  0  0  0  0  0
   47.3271   40.4100   -4.3154 C   0  0  0  0  0  0
   49.3722   41.1553   -3.0545 C   0  0  0  0  0  0
   54.9343   47.6488   -1.8426 C   0  0  0  0  0  0
   52.3724   45.2078   -1.7616 C   0  0  0  0  0  0
   47.5365   41.1281   -5.5566 C   0  0  0  0  0  0
   51.3149   44.9988   -0.8853 C   0  0  0  0  0  0
   52.4824   44.4100   -2.8990 C   0  0  0  0  0  0
   49.2971   42.4100   -2.5962 N   0  0  0  0  0  0
   50.3579   43.3357   -2.3765 C   0  0  0  0  0  0
   53.5062   45.8273   -1.3197 O   0  0  0  0  0  0
   53.5301   47.1999   -1.5582 C   0  0  0  0  0  0
   50.2943   44.1022   -1.2035 C   0  0  0  0  0  0
   51.4596   43.5062   -3.2408 C   0  0  0  0  0  0
   46.1166   38.8101   -2.5250 S   0  0  0  0  0  0
   55.7694   47.8823   -0.7605 C   0  0  0  0  0  0
   55.3975   47.8714   -3.1433 C   0  0  0  0  0  0
   50.4230   40.6436   -3.3052 O   0  0  0  0  0  0
   47.6968   39.5041   -2.0896 C   0  0  0  0  0  0
   48.6293   41.2860   -6.0952 O   0  0  0  0  0  0
   46.0235   39.6534   -4.1060 C   0  0  0  0  0  0
   51.5380   45.6187    0.8985 Br  0  0  0  0  0  0
   54.3034   44.0096   -3.2993 Br  0  0  0  0  0  0
   46.3686   41.6100   -6.0692 O   0  0  0  0  0  0
   55.3586   47.6097    0.4993 F   0  0  0  0  0  0
   54.4230   47.4713   -4.4990 Cl  0  0  0  0  0  0
   57.4818   48.6989   -2.2583 C   0  0  0  0  0  0
   57.0271   48.4095   -0.9728 C   0  0  0  0  0  0
   56.6687   48.4071   -3.3512 C   0  0  0  0  0  0
   48.3931   42.7035   -2.2668 H   0  0  0  0  0  0
   52.8295   47.5563   -2.3188 H   0  0  0  0  0  0
   53.2230   47.6099   -0.6018 H   0  0  0  0  0  0
   49.5031   43.9366   -0.4865 H   0  0  0  0  0  0
   51.5990   42.8363   -4.0771 H   0  0  0  0  0  0
   47.6228   40.0098   -1.1270 H   0  0  0  0  0  0
   48.3861   38.6687   -1.9975 H   0  0  0  0  0  0
   45.2230   40.3874   -4.0971 H   0  0  0  0  0  0
   45.7769   38.9470   -4.8958 H   0  0  0  0  0  0
   46.4818   42.4559   -6.5381 H   0  0  0  0  0  0
   58.4657   49.1186   -2.4050 H   0  0  0  0  0  0
   57.6230   48.5731   -0.1020 H   0  0  0  0  0  0
   57.0232   48.5938   -4.3543 H   0  0  0  0  0  0
  1  2  2  0  0  0
  1  3  1  0  0  0
  1 19  1  0  0  0
  2  6  1  0  0  0
  2 21  1  0  0  0
  3  9  1  0  0  0
  3 18  2  0  0  0
  4 12  1  0  0  0
  4 16  1  0  0  0
  4 17  2  0  0  0
  5  8  1  0  0  0
  5 11  1  0  0  0
  5  7  2  0  0  0
  6 20  2  0  0  0
  6 24  1  0  0  0
  7 13  1  0  0  0
  7 22  1  0  0  0
  8 14  2  0  0  0
  8 23  1  0  0  0
  9 10  1  0  0  0
  9 30  1  0  0  0
 10 13  2  0  0  0
 10 14  1  0  0  0
 11 12  1  0  0  0
 12 31  1  0  0  0
 12 32  1  0  0  0
 13 33  1  0  0  0
 14 34  1  0  0  0
 15 19  1  0  0  0
 15 21  1  0  0  0
 16 25  1  0  0  0
 16 28  2  0  0  0
 17 26  1  0  0  0
 17 29  1  0  0  0
 19 35  1  0  0  0
 19 36  1  0  0  0
 21 37  1  0  0  0
 21 38  1  0  0  0
 24 39  1  0  0  0
 27 29  2  0  0  0
 27 28  1  0  0  0
 27 40  1  0  0  0
 28 41  1  0  0  0
 29 42  1  0  0  0
M  END
> <s_m_entry_id>
25762

> <s_m_entry_name>
dock_pv.414

> <s_m_Source_Path>
/home/csk/Desktop/cluster/DUD-E-result/pyrd

> <s_m_Source_File>
dock_pv.maegz

> <i_m_Source_File_Index>
414

> <chembl_id>
CHEMBL194776

> <chembl_pref_name>
None

> <i_lp_mmshare_version>
53161

> <r_lp_tautomer_probability>
1

> <s_lp_Force_Field>
OPLS_2005

> <r_lp_Energy>
43.666194

> <b_lp_Chiralities_Consistent>
1

> <s_lp_Variant>
CHEMBL1966_lig67-1

> <s_i_glide_gridfile>
glide-grid_1d3g

> <i_i_glide_lignum>
73

> <i_i_glide_rotatable_bonds>
8

> <r_i_docking_score>
-8.71854635100885

> <r_i_glide_ligand_efficiency>
-0.300639529345133

> <r_i_glide_ligand_efficiency_sa>
-0.92365988343658

> <r_i_glide_ligand_efficiency_ln>
-1.99632603112115

> <r_i_glide_gscore>
-8.71854635100885

> <r_i_glide_lipo>
-5.2840306759013

> <r_i_glide_hbond>
-0.134522055201693

> <r_i_glide_metal>
0

> <r_i_glide_rewards>
-1.47988951202262

> <r_i_glide_evdw>
-21.2705116271973

> <r_i_glide_ecoul>
-7.42679119110107

> <r_i_glide_erotb>
0.370081245494792

> <r_i_glide_esite>
-0.0126410933529987

> <r_i_glide_emodel>
-56.1092468078974

> <r_i_glide_energy>
-28.6973028182983

> <r_i_glide_einternal>
13.8531703948975

> <i_i_glide_confnum>
120

> <i_i_glide_posenum>
20

> <r_i_glide_eff_state_penalty>
0

> <s_user_duplicate_titles>
CHEMBL1966_lig67,327230

> <i_f3d_flags>
0

> <s_m_subgroup_title>
dock_pv

> <s_m_subgroupid>
dock_pv

> <b_m_subgroup_collapsed>
1

$$$$
CHEMBL1966_lig661 
                    3D
 Schrodinger Suite 2021-1.
 31 33  0  0  1  0            999 V2000
   46.6520   39.0596   -2.8989 C   0  0  0  0  0  0
   47.2230   39.1526   -1.6370 C   0  0  0  0  0  0
   48.2990   40.0100   -1.4326 C   0  0  0  0  0  0
   47.1809   39.7969   -3.9539 C   0  0  0  0  0  0
   48.2902   40.6373   -3.7775 C   0  0  0  0  0  0
   48.8389   40.7687   -2.4852 C   0  0  0  0  0  0
   49.9540   41.7215   -2.1757 C   0  0  0  0  0  0
   50.3447   42.5988   -3.3194 C   0  0  0  0  0  0
   49.8230   42.4228   -4.5678 C   0  0  0  0  0  0
   48.8208   41.4065   -4.9487 C   0  0  0  0  0  0
   48.4119   41.2100   -6.0990 O   0  0  0  0  0  0
   50.4230   41.7588   -1.0372 O   0  0  0  0  0  0
   50.1728   43.2100   -5.6321 O   0  0  0  0  0  0
   51.2905   43.6100   -3.1513 N   0  0  0  0  0  0
   51.6185   44.4465   -2.0585 C   0  0  0  0  0  0
   52.7937   45.2293   -2.0990 C   0  0  0  0  0  0
   53.1609   46.0211   -0.9985 C   0  0  0  0  0  0
   52.3842   46.0100    0.1563 C   0  0  0  0  0  0
   51.2230   45.2492    0.1980 C   0  0  0  0  0  0
   50.8039   44.5482   -0.9230 C   0  0  0  0  0  0
   54.5915   46.9950   -1.0116 Cl  0  0  0  0  0  0
   53.8195   45.2102   -3.4910 Cl  0  0  0  0  0  0
   45.8040   38.4116   -3.0638 H   0  0  0  0  0  0
   46.8235   38.5803   -0.8121 H   0  0  0  0  0  0
   48.7007   40.0767   -0.4304 H   0  0  0  0  0  0
   46.7067   39.7028   -4.9188 H   0  0  0  0  0  0
   49.6079   42.9979   -6.3815 H   0  0  0  0  0  0
   51.7096   43.9483   -4.0077 H   0  0  0  0  0  0
   52.6847   46.5826    1.0223 H   0  0  0  0  0  0
   50.6370   45.2100    1.1010 H   0  0  0  0  0  0
   49.8471   44.0564   -0.8668 H   0  0  0  0  0  0
  1  2  2  0  0  0
  1  4  1  0  0  0
  1 23  1  0  0  0
  2  3  1  0  0  0
  2 24  1  0  0  0
  3  6  2  0  0  0
  3 25  1  0  0  0
  4  5  2  0  0  0
  4 26  1  0  0  0
  5  6  1  0  0  0
  5 10  1  0  0  0
  6  7  1  0  0  0
  7  8  1  0  0  0
  7 12  2  0  0  0
  8  9  2  0  0  0
  8 14  1  0  0  0
  9 10  1  0  0  0
  9 13  1  0  0  0
 10 11  2  0  0  0
 13 27  1  0  0  0
 14 15  1  0  0  0
 14 28  1  0  0  0
 15 16  2  0  0  0
 15 20  1  0  0  0
 16 17  1  0  0  0
 16 22  1  0  0  0
 17 18  2  0  0  0
 17 21  1  0  0  0
 18 19  1  0  0  0
 18 29  1  0  0  0
 19 20  2  0  0  0
 19 30  1  0  0  0
 20 31  1  0  0  0
M  END
> <s_m_entry_id>
25763

> <s_m_entry_name>
dock_pv.415

> <s_m_Source_Path>
/home/csk/Desktop/cluster/DUD-E-result/pyrd

> <s_m_Source_File>
dock_pv.maegz

> <i_m_Source_File_Index>
415

> <chembl_id>
CHEMBL4540838

> <chembl_pref_name>
None

> <i_lp_mmshare_version>
53161

> <r_lp_tautomer_probability>
1

> <s_lp_Force_Field>
OPLS_2005

> <r_lp_Energy>
33.653017

> <b_lp_Chiralities_Consistent>
1

> <s_lp_Variant>
CHEMBL1966_lig661 -1

> <s_i_glide_gridfile>
glide-grid_1d3g

> <i_i_glide_lignum>
718

> <i_i_glide_rotatable_bonds>
3

> <r_i_docking_score>
-8.71122749030814

> <r_i_glide_ligand_efficiency>
-0.395964885923097

> <r_i_glide_ligand_efficiency_sa>
-1.10950918277181

> <r_i_glide_ligand_efficiency_ln>
-2.12934174837446

> <r_i_glide_gscore>
-8.71122749030814

> <r_i_glide_lipo>
-4.59336902064553

> <r_i_glide_hbond>
-0.149086341993756

> <r_i_glide_metal>
0

> <r_i_glide_rewards>
-2.39405948006257

> <r_i_glide_evdw>
-32.7783737182617

> <r_i_glide_ecoul>
-1.82369196414948

> <r_i_glide_erotb>
0.337759832929214

> <r_i_glide_esite>
0

> <r_i_glide_emodel>
-46.9746367681122

> <r_i_glide_energy>
-34.6020656824112

> <r_i_glide_einternal>
5.08722639083862

> <i_i_glide_confnum>
4

> <i_i_glide_posenum>
206

> <r_i_glide_eff_state_penalty>
0

> <s_user_duplicate_titles>
CHEMBL1966_lig661 

> <i_f3d_flags>
0

> <s_m_subgroup_title>
dock_pv

> <s_m_subgroupid>
dock_pv

> <b_m_subgroup_collapsed>
1

$$$$
CHEMBL1966_lig118
                    3D
 Schrodinger Suite 2021-1.
 35 36  0  0  1  0            999 V2000
   50.8544   44.4103   -1.6349 C   0  0  0  0  0  0
   51.0065   43.6058   -2.7774 C   0  0  0  0  0  0
   52.1116   43.8295   -3.6034 C   0  0  0  0  0  0
   53.0464   44.8101   -3.2982 C   0  0  0  0  0  0
   52.9122   45.5970   -2.1467 C   0  0  0  0  0  0
   51.8068   45.3858   -1.3035 C   0  0  0  0  0  0
   50.0576   42.5176   -3.1502 C   0  0  0  0  0  0
   53.9207   46.4977   -1.7623 N   0  0  0  0  0  0
   54.8723   47.0729   -2.5362 C   0  0  0  0  0  0
   56.1535   47.5316   -1.8211 C   0  0  2  0  0  0
   54.7844   47.1933   -3.7586 O   0  0  0  0  0  0
   56.1858   47.1397   -0.4039 C   0  0  0  0  0  0
   56.5138   49.0123   -2.0136 C   0  0  0  0  0  0
   57.0210   49.4502   -3.3843 C   0  0  0  0  0  0
   56.4230   49.8291   -1.1005 O   0  0  0  0  0  0
   56.1867   46.8100    0.7010 N   0  0  0  0  0  0
   49.6230   41.5229   -2.2506 C   0  0  0  0  0  0
   48.8173   40.4739   -2.7015 C   0  0  0  0  0  0
   48.4147   40.4100   -4.0326 C   0  0  0  0  0  0
   48.8106   41.4016   -4.9233 C   0  0  0  0  0  0
   49.6226   42.4421   -4.4829 C   0  0  0  0  0  0
   50.0230   41.5456   -0.5662 Cl  0  0  0  0  0  0
   51.6230   46.2849    0.1644 Cl  0  0  0  0  0  0
   50.0037   44.2702   -0.9840 H   0  0  0  0  0  0
   52.2720   43.2183   -4.4802 H   0  0  0  0  0  0
   53.9030   44.9211   -3.9392 H   0  0  0  0  0  0
   53.9712   46.6625   -0.7666 H   0  0  0  0  0  0
   56.2408   49.3325   -4.1354 H   0  0  0  0  0  0
   57.8924   48.8649   -3.6754 H   0  0  0  0  0  0
   57.3058   50.5023   -3.3611 H   0  0  0  0  0  0
   56.9680   46.9592   -2.2654 H   0  0  0  0  0  0
   48.4847   39.7109   -2.0124 H   0  0  0  0  0  0
   47.7830   39.6002   -4.3650 H   0  0  0  0  0  0
   48.4856   41.3732   -5.9516 H   0  0  0  0  0  0
   49.9172   43.2012   -5.1939 H   0  0  0  0  0  0
  1  6  1  0  0  0
  1  2  2  0  0  0
  1 24  1  0  0  0
  2  7  1  0  0  0
  2  3  1  0  0  0
  3  4  2  0  0  0
  3 25  1  0  0  0
  4  5  1  0  0  0
  4 26  1  0  0  0
  5  6  2  0  0  0
  5  8  1  0  0  0
  6 23  1  0  0  0
  7 17  2  0  0  0
  7 21  1  0  0  0
  8  9  1  0  0  0
  8 27  1  0  0  0
  9 11  2  0  0  0
  9 10  1  0  0  0
 10 12  1  0  0  0
 10 31  1  0  0  0
 10 13  1  0  0  0
 12 16  3  0  0  0
 13 15  2  0  0  0
 13 14  1  0  0  0
 14 28  1  0  0  0
 14 29  1  0  0  0
 14 30  1  0  0  0
 17 18  1  0  0  0
 17 22  1  0  0  0
 18 19  2  0  0  0
 18 32  1  0  0  0
 19 20  1  0  0  0
 19 33  1  0  0  0
 20 21  2  0  0  0
 20 34  1  0  0  0
 21 35  1  0  0  0
M  END
> <s_m_entry_id>
25764

> <s_m_entry_name>
dock_pv.416

> <s_m_Source_Path>
/home/csk/Desktop/cluster/DUD-E-result/pyrd

> <s_m_Source_File>
dock_pv.maegz

> <i_m_Source_File_Index>
416

> <chembl_id>
CHEMBL483552

> <chembl_pref_name>
None

> <i_lp_mmshare_version>
53161

> <r_lp_tautomer_probability>
0.995394628248396

> <s_lp_Force_Field>
OPLS_2005

> <r_lp_Energy>
24.336031

> <b_lp_Chiralities_Consistent>
1

> <s_lp_Variant>
CHEMBL1966_lig118-1

> <s_i_glide_gridfile>
glide-grid_1d3g

> <i_i_glide_lignum>
137

> <i_i_glide_rotatable_bonds>
5

> <r_i_docking_score>
-8.70258284424851

> <r_i_glide_ligand_efficiency>
-0.37837316714124

> <r_i_glide_ligand_efficiency_sa>
-1.07604295497019

> <r_i_glide_ligand_efficiency_ln>
-2.10436344239772

> <r_i_glide_gscore>
-8.70258284424851

> <r_i_glide_lipo>
-4.79916716540242

> <r_i_glide_hbond>
0

> <r_i_glide_metal>
0

> <r_i_glide_rewards>
-2.20941698667388

> <r_i_glide_evdw>
-43.6747207641602

> <r_i_glide_ecoul>
-0.942979454994202

> <r_i_glide_erotb>
0.631184264284931

> <r_i_glide_esite>
0

> <r_i_glide_emodel>
-61.4998477411015

> <r_i_glide_energy>
-44.6177002191544

> <r_i_glide_einternal>
8.68140411376953

> <i_i_glide_confnum>
22

> <i_i_glide_posenum>
141

> <r_i_glide_eff_state_penalty>
0

> <s_user_duplicate_titles>
CHEMBL1966_lig118,520607

> <i_f3d_flags>
0

> <s_m_subgroup_title>
dock_pv

> <s_m_subgroupid>
dock_pv

> <b_m_subgroup_collapsed>
1

$$$$
CHEMBL1966_lig524
                    3D
 Schrodinger Suite 2021-1.
 46 49  0  0  1  0            999 V2000
   45.1467   40.4101    0.3009 C   0  0  0  0  0  0
   45.7907   39.2100   -0.0949 O   0  0  0  0  0  0
   46.3504   39.2081   -1.3530 N   0  0  0  0  0  0
   47.6227   39.6091   -1.5366 C   0  0  0  0  0  0
   48.4197   39.8326   -0.6189 O   0  0  0  0  0  0
   47.8965   40.1329   -2.9254 C   0  0  0  0  0  0
   46.9506   39.9696   -3.9520 C   0  0  0  0  0  0
   46.9387   40.7354   -5.1067 C   0  0  0  0  0  0
   45.6764   40.7257   -5.9330 C   0  0  0  0  0  0
   47.9798   41.6114   -5.3883 C   0  0  0  0  0  0
   48.9572   41.8015   -4.4140 C   0  0  0  0  0  0
   49.9395   42.7435   -4.4095 N   0  0  0  0  0  0
   50.3937   42.7343   -3.1844 C   0  0  0  0  0  0
   49.8656   41.7131   -2.4257 N   0  0  0  0  0  0
   48.8947   41.0919   -3.1859 C   0  0  0  0  0  0
   51.3316   43.7756   -2.6975 C   0  0  0  0  0  0
   52.4976   44.0098   -3.4340 C   0  0  0  0  0  0
   52.8127   43.2159   -4.4898 F   0  0  0  0  0  0
   53.3934   45.0010   -3.0388 C   0  0  0  0  0  0
   54.5670   45.1377   -3.6991 F   0  0  0  0  0  0
   53.1345   45.8022   -1.9253 C   0  0  0  0  0  0
   51.9569   45.5857   -1.1935 C   0  0  0  0  0  0
   51.6843   46.3433   -0.1041 F   0  0  0  0  0  0
   51.0665   44.5675   -1.5683 C   0  0  0  0  0  0
   49.9406   44.3661   -0.8420 F   0  0  0  0  0  0
   54.1718   46.7785   -1.5134 C   0  0  0  0  0  0
   54.5506   47.8131   -2.3781 C   0  0  0  0  0  0
   55.6423   48.6212   -2.0715 C   0  0  0  0  0  0
   56.3586   48.3885   -0.9011 C   0  0  0  0  0  0
   55.9762   47.3734   -0.0275 C   0  0  0  0  0  0
   54.8734   46.5815   -0.3221 C   0  0  0  0  0  0
   44.8218   40.4099    1.3338 H   0  0  0  0  0  0
   44.2961   40.6593   -0.3347 H   0  0  0  0  0  0
   45.8630   41.2074    0.3010 H   0  0  0  0  0  0
   45.7308   38.8425   -2.0567 H   0  0  0  0  0  0
   46.1010   39.3168   -3.8082 H   0  0  0  0  0  0
   45.5930   41.6111   -6.5601 H   0  0  0  0  0  0
   45.6163   39.8008   -6.4994 H   0  0  0  0  0  0
   44.8030   40.7599   -5.2811 H   0  0  0  0  0  0
   47.9318   42.2862   -6.2207 H   0  0  0  0  0  0
   50.0883   41.5581   -1.4528 H   0  0  0  0  0  0
   54.0226   47.9663   -3.3088 H   0  0  0  0  0  0
   55.9490   49.4078   -2.7454 H   0  0  0  0  0  0
   57.2188   48.9995   -0.6665 H   0  0  0  0  0  0
   56.5388   47.1979    0.8781 H   0  0  0  0  0  0
   54.6034   45.7777    0.3490 H   0  0  0  0  0  0
  1  2  1  0  0  0
  1 32  1  0  0  0
  1 33  1  0  0  0
  1 34  1  0  0  0
  2  3  1  0  0  0
  3  4  1  0  0  0
  3 35  1  0  0  0
  4  5  2  0  0  0
  4  6  1  0  0  0
  6  7  2  0  0  0
  6 15  1  0  0  0
  7  8  1  0  0  0
  7 36  1  0  0  0
  8  9  1  0  0  0
  8 10  2  0  0  0
  9 37  1  0  0  0
  9 38  1  0  0  0
  9 39  1  0  0  0
 10 11  1  0  0  0
 10 40  1  0  0  0
 11 12  1  0  0  0
 11 15  2  0  0  0
 12 13  2  0  0  0
 13 14  1  0  0  0
 13 16  1  0  0  0
 14 15  1  0  0  0
 14 41  1  0  0  0
 16 17  2  0  0  0
 16 24  1  0  0  0
 17 18  1  0  0  0
 17 19  1  0  0  0
 19 20  1  0  0  0
 19 21  2  0  0  0
 21 22  1  0  0  0
 21 26  1  0  0  0
 22 23  1  0  0  0
 22 24  2  0  0  0
 24 25  1  0  0  0
 26 27  2  0  0  0
 26 31  1  0  0  0
 27 28  1  0  0  0
 27 42  1  0  0  0
 28 29  2  0  0  0
 28 43  1  0  0  0
 29 30  1  0  0  0
 29 44  1  0  0  0
 30 31  2  0  0  0
 30 45  1  0  0  0
 31 46  1  0  0  0
M  END
> <s_m_entry_id>
25765

> <s_m_entry_name>
dock_pv.417

> <s_m_Source_Path>
/home/csk/Desktop/cluster/DUD-E-result/pyrd

> <s_m_Source_File>
dock_pv.maegz

> <i_m_Source_File_Index>
417

> <chembl_id>
CHEMBL3677783

> <chembl_pref_name>
None

> <i_lp_mmshare_version>
53161

> <r_lp_tautomer_probability>
1

> <s_lp_Force_Field>
OPLS_2005

> <r_lp_Energy>
29.1165

> <b_lp_Chiralities_Consistent>
1

> <s_lp_Variant>
CHEMBL1966_lig524-1

> <s_i_glide_gridfile>
glide-grid_1d3g

> <i_i_glide_lignum>
577

> <i_i_glide_rotatable_bonds>
5

> <r_i_docking_score>
-8.70083490979653

> <r_i_glide_ligand_efficiency>
-0.280672093864404

> <r_i_glide_ligand_efficiency_sa>
-0.881697884322574

> <r_i_glide_ligand_efficiency_ln>
-1.96230492072582

> <r_i_glide_gscore>
-8.70083490979653

> <r_i_glide_lipo>
-4.66194996747959

> <r_i_glide_hbond>
0

> <r_i_glide_metal>
0

> <r_i_glide_rewards>
-3.08667360391961

> <r_i_glide_evdw>
-26.8877773284912

> <r_i_glide_ecoul>
-0.16416734457016

> <r_i_glide_erotb>
0.431162048403894

> <r_i_glide_esite>
-0.0143594186911359

> <r_i_glide_emodel>
-68.0185776454128

> <r_i_glide_energy>
-27.0519446730614

> <r_i_glide_einternal>
8.37757015228271

> <i_i_glide_confnum>
39

> <i_i_glide_posenum>
50

> <r_i_glide_eff_state_penalty>
0

> <s_user_duplicate_titles>
CHEMBL1966_lig524

> <i_f3d_flags>
0

> <s_m_subgroup_title>
dock_pv

> <s_m_subgroupid>
dock_pv

> <b_m_subgroup_collapsed>
1

$$$$
CHEMBL1966_lig97
                    3D
 Schrodinger Suite 2021-1.
 32 34  0  0  1  0            999 V2000
   47.3197   38.9935   -1.7883 C   0  0  0  0  0  0
   47.8939   39.3935   -0.5955 C   0  0  0  0  0  0
   48.8410   40.4100   -0.5572 C   0  0  0  0  0  0
   47.6802   39.6103   -2.9786 C   0  0  0  0  0  0
   48.6223   40.6892   -2.9933 C   0  0  0  0  0  0
   49.2230   41.0625   -1.7512 C   0  0  0  0  0  0
   50.1039   42.0869   -1.6419 N   0  0  0  0  0  0
   50.3992   42.8324   -2.7331 C   0  0  0  0  0  0
   49.8440   42.5635   -3.9913 C   0  0  0  0  0  0
   48.9779   41.4620   -4.1514 C   0  0  0  0  0  0
   51.3188   43.9785   -2.4639 C   0  0  0  0  0  0
   52.4230   44.2106   -3.2990 C   0  0  0  0  0  0
   53.3206   45.2380   -3.0155 C   0  0  0  0  0  0
   53.1154   46.0505   -1.9037 C   0  0  0  0  0  0
   52.0184   45.8453   -1.0722 C   0  0  0  0  0  0
   51.1273   44.8100   -1.3467 C   0  0  0  0  0  0
   48.3982   41.1426   -5.5051 C   0  0  0  0  0  0
   49.3201   41.2100   -6.4990 O   0  0  0  0  0  0
   47.2270   40.8275   -5.6990 O   0  0  0  0  0  0
   50.1004   43.4192   -5.0400 O   0  0  0  0  0  0
   53.9986   47.0578   -1.6238 O   0  0  0  0  0  0
   46.3945   38.0100   -1.7812 F   0  0  0  0  0  0
   47.5957   38.8868    0.3010 H   0  0  0  0  0  0
   49.2850   40.7046    0.3828 H   0  0  0  0  0  0
   47.2047   39.2692   -3.8828 H   0  0  0  0  0  0
   52.6037   43.5711   -4.1503 H   0  0  0  0  0  0
   54.1711   45.3949   -3.6620 H   0  0  0  0  0  0
   51.8626   46.4793   -0.2118 H   0  0  0  0  0  0
   50.2835   44.6555   -0.6893 H   0  0  0  0  0  0
   50.1241   41.6304   -6.1775 H   0  0  0  0  0  0
   49.2965   43.8391   -5.3700 H   0  0  0  0  0  0
   54.7142   47.1123   -2.2602 H   0  0  0  0  0  0
  1  2  2  0  0  0
  1  4  1  0  0  0
  1 22  1  0  0  0
  2  3  1  0  0  0
  2 23  1  0  0  0
  3  6  2  0  0  0
  3 24  1  0  0  0
  4  5  2  0  0  0
  4 25  1  0  0  0
  5  6  1  0  0  0
  5 10  1  0  0  0
  6  7  1  0  0  0
  7  8  2  0  0  0
  8 11  1  0  0  0
  8  9  1  0  0  0
  9 20  1  0  0  0
  9 10  2  0  0  0
 10 17  1  0  0  0
 11 12  2  0  0  0
 11 16  1  0  0  0
 12 13  1  0  0  0
 12 26  1  0  0  0
 13 14  2  0  0  0
 13 27  1  0  0  0
 14 15  1  0  0  0
 14 21  1  0  0  0
 15 16  2  0  0  0
 15 28  1  0  0  0
 16 29  1  0  0  0
 17 18  1  0  0  0
 17 19  2  0  0  0
 18 30  1  0  0  0
 20 31  1  0  0  0
 21 32  1  0  0  0
M  END
> <s_m_entry_id>
25766

> <s_m_entry_name>
dock_pv.418

> <s_m_Source_Path>
/home/csk/Desktop/cluster/DUD-E-result/pyrd

> <s_m_Source_File>
dock_pv.maegz

> <i_m_Source_File_Index>
418

> <chembl_id>
CHEMBL219489

> <chembl_pref_name>
None

> <i_lp_mmshare_version>
53161

> <r_lp_tautomer_probability>
0.999999999997365

> <s_lp_Force_Field>
OPLS_2005

> <r_lp_Energy>
25.045935

> <b_lp_Chiralities_Consistent>
1

> <s_lp_Variant>
CHEMBL1966_lig97-1

> <s_i_glide_gridfile>
glide-grid_1d3g

> <i_i_glide_lignum>
106

> <i_i_glide_rotatable_bonds>
5

> <r_i_docking_score>
-8.69315315510093

> <r_i_glide_ligand_efficiency>
-0.395143325231861

> <r_i_glide_ligand_efficiency_sa>
-1.10720713740482

> <r_i_glide_ligand_efficiency_ln>
-2.12492372157242

> <r_i_glide_gscore>
-8.69315315510093

> <r_i_glide_lipo>
-4.37478193738227

> <r_i_glide_hbond>
-0.099884610377764

> <r_i_glide_metal>
0

> <r_i_glide_rewards>
-2.11541281776207

> <r_i_glide_evdw>
-31.115364074707

> <r_i_glide_ecoul>
-6.38282251358032

> <r_i_glide_erotb>
0.41011779119357

> <r_i_glide_esite>
0

> <r_i_glide_emodel>
-55.7395372901163

> <r_i_glide_energy>
-37.4981865882874

> <r_i_glide_einternal>
2.04958057403564

> <i_i_glide_confnum>
7

> <i_i_glide_posenum>
97

> <r_i_glide_eff_state_penalty>
0

> <s_user_duplicate_titles>
CHEMBL1966_lig97

> <i_f3d_flags>
0

> <s_m_subgroup_title>
dock_pv

> <s_m_subgroupid>
dock_pv

> <b_m_subgroup_collapsed>
1

$$$$
CHEMBL1966_lig51
                    3D
 Schrodinger Suite 2021-1.
 33 35  0  0  1  0            999 V2000
   49.7539   41.6765   -2.3030 C   0  0  0  0  0  0
   48.7434   40.7498   -2.4989 C   0  0  0  0  0  0
   50.0061   41.6099   -0.9577 N   0  0  0  0  0  0
   49.2292   40.7466   -0.2969 N   0  0  0  0  0  0
   53.9810   46.7477   -1.6532 C   0  0  0  0  0  0
   48.4579   40.2136   -1.2197 C   0  0  0  0  0  0
   50.4278   42.5137   -3.1560 N   0  0  0  0  0  0
   48.0330   40.3661   -3.7112 C   0  0  0  0  0  0
   52.9674   45.6794   -2.0626 C   0  0  0  0  0  0
   48.4215   40.6205   -4.8521 O   0  0  0  0  0  0
   55.2164   46.2467   -1.7001 F   0  0  0  0  0  0
   53.7690   47.1938   -0.4147 F   0  0  0  0  0  0
   53.9058   47.7766   -2.4984 F   0  0  0  0  0  0
   51.2232   43.6105   -2.7961 C   0  0  0  0  0  0
   51.8187   45.4303   -1.2989 C   0  0  0  0  0  0
   53.2091   44.9257   -3.2147 C   0  0  0  0  0  0
   50.9489   44.4046   -1.6711 C   0  0  0  0  0  0
   52.3330   43.9070   -3.5892 C   0  0  0  0  0  0
   47.3832   39.1706   -0.9372 C   0  0  0  0  0  0
   46.7300   39.6105   -3.4168 C   0  0  0  0  0  0
   46.9020   38.5721   -2.2794 C   0  0  0  0  0  0
   50.7111   42.1619   -0.4940 H   0  0  0  0  0  0
   50.4368   42.3046   -4.1435 H   0  0  0  0  0  0
   51.5991   46.0164   -0.4183 H   0  0  0  0  0  0
   54.0923   45.1244   -3.8018 H   0  0  0  0  0  0
   50.0654   44.2333   -1.0754 H   0  0  0  0  0  0
   52.5519   43.3099   -4.4631 H   0  0  0  0  0  0
   47.7653   38.3782   -0.2917 H   0  0  0  0  0  0
   46.5366   39.6135   -0.4143 H   0  0  0  0  0  0
   46.3567   39.1863   -4.3451 H   0  0  0  0  0  0
   45.9932   40.3608   -3.1330 H   0  0  0  0  0  0
   47.6228   37.8173   -2.5938 H   0  0  0  0  0  0
   45.9673   38.0363   -2.1226 H   0  0  0  0  0  0
  1  2  2  0  0  0
  1  3  1  0  0  0
  1  7  1  0  0  0
  2  6  1  0  0  0
  2  8  1  0  0  0
  3  4  1  0  0  0
  3 22  1  0  0  0
  4  6  2  0  0  0
  5  9  1  0  0  0
  5 11  1  0  0  0
  5 12  1  0  0  0
  5 13  1  0  0  0
  6 19  1  0  0  0
  7 14  1  0  0  0
  7 23  1  0  0  0
  8 10  2  0  0  0
  8 20  1  0  0  0
  9 16  2  0  0  0
  9 15  1  0  0  0
 14 17  1  0  0  0
 14 18  2  0  0  0
 15 17  2  0  0  0
 15 24  1  0  0  0
 16 18  1  0  0  0
 16 25  1  0  0  0
 17 26  1  0  0  0
 18 27  1  0  0  0
 19 21  1  0  0  0
 19 28  1  0  0  0
 19 29  1  0  0  0
 20 21  1  0  0  0
 20 30  1  0  0  0
 20 31  1  0  0  0
 21 32  1  0  0  0
 21 33  1  0  0  0
M  END
> <s_m_entry_id>
25767

> <s_m_entry_name>
dock_pv.419

> <s_m_Source_Path>
/home/csk/Desktop/cluster/DUD-E-result/pyrd

> <s_m_Source_File>
dock_pv.maegz

> <i_m_Source_File_Index>
419

> <chembl_id>
CHEMBL418870

> <chembl_pref_name>
None

> <i_lp_mmshare_version>
53161

> <r_lp_tautomer_probability>
0.99995

> <s_lp_Force_Field>
OPLS_2005

> <r_lp_Energy>
21.292331

> <b_lp_Chiralities_Consistent>
1

> <s_lp_Variant>
CHEMBL1966_lig51-1

> <s_i_glide_gridfile>
glide-grid_1d3g

> <i_i_glide_lignum>
56

> <i_i_glide_rotatable_bonds>
3

> <r_i_docking_score>
-8.66207145930684

> <r_i_glide_ligand_efficiency>
-0.412479593300326

> <r_i_glide_ligand_efficiency_sa>
-1.13799992106523

> <r_i_glide_ligand_efficiency_ln>
-2.14167966495014

> <r_i_glide_gscore>
-8.66207145930684

> <r_i_glide_lipo>
-3.79606393755068

> <r_i_glide_hbond>
0

> <r_i_glide_metal>
0

> <r_i_glide_rewards>
-3.59277022802729

> <r_i_glide_evdw>
-31.4515781402588

> <r_i_glide_ecoul>
-0.803485810756683

> <r_i_glide_erotb>
0.41986448489757

> <r_i_glide_esite>
0

> <r_i_glide_emodel>
-45.9977383822763

> <r_i_glide_energy>
-32.2550639510155

> <r_i_glide_einternal>
3.56591320037842

> <i_i_glide_confnum>
8

> <i_i_glide_posenum>
123

> <r_i_glide_eff_state_penalty>
0

> <s_user_duplicate_titles>
CHEMBL1966_lig51

> <i_f3d_flags>
0

> <s_m_subgroup_title>
dock_pv

> <s_m_subgroupid>
dock_pv

> <b_m_subgroup_collapsed>
1

$$$$
CHEMBL1966_lig35
                    3D
 Schrodinger Suite 2021-1.
 44 46  0  0  1  0            999 V2000
   48.8530   41.0989   -2.9122 C   0  0  0  0  0  0
   49.6317   42.2850   -3.2847 C   0  0  0  0  0  0
   47.9708   40.4100   -3.7010 C   0  0  0  0  0  0
   50.3550   42.7991   -2.2670 N   0  0  0  0  0  0
   47.6538   40.7020   -5.0906 C   0  0  0  0  0  0
   51.2226   43.9004   -2.3252 C   0  0  0  0  0  0
   52.2299   44.0120   -3.2994 C   0  0  0  0  0  0
   53.1767   45.9349   -2.1509 C   0  0  0  0  0  0
   53.1835   45.0218   -3.2050 C   0  0  0  0  0  0
   49.6251   42.7932   -4.4047 O   0  0  0  0  0  0
   54.2683   46.9388   -2.0741 C   0  0  0  0  0  0
   48.4781   40.8099   -5.9955 O   0  0  0  0  0  0
   51.1965   44.8237   -1.2743 C   0  0  0  0  0  0
   52.1603   45.8360   -1.1911 C   0  0  0  0  0  0
   55.0193   47.0909   -0.9059 C   0  0  0  0  0  0
   54.6207   47.6773   -3.2094 C   0  0  0  0  0  0
   52.3266   43.1558   -4.3323 F   0  0  0  0  0  0
   46.3104   40.8102   -5.2978 O   0  0  0  0  0  0
   48.8946   40.4873   -1.5139 C   0  0  0  0  0  0
   47.2875   39.2888   -2.9263 C   0  0  0  0  0  0
   56.4922   48.6548   -2.0271 C   0  0  0  0  0  0
   55.7248   48.5229   -3.1922 C   0  0  0  0  0  0
   56.1260   47.9363   -0.8919 C   0  0  0  0  0  0
   57.6127   49.4536   -1.9164 O   0  0  0  0  0  0
   47.7469   39.4851   -1.4887 C   0  0  0  0  0  0
   58.1143   50.1119   -3.0738 C   0  0  0  0  0  0
   50.1553   42.4441   -1.3461 H   0  0  0  0  0  0
   53.9610   45.0835   -3.9485 H   0  0  0  0  0  0
   50.4445   44.7508   -0.5020 H   0  0  0  0  0  0
   52.1307   46.5281   -0.3624 H   0  0  0  0  0  0
   54.7774   46.5191   -0.0211 H   0  0  0  0  0  0
   54.0490   47.5763   -4.1217 H   0  0  0  0  0  0
   45.8145   40.7797   -4.4774 H   0  0  0  0  0  0
   48.8230   41.2031   -0.6938 H   0  0  0  0  0  0
   49.8555   40.0102   -1.3943 H   0  0  0  0  0  0
   47.6221   38.3236   -3.2994 H   0  0  0  0  0  0
   46.1987   39.3026   -2.9933 H   0  0  0  0  0  0
   55.9725   49.0641   -4.0916 H   0  0  0  0  0  0
   56.7306   48.0138   -0.0027 H   0  0  0  0  0  0
   46.9346   39.8628   -0.8691 H   0  0  0  0  0  0
   48.0232   38.5374   -1.0248 H   0  0  0  0  0  0
   59.0005   50.6864   -2.8043 H   0  0  0  0  0  0
   58.4059   49.3940   -3.8426 H   0  0  0  0  0  0
   57.3866   50.8066   -3.4941 H   0  0  0  0  0  0
  1  2  1  0  0  0
  1  3  2  0  0  0
  1 19  1  0  0  0
  2  4  1  0  0  0
  2 10  2  0  0  0
  3  5  1  0  0  0
  3 20  1  0  0  0
  4  6  1  0  0  0
  4 27  1  0  0  0
  5 12  2  0  0  0
  5 18  1  0  0  0
  6  7  1  0  0  0
  6 13  2  0  0  0
  7  9  2  0  0  0
  7 17  1  0  0  0
  8 14  2  0  0  0
  8 11  1  0  0  0
  8  9  1  0  0  0
  9 28  1  0  0  0
 11 15  1  0  0  0
 11 16  2  0  0  0
 13 14  1  0  0  0
 13 29  1  0  0  0
 14 30  1  0  0  0
 15 23  2  0  0  0
 15 31  1  0  0  0
 16 22  1  0  0  0
 16 32  1  0  0  0
 18 33  1  0  0  0
 19 25  1  0  0  0
 19 34  1  0  0  0
 19 35  1  0  0  0
 20 25  1  0  0  0
 20 36  1  0  0  0
 20 37  1  0  0  0
 21 22  2  0  0  0
 21 24  1  0  0  0
 21 23  1  0  0  0
 22 38  1  0  0  0
 23 39  1  0  0  0
 24 26  1  0  0  0
 25 40  1  0  0  0
 25 41  1  0  0  0
 26 42  1  0  0  0
 26 43  1  0  0  0
 26 44  1  0  0  0
M  END
> <s_m_entry_id>
25768

> <s_m_entry_name>
dock_pv.420

> <s_m_Source_Path>
/home/csk/Desktop/cluster/DUD-E-result/pyrd

> <s_m_Source_File>
dock_pv.maegz

> <i_m_Source_File_Index>
420

> <chembl_id>
CHEMBL347148

> <chembl_pref_name>
None

> <i_lp_mmshare_version>
53161

> <r_lp_tautomer_probability>
1

> <s_lp_Force_Field>
OPLS_2005

> <r_lp_Energy>
45.419972

> <b_lp_Chiralities_Consistent>
1

> <s_lp_Variant>
CHEMBL1966_lig35-1

> <s_i_glide_gridfile>
glide-grid_1d3g

> <i_i_glide_lignum>
39

> <i_i_glide_rotatable_bonds>
7

> <r_i_docking_score>
-8.66080692213251

> <r_i_glide_ligand_efficiency>
-0.333107958543558

> <r_i_glide_ligand_efficiency_sa>
-0.986831016468766

> <r_i_glide_ligand_efficiency_ln>
-2.0339620872374

> <r_i_glide_gscore>
-8.66080692213251

> <r_i_glide_lipo>
-4.89936150584813

> <r_i_glide_hbond>
-0.16

> <r_i_glide_metal>
0

> <r_i_glide_rewards>
-2.0978258765381

> <r_i_glide_evdw>
-40.1040077209473

> <r_i_glide_ecoul>
-1.70299899578094

> <r_i_glide_erotb>
0.75703069566822

> <r_i_glide_esite>
0

> <r_i_glide_emodel>
-55.510498114104

> <r_i_glide_energy>
-41.8070067167282

> <r_i_glide_einternal>
5.78782510757446

> <i_i_glide_confnum>
44

> <i_i_glide_posenum>
207

> <r_i_glide_eff_state_penalty>
0

> <s_user_duplicate_titles>
CHEMBL1966_lig35

> <i_f3d_flags>
0

> <s_m_subgroup_title>
dock_pv

> <s_m_subgroupid>
dock_pv

> <b_m_subgroup_collapsed>
1

$$$$
CHEMBL1966_lig749
                    3D
 Schrodinger Suite 2021-1.
 46 49  0  0  1  0            999 V2000
   53.4996   45.1840   -3.4472 N   0  0  0  0  0  0
   53.3709   46.3235   -0.8894 C   0  0  0  0  0  0
   52.5017   44.8100   -2.6085 C   0  0  0  0  0  0
   52.4230   45.3530   -1.3000 C   0  0  0  0  0  0
   54.3676   46.7706   -1.8185 C   0  0  0  0  0  0
   54.4253   46.1135   -3.0805 C   0  0  0  0  0  0
   53.4293   46.8086    0.5407 C   0  0  0  0  0  0
   51.6028   43.6795   -3.1552 C   0  0  0  0  0  0
   55.3268   47.8008   -1.5541 C   0  0  0  0  0  0
   49.5969   41.7863   -3.9683 C   0  0  0  0  0  0
   52.4464   47.2099    1.1593 O   0  0  0  0  0  0
   55.4980   46.4138   -3.9669 C   0  0  0  0  0  0
   51.2230   42.5803   -2.3736 C   0  0  0  0  0  0
   51.0247   43.6993   -4.4395 C   0  0  0  0  0  0
   50.0231   42.8066   -4.8297 C   0  0  0  0  0  0
   50.2602   41.6748   -2.7513 C   0  0  0  0  0  0
   48.4054   40.9192   -4.2414 C   0  0  0  0  0  0
   56.3297   48.1040   -2.4650 C   0  0  0  0  0  0
   54.6605   46.6776    1.1008 O   0  0  0  0  0  0
   51.3910   44.8101   -0.2974 C   0  0  0  0  0  0
   56.4265   47.4006   -3.6549 C   0  0  0  0  0  0
   57.2271   49.0740   -2.1801 F   0  0  0  0  0  0
   47.5238   41.2099   -5.2989 C   0  0  0  0  0  0
   48.0238   39.9199   -3.3229 C   0  0  0  0  0  0
   50.0078   45.1218   -0.7563 C   0  0  0  0  0  0
   46.2845   40.5819   -5.3691 C   0  0  0  0  0  0
   46.7949   39.2865   -3.3977 C   0  0  0  0  0  0
   45.9409   39.6098   -4.4390 C   0  0  0  0  0  0
   55.2996   48.3561   -0.6294 H   0  0  0  0  0  0
   55.6231   45.8710   -4.8907 H   0  0  0  0  0  0
   51.6228   42.3610   -1.4106 H   0  0  0  0  0  0
   51.2230   44.5046   -5.1234 H   0  0  0  0  0  0
   49.5642   42.9628   -5.7930 H   0  0  0  0  0  0
   50.0266   40.9231   -2.0184 H   0  0  0  0  0  0
   54.6393   46.8505    2.0482 H   0  0  0  0  0  0
   51.5290   43.7652   -0.0995 H   0  0  0  0  0  0
   51.4670   45.1830    0.7155 H   0  0  0  0  0  0
   57.2295   47.6251   -4.3417 H   0  0  0  0  0  0
   47.7230   42.0008   -6.0047 H   0  0  0  0  0  0
   48.6441   39.6103   -2.5005 H   0  0  0  0  0  0
   49.2564   44.8100   -0.0291 H   0  0  0  0  0  0
   50.0231   46.1962   -0.8990 H   0  0  0  0  0  0
   49.7366   44.6695   -1.6991 H   0  0  0  0  0  0
   45.5767   40.8646   -6.1294 H   0  0  0  0  0  0
   46.5206   38.5329   -2.6741 H   0  0  0  0  0  0
   44.9922   39.1024   -4.5190 H   0  0  0  0  0  0
  1  3  2  0  0  0
  1  6  1  0  0  0
  2  5  1  0  0  0
  2  7  1  0  0  0
  2  4  2  0  0  0
  3  4  1  0  0  0
  3  8  1  0  0  0
  4 20  1  0  0  0
  5  6  1  0  0  0
  5  9  2  0  0  0
  6 12  2  0  0  0
  7 11  2  0  0  0
  7 19  1  0  0  0
  8 13  2  0  0  0
  8 14  1  0  0  0
  9 18  1  0  0  0
  9 29  1  0  0  0
 10 15  1  0  0  0
 10 17  1  0  0  0
 10 16  2  0  0  0
 12 21  1  0  0  0
 12 30  1  0  0  0
 13 16  1  0  0  0
 13 31  1  0  0  0
 14 15  2  0  0  0
 14 32  1  0  0  0
 15 33  1  0  0  0
 16 34  1  0  0  0
 17 23  1  0  0  0
 17 24  2  0  0  0
 18 21  2  0  0  0
 18 22  1  0  0  0
 19 35  1  0  0  0
 20 25  1  0  0  0
 20 36  1  0  0  0
 20 37  1  0  0  0
 21 38  1  0  0  0
 23 26  2  0  0  0
 23 39  1  0  0  0
 24 27  1  0  0  0
 24 40  1  0  0  0
 25 41  1  0  0  0
 25 42  1  0  0  0
 25 43  1  0  0  0
 26 28  1  0  0  0
 26 44  1  0  0  0
 27 28  2  0  0  0
 27 45  1  0  0  0
 28 46  1  0  0  0
M  END
> <s_m_entry_id>
25769

> <s_m_entry_name>
dock_pv.421

> <s_m_Source_Path>
/home/csk/Desktop/cluster/DUD-E-result/pyrd

> <s_m_Source_File>
dock_pv.maegz

> <i_m_Source_File_Index>
421

> <chembl_id>
CHEMBL36047

> <chembl_pref_name>
None

> <i_lp_mmshare_version>
53161

> <r_lp_tautomer_probability>
1

> <s_lp_Force_Field>
OPLS_2005

> <r_lp_Energy>
32.42006

> <b_lp_Chiralities_Consistent>
1

> <s_lp_Variant>
CHEMBL1966_lig749-1

> <s_i_glide_gridfile>
glide-grid_1d3g

> <i_i_glide_lignum>
820

> <i_i_glide_rotatable_bonds>
5

> <r_i_docking_score>
-8.65806505987414

> <r_i_glide_ligand_efficiency>
-0.309216609281219

> <r_i_glide_ligand_efficiency_sa>
-0.938963744621197

> <r_i_glide_ligand_efficiency_ln>
-1.9985356276553

> <r_i_glide_gscore>
-8.65806505987414

> <r_i_glide_lipo>
-5.46017570906455

> <r_i_glide_hbond>
0

> <r_i_glide_metal>
0

> <r_i_glide_rewards>
-2.18436601034242

> <r_i_glide_evdw>
-21.8146896362305

> <r_i_glide_ecoul>
-2.28396344184875

> <r_i_glide_erotb>
0.419805657621662

> <r_i_glide_esite>
0

> <r_i_glide_emodel>
-34.8443890056195

> <r_i_glide_energy>
-24.0986530780792

> <r_i_glide_einternal>
8.62715435028076

> <i_i_glide_confnum>
18

> <i_i_glide_posenum>
281

> <r_i_glide_eff_state_penalty>
0

> <s_user_duplicate_titles>
CHEMBL1966_lig749,55934

> <i_f3d_flags>
0

> <s_m_subgroup_title>
dock_pv

> <s_m_subgroupid>
dock_pv

> <b_m_subgroup_collapsed>
1

$$$$
CHEMBL1966_lig309
                    3D
 Schrodinger Suite 2021-1.
 39 41  0  0  1  0            999 V2000
   45.6109   40.0101   -5.3967 C   0  0  0  0  0  0
   46.6590   40.8627   -5.6923 C   0  0  0  0  0  0
   47.7968   40.8101   -4.9171 C   0  0  0  0  0  0
   47.8235   40.0295   -3.7572 C   0  0  0  0  0  0
   46.7006   39.2677   -3.3696 C   0  0  0  0  0  0
   45.6241   39.2104   -4.2581 C   0  0  0  0  0  0
   46.5834   38.5939   -2.0254 C   0  0  0  0  0  0
   47.6231   37.7780   -1.6991 O   0  0  0  0  0  0
   45.6230   38.7974   -1.2941 O   0  0  0  0  0  0
   48.9838   40.2430   -2.9605 C   0  0  0  0  0  0
   48.8473   40.8100   -1.8524 N   0  0  0  0  0  0
   49.9203   41.5150   -1.3347 N   0  0  0  0  0  0
   50.4430   42.6614   -1.9277 C   0  0  0  0  0  0
   50.8231   43.7305   -1.2823 N   0  0  0  0  0  0
   51.6426   44.4928   -1.9934 C   0  0  0  0  0  0
   51.8318   44.0101   -3.2997 C   0  0  0  0  0  0
   50.8085   42.7007   -3.6259 S   0  0  0  0  0  0
   52.4362   45.5924   -1.2858 C   0  0  0  0  0  0
   52.0213   45.9529    0.0113 C   0  0  0  0  0  0
   52.8611   46.6410    0.8818 C   0  0  0  0  0  0
   54.1243   47.0356    0.4563 C   0  0  0  0  0  0
   54.5102   46.8081   -0.8575 C   0  0  0  0  0  0
   53.6859   46.0953   -1.7298 C   0  0  0  0  0  0
   54.3500   45.8098   -3.2997 Cl  0  0  0  0  0  0
   50.0208   41.2882    0.0934 C   0  0  0  0  0  0
   44.7720   39.9564   -6.0599 H   0  0  0  0  0  0
   46.6012   41.5729   -6.4987 H   0  0  0  0  0  0
   48.6143   41.4676   -5.1815 H   0  0  0  0  0  0
   44.8187   38.5275   -4.0823 H   0  0  0  0  0  0
   48.2804   37.7439   -2.4027 H   0  0  0  0  0  0
   49.9445   40.0041   -3.4115 H   0  0  0  0  0  0
   52.4396   44.3967   -4.0979 H   0  0  0  0  0  0
   51.0770   45.6065    0.4020 H   0  0  0  0  0  0
   52.5409   46.8455    1.8940 H   0  0  0  0  0  0
   54.7855   47.5583    1.1332 H   0  0  0  0  0  0
   55.4774   47.1547   -1.1915 H   0  0  0  0  0  0
   51.0810   41.2099    0.3221 H   0  0  0  0  0  0
   49.5704   42.1103    0.6497 H   0  0  0  0  0  0
   49.5483   40.3595    0.4182 H   0  0  0  0  0  0
  1  2  2  0  0  0
  1  6  1  0  0  0
  1 26  1  0  0  0
  2  3  1  0  0  0
  2 27  1  0  0  0
  3  4  2  0  0  0
  3 28  1  0  0  0
  4  5  1  0  0  0
  4 10  1  0  0  0
  5  6  2  0  0  0
  5  7  1  0  0  0
  6 29  1  0  0  0
  7  8  1  0  0  0
  7  9  2  0  0  0
  8 30  1  0  0  0
 10 11  2  0  0  0
 10 31  1  0  0  0
 11 12  1  0  0  0
 12 13  1  0  0  0
 12 25  1  0  0  0
 13 14  2  0  0  0
 13 17  1  0  0  0
 14 15  1  0  0  0
 15 16  2  0  0  0
 15 18  1  0  0  0
 16 17  1  0  0  0
 16 32  1  0  0  0
 18 19  2  0  0  0
 18 23  1  0  0  0
 19 20  1  0  0  0
 19 33  1  0  0  0
 20 21  2  0  0  0
 20 34  1  0  0  0
 21 22  1  0  0  0
 21 35  1  0  0  0
 22 23  2  0  0  0
 22 36  1  0  0  0
 23 24  1  0  0  0
 25 37  1  0  0  0
 25 38  1  0  0  0
 25 39  1  0  0  0
M  END
> <s_m_entry_id>
25770

> <s_m_entry_name>
dock_pv.422

> <s_m_Source_Path>
/home/csk/Desktop/cluster/DUD-E-result/pyrd

> <s_m_Source_File>
dock_pv.maegz

> <i_m_Source_File_Index>
422

> <chembl_id>
CHEMBL3980486

> <chembl_pref_name>
None

> <i_lp_mmshare_version>
53161

> <r_lp_tautomer_probability>
1

> <s_lp_Force_Field>
OPLS_2005

> <r_lp_Energy>
34.290694

> <b_lp_Chiralities_Consistent>
1

> <s_lp_Variant>
CHEMBL1966_lig309-1

> <s_i_glide_gridfile>
glide-grid_1d3g

> <i_i_glide_lignum>
356

> <i_i_glide_rotatable_bonds>
6

> <r_i_docking_score>
-8.65801272606991

> <r_i_glide_ligand_efficiency>
-0.346320509042796

> <r_i_glide_ligand_efficiency_sa>
-1.01264731046152

> <r_i_glide_ligand_efficiency_ln>
-2.05220847578286

> <r_i_glide_gscore>
-8.65801272606991

> <r_i_glide_lipo>
-4.60126141097744

> <r_i_glide_hbond>
0

> <r_i_glide_metal>
0

> <r_i_glide_rewards>
-2.7803846870644

> <r_i_glide_evdw>
-29.8446407318115

> <r_i_glide_ecoul>
-3.21559119224548

> <r_i_glide_erotb>
0.698204087399336

> <r_i_glide_esite>
0

> <r_i_glide_emodel>
-54.7097282394939

> <r_i_glide_energy>
-33.060231924057

> <r_i_glide_einternal>
10.718897819519

> <i_i_glide_confnum>
136

> <i_i_glide_posenum>
241

> <r_i_glide_eff_state_penalty>
0

> <s_user_duplicate_titles>
CHEMBL1966_lig309

> <i_f3d_flags>
0

> <s_m_subgroup_title>
dock_pv

> <s_m_subgroupid>
dock_pv

> <b_m_subgroup_collapsed>
1

$$$$
CHEMBL1966_lig365
                    3D
 Schrodinger Suite 2021-1.
 38 39  0  0  1  0            999 V2000
   49.9516   42.1483   -3.0738 C   0  0  0  0  0  0
   50.0601   42.7367   -4.4184 C   0  0  0  0  0  0
   49.2132   42.2041   -5.3290 N   0  0  0  0  0  0
   48.3699   41.1489   -5.2053 C   0  0  0  0  0  0
   48.4229   40.5527   -3.9853 N   0  0  0  0  0  0
   49.1189   41.0645   -2.9091 C   0  0  0  0  0  0
   48.8230   40.4100   -1.6285 C   0  0  0  0  0  0
   47.9272   39.3803   -1.7104 O   0  0  0  0  0  0
   49.2586   40.7730   -0.5390 O   0  0  0  0  0  0
   47.6063   40.8100   -6.0990 O   0  0  0  0  0  0
   50.8468   43.6100   -4.7689 O   0  0  0  0  0  0
   50.8488   42.8351   -2.0255 C   0  0  0  0  0  0
   50.3776   44.2404   -1.5753 C   0  0  0  0  0  0
   51.4577   45.0829   -0.9081 C   0  0  0  0  0  0
   52.4819   45.6676   -1.6641 C   0  0  0  0  0  0
   53.5032   46.4100   -1.0465 C   0  0  0  0  0  0
   53.4645   46.5745    0.3484 C   0  0  0  0  0  0
   52.4388   46.0100    1.1010 C   0  0  0  0  0  0
   51.4490   45.2558    0.4752 C   0  0  0  0  0  0
   54.6043   47.0261   -1.8794 C   0  0  0  0  0  0
   55.7748   47.2335   -1.2493 N   0  0  0  0  0  0
   54.4230   47.2933   -3.0683 O   0  0  0  0  0  0
   56.9599   47.8213   -1.8634 C   0  0  0  0  0  0
   49.2176   42.6600   -6.2279 H   0  0  0  0  0  0
   47.8445   39.7326   -3.8638 H   0  0  0  0  0  0
   47.7649   39.0251   -0.8326 H   0  0  0  0  0  0
   51.8269   42.9316   -2.4990 H   0  0  0  0  0  0
   51.0462   42.2095   -1.1590 H   0  0  0  0  0  0
   49.5174   44.1485   -0.9086 H   0  0  0  0  0  0
   50.0230   44.8100   -2.4309 H   0  0  0  0  0  0
   52.4920   45.5210   -2.7357 H   0  0  0  0  0  0
   54.2167   47.1513    0.8678 H   0  0  0  0  0  0
   52.4230   46.1365    2.1730 H   0  0  0  0  0  0
   50.6706   44.8100    1.0760 H   0  0  0  0  0  0
   55.8629   46.9277   -0.2929 H   0  0  0  0  0  0
   57.5067   48.4101   -1.1263 H   0  0  0  0  0  0
   56.7111   48.4779   -2.6987 H   0  0  0  0  0  0
   57.6224   47.0363   -2.2293 H   0  0  0  0  0  0
  1  2  1  0  0  0
  1  6  2  0  0  0
  1 12  1  0  0  0
  2  3  1  0  0  0
  2 11  2  0  0  0
  3  4  1  0  0  0
  3 24  1  0  0  0
  4  5  1  0  0  0
  4 10  2  0  0  0
  5  6  1  0  0  0
  5 25  1  0  0  0
  6  7  1  0  0  0
  7  8  1  0  0  0
  7  9  2  0  0  0
  8 26  1  0  0  0
 12 13  1  0  0  0
 12 27  1  0  0  0
 12 28  1  0  0  0
 13 14  1  0  0  0
 13 29  1  0  0  0
 13 30  1  0  0  0
 14 15  2  0  0  0
 14 19  1  0  0  0
 15 16  1  0  0  0
 15 31  1  0  0  0
 16 17  2  0  0  0
 16 20  1  0  0  0
 17 18  1  0  0  0
 17 32  1  0  0  0
 18 19  2  0  0  0
 18 33  1  0  0  0
 19 34  1  0  0  0
 20 21  1  0  0  0
 20 22  2  0  0  0
 21 23  1  0  0  0
 21 35  1  0  0  0
 23 36  1  0  0  0
 23 37  1  0  0  0
 23 38  1  0  0  0
M  END
> <s_m_entry_id>
25771

> <s_m_entry_name>
dock_pv.423

> <s_m_Source_Path>
/home/csk/Desktop/cluster/DUD-E-result/pyrd

> <s_m_Source_File>
dock_pv.maegz

> <i_m_Source_File_Index>
423

> <chembl_id>
CHEMBL3938116

> <chembl_pref_name>
None

> <i_lp_mmshare_version>
53161

> <r_lp_tautomer_probability>
1

> <s_lp_Force_Field>
OPLS_2005

> <r_lp_Energy>
14.227962

> <b_lp_Chiralities_Consistent>
1

> <s_lp_Variant>
CHEMBL1966_lig365-1

> <s_i_glide_gridfile>
glide-grid_1d3g

> <i_i_glide_lignum>
415

> <i_i_glide_rotatable_bonds>
7

> <r_i_docking_score>
-8.65020146732663

> <r_i_glide_ligand_efficiency>
-0.376095715970723

> <r_i_glide_ligand_efficiency_sa>
-1.0695661867949

> <r_i_glide_ligand_efficiency_ln>
-2.09169715048994

> <r_i_glide_gscore>
-8.65020146732663

> <r_i_glide_lipo>
-3.5984905600595

> <r_i_glide_hbond>
-0.268899796998308

> <r_i_glide_metal>
0

> <r_i_glide_rewards>
-2.84501533818848

> <r_i_glide_evdw>
-42.4582214355469

> <r_i_glide_ecoul>
-4.93375539779663

> <r_i_glide_erotb>
0.925178609366502

> <r_i_glide_esite>
0

> <r_i_glide_emodel>
-71.2241307527593

> <r_i_glide_energy>
-47.3919768333435

> <r_i_glide_einternal>
0.956758618354797

> <i_i_glide_confnum>
1

> <i_i_glide_posenum>
248

> <r_i_glide_eff_state_penalty>
0

> <s_user_duplicate_titles>
CHEMBL1966_lig365

> <i_f3d_flags>
0

> <s_m_subgroup_title>
dock_pv

> <s_m_subgroupid>
dock_pv

> <b_m_subgroup_collapsed>
1

$$$$
CHEMBL1966_lig392
                    3D
 Schrodinger Suite 2021-1.
 44 46  0  0  1  0            999 V2000
   56.4725   47.4367   -2.1535 C   0  0  0  0  0  0
   56.7626   48.8545   -1.8918 C   0  0  0  0  0  0
   57.4706   49.4593   -2.8813 N   0  0  0  0  0  0
   57.9824   48.9288   -4.0267 C   0  0  0  0  0  0
   57.8112   47.5833   -4.1328 N   0  0  0  0  0  0
   57.0492   46.8546   -3.2496 C   0  0  0  0  0  0
   56.8524   45.4685   -3.6290 C   0  0  0  0  0  0
   58.0230   44.8162   -3.8812 O   0  0  0  0  0  0
   55.7595   44.9195   -3.6988 O   0  0  0  0  0  0
   58.5042   49.6100   -4.8990 O   0  0  0  0  0  0
   56.4230   49.4927   -0.8990 O   0  0  0  0  0  0
   55.5053   46.7584   -1.1709 C   0  0  0  0  0  0
   54.0570   47.2934   -1.2929 C   0  0  0  0  0  0
   52.9871   46.2151   -1.3035 C   0  0  0  0  0  0
   52.1632   46.0100   -0.1969 C   0  0  0  0  0  0
   51.2089   44.9924   -0.2010 C   0  0  0  0  0  0
   52.8230   45.4403   -2.4494 C   0  0  0  0  0  0
   51.8490   44.4100   -2.4870 C   0  0  0  0  0  0
   51.0478   44.1520   -1.3327 C   0  0  0  0  0  0
   50.1667   43.0295   -1.3328 C   0  0  0  0  0  0
   50.0573   42.1965   -2.4614 C   0  0  0  0  0  0
   50.7755   42.5438   -3.6068 C   0  0  0  0  0  0
   51.6714   43.6044   -3.6261 C   0  0  0  0  0  0
   49.1845   40.9527   -2.4990 C   0  0  0  0  0  0
   48.8233   40.4770   -3.5779 O   0  0  0  0  0  0
   48.8230   40.4100   -1.3194 N   0  0  0  0  0  0
   47.9272   39.2683   -1.1635 C   0  0  0  0  0  0
   57.6158   50.4499   -2.7585 H   0  0  0  0  0  0
   58.1855   47.1689   -4.9746 H   0  0  0  0  0  0
   58.7975   45.3047   -3.5917 H   0  0  0  0  0  0
   55.8672   46.9026   -0.1508 H   0  0  0  0  0  0
   55.5193   45.6773   -1.3005 H   0  0  0  0  0  0
   53.9319   47.8672   -2.2137 H   0  0  0  0  0  0
   53.8707   48.0100   -0.4990 H   0  0  0  0  0  0
   52.2799   46.6209    0.6869 H   0  0  0  0  0  0
   50.6090   44.8100    0.6792 H   0  0  0  0  0  0
   53.4266   45.6235   -3.3253 H   0  0  0  0  0  0
   49.6037   42.8266   -0.4339 H   0  0  0  0  0  0
   50.6692   41.9530   -4.4990 H   0  0  0  0  0  0
   52.2700   43.7946   -4.4990 H   0  0  0  0  0  0
   49.1917   40.8138   -0.4732 H   0  0  0  0  0  0
   48.1487   38.7427   -0.2341 H   0  0  0  0  0  0
   48.0230   38.5567   -1.9859 H   0  0  0  0  0  0
   46.8911   39.6031   -1.1189 H   0  0  0  0  0  0
  1  2  1  0  0  0
  1  6  2  0  0  0
  1 12  1  0  0  0
  2  3  1  0  0  0
  2 11  2  0  0  0
  3  4  1  0  0  0
  3 28  1  0  0  0
  4  5  1  0  0  0
  4 10  2  0  0  0
  5  6  1  0  0  0
  5 29  1  0  0  0
  6  7  1  0  0  0
  7  8  1  0  0  0
  7  9  2  0  0  0
  8 30  1  0  0  0
 12 13  1  0  0  0
 12 31  1  0  0  0
 12 32  1  0  0  0
 13 14  1  0  0  0
 13 33  1  0  0  0
 13 34  1  0  0  0
 14 15  2  0  0  0
 14 17  1  0  0  0
 15 16  1  0  0  0
 15 35  1  0  0  0
 16 19  2  0  0  0
 16 36  1  0  0  0
 17 18  2  0  0  0
 17 37  1  0  0  0
 18 19  1  0  0  0
 18 23  1  0  0  0
 19 20  1  0  0  0
 20 21  2  0  0  0
 20 38  1  0  0  0
 21 22  1  0  0  0
 21 24  1  0  0  0
 22 23  2  0  0  0
 22 39  1  0  0  0
 23 40  1  0  0  0
 24 25  2  0  0  0
 24 26  1  0  0  0
 26 27  1  0  0  0
 26 41  1  0  0  0
 27 42  1  0  0  0
 27 43  1  0  0  0
 27 44  1  0  0  0
M  END
> <s_m_entry_id>
25772

> <s_m_entry_name>
dock_pv.424

> <s_m_Source_Path>
/home/csk/Desktop/cluster/DUD-E-result/pyrd

> <s_m_Source_File>
dock_pv.maegz

> <i_m_Source_File_Index>
424

> <chembl_id>
CHEMBL3950984

> <chembl_pref_name>
None

> <i_lp_mmshare_version>
53161

> <r_lp_tautomer_probability>
1

> <s_lp_Force_Field>
OPLS_2005

> <r_lp_Energy>
19.109778

> <b_lp_Chiralities_Consistent>
1

> <s_lp_Variant>
CHEMBL1966_lig392-1

> <s_i_glide_gridfile>
glide-grid_1d3g

> <i_i_glide_lignum>
442

> <i_i_glide_rotatable_bonds>
7

> <r_i_docking_score>
-8.63344320067889

> <r_i_glide_ligand_efficiency>
-0.3197571555807

> <r_i_glide_ligand_efficiency_sa>
-0.959271465688232

> <r_i_glide_ligand_efficiency_ln>
-2.00972324368292

> <r_i_glide_gscore>
-8.63344320067889

> <r_i_glide_lipo>
-4.64723554630771

> <r_i_glide_hbond>
0

> <r_i_glide_metal>
0

> <r_i_glide_rewards>
-2.13766962570169

> <r_i_glide_evdw>
-42.5464935302734

> <r_i_glide_ecoul>
-2.89818167686462

> <r_i_glide_erotb>
0.713513899373875

> <r_i_glide_esite>
0

> <r_i_glide_emodel>
-63.1354114808193

> <r_i_glide_energy>
-45.4446752071381

> <r_i_glide_einternal>
5.04361581802368

> <i_i_glide_confnum>
52

> <i_i_glide_posenum>
123

> <r_i_glide_eff_state_penalty>
0

> <s_user_duplicate_titles>
CHEMBL1966_lig392

> <i_f3d_flags>
0

> <s_m_subgroup_title>
dock_pv

> <s_m_subgroupid>
dock_pv

> <b_m_subgroup_collapsed>
1

$$$$
CHEMBL1966_lig608
                    3D
 Schrodinger Suite 2021-1.
 45 48  0  0  1  0            999 V2000
   46.4790   40.8001   -5.6815 C   0  0  0  0  0  0
   46.0060   39.7561   -4.9005 C   0  0  0  0  0  0
   46.6133   39.4551   -3.6991 C   0  0  0  0  0  0
   47.7140   41.3736   -5.4196 C   0  0  0  0  0  0
   48.3924   41.0395   -4.2287 C   0  0  0  0  0  0
   47.8000   40.1223   -3.3073 C   0  0  0  0  0  0
   48.3482   40.0284   -1.9976 C   0  0  0  0  0  0
   49.3260   40.9885   -1.6275 C   0  0  0  0  0  0
   49.8277   41.8740   -2.6166 C   0  0  0  0  0  0
   49.4373   41.8146   -3.9061 N   0  0  0  0  0  0
   50.7076   43.0654   -2.3988 C   0  0  0  0  0  0
   51.7452   43.3525   -3.2988 C   0  0  0  0  0  0
   52.6143   44.4123   -3.0626 C   0  0  0  0  0  0
   52.4495   45.2493   -1.9457 C   0  0  0  0  0  0
   51.3147   45.0539   -1.1447 C   0  0  0  0  0  0
   50.4662   43.9698   -1.3579 C   0  0  0  0  0  0
   47.6230   39.1391   -1.0060 C   0  0  0  0  0  0
   47.6432   37.8055   -1.2990 O   0  0  0  0  0  0
   46.9577   39.6100   -0.0991 O   0  0  0  0  0  0
   49.7686   41.1251   -0.1701 C   0  0  0  0  0  0
   53.5168   46.2256   -1.5215 C   0  0  0  0  0  0
   54.2988   47.0084   -2.4022 C   0  0  0  0  0  0
   55.3249   47.7970   -1.9881 N   0  0  0  0  0  0
   55.6225   47.8390   -0.6698 C   0  0  0  0  0  0
   54.8941   47.1350    0.2820 C   0  0  0  0  0  0
   53.8369   46.3380   -0.1545 C   0  0  0  0  0  0
   54.0231   47.0437   -4.1010 Cl  0  0  0  0  0  0
   44.9056   38.8504   -5.4238 C   0  0  0  0  0  0
   45.8797   41.1421   -6.4990 H   0  0  0  0  0  0
   46.1594   38.6979   -3.0785 H   0  0  0  0  0  0
   48.0872   42.1752   -6.0431 H   0  0  0  0  0  0
   51.9430   42.6955   -4.1303 H   0  0  0  0  0  0
   53.4786   44.5091   -3.6990 H   0  0  0  0  0  0
   51.1232   45.7018   -0.3019 H   0  0  0  0  0  0
   49.6222   43.8383   -0.6990 H   0  0  0  0  0  0
   48.2267   37.6115   -2.0390 H   0  0  0  0  0  0
   49.6261   40.2054    0.3938 H   0  0  0  0  0  0
   50.8235   41.3747   -0.0989 H   0  0  0  0  0  0
   49.2045   41.9098    0.3305 H   0  0  0  0  0  0
   56.4610   48.4587   -0.3856 H   0  0  0  0  0  0
   55.1465   47.1964    1.3310 H   0  0  0  0  0  0
   53.2935   45.7682    0.5852 H   0  0  0  0  0  0
   44.2423   39.3755   -6.0990 H   0  0  0  0  0  0
   44.4216   38.4099   -4.5657 H   0  0  0  0  0  0
   45.2230   38.0044   -6.0160 H   0  0  0  0  0  0
  1  2  2  0  0  0
  1  4  1  0  0  0
  1 29  1  0  0  0
  2  3  1  0  0  0
  2 28  1  0  0  0
  3  6  2  0  0  0
  3 30  1  0  0  0
  4  5  2  0  0  0
  4 31  1  0  0  0
  5  6  1  0  0  0
  5 10  1  0  0  0
  6  7  1  0  0  0
  7  8  2  0  0  0
  7 17  1  0  0  0
  8  9  1  0  0  0
  8 20  1  0  0  0
  9 10  2  0  0  0
  9 11  1  0  0  0
 11 12  2  0  0  0
 11 16  1  0  0  0
 12 13  1  0  0  0
 12 32  1  0  0  0
 13 14  2  0  0  0
 13 33  1  0  0  0
 14 15  1  0  0  0
 14 21  1  0  0  0
 15 16  2  0  0  0
 15 34  1  0  0  0
 16 35  1  0  0  0
 17 18  1  0  0  0
 17 19  2  0  0  0
 18 36  1  0  0  0
 20 37  1  0  0  0
 20 38  1  0  0  0
 20 39  1  0  0  0
 21 22  2  0  0  0
 21 26  1  0  0  0
 22 23  1  0  0  0
 22 27  1  0  0  0
 23 24  2  0  0  0
 24 25  1  0  0  0
 24 40  1  0  0  0
 25 26  2  0  0  0
 25 41  1  0  0  0
 26 42  1  0  0  0
 28 43  1  0  0  0
 28 44  1  0  0  0
 28 45  1  0  0  0
M  END
> <s_m_entry_id>
25773

> <s_m_entry_name>
dock_pv.425

> <s_m_Source_Path>
/home/csk/Desktop/cluster/DUD-E-result/pyrd

> <s_m_Source_File>
dock_pv.maegz

> <i_m_Source_File_Index>
425

> <chembl_id>
CHEMBL4224891

> <chembl_pref_name>
None

> <i_lp_mmshare_version>
53161

> <r_lp_tautomer_probability>
1

> <s_lp_Force_Field>
OPLS_2005

> <r_lp_Energy>
35.855516

> <b_lp_Chiralities_Consistent>
1

> <s_lp_Variant>
CHEMBL1966_lig608-1

> <s_i_glide_gridfile>
glide-grid_1d3g

> <i_i_glide_lignum>
662

> <i_i_glide_rotatable_bonds>
4

> <r_i_docking_score>
-8.62791606460768

> <r_i_glide_ligand_efficiency>
-0.308139859450274

> <r_i_glide_ligand_efficiency_sa>
-0.935694097962712

> <r_i_glide_ligand_efficiency_ln>
-1.99157635433484

> <r_i_glide_gscore>
-8.62791606460768

> <r_i_glide_lipo>
-5.81733663505859

> <r_i_glide_hbond>
0

> <r_i_glide_metal>
0

> <r_i_glide_rewards>
-1.6527114389564

> <r_i_glide_evdw>
-28.313232421875

> <r_i_glide_ecoul>
-0.859159171581268

> <r_i_glide_erotb>
0.386667506238251

> <r_i_glide_esite>
0

> <r_i_glide_emodel>
-61.1493251669931

> <r_i_glide_energy>
-29.1723915934563

> <r_i_glide_einternal>
3.70214152336121

> <i_i_glide_confnum>
61

> <i_i_glide_posenum>
150

> <r_i_glide_eff_state_penalty>
0

> <s_user_duplicate_titles>
CHEMBL1966_lig608

> <i_f3d_flags>
0

> <s_m_subgroup_title>
dock_pv

> <s_m_subgroupid>
dock_pv

> <b_m_subgroup_collapsed>
1

$$$$
CHEMBL1966_lig232
                    3D
 Schrodinger Suite 2021-1.
 46 49  0  0  1  0            999 V2000
   52.5163   46.0094   -0.3417 C   0  0  0  0  0  0
   53.8467   46.4189   -0.3493 C   0  0  0  0  0  0
   52.0007   45.3718   -1.4675 C   0  0  0  0  0  0
   52.4275   44.4099   -3.6987 N   0  0  0  0  0  0
   52.8229   45.1381   -2.5789 C   0  0  0  0  0  0
   49.9150   42.0317   -3.3641 C   0  0  0  0  0  0
   50.6217   43.4615   -5.4007 S   0  0  0  0  0  0
   45.7811   40.1711   -4.6120 C   0  0  0  0  0  0
   49.6239   42.2267   -4.7246 C   0  0  0  0  0  0
   47.4774   41.8265   -5.2990 O   0  0  0  0  0  0
   49.1373   40.8109   -6.4989 O   0  0  0  0  0  0
   54.6355   46.2600   -1.4902 C   0  0  0  0  0  0
   50.8641   42.8320   -2.9264 N   0  0  0  0  0  0
   48.7365   41.5470   -5.6109 C   0  0  0  0  0  0
   54.1249   45.6192   -2.6035 C   0  0  0  0  0  0
   46.3669   41.0526   -5.6985 C   0  0  0  0  0  0
   51.3582   43.5929   -3.8509 C   0  0  0  0  0  0
   49.3164   41.0687   -2.3847 C   0  0  0  0  0  0
   49.6230   41.2098   -1.0251 C   0  0  0  0  0  0
   48.9843   40.4087   -0.0994 C   0  0  0  0  0  0
   48.0232   39.4844   -0.5002 C   0  0  0  0  0  0
   47.7579   39.2817   -1.8460 C   0  0  0  0  0  0
   48.4473   40.0444   -2.7811 C   0  0  0  0  0  0
   54.6978   46.9009    0.7838 C   0  0  0  0  0  0
   55.9430   47.4384    0.0809 C   0  0  0  0  0  0
   56.0344   46.7654   -1.2764 C   0  0  0  0  0  0
   51.8992   46.1258    0.5383 H   0  0  0  0  0  0
   50.9776   45.0256   -1.4521 H   0  0  0  0  0  0
   53.1211   44.4277   -4.4294 H   0  0  0  0  0  0
   44.8248   39.7898   -4.9534 H   0  0  0  0  0  0
   46.3829   39.2891   -4.4142 H   0  0  0  0  0  0
   45.6238   40.7244   -3.6856 H   0  0  0  0  0  0
   54.7574   45.4521   -3.4634 H   0  0  0  0  0  0
   45.6032   41.7337   -6.0748 H   0  0  0  0  0  0
   46.6449   40.3841   -6.4990 H   0  0  0  0  0  0
   50.3238   41.9488   -0.6659 H   0  0  0  0  0  0
   49.2286   40.4914    0.9471 H   0  0  0  0  0  0
   47.5217   38.8772    0.2362 H   0  0  0  0  0  0
   47.0666   38.5136   -2.1606 H   0  0  0  0  0  0
   48.3065   39.8139   -3.8177 H   0  0  0  0  0  0
   54.2114   47.6103    1.4458 H   0  0  0  0  0  0
   54.9551   46.0651    1.4347 H   0  0  0  0  0  0
   55.8415   48.5145   -0.0926 H   0  0  0  0  0  0
   56.8252   47.2602    0.6880 H   0  0  0  0  0  0
   56.7506   45.9481   -1.2515 H   0  0  0  0  0  0
   56.3566   47.4753   -2.0404 H   0  0  0  0  0  0
  1  2  2  0  0  0
  1  3  1  0  0  0
  1 27  1  0  0  0
  2 24  1  0  0  0
  2 12  1  0  0  0
  3  5  2  0  0  0
  3 28  1  0  0  0
  4 17  1  0  0  0
  4  5  1  0  0  0
  4 29  1  0  0  0
  5 15  1  0  0  0
  6  9  2  0  0  0
  6 13  1  0  0  0
  6 18  1  0  0  0
  7 17  1  0  0  0
  7  9  1  0  0  0
  8 16  1  0  0  0
  8 30  1  0  0  0
  8 31  1  0  0  0
  8 32  1  0  0  0
  9 14  1  0  0  0
 10 14  1  0  0  0
 10 16  1  0  0  0
 11 14  2  0  0  0
 12 15  2  0  0  0
 12 26  1  0  0  0
 13 17  2  0  0  0
 15 33  1  0  0  0
 16 34  1  0  0  0
 16 35  1  0  0  0
 18 19  1  0  0  0
 18 23  2  0  0  0
 19 20  2  0  0  0
 19 36  1  0  0  0
 20 21  1  0  0  0
 20 37  1  0  0  0
 21 22  2  0  0  0
 21 38  1  0  0  0
 22 23  1  0  0  0
 22 39  1  0  0  0
 23 40  1  0  0  0
 24 25  1  0  0  0
 24 41  1  0  0  0
 24 42  1  0  0  0
 25 26  1  0  0  0
 25 43  1  0  0  0
 25 44  1  0  0  0
 26 45  1  0  0  0
 26 46  1  0  0  0
M  END
> <s_m_entry_id>
25774

> <s_m_entry_name>
dock_pv.426

> <s_m_Source_Path>
/home/csk/Desktop/cluster/DUD-E-result/pyrd

> <s_m_Source_File>
dock_pv.maegz

> <i_m_Source_File_Index>
426

> <chembl_id>
CHEMBL3410607

> <chembl_pref_name>
None

> <i_lp_mmshare_version>
53161

> <r_lp_tautomer_probability>
1

> <s_lp_Force_Field>
OPLS_2005

> <r_lp_Energy>
28.99634

> <b_lp_Chiralities_Consistent>
1

> <s_lp_Variant>
CHEMBL1966_lig232-1

> <s_i_glide_gridfile>
glide-grid_1d3g

> <i_i_glide_lignum>
278

> <i_i_glide_rotatable_bonds>
6

> <r_i_docking_score>
-8.61303267981377

> <r_i_glide_ligand_efficiency>
-0.331270487685145

> <r_i_glide_ligand_efficiency_sa>
-0.981387516280816

> <r_i_glide_ligand_efficiency_ln>
-2.02274246318892

> <r_i_glide_gscore>
-8.61303267981377

> <r_i_glide_lipo>
-6.06781341431665

> <r_i_glide_hbond>
-0.16

> <r_i_glide_metal>
0

> <r_i_glide_rewards>
-1.32339574335447

> <r_i_glide_evdw>
-25.1808776855469

> <r_i_glide_ecoul>
-3.50959444046021

> <r_i_glide_erotb>
0.723659528203715

> <r_i_glide_esite>
0

> <r_i_glide_emodel>
-24.8822689702588

> <r_i_glide_energy>
-28.6904721260071

> <r_i_glide_einternal>
11.9279165267944

> <i_i_glide_confnum>
70

> <i_i_glide_posenum>
23

> <r_i_glide_eff_state_penalty>
0

> <s_user_duplicate_titles>
CHEMBL1966_lig232

> <i_f3d_flags>
0

> <s_m_subgroup_title>
dock_pv

> <s_m_subgroupid>
dock_pv

> <b_m_subgroup_collapsed>
1

$$$$
CHEMBL1966_lig82
                    3D
 Schrodinger Suite 2021-1.
 40 42  0  0  1  0            999 V2000
   52.8179   44.6288   -3.2962 C   0  0  0  0  0  0
   51.8396   43.7424   -3.7298 C   0  0  0  0  0  0
   50.7581   43.4293   -2.9230 C   0  0  0  0  0  0
   50.6523   44.0120   -1.6614 C   0  0  0  0  0  0
   51.6229   44.9194   -1.2450 C   0  0  0  0  0  0
   52.7770   45.2109   -2.0178 C   0  0  0  0  0  0
   53.9390   46.0125   -1.4458 C   0  0  0  0  0  0
   53.7918   46.5842   -0.1635 C   0  0  0  0  0  0
   54.8246   47.2454    0.4832 C   0  0  0  0  0  0
   56.0319   47.4282   -0.1609 C   0  0  0  0  0  0
   56.2220   46.8982   -1.4213 C   0  0  0  0  0  0
   55.2180   46.1587   -2.0704 C   0  0  0  0  0  0
   49.7609   42.6250   -3.4689 N   0  0  0  0  0  0
   49.4493   41.3821   -3.0679 C   0  0  0  0  0  0
   48.3097   40.8105   -3.7516 C   0  0  0  0  0  0
   50.0211   40.8100   -2.1564 O   0  0  0  0  0  0
   47.3218   39.8993   -3.2348 C   0  0  0  0  0  0
   46.2606   39.7813   -4.1359 C   0  0  0  0  0  0
   46.3927   40.8102   -5.5117 S   0  0  0  0  0  0
   48.0136   41.1755   -5.0755 C   0  0  0  0  0  0
   47.2221   39.2081   -1.9486 C   0  0  0  0  0  0
   48.0938   39.6150   -0.9901 O   0  0  0  0  0  0
   46.3479   38.3742   -1.7213 O   0  0  0  0  0  0
   51.9190   43.2110   -4.9602 F   0  0  0  0  0  0
   49.6223   43.7199   -0.8352 F   0  0  0  0  0  0
   55.4877   45.5612   -3.2920 O   0  0  0  0  0  0
   56.8213   45.4494   -3.8018 C   0  0  0  0  0  0
   56.8023   44.7060   -4.9029 F   0  0  0  0  0  0
   57.3275   46.6360   -4.1388 F   0  0  0  0  0  0
   57.6094   44.8207   -2.9342 F   0  0  0  0  0  0
   53.5893   44.8361   -4.0044 H   0  0  0  0  0  0
   51.4716   45.3104   -0.2552 H   0  0  0  0  0  0
   52.8774   46.5275    0.3984 H   0  0  0  0  0  0
   54.6768   47.6400    1.4776 H   0  0  0  0  0  0
   56.8445   47.9680    0.3019 H   0  0  0  0  0  0
   57.1940   47.0551   -1.8599 H   0  0  0  0  0  0
   49.2389   43.0282   -4.2325 H   0  0  0  0  0  0
   45.3627   39.1879   -4.0101 H   0  0  0  0  0  0
   48.5834   41.8274   -5.7227 H   0  0  0  0  0  0
   48.8205   40.1464   -1.3504 H   0  0  0  0  0  0
  1  6  2  0  0  0
  1  2  1  0  0  0
  1 31  1  0  0  0
  2  3  2  0  0  0
  2 24  1  0  0  0
  3 13  1  0  0  0
  3  4  1  0  0  0
  4  5  2  0  0  0
  4 25  1  0  0  0
  5  6  1  0  0  0
  5 32  1  0  0  0
  6  7  1  0  0  0
  7 12  2  0  0  0
  7  8  1  0  0  0
  8  9  2  0  0  0
  8 33  1  0  0  0
  9 10  1  0  0  0
  9 34  1  0  0  0
 10 11  2  0  0  0
 10 35  1  0  0  0
 11 12  1  0  0  0
 11 36  1  0  0  0
 12 26  1  0  0  0
 13 14  1  0  0  0
 13 37  1  0  0  0
 14 15  1  0  0  0
 14 16  2  0  0  0
 15 17  1  0  0  0
 15 20  2  0  0  0
 17 18  2  0  0  0
 17 21  1  0  0  0
 18 19  1  0  0  0
 18 38  1  0  0  0
 19 20  1  0  0  0
 20 39  1  0  0  0
 21 22  1  0  0  0
 21 23  2  0  0  0
 22 40  1  0  0  0
 26 27  1  0  0  0
 27 28  1  0  0  0
 27 29  1  0  0  0
 27 30  1  0  0  0
M  END
> <s_m_entry_id>
25775

> <s_m_entry_name>
dock_pv.427

> <s_m_Source_Path>
/home/csk/Desktop/cluster/DUD-E-result/pyrd

> <s_m_Source_File>
dock_pv.maegz

> <i_m_Source_File_Index>
427

> <chembl_id>
CHEMBL199347

> <chembl_pref_name>
None

> <i_lp_mmshare_version>
53161

> <r_lp_tautomer_probability>
1

> <s_lp_Force_Field>
OPLS_2005

> <r_lp_Energy>
26.280787

> <b_lp_Chiralities_Consistent>
1

> <s_lp_Variant>
CHEMBL1966_lig82-1

> <s_i_glide_gridfile>
glide-grid_1d3g

> <i_i_glide_lignum>
91

> <i_i_glide_rotatable_bonds>
8

> <r_i_docking_score>
-8.61025092547927

> <r_i_glide_ligand_efficiency>
-0.287008364182642

> <r_i_glide_ligand_efficiency_sa>
-0.891801717657885

> <r_i_glide_ligand_efficiency_ln>
-1.95634282646681

> <r_i_glide_gscore>
-8.61025092547927

> <r_i_glide_lipo>
-4.84570205465583

> <r_i_glide_hbond>
0

> <r_i_glide_metal>
0

> <r_i_glide_rewards>
-2.32556183507982

> <r_i_glide_evdw>
-37.3376770019531

> <r_i_glide_ecoul>
-1.21561324596405

> <r_i_glide_erotb>
0.610238801248635

> <r_i_glide_esite>
0

> <r_i_glide_emodel>
-38.3762027045589

> <r_i_glide_energy>
-38.5532902479172

> <r_i_glide_einternal>
8.76579284667969

> <i_i_glide_confnum>
75

> <i_i_glide_posenum>
397

> <r_i_glide_eff_state_penalty>
0

> <s_user_duplicate_titles>
CHEMBL1966_lig82,334878

> <i_f3d_flags>
0

> <s_m_subgroup_title>
dock_pv

> <s_m_subgroupid>
dock_pv

> <b_m_subgroup_collapsed>
1

$$$$
CHEMBL1966_lig376
                    3D
 Schrodinger Suite 2021-1.
 41 43  0  0  1  0            999 V2000
   48.3476   40.4996   -3.9788 C   0  0  0  0  0  0
   48.3970   41.3299   -5.1935 C   0  0  0  0  0  0
   47.1647   41.6100   -5.6990 N   0  0  0  0  0  0
   45.9476   41.1400   -5.3023 C   0  0  0  0  0  0
   46.0230   40.1810   -4.3477 N   0  0  0  0  0  0
   47.1488   39.9583   -3.6050 C   0  0  0  0  0  0
   46.8907   39.1462   -2.4198 C   0  0  0  0  0  0
   47.6230   39.4532   -1.3192 O   0  0  0  0  0  0
   46.0230   38.2929   -2.3599 O   0  0  0  0  0  0
   44.8919   41.6100   -5.6990 O   0  0  0  0  0  0
   49.3993   41.7769   -5.7413 O   0  0  0  0  0  0
   49.6414   40.3364   -3.2004 C   0  0  0  0  0  0
   49.7463   41.2588   -1.9698 C   0  0  0  0  0  0
   50.4779   42.5744   -2.0922 C   0  0  0  0  0  0
   51.2217   42.8930   -3.2246 C   0  0  0  0  0  0
   52.0238   44.0100   -3.2409 C   0  0  0  0  0  0
   50.4230   43.4587   -1.0089 C   0  0  0  0  0  0
   51.2526   44.6017   -0.9808 C   0  0  0  0  0  0
   52.0975   44.8519   -2.0991 C   0  0  0  0  0  0
   53.0531   45.8953   -2.0418 C   0  0  0  0  0  0
   53.2270   46.6426   -0.8724 C   0  0  0  0  0  0
   52.3831   46.4095    0.2106 C   0  0  0  0  0  0
   51.4063   45.4157    0.1663 C   0  0  0  0  0  0
   54.2041   47.6058   -0.7086 O   0  0  0  0  0  0
   55.0847   47.9031   -1.7867 C   0  0  0  0  0  0
   47.1347   42.3425   -6.3968 H   0  0  0  0  0  0
   45.1466   39.7450   -4.0988 H   0  0  0  0  0  0
   47.3658   38.8934   -0.5828 H   0  0  0  0  0  0
   49.6624   39.2986   -2.8990 H   0  0  0  0  0  0
   50.5137   40.4100   -3.8190 H   0  0  0  0  0  0
   48.7757   41.5882   -1.7187 H   0  0  0  0  0  0
   50.0236   40.7051   -1.0775 H   0  0  0  0  0  0
   51.2543   42.2704   -4.0990 H   0  0  0  0  0  0
   52.6477   44.2124   -4.0990 H   0  0  0  0  0  0
   49.8295   43.2224   -0.1371 H   0  0  0  0  0  0
   53.6861   46.0512   -2.9019 H   0  0  0  0  0  0
   52.5110   46.9863    1.1152 H   0  0  0  0  0  0
   50.8228   45.2098    1.0493 H   0  0  0  0  0  0
   55.7745   48.6895   -1.4799 H   0  0  0  0  0  0
   55.6806   47.0336   -2.0686 H   0  0  0  0  0  0
   54.5399   48.2653   -2.6601 H   0  0  0  0  0  0
  1  2  1  0  0  0
  1  6  2  0  0  0
  1 12  1  0  0  0
  2  3  1  0  0  0
  2 11  2  0  0  0
  3  4  1  0  0  0
  3 26  1  0  0  0
  4  5  1  0  0  0
  4 10  2  0  0  0
  5  6  1  0  0  0
  5 27  1  0  0  0
  6  7  1  0  0  0
  7  8  1  0  0  0
  7  9  2  0  0  0
  8 28  1  0  0  0
 12 13  1  0  0  0
 12 29  1  0  0  0
 12 30  1  0  0  0
 13 14  1  0  0  0
 13 31  1  0  0  0
 13 32  1  0  0  0
 14 15  2  0  0  0
 14 17  1  0  0  0
 15 16  1  0  0  0
 15 33  1  0  0  0
 16 19  2  0  0  0
 16 34  1  0  0  0
 17 18  2  0  0  0
 17 35  1  0  0  0
 18 19  1  0  0  0
 18 23  1  0  0  0
 19 20  1  0  0  0
 20 21  2  0  0  0
 20 36  1  0  0  0
 21 22  1  0  0  0
 21 24  1  0  0  0
 22 23  2  0  0  0
 22 37  1  0  0  0
 23 38  1  0  0  0
 24 25  1  0  0  0
 25 39  1  0  0  0
 25 40  1  0  0  0
 25 41  1  0  0  0
M  END
> <s_m_entry_id>
25776

> <s_m_entry_name>
dock_pv.428

> <s_m_Source_Path>
/home/csk/Desktop/cluster/DUD-E-result/pyrd

> <s_m_Source_File>
dock_pv.maegz

> <i_m_Source_File_Index>
428

> <chembl_id>
CHEMBL3925700

> <chembl_pref_name>
None

> <i_lp_mmshare_version>
53161

> <r_lp_tautomer_probability>
1

> <s_lp_Force_Field>
OPLS_2005

> <r_lp_Energy>
17.885646

> <b_lp_Chiralities_Consistent>
1

> <s_lp_Variant>
CHEMBL1966_lig376-1

> <s_i_glide_gridfile>
glide-grid_1d3g

> <i_i_glide_lignum>
426

> <i_i_glide_rotatable_bonds>
6

> <r_i_docking_score>
-8.59854261117671

> <r_i_glide_ligand_efficiency>
-0.343941704447068

> <r_i_glide_ligand_efficiency_sa>
-1.00569164363533

> <r_i_glide_ligand_efficiency_ln>
-2.03811227637764

> <r_i_glide_gscore>
-8.59854261117671

> <r_i_glide_lipo>
-4.58776666461915

> <r_i_glide_hbond>
-0.32

> <r_i_glide_metal>
0

> <r_i_glide_rewards>
-2.2508106453442

> <r_i_glide_evdw>
-32.8521995544434

> <r_i_glide_ecoul>
-2.06285643577576

> <r_i_glide_erotb>
0.653954415088751

> <r_i_glide_esite>
-0.141881273213582

> <r_i_glide_emodel>
-35.9115333408467

> <r_i_glide_energy>
-34.9150559902191

> <r_i_glide_einternal>
6.45426750183105

> <i_i_glide_confnum>
23

> <i_i_glide_posenum>
217

> <r_i_glide_eff_state_penalty>
0

> <s_user_duplicate_titles>
CHEMBL1966_lig376

> <i_f3d_flags>
0

> <s_m_subgroup_title>
dock_pv

> <s_m_subgroupid>
dock_pv

> <b_m_subgroup_collapsed>
1

$$$$
CHEMBL1966_lig452
                    3D
 Schrodinger Suite 2021-1.
 50 53  0  0  1  0            999 V2000
   56.4733   46.8185    1.1011 C   0  0  0  0  0  0
   56.7343   47.6093   -0.0547 O   0  0  0  0  0  0
   55.9253   47.4625   -1.1547 C   0  0  0  0  0  0
   56.0696   48.3972   -2.1768 C   0  0  0  0  0  0
   55.2529   48.3384   -3.3035 C   0  0  0  0  0  0
   54.2714   47.3536   -3.3941 C   0  0  0  0  0  0
   54.1093   46.4009   -2.3824 C   0  0  0  0  0  0
   54.9742   46.4425   -1.2900 C   0  0  0  0  0  0
   53.0662   45.3468   -2.4969 C   0  0  0  0  0  0
   53.2235   44.5924   -3.6035 N   0  0  0  0  0  0
   52.3454   43.6120   -3.8864 C   0  0  0  0  0  0
   51.2559   43.3293   -3.0881 C   0  0  0  0  0  0
   50.3898   42.3429   -3.5553 N   0  0  0  0  0  0
   49.5110   41.4544   -2.9366 C   0  0  0  0  0  0
   49.6684   41.2168   -1.5717 C   0  0  0  0  0  0
   48.8234   40.3728   -0.8900 C   0  0  0  0  0  0
   47.8010   39.7219   -1.5800 C   0  0  0  0  0  0
   47.6479   39.9199   -2.9596 C   0  0  0  0  0  0
   48.4976   40.7880   -3.6707 C   0  0  0  0  0  0
   48.2096   41.0591   -5.1448 C   0  0  0  0  0  0
   47.1333   40.8100   -5.6843 O   0  0  0  0  0  0
   49.2234   41.6203   -5.8571 O   0  0  0  0  0  0
   46.7990   38.9234   -0.7818 C   0  0  0  0  0  0
   45.8269   39.6100    0.1579 C   0  0  0  0  0  0
   45.3166   38.9339   -1.0718 C   0  0  0  0  0  0
   51.0822   44.0883   -1.9255 C   0  0  0  0  0  0
   51.9863   45.1298   -1.6148 C   0  0  0  0  0  0
   51.7287   45.9458   -0.3562 C   0  0  0  0  0  0
   52.7422   46.6291    0.1625 F   0  0  0  0  0  0
   50.8230   46.8116   -0.7564 F   0  0  0  0  0  0
   51.2229   45.1931    0.6170 F   0  0  0  0  0  0
   57.1932   47.1037    1.8687 H   0  0  0  0  0  0
   55.4711   46.9973    1.4959 H   0  0  0  0  0  0
   56.6058   45.7537    0.9086 H   0  0  0  0  0  0
   56.8138   49.1746   -2.0913 H   0  0  0  0  0  0
   55.3699   49.0621   -4.0979 H   0  0  0  0  0  0
   53.6239   47.3272   -4.2578 H   0  0  0  0  0  0
   54.8714   45.6836   -0.5296 H   0  0  0  0  0  0
   52.5361   43.0601   -4.7939 H   0  0  0  0  0  0
   50.4425   42.1729   -4.5507 H   0  0  0  0  0  0
   50.4632   41.6898   -1.0137 H   0  0  0  0  0  0
   48.9489   40.2229    0.1726 H   0  0  0  0  0  0
   46.8306   39.4227   -3.4659 H   0  0  0  0  0  0
   48.8907   41.9750   -6.6807 H   0  0  0  0  0  0
   47.2171   37.9859   -0.4080 H   0  0  0  0  0  0
   45.8008   40.6875    0.3010 H   0  0  0  0  0  0
   45.6204   39.1377    1.0961 H   0  0  0  0  0  0
   44.7631   38.0131   -0.8992 H   0  0  0  0  0  0
   44.9178   39.5590   -1.8709 H   0  0  0  0  0  0
   50.2205   43.9167   -1.2971 H   0  0  0  0  0  0
  1  2  1  0  0  0
  1 32  1  0  0  0
  1 33  1  0  0  0
  1 34  1  0  0  0
  2  3  1  0  0  0
  3  4  2  0  0  0
  3  8  1  0  0  0
  4  5  1  0  0  0
  4 35  1  0  0  0
  5  6  2  0  0  0
  5 36  1  0  0  0
  6  7  1  0  0  0
  6 37  1  0  0  0
  7  8  2  0  0  0
  7  9  1  0  0  0
  8 38  1  0  0  0
  9 10  2  0  0  0
  9 27  1  0  0  0
 10 11  1  0  0  0
 11 12  2  0  0  0
 11 39  1  0  0  0
 12 13  1  0  0  0
 12 26  1  0  0  0
 13 14  1  0  0  0
 13 40  1  0  0  0
 14 15  2  0  0  0
 14 19  1  0  0  0
 15 16  1  0  0  0
 15 41  1  0  0  0
 16 17  2  0  0  0
 16 42  1  0  0  0
 17 18  1  0  0  0
 17 23  1  0  0  0
 18 19  2  0  0  0
 18 43  1  0  0  0
 19 20  1  0  0  0
 20 21  2  0  0  0
 20 22  1  0  0  0
 22 44  1  0  0  0
 23 24  1  0  0  0
 23 25  1  0  0  0
 23 45  1  0  0  0
 24 25  1  0  0  0
 24 46  1  0  0  0
 24 47  1  0  0  0
 25 48  1  0  0  0
 25 49  1  0  0  0
 26 27  2  0  0  0
 26 50  1  0  0  0
 27 28  1  0  0  0
 28 29  1  0  0  0
 28 30  1  0  0  0
 28 31  1  0  0  0
M  END
> <s_m_entry_id>
25777

> <s_m_entry_name>
dock_pv.429

> <s_m_Source_Path>
/home/csk/Desktop/cluster/DUD-E-result/pyrd

> <s_m_Source_File>
dock_pv.maegz

> <i_m_Source_File_Index>
429

> <chembl_id>
CHEMBL3674661

> <chembl_pref_name>
None

> <i_lp_mmshare_version>
53161

> <r_lp_tautomer_probability>
0.999999999999999

> <s_lp_Force_Field>
OPLS_2005

> <r_lp_Energy>
39.951255

> <b_lp_Chiralities_Consistent>
1

> <s_lp_Variant>
CHEMBL1966_lig452-1

> <s_i_glide_gridfile>
glide-grid_1d3g

> <i_i_glide_lignum>
502

> <i_i_glide_rotatable_bonds>
8

> <r_i_docking_score>
-8.59668782404569

> <r_i_glide_ligand_efficiency>
-0.277312510453087

> <r_i_glide_ligand_efficiency_sa>
-0.871144154006246

> <r_i_glide_ligand_efficiency_ln>
-1.93881656116414

> <r_i_glide_gscore>
-8.59668782404569

> <r_i_glide_lipo>
-5.74280408838118

> <r_i_glide_hbond>
-0.104899044636396

> <r_i_glide_metal>
0

> <r_i_glide_rewards>
-2.03251296211825

> <r_i_glide_evdw>
-26.6843929290771

> <r_i_glide_ecoul>
0.602192759513855

> <r_i_glide_erotb>
0.54114904830409

> <r_i_glide_esite>
-0.0137300446871711

> <r_i_glide_emodel>
-26.5274196577775

> <r_i_glide_energy>
-26.0822001695633

> <r_i_glide_einternal>
9.89598083496094

> <i_i_glide_confnum>
84

> <i_i_glide_posenum>
6

> <r_i_glide_eff_state_penalty>
0

> <s_user_duplicate_titles>
CHEMBL1966_lig452

> <i_f3d_flags>
0

> <s_m_subgroup_title>
dock_pv

> <s_m_subgroupid>
dock_pv

> <b_m_subgroup_collapsed>
1

$$$$
CHEMBL1966_lig372
                    3D
 Schrodinger Suite 2021-1.
 36 38  0  0  1  0            999 V2000
   50.1783   42.2603   -3.1057 C   0  0  0  0  0  0
   50.0874   42.7181   -4.4991 C   0  0  0  0  0  0
   49.1837   42.0374   -5.2436 N   0  0  0  0  0  0
   48.3942   40.9868   -4.8990 C   0  0  0  0  0  0
   48.5260   40.6088   -3.5981 N   0  0  0  0  0  0
   49.3557   41.2445   -2.6931 C   0  0  0  0  0  0
   49.2230   40.8100   -1.2965 C   0  0  0  0  0  0
   48.2138   39.9098   -1.0935 O   0  0  0  0  0  0
   49.8804   41.2207   -0.3454 O   0  0  0  0  0  0
   47.6301   40.4599   -5.6990 O   0  0  0  0  0  0
   50.7559   43.6100   -5.0163 O   0  0  0  0  0  0
   51.2226   43.0019   -2.2651 C   0  0  0  0  0  0
   50.6789   44.3242   -1.6988 C   0  0  0  0  0  0
   51.6937   45.2100   -0.9552 C   0  0  0  0  0  0
   53.4586   46.5814    0.6838 C   0  0  0  0  0  0
   52.2838   46.0100    1.1464 C   0  0  0  0  0  0
   51.4196   45.3276    0.3639 N   0  0  0  0  0  0
   53.7671   46.4792   -0.6909 C   0  0  0  0  0  0
   52.8684   45.7777   -1.5635 C   0  0  0  0  0  0
   53.2230   45.6800   -2.9355 C   0  0  0  0  0  0
   54.3913   46.2728   -3.4114 C   0  0  0  0  0  0
   55.2493   46.9521   -2.5581 C   0  0  0  0  0  0
   54.9516   47.0577   -1.2062 C   0  0  0  0  0  0
   49.0913   42.3636   -6.1922 H   0  0  0  0  0  0
   47.9489   39.8347   -3.2989 H   0  0  0  0  0  0
   48.1591   39.6621   -0.1664 H   0  0  0  0  0  0
   51.6113   42.3684   -1.4733 H   0  0  0  0  0  0
   52.0930   43.1731   -2.8990 H   0  0  0  0  0  0
   50.1725   44.8442   -2.4981 H   0  0  0  0  0  0
   49.8606   44.0736   -1.0192 H   0  0  0  0  0  0
   54.1249   47.1004    1.3583 H   0  0  0  0  0  0
   52.0305   46.0718    2.1936 H   0  0  0  0  0  0
   52.5733   45.1678   -3.6284 H   0  0  0  0  0  0
   54.6371   46.2129   -4.4604 H   0  0  0  0  0  0
   56.1512   47.4009   -2.9485 H   0  0  0  0  0  0
   55.6221   47.5845   -0.5424 H   0  0  0  0  0  0
  1  2  1  0  0  0
  1  6  2  0  0  0
  1 12  1  0  0  0
  2  3  1  0  0  0
  2 11  2  0  0  0
  3  4  1  0  0  0
  3 24  1  0  0  0
  4  5  1  0  0  0
  4 10  2  0  0  0
  5  6  1  0  0  0
  5 25  1  0  0  0
  6  7  1  0  0  0
  7  8  1  0  0  0
  7  9  2  0  0  0
  8 26  1  0  0  0
 12 13  1  0  0  0
 12 27  1  0  0  0
 12 28  1  0  0  0
 13 14  1  0  0  0
 13 29  1  0  0  0
 13 30  1  0  0  0
 14 19  2  0  0  0
 14 17  1  0  0  0
 15 18  2  0  0  0
 15 16  1  0  0  0
 15 31  1  0  0  0
 16 17  2  0  0  0
 16 32  1  0  0  0
 18 19  1  0  0  0
 18 23  1  0  0  0
 19 20  1  0  0  0
 20 21  2  0  0  0
 20 33  1  0  0  0
 21 22  1  0  0  0
 21 34  1  0  0  0
 22 23  2  0  0  0
 22 35  1  0  0  0
 23 36  1  0  0  0
M  END
> <s_m_entry_id>
25778

> <s_m_entry_name>
dock_pv.430

> <s_m_Source_Path>
/home/csk/Desktop/cluster/DUD-E-result/pyrd

> <s_m_Source_File>
dock_pv.maegz

> <i_m_Source_File_Index>
430

> <chembl_id>
CHEMBL3895455

> <chembl_pref_name>
None

> <i_lp_mmshare_version>
53161

> <r_lp_tautomer_probability>
1

> <s_lp_Force_Field>
OPLS_2005

> <r_lp_Energy>
14.828294

> <b_lp_Chiralities_Consistent>
1

> <s_lp_Variant>
CHEMBL1966_lig372-1

> <s_i_glide_gridfile>
glide-grid_1d3g

> <i_i_glide_lignum>
422

> <i_i_glide_rotatable_bonds>
5

> <r_i_docking_score>
-8.59131506443174

> <r_i_glide_ligand_efficiency>
-0.373535437583989

> <r_i_glide_ligand_efficiency_sa>
-1.06228509563925

> <r_i_glide_ligand_efficiency_ln>
-2.07745788431758

> <r_i_glide_gscore>
-8.59131506443174

> <r_i_glide_lipo>
-4.26458686734588

> <r_i_glide_hbond>
-0.0551337394340186

> <r_i_glide_metal>
0

> <r_i_glide_rewards>
-2.50091214316183

> <r_i_glide_evdw>
-38.5603828430176

> <r_i_glide_ecoul>
-4.05397891998291

> <r_i_glide_erotb>
0.765433665658301

> <r_i_glide_esite>
0

> <r_i_glide_emodel>
-61.7045911844734

> <r_i_glide_energy>
-42.6143617630005

> <r_i_glide_einternal>
1.23956644535065

> <i_i_glide_confnum>
25

> <i_i_glide_posenum>
275

> <r_i_glide_eff_state_penalty>
0

> <s_user_duplicate_titles>
CHEMBL1966_lig372

> <i_f3d_flags>
0

> <s_m_subgroup_title>
dock_pv

> <s_m_subgroupid>
dock_pv

> <b_m_subgroup_collapsed>
1

$$$$
CHEMBL1966_lig120
                    3D
 Schrodinger Suite 2021-1.
 35 36  0  0  1  0            999 V2000
   54.1935   46.4096   -0.3780 C   0  0  0  0  0  0
   55.2436   47.2450   -0.0137 C   0  0  0  0  0  0
   55.8377   48.0598   -0.9725 C   0  0  0  0  0  0
   55.3805   48.0512   -2.2876 C   0  0  0  0  0  0
   54.3375   47.2016   -2.6518 C   0  0  0  0  0  0
   53.7409   46.3594   -1.7045 C   0  0  0  0  0  0
   52.6981   45.3678   -2.0991 C   0  0  0  0  0  0
   51.6228   45.0762   -1.2486 C   0  0  0  0  0  0
   50.7739   44.0058   -1.5194 C   0  0  0  0  0  0
   52.8230   44.6468   -3.2970 C   0  0  0  0  0  0
   51.9515   43.5962   -3.5900 C   0  0  0  0  0  0
   50.9609   43.2317   -2.6732 C   0  0  0  0  0  0
   50.1450   42.1271   -2.9872 N   0  0  0  0  0  0
   49.5320   41.2665   -2.1356 C   0  0  0  0  0  0
   49.7645   41.2194   -0.9277 O   0  0  0  0  0  0
   48.3536   40.4719   -2.7403 C   0  0  1  0  0  0
   48.2807   40.4250   -4.2108 C   0  0  0  0  0  0
   48.2270   40.4109   -5.3662 N   0  0  0  0  0  0
   47.6458   39.2802   -2.0437 C   0  0  0  0  0  0
   47.6239   39.1923   -0.5210 C   0  0  0  0  0  0
   47.0047   38.4582   -2.6911 O   0  0  0  0  0  0
   53.7630   45.7657    0.3742 H   0  0  0  0  0  0
   55.6000   47.2540    1.0056 H   0  0  0  0  0  0
   56.6577   48.7061   -0.6924 H   0  0  0  0  0  0
   55.8440   48.6914   -3.0250 H   0  0  0  0  0  0
   54.0011   47.1926   -3.6779 H   0  0  0  0  0  0
   51.4775   45.6363   -0.3371 H   0  0  0  0  0  0
   49.9796   43.7810   -0.8230 H   0  0  0  0  0  0
   53.6327   44.8679   -3.9695 H   0  0  0  0  0  0
   52.0940   43.0321   -4.4992 H   0  0  0  0  0  0
   49.9890   41.9872   -3.9740 H   0  0  0  0  0  0
   48.6286   39.2048   -0.1018 H   0  0  0  0  0  0
   47.1504   38.2632   -0.2046 H   0  0  0  0  0  0
   47.0489   40.0153   -0.1018 H   0  0  0  0  0  0
   47.6224   41.2100   -2.5010 H   0  0  0  0  0  0
  1  2  2  0  0  0
  1  6  1  0  0  0
  1 22  1  0  0  0
  2  3  1  0  0  0
  2 23  1  0  0  0
  3  4  2  0  0  0
  3 24  1  0  0  0
  4  5  1  0  0  0
  4 25  1  0  0  0
  5  6  2  0  0  0
  5 26  1  0  0  0
  6  7  1  0  0  0
  7  8  2  0  0  0
  7 10  1  0  0  0
  8  9  1  0  0  0
  8 27  1  0  0  0
  9 12  2  0  0  0
  9 28  1  0  0  0
 10 11  2  0  0  0
 10 29  1  0  0  0
 11 12  1  0  0  0
 11 30  1  0  0  0
 12 13  1  0  0  0
 13 14  1  0  0  0
 13 31  1  0  0  0
 14 15  2  0  0  0
 14 16  1  0  0  0
 16 17  1  0  0  0
 16 35  1  0  0  0
 16 19  1  0  0  0
 17 18  3  0  0  0
 19 21  2  0  0  0
 19 20  1  0  0  0
 20 32  1  0  0  0
 20 33  1  0  0  0
 20 34  1  0  0  0
M  END
> <s_m_entry_id>
25779

> <s_m_entry_name>
dock_pv.431

> <s_m_Source_Path>
/home/csk/Desktop/cluster/DUD-E-result/pyrd

> <s_m_Source_File>
dock_pv.maegz

> <i_m_Source_File_Index>
431

> <chembl_id>
CHEMBL519160

> <chembl_pref_name>
None

> <i_lp_mmshare_version>
53161

> <r_lp_tautomer_probability>
0.995394628248396

> <s_lp_Force_Field>
OPLS_2005

> <r_lp_Energy>
22.681667

> <b_lp_Chiralities_Consistent>
1

> <s_lp_Variant>
CHEMBL1966_lig120-2

> <s_i_glide_gridfile>
glide-grid_1d3g

> <i_i_glide_lignum>
142

> <i_i_glide_rotatable_bonds>
5

> <r_i_docking_score>
-8.58269645228588

> <r_i_glide_ligand_efficiency>
-0.408699831061233

> <r_i_glide_ligand_efficiency_sa>
-1.12757184365341

> <r_i_glide_ligand_efficiency_ln>
-2.12205435485652

> <r_i_glide_gscore>
-8.58269645228588

> <r_i_glide_lipo>
-4.20212885778913

> <r_i_glide_hbond>
0

> <r_i_glide_metal>
0

> <r_i_glide_rewards>
-3.26112065189123

> <r_i_glide_evdw>
-33.548397064209

> <r_i_glide_ecoul>
-2.48559832572937

> <r_i_glide_erotb>
0.93081265946433

> <r_i_glide_esite>
0

> <r_i_glide_emodel>
-40.2119450511267

> <r_i_glide_energy>
-36.0339953899384

> <r_i_glide_einternal>
9.90857028961182

> <i_i_glide_confnum>
28

> <i_i_glide_posenum>
347

> <r_i_glide_eff_state_penalty>
0

> <s_user_duplicate_titles>
CHEMBL1966_lig120,520606

> <i_f3d_flags>
0

> <s_m_subgroup_title>
dock_pv

> <s_m_subgroupid>
dock_pv

> <b_m_subgroup_collapsed>
1

$$$$
CHEMBL1966_lig236
                    3D
 Schrodinger Suite 2021-1.
 42 44  0  0  1  0            999 V2000
   53.5388   46.4877   -1.2090 C   0  0  0  0  0  0
   54.0432   46.7754    0.0644 C   0  0  0  0  0  0
   52.3194   45.8066   -1.3003 C   0  0  0  0  0  0
   50.5695   44.4080   -0.1257 N   0  0  0  0  0  0
   51.6245   45.3559   -0.1617 C   0  0  0  0  0  0
   49.3545   41.4727   -1.7377 C   0  0  0  0  0  0
   50.8852   43.3277   -2.5645 S   0  0  0  0  0  0
   51.0615   43.5002   -6.8987 C   0  0  0  0  0  0
   49.8702   41.9726   -2.9233 C   0  0  0  0  0  0
   50.0281   42.6153   -5.0507 O   0  0  0  0  0  0
   49.2160   40.5451   -4.7327 O   0  0  0  0  0  0
   53.3140   46.4327    1.1977 C   0  0  0  0  0  0
   49.6230   42.2464   -0.6736 N   0  0  0  0  0  0
   49.6459   41.6126   -4.3063 C   0  0  0  0  0  0
   52.1146   45.7407    1.0799 C   0  0  0  0  0  0
   49.9825   42.5722   -6.4140 C   0  0  0  0  0  0
   50.3112   43.3356   -0.9667 C   0  0  0  0  0  0
   48.4165   40.3017   -1.6391 C   0  0  0  0  0  0
   48.3898   39.5167   -0.4925 C   0  0  0  0  0  0
   47.6223   38.3490   -0.4965 C   0  0  0  0  0  0
   46.7138   38.0749   -1.4985 C   0  0  0  0  0  0
   46.6175   38.9228   -2.5805 C   0  0  0  0  0  0
   47.4760   40.0099   -2.6493 C   0  0  0  0  0  0
   55.7409   47.5982    0.3011 Br  0  0  0  0  0  0
   54.3186   46.8598   -2.4799 C   0  0  0  0  0  0
   54.4242   48.1854   -2.5809 F   0  0  0  0  0  0
   55.5416   46.3307   -2.4397 F   0  0  0  0  0  0
   53.7346   46.4105   -3.5916 F   0  0  0  0  0  0
   52.0009   45.5840   -2.2952 H   0  0  0  0  0  0
   50.1560   44.3634    0.7935 H   0  0  0  0  0  0
   51.1526   43.4665   -7.9803 H   0  0  0  0  0  0
   50.8411   44.5291   -6.6160 H   0  0  0  0  0  0
   52.0234   43.2100   -6.4802 H   0  0  0  0  0  0
   53.7078   46.6638    2.1759 H   0  0  0  0  0  0
   51.6279   45.3832    1.9664 H   0  0  0  0  0  0
   50.0476   41.5737   -6.8507 H   0  0  0  0  0  0
   48.9791   42.9797   -6.5001 H   0  0  0  0  0  0
   49.0568   39.7189    0.3312 H   0  0  0  0  0  0
   47.7042   37.6353    0.3016 H   0  0  0  0  0  0
   46.0804   37.2066   -1.4222 H   0  0  0  0  0  0
   45.8934   38.7448   -3.3610 H   0  0  0  0  0  0
   47.3113   40.6793   -3.4716 H   0  0  0  0  0  0
  1  2  2  0  0  0
  1  3  1  0  0  0
  1 25  1  0  0  0
  2 12  1  0  0  0
  2 24  1  0  0  0
  3  5  2  0  0  0
  3 29  1  0  0  0
  4 17  1  0  0  0
  4  5  1  0  0  0
  4 30  1  0  0  0
  5 15  1  0  0  0
  6  9  2  0  0  0
  6 13  1  0  0  0
  6 18  1  0  0  0
  7 17  1  0  0  0
  7  9  1  0  0  0
  8 16  1  0  0  0
  8 31  1  0  0  0
  8 32  1  0  0  0
  8 33  1  0  0  0
  9 14  1  0  0  0
 10 14  1  0  0  0
 10 16  1  0  0  0
 11 14  2  0  0  0
 12 15  2  0  0  0
 12 34  1  0  0  0
 13 17  2  0  0  0
 15 35  1  0  0  0
 16 36  1  0  0  0
 16 37  1  0  0  0
 18 19  1  0  0  0
 18 23  2  0  0  0
 19 20  2  0  0  0
 19 38  1  0  0  0
 20 21  1  0  0  0
 20 39  1  0  0  0
 21 22  2  0  0  0
 21 40  1  0  0  0
 22 23  1  0  0  0
 22 41  1  0  0  0
 23 42  1  0  0  0
 25 26  1  0  0  0
 25 27  1  0  0  0
 25 28  1  0  0  0
M  END
> <s_m_entry_id>
25780

> <s_m_entry_name>
dock_pv.432

> <s_m_Source_Path>
/home/csk/Desktop/cluster/DUD-E-result/pyrd

> <s_m_Source_File>
dock_pv.maegz

> <i_m_Source_File_Index>
432

> <chembl_id>
CHEMBL3410603

> <chembl_pref_name>
None

> <i_lp_mmshare_version>
53161

> <r_lp_tautomer_probability>
1

> <s_lp_Force_Field>
OPLS_2005

> <r_lp_Energy>
17.751684

> <b_lp_Chiralities_Consistent>
1

> <s_lp_Variant>
CHEMBL1966_lig236-1

> <s_i_glide_gridfile>
glide-grid_1d3g

> <i_i_glide_lignum>
282

> <i_i_glide_rotatable_bonds>
7

> <r_i_docking_score>
-8.57655879957676

> <r_i_glide_ligand_efficiency>
-0.306305671413456

> <r_i_glide_ligand_efficiency_sa>
-0.930124422803948

> <r_i_glide_ligand_efficiency_ln>
-1.97972158965088

> <r_i_glide_gscore>
-8.57655879957676

> <r_i_glide_lipo>
-5.5103461610962

> <r_i_glide_hbond>
0

> <r_i_glide_metal>
0

> <r_i_glide_rewards>
-2.50298048956777

> <r_i_glide_evdw>
-18.0372791290283

> <r_i_glide_ecoul>
-0.775625228881836

> <r_i_glide_erotb>
0.454975591870908

> <r_i_glide_esite>
0

> <r_i_glide_emodel>
-18.2962934807168

> <r_i_glide_energy>
-18.8129043579102

> <r_i_glide_einternal>
4.33496713638306

> <i_i_glide_confnum>
58

> <i_i_glide_posenum>
179

> <r_i_glide_eff_state_penalty>
0

> <s_user_duplicate_titles>
CHEMBL1966_lig236

> <i_f3d_flags>
0

> <s_m_subgroup_title>
dock_pv

> <s_m_subgroupid>
dock_pv

> <b_m_subgroup_collapsed>
1

$$$$
CHEMBL1966_lig490
                    3D
 Schrodinger Suite 2021-1.
 38 41  0  0  1  0            999 V2000
   46.4453   40.8143   -5.5834 O   0  0  0  0  0  0
   47.7675   40.6866   -5.2771 C   0  0  0  0  0  0
   48.6724   40.8100   -6.0975 O   0  0  0  0  0  0
   48.0473   40.4108   -3.8307 C   0  0  0  0  0  0
   47.3649   39.4292   -3.1016 C   0  0  0  0  0  0
   47.6139   39.2096   -1.7459 C   0  0  0  0  0  0
   46.8234   37.9176   -0.9310 Cl  0  0  0  0  0  0
   48.4985   40.0101   -1.0294 C   0  0  0  0  0  0
   49.2213   40.9951   -1.7290 C   0  0  0  0  0  0
   50.0527   41.9699   -1.2454 N   0  0  0  0  0  0
   50.3457   42.7011   -2.2939 C   0  0  0  0  0  0
   49.7698   42.2391   -3.4503 N   0  0  0  0  0  0
   48.9824   41.1684   -3.1170 C   0  0  0  0  0  0
   51.2232   43.8900   -2.2719 C   0  0  0  0  0  0
   52.1621   44.0103   -3.2999 C   0  0  0  0  0  0
   53.1204   45.0160   -3.2449 C   0  0  0  0  0  0
   53.1647   45.9109   -2.1730 C   0  0  0  0  0  0
   52.1913   45.8139   -1.1692 C   0  0  0  0  0  0
   51.2222   44.8098   -1.2175 C   0  0  0  0  0  0
   54.2728   46.9016   -2.1057 C   0  0  0  0  0  0
   55.0008   47.0743   -0.9222 C   0  0  0  0  0  0
   56.1071   47.9195   -0.8947 C   0  0  0  0  0  0
   56.4740   48.6213   -2.0381 C   0  0  0  0  0  0
   55.7498   48.4738   -3.2166 C   0  0  0  0  0  0
   54.6545   47.6163   -3.2493 C   0  0  0  0  0  0
   45.8952   40.8630   -4.7983 H   0  0  0  0  0  0
   46.6330   38.8092   -3.5957 H   0  0  0  0  0  0
   48.6444   39.8575    0.0304 H   0  0  0  0  0  0
   49.8720   42.6921   -4.3468 H   0  0  0  0  0  0
   52.1968   43.2990   -4.1127 H   0  0  0  0  0  0
   53.8638   45.0828   -4.0220 H   0  0  0  0  0  0
   52.2014   46.4984   -0.3332 H   0  0  0  0  0  0
   50.5024   44.7203   -0.4167 H   0  0  0  0  0  0
   54.7388   46.5190   -0.0332 H   0  0  0  0  0  0
   56.6950   48.0165    0.0035 H   0  0  0  0  0  0
   57.3326   49.2768   -2.0115 H   0  0  0  0  0  0
   56.0390   49.0201   -4.1021 H   0  0  0  0  0  0
   54.1051   47.5014   -4.1733 H   0  0  0  0  0  0
  1  2  1  0  0  0
  1 26  1  0  0  0
  2  3  2  0  0  0
  2  4  1  0  0  0
  4  5  2  0  0  0
  4 13  1  0  0  0
  5  6  1  0  0  0
  5 27  1  0  0  0
  6  7  1  0  0  0
  6  8  2  0  0  0
  8  9  1  0  0  0
  8 28  1  0  0  0
  9 10  1  0  0  0
  9 13  2  0  0  0
 10 11  2  0  0  0
 11 12  1  0  0  0
 11 14  1  0  0  0
 12 13  1  0  0  0
 12 29  1  0  0  0
 14 15  2  0  0  0
 14 19  1  0  0  0
 15 16  1  0  0  0
 15 30  1  0  0  0
 16 17  2  0  0  0
 16 31  1  0  0  0
 17 18  1  0  0  0
 17 20  1  0  0  0
 18 19  2  0  0  0
 18 32  1  0  0  0
 19 33  1  0  0  0
 20 21  2  0  0  0
 20 25  1  0  0  0
 21 22  1  0  0  0
 21 34  1  0  0  0
 22 23  2  0  0  0
 22 35  1  0  0  0
 23 24  1  0  0  0
 23 36  1  0  0  0
 24 25  2  0  0  0
 24 37  1  0  0  0
 25 38  1  0  0  0
M  END
> <s_m_entry_id>
25781

> <s_m_entry_name>
dock_pv.433

> <s_m_Source_Path>
/home/csk/Desktop/cluster/DUD-E-result/pyrd

> <s_m_Source_File>
dock_pv.maegz

> <i_m_Source_File_Index>
433

> <chembl_id>
CHEMBL3677747

> <chembl_pref_name>
None

> <i_lp_mmshare_version>
53161

> <r_lp_tautomer_probability>
1

> <s_lp_Force_Field>
OPLS_2005

> <r_lp_Energy>
19.128684

> <b_lp_Chiralities_Consistent>
1

> <s_lp_Variant>
CHEMBL1966_lig490-1

> <s_i_glide_gridfile>
glide-grid_1d3g

> <i_i_glide_lignum>
540

> <i_i_glide_rotatable_bonds>
4

> <r_i_docking_score>
-8.57487675190756

> <r_i_glide_ligand_efficiency>
-0.342995070076303

> <r_i_glide_ligand_efficiency_sa>
-1.00292366794658

> <r_i_glide_ligand_efficiency_ln>
-2.03250275852228

> <r_i_glide_gscore>
-8.57487675190756

> <r_i_glide_lipo>
-5.27870344967628

> <r_i_glide_hbond>
-0.16

> <r_i_glide_metal>
0

> <r_i_glide_rewards>
-0.720768887280951

> <r_i_glide_evdw>
-40.7957153320312

> <r_i_glide_ecoul>
-5.63457107543945

> <r_i_glide_erotb>
0.469567012967147

> <r_i_glide_esite>
0

> <r_i_glide_emodel>
-62.7482697506425

> <r_i_glide_energy>
-46.4302864074707

> <r_i_glide_einternal>
7.01647281646729

> <i_i_glide_confnum>
14

> <i_i_glide_posenum>
104

> <r_i_glide_eff_state_penalty>
0

> <s_user_duplicate_titles>
CHEMBL1966_lig490

> <i_f3d_flags>
0

> <s_m_subgroup_title>
dock_pv

> <s_m_subgroupid>
dock_pv

> <b_m_subgroup_collapsed>
1

$$$$
CHEMBL1966_lig659 
                    3D
 Schrodinger Suite 2021-1.
 31 33  0  0  1  0            999 V2000
   46.4498   38.8334   -2.5968 C   0  0  0  0  0  0
   47.1018   38.9716   -1.3794 C   0  0  0  0  0  0
   48.1533   39.8738   -1.2674 C   0  0  0  0  0  0
   46.8665   39.5756   -3.6990 C   0  0  0  0  0  0
   47.9872   40.4101   -3.6316 C   0  0  0  0  0  0
   48.6255   40.5915   -2.3833 C   0  0  0  0  0  0
   49.7390   41.5858   -2.1830 C   0  0  0  0  0  0
   50.1128   42.3328   -3.4146 C   0  0  0  0  0  0
   49.5035   42.1138   -4.6143 C   0  0  0  0  0  0
   48.4233   41.1399   -4.8714 C   0  0  0  0  0  0
   47.9044   40.9377   -5.9755 O   0  0  0  0  0  0
   50.2427   41.7436   -1.0682 O   0  0  0  0  0  0
   49.8406   42.8099   -5.7434 O   0  0  0  0  0  0
   51.1874   43.2130   -3.3977 N   0  0  0  0  0  0
   51.6231   44.2017   -2.4991 C   0  0  0  0  0  0
   52.8230   44.8430   -2.8529 C   0  0  0  0  0  0
   53.3563   45.8506   -2.0504 C   0  0  0  0  0  0
   52.7004   46.2252   -0.8806 C   0  0  0  0  0  0
   51.5029   45.6070   -0.5275 C   0  0  0  0  0  0
   50.9504   44.6124   -1.3383 C   0  0  0  0  0  0
   54.8389   46.6139   -2.4918 Cl  0  0  0  0  0  0
   45.6240   38.1487   -2.6912 H   0  0  0  0  0  0
   46.7809   38.4064   -0.5164 H   0  0  0  0  0  0
   48.6151   39.9897   -0.2959 H   0  0  0  0  0  0
   46.3213   39.4577   -4.6247 H   0  0  0  0  0  0
   49.1888   42.6354   -6.4292 H   0  0  0  0  0  0
   51.6716   43.2991   -4.2799 H   0  0  0  0  0  0
   53.3634   44.5474   -3.7366 H   0  0  0  0  0  0
   53.1206   46.9906   -0.2444 H   0  0  0  0  0  0
   51.0104   45.8920    0.3859 H   0  0  0  0  0  0
   50.0044   44.1798   -1.0555 H   0  0  0  0  0  0
  1  2  2  0  0  0
  1  4  1  0  0  0
  1 22  1  0  0  0
  2  3  1  0  0  0
  2 23  1  0  0  0
  3  6  2  0  0  0
  3 24  1  0  0  0
  4  5  2  0  0  0
  4 25  1  0  0  0
  5  6  1  0  0  0
  5 10  1  0  0  0
  6  7  1  0  0  0
  7  8  1  0  0  0
  7 12  2  0  0  0
  8  9  2  0  0  0
  8 14  1  0  0  0
  9 10  1  0  0  0
  9 13  1  0  0  0
 10 11  2  0  0  0
 13 26  1  0  0  0
 14 15  1  0  0  0
 14 27  1  0  0  0
 15 16  2  0  0  0
 15 20  1  0  0  0
 16 17  1  0  0  0
 16 28  1  0  0  0
 17 18  2  0  0  0
 17 21  1  0  0  0
 18 19  1  0  0  0
 18 29  1  0  0  0
 19 20  2  0  0  0
 19 30  1  0  0  0
 20 31  1  0  0  0
M  END
> <s_m_entry_id>
25782

> <s_m_entry_name>
dock_pv.434

> <s_m_Source_Path>
/home/csk/Desktop/cluster/DUD-E-result/pyrd

> <s_m_Source_File>
dock_pv.maegz

> <i_m_Source_File_Index>
434

> <chembl_id>
CHEMBL4457147

> <chembl_pref_name>
None

> <i_lp_mmshare_version>
53161

> <r_lp_tautomer_probability>
1

> <s_lp_Force_Field>
OPLS_2005

> <r_lp_Energy>
31.415568

> <b_lp_Chiralities_Consistent>
1

> <s_lp_Variant>
CHEMBL1966_lig659 -1

> <s_i_glide_gridfile>
glide-grid_1d3g

> <i_i_glide_lignum>
716

> <i_i_glide_rotatable_bonds>
3

> <r_i_docking_score>
-8.57361586315672

> <r_i_glide_ligand_efficiency>
-0.408267422055082

> <r_i_glide_ligand_efficiency_sa>
-1.12637885999347

> <r_i_glide_ligand_efficiency_ln>
-2.11980919754339

> <r_i_glide_gscore>
-8.57361586315672

> <r_i_glide_lipo>
-4.29782606475444

> <r_i_glide_hbond>
-0.189696657450185

> <r_i_glide_metal>
0

> <r_i_glide_rewards>
-2.57272620128237

> <r_i_glide_evdw>
-33.3852005004883

> <r_i_glide_ecoul>
-1.68757462501526

> <r_i_glide_erotb>
0.409029279106968

> <r_i_glide_esite>
0

> <r_i_glide_emodel>
-49.4716517895128

> <r_i_glide_energy>
-35.0727751255035

> <r_i_glide_einternal>
7.63146781921387

> <i_i_glide_confnum>
8

> <i_i_glide_posenum>
118

> <r_i_glide_eff_state_penalty>
0

> <s_user_duplicate_titles>
CHEMBL1966_lig659 

> <i_f3d_flags>
0

> <s_m_subgroup_title>
dock_pv

> <s_m_subgroupid>
dock_pv

> <b_m_subgroup_collapsed>
1

$$$$
CHEMBL1966_lig362
                    3D
 Schrodinger Suite 2021-1.
 34 35  0  0  1  0            999 V2000
   49.9580   42.1636   -3.0648 C   0  0  0  0  0  0
   50.0736   42.7518   -4.4102 C   0  0  0  0  0  0
   49.2230   42.2315   -5.3249 N   0  0  0  0  0  0
   48.3569   41.1954   -5.2001 C   0  0  0  0  0  0
   48.3756   40.6146   -3.9758 N   0  0  0  0  0  0
   49.1125   41.0835   -2.9056 C   0  0  0  0  0  0
   48.8230   40.4100   -1.6315 C   0  0  0  0  0  0
   48.0230   39.2978   -1.7311 O   0  0  0  0  0  0
   49.2230   40.8100   -0.5400 O   0  0  0  0  0  0
   47.6230   40.8100   -6.0990 O   0  0  0  0  0  0
   50.8767   43.6100   -4.7611 O   0  0  0  0  0  0
   50.8720   42.8489   -2.0201 C   0  0  0  0  0  0
   50.4583   44.2921   -1.5984 C   0  0  0  0  0  0
   51.5952   45.1887   -1.0805 C   0  0  0  0  0  0
   52.6218   45.6100   -1.9361 C   0  0  0  0  0  0
   53.6754   46.4140   -1.4733 C   0  0  0  0  0  0
   53.6795   46.8065   -0.1258 C   0  0  0  0  0  0
   52.6541   46.4100    0.7299 C   0  0  0  0  0  0
   51.6230   45.6025    0.2546 C   0  0  0  0  0  0
   54.7726   46.8432   -2.4176 C   0  0  0  0  0  0
   55.7704   47.5777   -1.8523 O   0  0  0  0  0  0
   54.7728   46.5503   -3.6108 O   0  0  0  0  0  0
   49.2553   42.6732   -6.2303 H   0  0  0  0  0  0
   47.6365   39.9414   -3.8438 H   0  0  0  0  0  0
   48.1457   38.8078   -2.5465 H   0  0  0  0  0  0
   51.8514   42.8949   -2.4990 H   0  0  0  0  0  0
   51.0442   42.2363   -1.1387 H   0  0  0  0  0  0
   49.6550   44.2373   -0.8616 H   0  0  0  0  0  0
   50.0230   44.8100   -2.4492 H   0  0  0  0  0  0
   52.5995   45.2866   -2.9687 H   0  0  0  0  0  0
   54.4713   47.4243    0.2747 H   0  0  0  0  0  0
   52.6659   46.7149    1.7662 H   0  0  0  0  0  0
   50.8511   45.2723    0.9346 H   0  0  0  0  0  0
   56.4212   47.7956   -2.5214 H   0  0  0  0  0  0
  1  2  1  0  0  0
  1  6  2  0  0  0
  1 12  1  0  0  0
  2  3  1  0  0  0
  2 11  2  0  0  0
  3  4  1  0  0  0
  3 23  1  0  0  0
  4  5  1  0  0  0
  4 10  2  0  0  0
  5  6  1  0  0  0
  5 24  1  0  0  0
  6  7  1  0  0  0
  7  8  1  0  0  0
  7  9  2  0  0  0
  8 25  1  0  0  0
 12 13  1  0  0  0
 12 26  1  0  0  0
 12 27  1  0  0  0
 13 14  1  0  0  0
 13 28  1  0  0  0
 13 29  1  0  0  0
 14 15  2  0  0  0
 14 19  1  0  0  0
 15 16  1  0  0  0
 15 30  1  0  0  0
 16 17  2  0  0  0
 16 20  1  0  0  0
 17 18  1  0  0  0
 17 31  1  0  0  0
 18 19  2  0  0  0
 18 32  1  0  0  0
 19 33  1  0  0  0
 20 21  1  0  0  0
 20 22  2  0  0  0
 21 34  1  0  0  0
M  END
> <s_m_entry_id>
25783

> <s_m_entry_name>
dock_pv.435

> <s_m_Source_Path>
/home/csk/Desktop/cluster/DUD-E-result/pyrd

> <s_m_Source_File>
dock_pv.maegz

> <i_m_Source_File_Index>
435

> <chembl_id>
CHEMBL3907470

> <chembl_pref_name>
None

> <i_lp_mmshare_version>
53161

> <r_lp_tautomer_probability>
1

> <s_lp_Force_Field>
OPLS_2005

> <r_lp_Energy>
13.014086

> <b_lp_Chiralities_Consistent>
1

> <s_lp_Variant>
CHEMBL1966_lig362-1

> <s_i_glide_gridfile>
glide-grid_1d3g

> <i_i_glide_lignum>
412

> <i_i_glide_rotatable_bonds>
7

> <r_i_docking_score>
-8.5696930565625

> <r_i_glide_ligand_efficiency>
-0.389531502571023

> <r_i_glide_ligand_efficiency_sa>
-1.09148258960869

> <r_i_glide_ligand_efficiency_ln>
-2.09474557017312

> <r_i_glide_gscore>
-8.5696930565625

> <r_i_glide_lipo>
-3.47950137520774

> <r_i_glide_hbond>
-0.216593392680186

> <r_i_glide_metal>
0

> <r_i_glide_rewards>
-2.94676913482131

> <r_i_glide_evdw>
-40.9804573059082

> <r_i_glide_ecoul>
-5.82512950897217

> <r_i_glide_erotb>
0.995963137787971

> <r_i_glide_esite>
0

> <r_i_glide_emodel>
-67.7904129520755

> <r_i_glide_energy>
-46.8055868148804

> <r_i_glide_einternal>
2.3535008430481

> <i_i_glide_confnum>
27

> <i_i_glide_posenum>
395

> <r_i_glide_eff_state_penalty>
0

> <s_user_duplicate_titles>
CHEMBL1966_lig362

> <i_f3d_flags>
0

> <s_m_subgroup_title>
dock_pv

> <s_m_subgroupid>
dock_pv

> <b_m_subgroup_collapsed>
1

$$$$
CHEMBL1966_lig110
                    3D
 Schrodinger Suite 2021-1.
 35 36  0  0  1  0            999 V2000
   53.0477   44.7576   -3.2569 C   0  0  0  0  0  0
   52.8258   45.4895   -2.0830 C   0  0  0  0  0  0
   51.6647   45.2099   -1.3399 C   0  0  0  0  0  0
   50.7974   44.1857   -1.7296 C   0  0  0  0  0  0
   51.0557   43.4489   -2.8975 C   0  0  0  0  0  0
   52.1639   43.7674   -3.6793 C   0  0  0  0  0  0
   53.8829   46.4235   -1.5650 C   0  0  0  0  0  0
   50.2595   42.3798   -3.3495 N   0  0  0  0  0  0
   49.6118   41.4609   -2.5977 C   0  0  0  0  0  0
   48.8749   40.3031   -3.3159 C   0  0  1  0  0  0
   49.6230   41.4725   -1.3668 O   0  0  0  0  0  0
   47.9934   39.4925   -2.4513 C   0  0  0  0  0  0
   48.1776   40.6235   -4.6582 C   0  0  0  0  0  0
   46.6661   40.4102   -4.7896 C   0  0  0  0  0  0
   48.8207   41.0171   -5.6317 O   0  0  0  0  0  0
   47.2957   38.8569   -1.7790 N   0  0  0  0  0  0
   54.6723   47.2634   -2.3872 C   0  0  0  0  0  0
   55.7275   48.0020   -1.8523 C   0  0  0  0  0  0
   56.0232   47.9274   -0.4990 C   0  0  0  0  0  0
   55.2348   47.1448    0.3366 C   0  0  0  0  0  0
   54.1764   46.4095   -0.1909 C   0  0  0  0  0  0
   54.4233   47.4347   -4.0847 Cl  0  0  0  0  0  0
   53.9590   44.9024   -3.8097 H   0  0  0  0  0  0
   51.4529   45.7508   -0.4295 H   0  0  0  0  0  0
   49.9309   43.9728   -1.1212 H   0  0  0  0  0  0
   52.3905   43.2104   -4.5764 H   0  0  0  0  0  0
   50.2639   42.2281   -4.3482 H   0  0  0  0  0  0
   46.4262   39.3515   -4.8641 H   0  0  0  0  0  0
   46.2860   40.9069   -5.6822 H   0  0  0  0  0  0
   46.1363   40.8099   -3.9255 H   0  0  0  0  0  0
   49.6734   39.6101   -3.5751 H   0  0  0  0  0  0
   56.3329   48.6253   -2.4943 H   0  0  0  0  0  0
   56.8630   48.4770   -0.0991 H   0  0  0  0  0  0
   55.4521   47.0949    1.3937 H   0  0  0  0  0  0
   53.6104   45.7839    0.4838 H   0  0  0  0  0  0
  1  6  1  0  0  0
  1  2  2  0  0  0
  1 23  1  0  0  0
  2  7  1  0  0  0
  2  3  1  0  0  0
  3  4  2  0  0  0
  3 24  1  0  0  0
  4  5  1  0  0  0
  4 25  1  0  0  0
  5  6  2  0  0  0
  5  8  1  0  0  0
  6 26  1  0  0  0
  7 17  2  0  0  0
  7 21  1  0  0  0
  8  9  1  0  0  0
  8 27  1  0  0  0
  9 11  2  0  0  0
  9 10  1  0  0  0
 10 12  1  0  0  0
 10 31  1  0  0  0
 10 13  1  0  0  0
 12 16  3  0  0  0
 13 15  2  0  0  0
 13 14  1  0  0  0
 14 28  1  0  0  0
 14 29  1  0  0  0
 14 30  1  0  0  0
 17 18  1  0  0  0
 17 22  1  0  0  0
 18 19  2  0  0  0
 18 32  1  0  0  0
 19 20  1  0  0  0
 19 33  1  0  0  0
 20 21  2  0  0  0
 20 34  1  0  0  0
 21 35  1  0  0  0
M  END
> <s_m_entry_id>
25784

> <s_m_entry_name>
dock_pv.436

> <s_m_Source_Path>
/home/csk/Desktop/cluster/DUD-E-result/pyrd

> <s_m_Source_File>
dock_pv.maegz

> <i_m_Source_File_Index>
436

> <chembl_id>
CHEMBL484531

> <chembl_pref_name>
None

> <i_lp_mmshare_version>
53161

> <r_lp_tautomer_probability>
0.995394628248396

> <s_lp_Force_Field>
OPLS_2005

> <r_lp_Energy>
24.216678

> <b_lp_Chiralities_Consistent>
1

> <s_lp_Variant>
CHEMBL1966_lig110-2

> <s_i_glide_gridfile>
glide-grid_1d3g

> <i_i_glide_lignum>
122

> <i_i_glide_rotatable_bonds>
5

> <r_i_docking_score>
-8.56695491213604

> <r_i_glide_ligand_efficiency>
-0.389407041460729

> <r_i_glide_ligand_efficiency_sa>
-1.09113384468287

> <r_i_glide_ligand_efficiency_ln>
-2.09407626779905

> <r_i_glide_gscore>
-8.56695491213604

> <r_i_glide_lipo>
-4.1208890315284

> <r_i_glide_hbond>
-0.0269466132031346

> <r_i_glide_metal>
0

> <r_i_glide_rewards>
-2.75869474839165

> <r_i_glide_evdw>
-41.1216430664062

> <r_i_glide_ecoul>
-2.4234459400177

> <r_i_glide_erotb>
0.759174525310115

> <r_i_glide_esite>
0

> <r_i_glide_emodel>
-56.6597791314643

> <r_i_glide_energy>
-43.545089006424

> <r_i_glide_einternal>
8.86602210998535

> <i_i_glide_confnum>
3

> <i_i_glide_posenum>
354

> <r_i_glide_eff_state_penalty>
0

> <s_user_duplicate_titles>
CHEMBL1966_lig110,520745

> <i_f3d_flags>
0

> <s_m_subgroup_title>
dock_pv

> <s_m_subgroupid>
dock_pv

> <b_m_subgroup_collapsed>
1

$$$$
CHEMBL1966_lig431
                    3D
 Schrodinger Suite 2021-1.
 49 51  0  0  1  0            999 V2000
   57.3681   47.9276   -3.0952 C   0  0  0  0  0  0
   56.0795   48.7475   -3.2701 C   0  0  0  0  0  0
   54.9321   47.9054   -3.3962 O   0  0  0  0  0  0
   54.3792   47.2989   -2.2825 C   0  0  0  0  0  0
   54.8124   47.5056   -0.9653 C   0  0  0  0  0  0
   54.1596   46.8797    0.0923 C   0  0  0  0  0  0
   53.0707   46.0493   -0.1544 C   0  0  0  0  0  0
   52.6487   45.7620   -1.4625 C   0  0  0  0  0  0
   53.3131   46.4224   -2.5073 C   0  0  0  0  0  0
   51.6199   44.6962   -1.7190 C   0  0  0  0  0  0
   50.7289   44.2673   -0.7303 C   0  0  0  0  0  0
   50.0697   43.0416   -0.8805 C   0  0  0  0  0  0
   49.3873   42.4549    0.3497 C   0  0  0  0  0  0
   50.2011   42.3245   -2.0786 C   0  0  0  0  0  0
   49.6168   41.0553   -2.1947 N   0  0  0  0  0  0
   48.6167   40.6157   -3.0726 C   0  0  0  0  0  0
   48.5830   41.0986   -4.3890 C   0  0  0  0  0  0
   47.5053   40.8274   -5.2234 C   0  0  0  0  0  0
   46.4395   40.0661   -4.7553 C   0  0  0  0  0  0
   45.2627   39.7570   -5.6543 C   0  0  0  0  0  0
   46.4915   39.5278   -3.4749 C   0  0  0  0  0  0
   47.5725   39.7691   -2.6128 C   0  0  0  0  0  0
   47.4715   39.1703   -1.2167 C   0  0  0  0  0  0
   46.5728   38.3964   -0.9153 O   0  0  0  0  0  0
   48.3647   39.5968   -0.2838 O   0  0  0  0  0  0
   51.0121   42.8713   -3.0737 C   0  0  0  0  0  0
   51.7256   44.0098   -2.8986 N   0  0  0  0  0  0
   58.2393   48.5809   -3.0307 H   0  0  0  0  0  0
   57.3475   47.3166   -2.1938 H   0  0  0  0  0  0
   57.5192   47.2572   -3.9415 H   0  0  0  0  0  0
   56.1554   49.3322   -4.1870 H   0  0  0  0  0  0
   55.9597   49.4815   -2.4706 H   0  0  0  0  0  0
   55.6400   48.1588   -0.7374 H   0  0  0  0  0  0
   54.4877   47.0501    1.1076 H   0  0  0  0  0  0
   52.6044   45.5867    0.7009 H   0  0  0  0  0  0
   53.0175   46.2388   -3.5297 H   0  0  0  0  0  0
   50.6553   44.7986    0.2067 H   0  0  0  0  0  0
   49.2447   43.2081    1.1244 H   0  0  0  0  0  0
   48.4230   42.0068    0.3011 H   0  0  0  0  0  0
   49.9872   41.6108    0.7001 H   0  0  0  0  0  0
   49.4379   40.6500   -1.2835 H   0  0  0  0  0  0
   49.3553   41.7413   -4.7730 H   0  0  0  0  0  0
   47.4859   41.2611   -6.2100 H   0  0  0  0  0  0
   45.6224   39.6100   -6.6621 H   0  0  0  0  0  0
   44.5182   40.5583   -5.6771 H   0  0  0  0  0  0
   44.8051   38.8102   -5.3709 H   0  0  0  0  0  0
   45.6557   38.9200   -3.1527 H   0  0  0  0  0  0
   48.1317   39.1850    0.5572 H   0  0  0  0  0  0
   51.2118   42.3442   -3.9915 H   0  0  0  0  0  0
  1  2  1  0  0  0
  1 28  1  0  0  0
  1 29  1  0  0  0
  1 30  1  0  0  0
  2  3  1  0  0  0
  2 31  1  0  0  0
  2 32  1  0  0  0
  3  4  1  0  0  0
  4  5  2  0  0  0
  4  9  1  0  0  0
  5  6  1  0  0  0
  5 33  1  0  0  0
  6  7  2  0  0  0
  6 34  1  0  0  0
  7  8  1  0  0  0
  7 35  1  0  0  0
  8  9  2  0  0  0
  8 10  1  0  0  0
  9 36  1  0  0  0
 10 11  2  0  0  0
 10 27  1  0  0  0
 11 12  1  0  0  0
 11 37  1  0  0  0
 12 13  1  0  0  0
 12 14  2  0  0  0
 13 38  1  0  0  0
 13 39  1  0  0  0
 13 40  1  0  0  0
 14 15  1  0  0  0
 14 26  1  0  0  0
 15 16  1  0  0  0
 15 41  1  0  0  0
 16 17  2  0  0  0
 16 22  1  0  0  0
 17 18  1  0  0  0
 17 42  1  0  0  0
 18 19  2  0  0  0
 18 43  1  0  0  0
 19 20  1  0  0  0
 19 21  1  0  0  0
 20 44  1  0  0  0
 20 45  1  0  0  0
 20 46  1  0  0  0
 21 22  2  0  0  0
 21 47  1  0  0  0
 22 23  1  0  0  0
 23 24  2  0  0  0
 23 25  1  0  0  0
 25 48  1  0  0  0
 26 27  2  0  0  0
 26 49  1  0  0  0
M  END
> <s_m_entry_id>
25785

> <s_m_entry_name>
dock_pv.437

> <s_m_Source_Path>
/home/csk/Desktop/cluster/DUD-E-result/pyrd

> <s_m_Source_File>
dock_pv.maegz

> <i_m_Source_File_Index>
437

> <chembl_id>
CHEMBL3674641

> <chembl_pref_name>
None

> <i_lp_mmshare_version>
53161

> <r_lp_tautomer_probability>
0.999999999999999

> <s_lp_Force_Field>
OPLS_2005

> <r_lp_Energy>
32.3345

> <b_lp_Chiralities_Consistent>
1

> <s_lp_Variant>
CHEMBL1966_lig431-1

> <s_i_glide_gridfile>
glide-grid_1d3g

> <i_i_glide_lignum>
481

> <i_i_glide_rotatable_bonds>
7

> <r_i_docking_score>
-8.56374996829569

> <r_i_glide_ligand_efficiency>
-0.317175924751692

> <r_i_glide_ligand_efficiency_sa>
-0.951527773209716

> <r_i_glide_ligand_efficiency_ln>
-1.99349980816684

> <r_i_glide_gscore>
-8.56374996829569

> <r_i_glide_lipo>
-5.26956140569688

> <r_i_glide_hbond>
0

> <r_i_glide_metal>
0

> <r_i_glide_rewards>
-1.86030625660502

> <r_i_glide_evdw>
-34.2702980041504

> <r_i_glide_ecoul>
-3.00873851776123

> <r_i_glide_erotb>
0.73094337187792

> <r_i_glide_esite>
0

> <r_i_glide_emodel>
-40.7917745869214

> <r_i_glide_energy>
-37.2790365219116

> <r_i_glide_einternal>
19.3467884063721

> <i_i_glide_confnum>
15

> <i_i_glide_posenum>
128

> <r_i_glide_eff_state_penalty>
0

> <s_user_duplicate_titles>
CHEMBL1966_lig431

> <i_f3d_flags>
0

> <s_m_subgroup_title>
dock_pv

> <s_m_subgroupid>
dock_pv

> <b_m_subgroup_collapsed>
1

$$$$
CHEMBL1966_lig443
                    3D
 Schrodinger Suite 2021-1.
 52 54  0  0  1  0            999 V2000
   59.1644   46.0047   -5.4130 C   0  0  0  0  0  0
   57.8957   46.5057   -4.8774 N   0  0  0  0  0  0
   57.4073   47.6697   -5.6162 C   0  0  0  0  0  0
   57.2427   45.8559   -3.8751 C   0  0  0  0  0  0
   57.6600   44.8089   -3.3916 O   0  0  0  0  0  0
   55.9382   46.3775   -3.3357 C   0  0  0  0  0  0
   55.7682   47.7164   -2.9654 C   0  0  0  0  0  0
   54.5327   48.1532   -2.4996 C   0  0  0  0  0  0
   53.4746   47.2544   -2.3976 C   0  0  0  0  0  0
   53.6327   45.9001   -2.6711 C   0  0  0  0  0  0
   54.8836   45.4771   -3.1357 C   0  0  0  0  0  0
   52.5021   44.9378   -2.4983 C   0  0  0  0  0  0
   52.4240   44.0099   -3.4916 N   0  0  0  0  0  0
   51.5125   43.0242   -3.3810 C   0  0  0  0  0  0
   50.6316   42.9044   -2.3175 C   0  0  0  0  0  0
   49.7721   41.8103   -2.2058 N   0  0  0  0  0  0
   48.9295   41.1758   -3.1388 C   0  0  0  0  0  0
   48.8483   41.6607   -4.4573 C   0  0  0  0  0  0
   47.8071   41.2867   -5.2982 C   0  0  0  0  0  0
   46.8384   40.4093   -4.8315 C   0  0  0  0  0  0
   45.5538   40.2007   -5.6008 C   0  0  0  0  0  0
   46.9921   39.8008   -3.5848 C   0  0  0  0  0  0
   48.0226   40.1748   -2.7072 C   0  0  0  0  0  0
   48.0201   39.6103   -1.2922 C   0  0  0  0  0  0
   48.7456   40.0314   -0.3952 O   0  0  0  0  0  0
   47.1446   38.5931   -1.0622 O   0  0  0  0  0  0
   50.6860   43.8698   -1.3128 C   0  0  0  0  0  0
   51.6228   44.9097   -1.3866 C   0  0  0  0  0  0
   51.7131   45.8838   -0.2202 C   0  0  0  0  0  0
   59.5319   45.1153   -4.9011 H   0  0  0  0  0  0
   59.9334   46.7723   -5.3313 H   0  0  0  0  0  0
   59.0526   45.7449   -6.4656 H   0  0  0  0  0  0
   56.4251   48.0024   -5.2989 H   0  0  0  0  0  0
   58.0948   48.5087   -5.5088 H   0  0  0  0  0  0
   57.3346   47.4344   -6.6780 H   0  0  0  0  0  0
   56.5805   48.4249   -3.0469 H   0  0  0  0  0  0
   54.3903   49.1876   -2.2255 H   0  0  0  0  0  0
   52.5036   47.6096   -2.1078 H   0  0  0  0  0  0
   55.0288   44.4297   -3.3633 H   0  0  0  0  0  0
   51.5744   42.2356   -4.1027 H   0  0  0  0  0  0
   49.5072   41.5807   -1.2552 H   0  0  0  0  0  0
   49.4957   42.4461   -4.8087 H   0  0  0  0  0  0
   47.6868   41.7852   -6.2463 H   0  0  0  0  0  0
   44.8256   39.6920   -4.9810 H   0  0  0  0  0  0
   45.1404   41.1729   -5.8699 H   0  0  0  0  0  0
   45.6684   39.6106   -6.4989 H   0  0  0  0  0  0
   46.2283   39.1060   -3.2620 H   0  0  0  0  0  0
   47.2230   38.3416   -0.1392 H   0  0  0  0  0  0
   50.0214   43.7971   -0.4637 H   0  0  0  0  0  0
   51.2881   45.4555    0.6889 H   0  0  0  0  0  0
   52.7512   46.1203    0.0150 H   0  0  0  0  0  0
   51.1847   46.8097   -0.4463 H   0  0  0  0  0  0
  1  2  1  0  0  0
  1 30  1  0  0  0
  1 31  1  0  0  0
  1 32  1  0  0  0
  2  3  1  0  0  0
  2  4  1  0  0  0
  3 33  1  0  0  0
  3 34  1  0  0  0
  3 35  1  0  0  0
  4  5  2  0  0  0
  4  6  1  0  0  0
  6  7  2  0  0  0
  6 11  1  0  0  0
  7  8  1  0  0  0
  7 36  1  0  0  0
  8  9  2  0  0  0
  8 37  1  0  0  0
  9 10  1  0  0  0
  9 38  1  0  0  0
 10 11  2  0  0  0
 10 12  1  0  0  0
 11 39  1  0  0  0
 12 13  2  0  0  0
 12 28  1  0  0  0
 13 14  1  0  0  0
 14 15  2  0  0  0
 14 40  1  0  0  0
 15 16  1  0  0  0
 15 27  1  0  0  0
 16 17  1  0  0  0
 16 41  1  0  0  0
 17 18  2  0  0  0
 17 23  1  0  0  0
 18 19  1  0  0  0
 18 42  1  0  0  0
 19 20  2  0  0  0
 19 43  1  0  0  0
 20 21  1  0  0  0
 20 22  1  0  0  0
 21 44  1  0  0  0
 21 45  1  0  0  0
 21 46  1  0  0  0
 22 23  2  0  0  0
 22 47  1  0  0  0
 23 24  1  0  0  0
 24 25  2  0  0  0
 24 26  1  0  0  0
 26 48  1  0  0  0
 27 28  2  0  0  0
 27 49  1  0  0  0
 28 29  1  0  0  0
 29 50  1  0  0  0
 29 51  1  0  0  0
 29 52  1  0  0  0
M  END
> <s_m_entry_id>
25786

> <s_m_entry_name>
dock_pv.438

> <s_m_Source_Path>
/home/csk/Desktop/cluster/DUD-E-result/pyrd

> <s_m_Source_File>
dock_pv.maegz

> <i_m_Source_File_Index>
438

> <chembl_id>
CHEMBL3674653

> <chembl_pref_name>
None

> <i_lp_mmshare_version>
53161

> <r_lp_tautomer_probability>
0.999999999999999

> <s_lp_Force_Field>
OPLS_2005

> <r_lp_Energy>
41.007134

> <b_lp_Chiralities_Consistent>
1

> <s_lp_Variant>
CHEMBL1966_lig443-1

> <s_i_glide_gridfile>
glide-grid_1d3g

> <i_i_glide_lignum>
493

> <i_i_glide_rotatable_bonds>
7

> <r_i_docking_score>
-8.55915339511282

> <r_i_glide_ligand_efficiency>
-0.295143220521132

> <r_i_glide_ligand_efficiency_sa>
-0.90677348137639

> <r_i_glide_ligand_efficiency_ln>
-1.95982908607758

> <r_i_glide_gscore>
-8.55915339511282

> <r_i_glide_lipo>
-5.27932035396453

> <r_i_glide_hbond>
0

> <r_i_glide_metal>
0

> <r_i_glide_rewards>
-1.89052972057628

> <r_i_glide_evdw>
-40.5237846374512

> <r_i_glide_ecoul>
-0.0385012775659561

> <r_i_glide_erotb>
0.642661102935443

> <r_i_glide_esite>
0

> <r_i_glide_emodel>
-42.787136242832

> <r_i_glide_energy>
-40.5622859150171

> <r_i_glide_einternal>
10.9280920028687

> <i_i_glide_confnum>
9

> <i_i_glide_posenum>
223

> <r_i_glide_eff_state_penalty>
0

> <s_user_duplicate_titles>
CHEMBL1966_lig443

> <i_f3d_flags>
0

> <s_m_subgroup_title>
dock_pv

> <s_m_subgroupid>
dock_pv

> <b_m_subgroup_collapsed>
1

$$$$
CHEMBL1966_lig103
                    3D
 Schrodinger Suite 2021-1.
 37 39  0  0  1  0            999 V2000
   47.3202   39.2082   -2.0058 C   0  0  0  0  0  0
   47.9694   39.4834   -0.8126 C   0  0  0  0  0  0
   49.0019   40.4101   -0.7677 C   0  0  0  0  0  0
   47.7350   39.8234   -3.1848 C   0  0  0  0  0  0
   48.7665   40.8148   -3.1705 C   0  0  0  0  0  0
   49.3995   41.1083   -1.9337 C   0  0  0  0  0  0
   50.3124   42.1062   -1.8096 N   0  0  0  0  0  0
   50.6067   42.8971   -2.8598 C   0  0  0  0  0  0
   50.0606   42.6708   -4.1281 C   0  0  0  0  0  0
   49.1459   41.6156   -4.2913 C   0  0  0  0  0  0
   51.4890   44.0433   -2.4996 C   0  0  0  0  0  0
   51.2225   44.8098   -1.3496 C   0  0  0  0  0  0
   52.0427   45.8799   -0.9983 C   0  0  0  0  0  0
   53.1491   46.1889   -1.7863 C   0  0  0  0  0  0
   53.4220   45.4534   -2.9361 C   0  0  0  0  0  0
   52.5874   44.3980   -3.2988 C   0  0  0  0  0  0
   50.3813   43.4990   -5.1777 O   0  0  0  0  0  0
   48.5491   41.3227   -5.6238 C   0  0  0  0  0  0
   47.2239   41.6087   -5.7421 O   0  0  0  0  0  0
   49.2227   40.8106   -6.4987 O   0  0  0  0  0  0
   54.1907   47.4892   -1.3370 Cl  0  0  0  0  0  0
   49.6229   40.8075    0.5445 C   0  0  0  0  0  0
   46.1144   38.2968   -1.9917 C   0  0  0  0  0  0
   47.6381   39.0041    0.0959 H   0  0  0  0  0  0
   47.2104   39.6006   -4.1008 H   0  0  0  0  0  0
   50.3700   44.5796   -0.7258 H   0  0  0  0  0  0
   51.8266   46.4571   -0.1106 H   0  0  0  0  0  0
   54.2809   45.6955   -3.5450 H   0  0  0  0  0  0
   52.8234   43.8072   -4.1698 H   0  0  0  0  0  0
   50.9153   44.2469   -4.9014 H   0  0  0  0  0  0
   46.9019   42.1839   -5.0435 H   0  0  0  0  0  0
   49.2616   40.1469    1.3364 H   0  0  0  0  0  0
   50.7101   40.8104    0.5042 H   0  0  0  0  0  0
   49.2956   41.8347    0.7012 H   0  0  0  0  0  0
   45.8167   38.0111   -3.0004 H   0  0  0  0  0  0
   46.3269   37.3938   -1.4181 H   0  0  0  0  0  0
   45.2824   38.8041   -1.5016 H   0  0  0  0  0  0
  1  2  2  0  0  0
  1  4  1  0  0  0
  1 23  1  0  0  0
  2  3  1  0  0  0
  2 24  1  0  0  0
  3  6  2  0  0  0
  3 22  1  0  0  0
  4  5  2  0  0  0
  4 25  1  0  0  0
  5  6  1  0  0  0
  5 10  1  0  0  0
  6  7  1  0  0  0
  7  8  2  0  0  0
  8 11  1  0  0  0
  8  9  1  0  0  0
  9 17  1  0  0  0
  9 10  2  0  0  0
 10 18  1  0  0  0
 11 12  2  0  0  0
 11 16  1  0  0  0
 12 13  1  0  0  0
 12 26  1  0  0  0
 13 14  2  0  0  0
 13 27  1  0  0  0
 14 15  1  0  0  0
 14 21  1  0  0  0
 15 16  2  0  0  0
 15 28  1  0  0  0
 16 29  1  0  0  0
 17 30  1  0  0  0
 18 19  1  0  0  0
 18 20  2  0  0  0
 19 31  1  0  0  0
 22 32  1  0  0  0
 22 33  1  0  0  0
 22 34  1  0  0  0
 23 35  1  0  0  0
 23 36  1  0  0  0
 23 37  1  0  0  0
M  END
> <s_m_entry_id>
25787

> <s_m_entry_name>
dock_pv.439

> <s_m_Source_Path>
/home/csk/Desktop/cluster/DUD-E-result/pyrd

> <s_m_Source_File>
dock_pv.maegz

> <i_m_Source_File_Index>
439

> <chembl_id>
CHEMBL375425

> <chembl_pref_name>
None

> <i_lp_mmshare_version>
53161

> <r_lp_tautomer_probability>
1

> <s_lp_Force_Field>
OPLS_2005

> <r_lp_Energy>
27.448854

> <b_lp_Chiralities_Consistent>
1

> <s_lp_Variant>
CHEMBL1966_lig103-1

> <s_i_glide_gridfile>
glide-grid_1d3g

> <i_i_glide_lignum>
112

> <i_i_glide_rotatable_bonds>
4

> <r_i_docking_score>
-8.55664735166895

> <r_i_glide_ligand_efficiency>
-0.372028145724737

> <r_i_glide_ligand_efficiency_sa>
-1.0579985580962

> <r_i_glide_ligand_efficiency_ln>
-2.06907491702209

> <r_i_glide_gscore>
-8.55664735166895

> <r_i_glide_lipo>
-4.90023497765876

> <r_i_glide_hbond>
-0.16

> <r_i_glide_metal>
0

> <r_i_glide_rewards>
-1.59542928548853

> <r_i_glide_evdw>
-28.3336200714111

> <r_i_glide_ecoul>
-5.55862474441528

> <r_i_glide_erotb>
0.349491626711189

> <r_i_glide_esite>
0

> <r_i_glide_emodel>
-44.4415575354194

> <r_i_glide_energy>
-33.8922448158264

> <r_i_glide_einternal>
2.42651963233948

> <i_i_glide_confnum>
11

> <i_i_glide_posenum>
301

> <r_i_glide_eff_state_penalty>
0

> <s_user_duplicate_titles>
CHEMBL1966_lig103

> <i_f3d_flags>
0

> <s_m_subgroup_title>
dock_pv

> <s_m_subgroupid>
dock_pv

> <b_m_subgroup_collapsed>
1

$$$$
CHEMBL1966_lig754
                    3D
 Schrodinger Suite 2021-1.
 36 39  0  0  1  0            999 V2000
   53.3432   46.3019   -0.7708 C   0  0  0  0  0  0
   54.2266   45.7176   -2.9438 C   0  0  0  0  0  0
   54.3744   46.4074   -1.7299 C   0  0  0  0  0  0
   53.2232   44.9181   -3.2990 N   0  0  0  0  0  0
   52.2123   45.5714   -1.1809 C   0  0  0  0  0  0
   52.2278   44.8100   -2.3684 C   0  0  0  0  0  0
   55.5872   47.0457   -1.7324 N   0  0  0  0  0  0
   53.4066   46.7941    0.6529 C   0  0  0  0  0  0
   55.3355   45.9302   -3.6990 O   0  0  0  0  0  0
   56.0993   46.7383   -2.9054 C   0  0  0  0  0  0
   51.2264   43.7047   -2.5967 C   0  0  0  0  0  0
   49.4479   41.5108   -2.9295 C   0  0  0  0  0  0
   52.4230   46.8100    1.3888 O   0  0  0  0  0  0
   50.6991   43.0215   -1.4998 C   0  0  0  0  0  0
   50.8728   43.2519   -3.8743 C   0  0  0  0  0  0
   49.9939   42.1808   -4.0365 C   0  0  0  0  0  0
   49.8495   41.9392   -1.6595 C   0  0  0  0  0  0
   48.3801   40.4602   -3.0726 C   0  0  0  0  0  0
   54.6539   47.1163    1.0942 O   0  0  0  0  0  0
   47.5908   40.4100   -4.2317 C   0  0  0  0  0  0
   48.0230   39.6179   -2.0040 C   0  0  0  0  0  0
   46.8940   38.8083   -2.0691 C   0  0  0  0  0  0
   46.4227   39.6640   -4.2717 C   0  0  0  0  0  0
   46.0933   38.8486   -3.2032 C   0  0  0  0  0  0
   51.3868   45.4525   -0.4933 H   0  0  0  0  0  0
   57.0530   47.0314   -3.3190 H   0  0  0  0  0  0
   50.9701   43.3063   -0.4987 H   0  0  0  0  0  0
   51.2747   43.7370   -4.7520 H   0  0  0  0  0  0
   49.7396   41.8910   -5.0436 H   0  0  0  0  0  0
   49.4659   41.4817   -0.7617 H   0  0  0  0  0  0
   54.6445   47.2618    2.0440 H   0  0  0  0  0  0
   47.7935   41.0525   -5.0735 H   0  0  0  0  0  0
   48.5861   39.6101   -1.0847 H   0  0  0  0  0  0
   46.6337   38.1694   -1.2380 H   0  0  0  0  0  0
   45.7897   39.6888   -5.1465 H   0  0  0  0  0  0
   45.2236   38.2279   -3.2990 H   0  0  0  0  0  0
  1  3  1  0  0  0
  1  5  2  0  0  0
  1  8  1  0  0  0
  2  3  2  0  0  0
  2  9  1  0  0  0
  2  4  1  0  0  0
  3  7  1  0  0  0
  4  6  2  0  0  0
  5  6  1  0  0  0
  5 25  1  0  0  0
  6 11  1  0  0  0
  7 10  2  0  0  0
  8 13  2  0  0  0
  8 19  1  0  0  0
  9 10  1  0  0  0
 10 26  1  0  0  0
 11 14  1  0  0  0
 11 15  2  0  0  0
 12 16  2  0  0  0
 12 18  1  0  0  0
 12 17  1  0  0  0
 14 17  2  0  0  0
 14 27  1  0  0  0
 15 16  1  0  0  0
 15 28  1  0  0  0
 16 29  1  0  0  0
 17 30  1  0  0  0
 18 20  2  0  0  0
 18 21  1  0  0  0
 19 31  1  0  0  0
 20 23  1  0  0  0
 20 32  1  0  0  0
 21 22  2  0  0  0
 21 33  1  0  0  0
 22 24  1  0  0  0
 22 34  1  0  0  0
 23 24  2  0  0  0
 23 35  1  0  0  0
 24 36  1  0  0  0
M  END
> <s_m_entry_id>
25788

> <s_m_entry_name>
dock_pv.440

> <s_m_Source_Path>
/home/csk/Desktop/cluster/DUD-E-result/pyrd

> <s_m_Source_File>
dock_pv.maegz

> <i_m_Source_File_Index>
440

> <chembl_id>
CHEMBL38820

> <chembl_pref_name>
None

> <i_lp_mmshare_version>
53161

> <r_lp_tautomer_probability>
1

> <s_lp_Force_Field>
OPLS_2005

> <r_lp_Energy>
22.916354

> <b_lp_Chiralities_Consistent>
1

> <s_lp_Variant>
CHEMBL1966_lig754-1

> <s_i_glide_gridfile>
glide-grid_1d3g

> <i_i_glide_lignum>
825

> <i_i_glide_rotatable_bonds>
4

> <r_i_docking_score>
-8.55530798125795

> <r_i_glide_ligand_efficiency>
-0.356471165885748

> <r_i_glide_ligand_efficiency_sa>
-1.02824077056213

> <r_i_glide_ligand_efficiency_ln>
-2.04767777741759

> <r_i_glide_gscore>
-8.55530798125795

> <r_i_glide_lipo>
-5.2562848056407

> <r_i_glide_hbond>
0

> <r_i_glide_metal>
0

> <r_i_glide_rewards>
-2.15406424941077

> <r_i_glide_evdw>
-32.6651802062988

> <r_i_glide_ecoul>
-0.465719312429428

> <r_i_glide_erotb>
0.558157980972884

> <r_i_glide_esite>
0

> <r_i_glide_emodel>
-37.8678294810037

> <r_i_glide_energy>
-33.1308995187283

> <r_i_glide_einternal>
1.27229571342468

> <i_i_glide_confnum>
13

> <i_i_glide_posenum>
13

> <r_i_glide_eff_state_penalty>
0

> <s_user_duplicate_titles>
CHEMBL1966_lig754

> <i_f3d_flags>
0

> <s_m_subgroup_title>
dock_pv

> <s_m_subgroupid>
dock_pv

> <b_m_subgroup_collapsed>
1

$$$$
CHEMBL1966_lig160
                    3D
 Schrodinger Suite 2021-1.
 36 39  0  0  1  0            999 V2000
   50.0230   42.2965   -3.5343 N   0  0  0  0  0  0
   50.9418   43.2505   -3.1565 C   0  0  0  0  0  0
   50.8230   44.1915   -1.6990 S   0  0  0  0  0  0
   52.2855   45.0540   -2.0890 C   0  0  0  0  0  0
   52.8230   44.6123   -3.2990 C   0  0  0  0  0  0
   52.0567   43.6100   -3.9027 C   0  0  0  0  0  0
   49.5479   42.1552   -4.8249 C   0  0  0  0  0  0
   48.6754   41.1968   -4.9910 N   0  0  0  0  0  0
   49.3444   41.3437   -2.7887 C   0  0  0  0  0  0
   48.5068   40.6895   -3.7320 C   0  0  0  0  0  0
   47.6230   39.6893   -3.3073 C   0  0  0  0  0  0
   47.5907   39.3613   -1.9506 C   0  0  0  0  0  0
   48.4230   40.0100   -1.0393 C   0  0  0  0  0  0
   49.3291   40.9891   -1.4315 C   0  0  0  0  0  0
   52.7821   46.0439   -1.1775 C   0  0  0  0  0  0
   54.0374   46.4456   -1.4388 N   0  0  0  0  0  0
   52.1348   46.4100   -0.1944 O   0  0  0  0  0  0
   54.7855   47.3830   -0.6195 C   0  0  0  0  0  0
   54.8996   47.1357    0.8663 C   0  0  0  0  0  0
   56.0946   46.9280   -0.0280 C   0  0  0  0  0  0
   46.6070   38.3311   -1.4397 C   0  0  0  0  0  0
   50.0916   41.5985   -0.4990 F   0  0  0  0  0  0
   53.7346   45.0001   -3.7264 H   0  0  0  0  0  0
   52.3223   43.1625   -4.8481 H   0  0  0  0  0  0
   49.9028   42.8170   -5.6028 H   0  0  0  0  0  0
   46.9632   39.2100   -4.0126 H   0  0  0  0  0  0
   48.3739   39.7381    0.0059 H   0  0  0  0  0  0
   54.4268   46.2364   -2.3444 H   0  0  0  0  0  0
   54.7222   48.4100   -0.9737 H   0  0  0  0  0  0
   54.4024   46.2679    1.3009 H   0  0  0  0  0  0
   54.8230   48.0100    1.5010 H   0  0  0  0  0  0
   56.9196   47.6390    0.0136 H   0  0  0  0  0  0
   56.4230   45.9108   -0.2337 H   0  0  0  0  0  0
   46.0213   38.7660   -0.6287 H   0  0  0  0  0  0
   45.9155   38.0100   -2.2174 H   0  0  0  0  0  0
   47.1341   37.4624   -1.0435 H   0  0  0  0  0  0
  1  7  1  0  0  0
  1  2  1  0  0  0
  1  9  1  0  0  0
  2  6  2  0  0  0
  2  3  1  0  0  0
  3  4  1  0  0  0
  4  5  2  0  0  0
  4 15  1  0  0  0
  5  6  1  0  0  0
  5 23  1  0  0  0
  6 24  1  0  0  0
  7  8  2  0  0  0
  7 25  1  0  0  0
  8 10  1  0  0  0
  9 14  1  0  0  0
  9 10  2  0  0  0
 10 11  1  0  0  0
 11 12  2  0  0  0
 11 26  1  0  0  0
 12 13  1  0  0  0
 12 21  1  0  0  0
 13 14  2  0  0  0
 13 27  1  0  0  0
 14 22  1  0  0  0
 15 16  1  0  0  0
 15 17  2  0  0  0
 16 18  1  0  0  0
 16 28  1  0  0  0
 18 19  1  0  0  0
 18 20  1  0  0  0
 18 29  1  0  0  0
 19 20  1  0  0  0
 19 30  1  0  0  0
 19 31  1  0  0  0
 20 32  1  0  0  0
 20 33  1  0  0  0
 21 34  1  0  0  0
 21 35  1  0  0  0
 21 36  1  0  0  0
M  END
> <s_m_entry_id>
25789

> <s_m_entry_name>
dock_pv.441

> <s_m_Source_Path>
/home/csk/Desktop/cluster/DUD-E-result/pyrd

> <s_m_Source_File>
dock_pv.maegz

> <i_m_Source_File_Index>
441

> <chembl_id>
CHEMBL2012964

> <chembl_pref_name>
None

> <i_lp_mmshare_version>
53161

> <r_lp_tautomer_probability>
1

> <s_lp_Force_Field>
OPLS_2005

> <r_lp_Energy>
23.37532

> <b_lp_Chiralities_Consistent>
1

> <s_lp_Variant>
CHEMBL1966_lig160-1

> <s_i_glide_gridfile>
glide-grid_1d3g

> <i_i_glide_lignum>
205

> <i_i_glide_rotatable_bonds>
4

> <r_i_docking_score>
-8.54748902049384

> <r_i_glide_ligand_efficiency>
-0.388522228204266

> <r_i_glide_ligand_efficiency_sa>
-1.08865456314053

> <r_i_glide_ligand_efficiency_ln>
-2.08931809384604

> <r_i_glide_gscore>
-8.54748902049384

> <r_i_glide_lipo>
-4.1733056192764

> <r_i_glide_hbond>
0

> <r_i_glide_metal>
0

> <r_i_glide_rewards>
-3.18045299492222

> <r_i_glide_evdw>
-35.6460914611816

> <r_i_glide_ecoul>
-1.06373488903046

> <r_i_glide_erotb>
0.748134400118428

> <r_i_glide_esite>
0

> <r_i_glide_emodel>
-53.8609894696981

> <r_i_glide_energy>
-36.7098263502121

> <r_i_glide_einternal>
2.05735087394714

> <i_i_glide_confnum>
17

> <i_i_glide_posenum>
264

> <r_i_glide_eff_state_penalty>
0

> <s_user_duplicate_titles>
CHEMBL1966_lig160

> <i_f3d_flags>
0

> <s_m_subgroup_title>
dock_pv

> <s_m_subgroupid>
dock_pv

> <b_m_subgroup_collapsed>
1

$$$$
CHEMBL1966_lig801
                    3D
 Schrodinger Suite 2021-1.
 44 47  0  0  1  0            999 V2000
   55.9206   47.6768   -2.7173 C   0  0  0  0  0  0
   56.2048   46.9177   -3.7978 N   0  0  0  0  0  0
   57.8317   49.1260   -3.1843 C   0  0  0  0  0  0
   58.1234   48.3029   -4.3287 C   0  0  0  0  0  0
   56.7228   48.7791   -2.3710 C   0  0  0  0  0  0
   57.2609   47.1995   -4.5879 C   0  0  0  0  0  0
   58.6727   50.3611   -2.9210 C   0  0  0  0  0  0
   54.7931   47.3622   -1.9473 O   0  0  0  0  0  0
   59.2231   48.4919   -5.2187 C   0  0  0  0  0  0
   59.2792   50.4097   -1.6991 O   0  0  0  0  0  0
   51.7815   44.4100   -2.3848 C   0  0  0  0  0  0
   58.8232   51.2366   -3.7719 O   0  0  0  0  0  0
   57.4891   46.3540   -5.7006 C   0  0  0  0  0  0
   50.7939   43.3080   -2.5556 C   0  0  0  0  0  0
   52.8238   44.4754   -3.2990 C   0  0  0  0  0  0
   51.7808   45.3166   -1.3123 C   0  0  0  0  0  0
   53.8363   46.3596   -2.1474 C   0  0  0  0  0  0
   59.4294   47.6480   -6.3058 C   0  0  0  0  0  0
   58.5658   46.5891   -6.5484 C   0  0  0  0  0  0
   53.8189   45.4313   -3.1992 C   0  0  0  0  0  0
   52.7997   46.2758   -1.2029 C   0  0  0  0  0  0
   60.4838   47.8554   -7.1255 F   0  0  0  0  0  0
   56.3630   49.5928   -1.1339 C   0  0  0  0  0  0
   50.2973   42.9970   -3.8299 C   0  0  0  0  0  0
   50.4226   42.5049   -1.4757 C   0  0  0  0  0  0
   49.6230   41.3812   -1.6663 C   0  0  0  0  0  0
   49.4831   41.8864   -4.0242 C   0  0  0  0  0  0
   49.1618   41.0715   -2.9422 C   0  0  0  0  0  0
   59.9365   49.2798   -5.0415 H   0  0  0  0  0  0
   56.8246   45.5217   -5.8841 H   0  0  0  0  0  0
   52.8803   43.7542   -4.0998 H   0  0  0  0  0  0
   50.9998   45.2770   -0.5645 H   0  0  0  0  0  0
   58.7408   45.9401   -7.3937 H   0  0  0  0  0  0
   54.5505   45.3730   -3.9804 H   0  0  0  0  0  0
   52.7880   46.9633   -0.3701 H   0  0  0  0  0  0
   57.2297   49.7186   -0.4973 H   0  0  0  0  0  0
   56.0172   50.5836   -1.4243 H   0  0  0  0  0  0
   55.6229   49.1008   -0.5063 H   0  0  0  0  0  0
   50.5539   43.6122   -4.6815 H   0  0  0  0  0  0
   50.8103   42.7244   -0.4989 H   0  0  0  0  0  0
   49.3663   40.7498   -0.8286 H   0  0  0  0  0  0
   49.1126   41.6561   -5.0121 H   0  0  0  0  0  0
   48.5435   40.1986   -3.0897 H   0  0  0  0  0  0
   59.0907   49.6686   -1.1113 H   0  0  0  0  0  0
  1  2  2  0  0  0
  1  5  1  0  0  0
  1  8  1  0  0  0
  2  6  1  0  0  0
  3  5  2  0  0  0
  3  4  1  0  0  0
  3  7  1  0  0  0
  4  9  2  0  0  0
  4  6  1  0  0  0
  5 23  1  0  0  0
  6 13  2  0  0  0
  7 10  1  0  0  0
  7 12  2  0  0  0
  8 17  1  0  0  0
  9 18  1  0  0  0
  9 29  1  0  0  0
 10 44  1  0  0  0
 11 16  2  0  0  0
 11 14  1  0  0  0
 11 15  1  0  0  0
 13 19  1  0  0  0
 13 30  1  0  0  0
 14 24  2  0  0  0
 14 25  1  0  0  0
 15 20  2  0  0  0
 15 31  1  0  0  0
 16 21  1  0  0  0
 16 32  1  0  0  0
 17 20  1  0  0  0
 17 21  2  0  0  0
 18 22  1  0  0  0
 18 19  2  0  0  0
 19 33  1  0  0  0
 20 34  1  0  0  0
 21 35  1  0  0  0
 23 36  1  0  0  0
 23 37  1  0  0  0
 23 38  1  0  0  0
 24 27  1  0  0  0
 24 39  1  0  0  0
 25 26  2  0  0  0
 25 40  1  0  0  0
 26 28  1  0  0  0
 26 41  1  0  0  0
 27 28  2  0  0  0
 27 42  1  0  0  0
 28 43  1  0  0  0
M  END
> <s_m_entry_id>
25790

> <s_m_entry_name>
dock_pv.442

> <s_m_Source_Path>
/home/csk/Desktop/cluster/DUD-E-result/pyrd

> <s_m_Source_File>
dock_pv.maegz

> <i_m_Source_File_Index>
442

> <chembl_id>
CHEMBL49516

> <chembl_pref_name>
None

> <i_lp_mmshare_version>
53161

> <r_lp_tautomer_probability>
1

> <s_lp_Force_Field>
OPLS_2005

> <r_lp_Energy>
31.813805

> <b_lp_Chiralities_Consistent>
1

> <s_lp_Variant>
CHEMBL1966_lig801-1

> <s_i_glide_gridfile>
glide-grid_1d3g

> <i_i_glide_lignum>
872

> <i_i_glide_rotatable_bonds>
5

> <r_i_docking_score>
-8.5404948645177

> <r_i_glide_ligand_efficiency>
-0.305017673732775

> <r_i_glide_ligand_efficiency_sa>
-0.926213303255336

> <r_i_glide_ligand_efficiency_ln>
-1.9713969745561

> <r_i_glide_gscore>
-8.5404948645177

> <r_i_glide_lipo>
-4.82629506645834

> <r_i_glide_hbond>
0

> <r_i_glide_metal>
0

> <r_i_glide_rewards>
-1.64306058324326

> <r_i_glide_evdw>
-38.3839912414551

> <r_i_glide_ecoul>
-4.7093505859375

> <r_i_glide_erotb>
0.554462935147278

> <r_i_glide_esite>
0

> <r_i_glide_emodel>
-61.1271896886512

> <r_i_glide_energy>
-43.0933418273926

> <r_i_glide_einternal>
6.25577068328857

> <i_i_glide_confnum>
12

> <i_i_glide_posenum>
280

> <r_i_glide_eff_state_penalty>
0

> <s_user_duplicate_titles>
CHEMBL1966_lig801

> <i_f3d_flags>
0

> <s_m_subgroup_title>
dock_pv

> <s_m_subgroupid>
dock_pv

> <b_m_subgroup_collapsed>
1

$$$$
CHEMBL1966_lig357
                    3D
 Schrodinger Suite 2021-1.
 35 36  0  0  1  0            999 V2000
   49.9414   42.1585   -3.0808 C   0  0  0  0  0  0
   50.0516   42.7487   -4.4257 C   0  0  0  0  0  0
   49.1975   42.2270   -5.3356 N   0  0  0  0  0  0
   48.3356   41.1886   -5.2059 C   0  0  0  0  0  0
   48.3645   40.6029   -3.9840 N   0  0  0  0  0  0
   49.1027   41.0767   -2.9170 C   0  0  0  0  0  0
   48.8230   40.4100   -1.6384 C   0  0  0  0  0  0
   48.0230   39.2972   -1.7319 O   0  0  0  0  0  0
   49.2230   40.8100   -0.5474 O   0  0  0  0  0  0
   47.5932   40.8100   -6.0990 O   0  0  0  0  0  0
   50.8510   43.6100   -4.7788 O   0  0  0  0  0  0
   50.8451   42.8456   -2.0343 C   0  0  0  0  0  0
   50.4338   44.2932   -1.6370 C   0  0  0  0  0  0
   51.5855   45.1706   -1.1442 C   0  0  0  0  0  0
   52.6214   45.5161   -2.0171 C   0  0  0  0  0  0
   53.7155   46.2396   -1.5566 C   0  0  0  0  0  0
   53.7847   46.6352   -0.2126 C   0  0  0  0  0  0
   52.7187   46.3423    0.6401 C   0  0  0  0  0  0
   51.6244   45.6100    0.1805 C   0  0  0  0  0  0
   54.8635   47.2953    0.3428 O   0  0  0  0  0  0
   56.0109   47.5476   -0.4640 C   0  0  0  0  0  0
   49.2180   42.6725   -6.2395 H   0  0  0  0  0  0
   47.6327   39.9218   -3.8524 H   0  0  0  0  0  0
   48.1431   38.8050   -2.5463 H   0  0  0  0  0  0
   51.0071   42.2472   -1.1419 H   0  0  0  0  0  0
   51.8309   42.8743   -2.4990 H   0  0  0  0  0  0
   50.0230   44.8100   -2.4988 H   0  0  0  0  0  0
   49.6263   44.2659   -0.9026 H   0  0  0  0  0  0
   52.5963   45.1898   -3.0473 H   0  0  0  0  0  0
   54.5094   46.4620   -2.2523 H   0  0  0  0  0  0
   52.7611   46.6494    1.6747 H   0  0  0  0  0  0
   50.8373   45.3373    0.8675 H   0  0  0  0  0  0
   56.7925   48.0095    0.1374 H   0  0  0  0  0  0
   56.4230   46.6240   -0.8737 H   0  0  0  0  0  0
   55.7783   48.2306   -1.2823 H   0  0  0  0  0  0
  1  2  1  0  0  0
  1  6  2  0  0  0
  1 12  1  0  0  0
  2  3  1  0  0  0
  2 11  2  0  0  0
  3  4  1  0  0  0
  3 22  1  0  0  0
  4  5  1  0  0  0
  4 10  2  0  0  0
  5  6  1  0  0  0
  5 23  1  0  0  0
  6  7  1  0  0  0
  7  8  1  0  0  0
  7  9  2  0  0  0
  8 24  1  0  0  0
 12 13  1  0  0  0
 12 25  1  0  0  0
 12 26  1  0  0  0
 13 14  1  0  0  0
 13 27  1  0  0  0
 13 28  1  0  0  0
 14 15  2  0  0  0
 14 19  1  0  0  0
 15 16  1  0  0  0
 15 29  1  0  0  0
 16 17  2  0  0  0
 16 30  1  0  0  0
 17 18  1  0  0  0
 17 20  1  0  0  0
 18 19  2  0  0  0
 18 31  1  0  0  0
 19 32  1  0  0  0
 20 21  1  0  0  0
 21 33  1  0  0  0
 21 34  1  0  0  0
 21 35  1  0  0  0
M  END
> <s_m_entry_id>
25791

> <s_m_entry_name>
dock_pv.443

> <s_m_Source_Path>
/home/csk/Desktop/cluster/DUD-E-result/pyrd

> <s_m_Source_File>
dock_pv.maegz

> <i_m_Source_File_Index>
443

> <chembl_id>
CHEMBL3917513

> <chembl_pref_name>
None

> <i_lp_mmshare_version>
53161

> <r_lp_tautomer_probability>
1

> <s_lp_Force_Field>
OPLS_2005

> <r_lp_Energy>
16.951258

> <b_lp_Chiralities_Consistent>
1

> <s_lp_Variant>
CHEMBL1966_lig357-1

> <s_i_glide_gridfile>
glide-grid_1d3g

> <i_i_glide_lignum>
407

> <i_i_glide_rotatable_bonds>
6

> <r_i_docking_score>
-8.50848235598846

> <r_i_glide_ligand_efficiency>
-0.405165826475641

> <r_i_glide_ligand_efficiency_sa>
-1.11782179297267

> <r_i_glide_ligand_efficiency_ln>
-2.10370506951068

> <r_i_glide_gscore>
-8.50848235598846

> <r_i_glide_lipo>
-3.7720616191333

> <r_i_glide_hbond>
-0.211434454540024

> <r_i_glide_metal>
0

> <r_i_glide_rewards>
-2.56466063664656

> <r_i_glide_evdw>
-38.6356964111328

> <r_i_glide_ecoul>
-5.95745801925659

> <r_i_glide_erotb>
0.865077877776554

> <r_i_glide_esite>
0

> <r_i_glide_emodel>
-62.5823729078389

> <r_i_glide_energy>
-44.5931544303894

> <r_i_glide_einternal>
5.45965814590454

> <i_i_glide_confnum>
8

> <i_i_glide_posenum>
130

> <r_i_glide_eff_state_penalty>
0

> <s_user_duplicate_titles>
CHEMBL1966_lig357

> <i_f3d_flags>
0

> <s_m_subgroup_title>
dock_pv

> <s_m_subgroupid>
dock_pv

> <b_m_subgroup_collapsed>
1

$$$$
CHEMBL1966_lig391
                    3D
 Schrodinger Suite 2021-1.
 41 43  0  0  1  0            999 V2000
   56.4732   47.4439   -2.1586 C   0  0  0  0  0  0
   56.7648   48.8610   -1.8933 C   0  0  0  0  0  0
   57.4762   49.4665   -2.8808 N   0  0  0  0  0  0
   57.9872   48.9369   -4.0276 C   0  0  0  0  0  0
   57.8076   47.5944   -4.1399 N   0  0  0  0  0  0
   57.0466   46.8648   -3.2578 C   0  0  0  0  0  0
   56.8518   45.4803   -3.6427 C   0  0  0  0  0  0
   58.0230   44.8413   -3.9229 O   0  0  0  0  0  0
   55.7621   44.9232   -3.6983 O   0  0  0  0  0  0
   58.5197   49.6100   -4.8990 O   0  0  0  0  0  0
   56.4230   49.4966   -0.8991 O   0  0  0  0  0  0
   55.5090   46.7625   -1.1757 C   0  0  0  0  0  0
   54.0604   47.2958   -1.2956 C   0  0  0  0  0  0
   52.9921   46.2162   -1.3051 C   0  0  0  0  0  0
   52.1744   46.0100   -0.1947 C   0  0  0  0  0  0
   51.2200   44.9936   -0.1961 C   0  0  0  0  0  0
   52.8230   45.4415   -2.4511 C   0  0  0  0  0  0
   51.8499   44.4100   -2.4862 C   0  0  0  0  0  0
   51.0528   44.1565   -1.3290 C   0  0  0  0  0  0
   50.1733   43.0364   -1.3269 C   0  0  0  0  0  0
   50.0555   42.2076   -2.4538 C   0  0  0  0  0  0
   50.7695   42.5494   -3.6067 C   0  0  0  0  0  0
   51.6660   43.6088   -3.6269 C   0  0  0  0  0  0
   49.2230   40.9410   -2.4056 C   0  0  0  0  0  0
   48.8926   40.4100   -1.3467 O   0  0  0  0  0  0
   48.8417   40.4100   -3.5674 N   0  0  0  0  0  0
   57.6271   50.4558   -2.7541 H   0  0  0  0  0  0
   58.1765   47.1829   -4.9854 H   0  0  0  0  0  0
   58.7976   45.3313   -3.6362 H   0  0  0  0  0  0
   55.8720   46.9060   -0.1559 H   0  0  0  0  0  0
   55.5248   45.6816   -1.3065 H   0  0  0  0  0  0
   53.9328   47.8711   -2.2151 H   0  0  0  0  0  0
   53.8750   48.0100   -0.4990 H   0  0  0  0  0  0
   52.2953   46.6194    0.6895 H   0  0  0  0  0  0
   50.6233   44.8100    0.6861 H   0  0  0  0  0  0
   53.4235   45.6259   -3.3290 H   0  0  0  0  0  0
   49.6230   42.8144   -0.4230 H   0  0  0  0  0  0
   50.6829   41.9573   -4.4990 H   0  0  0  0  0  0
   52.2659   43.7983   -4.4990 H   0  0  0  0  0  0
   48.3407   39.5338   -3.5566 H   0  0  0  0  0  0
   49.0170   40.8928   -4.4326 H   0  0  0  0  0  0
  1  2  1  0  0  0
  1  6  2  0  0  0
  1 12  1  0  0  0
  2  3  1  0  0  0
  2 11  2  0  0  0
  3  4  1  0  0  0
  3 27  1  0  0  0
  4  5  1  0  0  0
  4 10  2  0  0  0
  5  6  1  0  0  0
  5 28  1  0  0  0
  6  7  1  0  0  0
  7  8  1  0  0  0
  7  9  2  0  0  0
  8 29  1  0  0  0
 12 13  1  0  0  0
 12 30  1  0  0  0
 12 31  1  0  0  0
 13 14  1  0  0  0
 13 32  1  0  0  0
 13 33  1  0  0  0
 14 15  2  0  0  0
 14 17  1  0  0  0
 15 16  1  0  0  0
 15 34  1  0  0  0
 16 19  2  0  0  0
 16 35  1  0  0  0
 17 18  2  0  0  0
 17 36  1  0  0  0
 18 19  1  0  0  0
 18 23  1  0  0  0
 19 20  1  0  0  0
 20 21  2  0  0  0
 20 37  1  0  0  0
 21 22  1  0  0  0
 21 24  1  0  0  0
 22 23  2  0  0  0
 22 38  1  0  0  0
 23 39  1  0  0  0
 24 25  2  0  0  0
 24 26  1  0  0  0
 26 40  1  0  0  0
 26 41  1  0  0  0
M  END
> <s_m_entry_id>
25792

> <s_m_entry_name>
dock_pv.444

> <s_m_Source_Path>
/home/csk/Desktop/cluster/DUD-E-result/pyrd

> <s_m_Source_File>
dock_pv.maegz

> <i_m_Source_File_Index>
444

> <chembl_id>
CHEMBL3979926

> <chembl_pref_name>
None

> <i_lp_mmshare_version>
53161

> <r_lp_tautomer_probability>
1

> <s_lp_Force_Field>
OPLS_2005

> <r_lp_Energy>
17.120407

> <b_lp_Chiralities_Consistent>
1

> <s_lp_Variant>
CHEMBL1966_lig391-1

> <s_i_glide_gridfile>
glide-grid_1d3g

> <i_i_glide_lignum>
441

> <i_i_glide_rotatable_bonds>
6

> <r_i_docking_score>
-8.50624427842547

> <r_i_glide_ligand_efficiency>
-0.327163241477903

> <r_i_glide_ligand_efficiency_sa>
-0.969219815553094

> <r_i_glide_ligand_efficiency_ln>
-1.9976635575242

> <r_i_glide_gscore>
-8.50624427842547

> <r_i_glide_lipo>
-4.31189212103123

> <r_i_glide_hbond>
0

> <r_i_glide_metal>
0

> <r_i_glide_rewards>
-2.22336517078884

> <r_i_glide_evdw>
-41.0539054870605

> <r_i_glide_ecoul>
-3.53417253494263

> <r_i_glide_erotb>
0.61183416798902

> <r_i_glide_esite>
0

> <r_i_glide_emodel>
-60.8533512352418

> <r_i_glide_energy>
-44.5880780220032

> <r_i_glide_einternal>
5.15707778930664

> <i_i_glide_confnum>
21

> <i_i_glide_posenum>
272

> <r_i_glide_eff_state_penalty>
0

> <s_user_duplicate_titles>
CHEMBL1966_lig391

> <i_f3d_flags>
0

> <s_m_subgroup_title>
dock_pv

> <s_m_subgroupid>
dock_pv

> <b_m_subgroup_collapsed>
1

$$$$
CHEMBL1966_lig340
                    3D
 Schrodinger Suite 2021-1.
 34 35  0  0  1  0            999 V2000
   49.9487   42.1653   -3.0645 C   0  0  0  0  0  0
   50.0654   42.7450   -4.4133 C   0  0  0  0  0  0
   49.2230   42.2094   -5.3257 N   0  0  0  0  0  0
   48.3782   41.1560   -5.2019 C   0  0  0  0  0  0
   48.4230   40.5660   -3.9790 N   0  0  0  0  0  0
   49.1168   41.0781   -2.9013 C   0  0  0  0  0  0
   48.8230   40.4100   -1.6259 C   0  0  0  0  0  0
   47.9249   39.3825   -1.7133 O   0  0  0  0  0  0
   49.2645   40.7631   -0.5357 O   0  0  0  0  0  0
   47.6220   40.8100   -6.0990 O   0  0  0  0  0  0
   50.8598   43.6100   -4.7683 O   0  0  0  0  0  0
   50.8516   42.8587   -2.0211 C   0  0  0  0  0  0
   50.4387   44.3044   -1.6221 C   0  0  0  0  0  0
   51.5833   45.1796   -1.0944 C   0  0  0  0  0  0
   52.6170   45.5829   -1.9474 C   0  0  0  0  0  0
   53.7031   46.2967   -1.4484 C   0  0  0  0  0  0
   53.7575   46.6172   -0.0920 C   0  0  0  0  0  0
   52.7032   46.2704    0.7544 C   0  0  0  0  0  0
   51.6230   45.5502    0.2523 C   0  0  0  0  0  0
   54.9753   47.3285    0.4635 C   0  0  0  0  0  0
   49.2387   42.6574   -6.2284 H   0  0  0  0  0  0
   47.8456   39.7451   -3.8584 H   0  0  0  0  0  0
   47.7654   39.0200   -0.8380 H   0  0  0  0  0  0
   51.0202   42.2582   -1.1310 H   0  0  0  0  0  0
   51.8322   42.8973   -2.4990 H   0  0  0  0  0  0
   50.0230   44.8100   -2.4881 H   0  0  0  0  0  0
   49.6230   44.2703   -0.8987 H   0  0  0  0  0  0
   52.5996   45.3027   -2.9909 H   0  0  0  0  0  0
   54.5117   46.5726   -2.1097 H   0  0  0  0  0  0
   52.7351   46.5190    1.8055 H   0  0  0  0  0  0
   50.8380   45.2314    0.9230 H   0  0  0  0  0  0
   54.8230   47.6237    1.5010 H   0  0  0  0  0  0
   55.8497   46.6791    0.4096 H   0  0  0  0  0  0
   55.1962   48.2250   -0.1167 H   0  0  0  0  0  0
  1  2  1  0  0  0
  1  6  2  0  0  0
  1 12  1  0  0  0
  2  3  1  0  0  0
  2 11  2  0  0  0
  3  4  1  0  0  0
  3 21  1  0  0  0
  4  5  1  0  0  0
  4 10  2  0  0  0
  5  6  1  0  0  0
  5 22  1  0  0  0
  6  7  1  0  0  0
  7  8  1  0  0  0
  7  9  2  0  0  0
  8 23  1  0  0  0
 12 13  1  0  0  0
 12 24  1  0  0  0
 12 25  1  0  0  0
 13 14  1  0  0  0
 13 26  1  0  0  0
 13 27  1  0  0  0
 14 15  2  0  0  0
 14 19  1  0  0  0
 15 16  1  0  0  0
 15 28  1  0  0  0
 16 17  2  0  0  0
 16 29  1  0  0  0
 17 18  1  0  0  0
 17 20  1  0  0  0
 18 19  2  0  0  0
 18 30  1  0  0  0
 19 31  1  0  0  0
 20 32  1  0  0  0
 20 33  1  0  0  0
 20 34  1  0  0  0
M  END
> <s_m_entry_id>
25793

> <s_m_entry_name>
dock_pv.445

> <s_m_Source_Path>
/home/csk/Desktop/cluster/DUD-E-result/pyrd

> <s_m_Source_File>
dock_pv.maegz

> <i_m_Source_File_Index>
445

> <chembl_id>
CHEMBL3901542

> <chembl_pref_name>
None

> <i_lp_mmshare_version>
53161

> <r_lp_tautomer_probability>
1

> <s_lp_Force_Field>
OPLS_2005

> <r_lp_Energy>
10.39471

> <b_lp_Chiralities_Consistent>
1

> <s_lp_Variant>
CHEMBL1966_lig340-1

> <s_i_glide_gridfile>
glide-grid_1d3g

> <i_i_glide_lignum>
390

> <i_i_glide_rotatable_bonds>
5

> <r_i_docking_score>
-8.49557003444726

> <r_i_glide_ligand_efficiency>
-0.424778501722363

> <r_i_glide_ligand_efficiency_sa>
-1.15302624707459

> <r_i_glide_ligand_efficiency_ln>
-2.12616097696929

> <r_i_glide_gscore>
-8.49557003444726

> <r_i_glide_lipo>
-3.78643369088521

> <r_i_glide_hbond>
-0.271659295103153

> <r_i_glide_metal>
0

> <r_i_glide_rewards>
-2.78545899980785

> <r_i_glide_evdw>
-37.8762664794922

> <r_i_glide_ecoul>
-4.75255823135376

> <r_i_glide_erotb>
0.954679010026631

> <r_i_glide_esite>
0

> <r_i_glide_emodel>
-61.1785664688218

> <r_i_glide_energy>
-42.6288247108459

> <r_i_glide_einternal>
0.927161633968353

> <i_i_glide_confnum>
8

> <i_i_glide_posenum>
190

> <r_i_glide_eff_state_penalty>
0

> <s_user_duplicate_titles>
CHEMBL1966_lig340

> <i_f3d_flags>
0

> <s_m_subgroup_title>
dock_pv

> <s_m_subgroupid>
dock_pv

> <b_m_subgroup_collapsed>
1

$$$$
CHEMBL1966_lig647
                    3D
 Schrodinger Suite 2021-1.
 35 37  0  0  1  0            999 V2000
   49.2230   40.7283   -0.7418 C   0  0  0  0  0  0
   48.1113   39.7115   -0.8107 C   0  0  0  0  0  0
   47.6752   39.5851   -2.5048 S   0  0  0  0  0  0
   48.6939   40.9919   -3.0086 C   0  0  0  0  0  0
   49.4200   41.4256   -1.9018 N   0  0  0  0  0  0
   49.8519   40.8618    0.3010 O   0  0  0  0  0  0
   48.6513   41.4746   -4.2903 C   0  0  0  0  0  0
   47.7131   40.9744   -5.2957 C   0  0  0  0  0  0
   49.4446   42.5104   -4.8714 C   0  0  0  0  0  0
   50.0638   43.2902   -5.4632 N   0  0  0  0  0  0
   46.4561   40.8100   -4.8402 O   0  0  0  0  0  0
   48.0475   40.8100   -6.4554 O   0  0  0  0  0  0
   45.3592   40.6307   -5.6989 C   0  0  0  0  0  0
   50.1262   42.6786   -1.8029 C   0  0  0  0  0  0
   49.8307   43.5537   -0.7416 C   0  0  0  0  0  0
   50.5764   44.6875   -0.4897 C   0  0  0  0  0  0
   51.1750   43.0391   -2.6609 C   0  0  0  0  0  0
   51.8743   44.2735   -2.4951 C   0  0  0  0  0  0
   51.5914   45.0927   -1.3642 C   0  0  0  0  0  0
   52.3753   46.2435   -1.1089 C   0  0  0  0  0  0
   53.4266   46.5752   -1.9589 C   0  0  0  0  0  0
   53.7263   45.7651   -3.0474 C   0  0  0  0  0  0
   52.9712   44.6220   -3.2991 C   0  0  0  0  0  0
   47.2635   40.0249   -0.2035 H   0  0  0  0  0  0
   48.4233   38.7400   -0.4326 H   0  0  0  0  0  0
   44.4366   40.8102   -5.1561 H   0  0  0  0  0  0
   45.3386   39.6236   -6.1163 H   0  0  0  0  0  0
   45.3929   41.3704   -6.4991 H   0  0  0  0  0  0
   49.0608   43.3161   -0.0223 H   0  0  0  0  0  0
   50.4231   45.2101    0.4340 H   0  0  0  0  0  0
   51.5033   42.3639   -3.4369 H   0  0  0  0  0  0
   52.1630   46.8456   -0.2377 H   0  0  0  0  0  0
   54.0255   47.4524   -1.7615 H   0  0  0  0  0  0
   54.5592   46.0110   -3.6903 H   0  0  0  0  0  0
   53.2253   43.9521   -4.0989 H   0  0  0  0  0  0
  1  2  1  0  0  0
  1  5  1  0  0  0
  1  6  2  0  0  0
  2  3  1  0  0  0
  2 24  1  0  0  0
  2 25  1  0  0  0
  3  4  1  0  0  0
  4  5  1  0  0  0
  4  7  2  0  0  0
  5 14  1  0  0  0
  7  8  1  0  0  0
  7  9  1  0  0  0
  8 11  1  0  0  0
  8 12  2  0  0  0
  9 10  3  0  0  0
 11 13  1  0  0  0
 13 26  1  0  0  0
 13 27  1  0  0  0
 13 28  1  0  0  0
 14 15  2  0  0  0
 14 17  1  0  0  0
 15 16  1  0  0  0
 15 29  1  0  0  0
 16 19  2  0  0  0
 16 30  1  0  0  0
 17 18  2  0  0  0
 17 31  1  0  0  0
 18 19  1  0  0  0
 18 23  1  0  0  0
 19 20  1  0  0  0
 20 21  2  0  0  0
 20 32  1  0  0  0
 21 22  1  0  0  0
 21 33  1  0  0  0
 22 23  2  0  0  0
 22 34  1  0  0  0
 23 35  1  0  0  0
M  END
> <s_m_entry_id>
25794

> <s_m_entry_name>
dock_pv.446

> <s_m_Source_Path>
/home/csk/Desktop/cluster/DUD-E-result/pyrd

> <s_m_Source_File>
dock_pv.maegz

> <i_m_Source_File_Index>
446

> <chembl_id>
CHEMBL4286670

> <chembl_pref_name>
None

> <i_lp_mmshare_version>
53161

> <r_lp_tautomer_probability>
1

> <s_lp_Force_Field>
OPLS_2005

> <r_lp_Energy>
40.491332

> <b_lp_Chiralities_Consistent>
1

> <s_lp_Variant>
CHEMBL1966_lig647-1

> <s_i_glide_gridfile>
glide-grid_1d3g

> <i_i_glide_lignum>
701

> <i_i_glide_rotatable_bonds>
3

> <r_i_docking_score>
-8.49110600764176

> <r_i_glide_ligand_efficiency>
-0.369178522071381

> <r_i_glide_ligand_efficiency_sa>
-1.04989460749189

> <r_i_glide_ligand_efficiency_ln>
-2.05322642574027

> <r_i_glide_gscore>
-8.49110600764176

> <r_i_glide_lipo>
-4.03421962704581

> <r_i_glide_hbond>
-0.277643801925643

> <r_i_glide_metal>
0

> <r_i_glide_rewards>
-2.85877024595975

> <r_i_glide_evdw>
-18.6717109680176

> <r_i_glide_ecoul>
-4.95256042480469

> <r_i_glide_erotb>
0.355997279411032

> <r_i_glide_esite>
0

> <r_i_glide_emodel>
-50.0327727113854

> <r_i_glide_energy>
-23.6242713928223

> <r_i_glide_einternal>
4.55404329299927

> <i_i_glide_confnum>
3

> <i_i_glide_posenum>
133

> <r_i_glide_eff_state_penalty>
0

> <s_user_duplicate_titles>
CHEMBL1966_lig647

> <i_f3d_flags>
0

> <s_m_subgroup_title>
dock_pv

> <s_m_subgroupid>
dock_pv

> <b_m_subgroup_collapsed>
1

$$$$
CHEMBL1966_lig735
                    3D
 Schrodinger Suite 2021-1.
 40 43  0  0  1  0            999 V2000
   53.1674   46.1545   -0.7835 C   0  0  0  0  0  0
   54.7629   45.6301   -2.5435 C   0  0  0  0  0  0
   54.4748   46.2689   -1.3183 C   0  0  0  0  0  0
   55.2841   46.9749   -0.4617 N   0  0  0  0  0  0
   52.1426   45.5028   -1.3337 N   0  0  0  0  0  0
   53.2264   46.7702    0.4442 N   0  0  0  0  0  0
   54.5258   47.2030    0.5797 C   0  0  0  0  0  0
   52.4484   44.8108   -2.4687 C   0  0  0  0  0  0
   53.7044   44.8768   -3.0825 C   0  0  0  0  0  0
   56.1190   45.6111   -3.2088 C   0  0  0  0  0  0
   51.4458   43.7968   -2.8892 C   0  0  0  0  0  0
   49.5391   41.8768   -3.6582 C   0  0  0  0  0  0
   56.4227   44.8052   -4.0871 O   0  0  0  0  0  0
   51.1321   43.6083   -4.2306 C   0  0  0  0  0  0
   50.8222   42.9954   -1.9332 C   0  0  0  0  0  0
   49.8996   42.0373   -2.3134 C   0  0  0  0  0  0
   50.1643   42.6886   -4.6114 C   0  0  0  0  0  0
   48.4260   40.9518   -4.0253 C   0  0  0  0  0  0
   56.9762   46.5664   -2.7492 O   0  0  0  0  0  0
   52.1939   46.8091    1.4579 C   0  0  0  0  0  0
   47.6289   41.2093   -5.1546 C   0  0  0  0  0  0
   48.0361   39.9375   -3.1377 C   0  0  0  0  0  0
   46.8328   39.2719   -3.2993 C   0  0  0  0  0  0
   46.4062   40.5678   -5.2991 C   0  0  0  0  0  0
   46.0227   39.6101   -4.3725 C   0  0  0  0  0  0
   54.8267   47.6828    1.4992 H   0  0  0  0  0  0
   53.8676   44.2309   -3.9202 H   0  0  0  0  0  0
   51.6197   44.2144   -4.9687 H   0  0  0  0  0  0
   51.0567   43.1107   -0.8853 H   0  0  0  0  0  0
   49.4296   41.4690   -1.5266 H   0  0  0  0  0  0
   49.9254   42.6071   -5.6605 H   0  0  0  0  0  0
   56.5916   47.0525   -2.0139 H   0  0  0  0  0  0
   52.4157   46.0572    2.2172 H   0  0  0  0  0  0
   52.1564   47.8009    1.9009 H   0  0  0  0  0  0
   51.2255   46.6003    1.0067 H   0  0  0  0  0  0
   47.8622   42.0131   -5.8367 H   0  0  0  0  0  0
   48.6379   39.6755   -2.2820 H   0  0  0  0  0  0
   46.5293   38.5088   -2.5976 H   0  0  0  0  0  0
   45.7347   40.8334   -6.0992 H   0  0  0  0  0  0
   45.0825   39.0974   -4.5014 H   0  0  0  0  0  0
  1  3  2  0  0  0
  1  5  1  0  0  0
  1  6  1  0  0  0
  2  3  1  0  0  0
  2 10  1  0  0  0
  2  9  2  0  0  0
  3  4  1  0  0  0
  4  7  2  0  0  0
  5  8  2  0  0  0
  6  7  1  0  0  0
  6 20  1  0  0  0
  7 26  1  0  0  0
  8  9  1  0  0  0
  8 11  1  0  0  0
  9 27  1  0  0  0
 10 13  2  0  0  0
 10 19  1  0  0  0
 11 14  1  0  0  0
 11 15  2  0  0  0
 12 16  2  0  0  0
 12 18  1  0  0  0
 12 17  1  0  0  0
 14 17  2  0  0  0
 14 28  1  0  0  0
 15 16  1  0  0  0
 15 29  1  0  0  0
 16 30  1  0  0  0
 17 31  1  0  0  0
 18 21  1  0  0  0
 18 22  2  0  0  0
 19 32  1  0  0  0
 20 33  1  0  0  0
 20 34  1  0  0  0
 20 35  1  0  0  0
 21 24  2  0  0  0
 21 36  1  0  0  0
 22 23  1  0  0  0
 22 37  1  0  0  0
 23 25  2  0  0  0
 23 38  1  0  0  0
 24 25  1  0  0  0
 24 39  1  0  0  0
 25 40  1  0  0  0
M  END
> <s_m_entry_id>
25795

> <s_m_entry_name>
dock_pv.447

> <s_m_Source_Path>
/home/csk/Desktop/cluster/DUD-E-result/pyrd

> <s_m_Source_File>
dock_pv.maegz

> <i_m_Source_File_Index>
447

> <chembl_id>
CHEMBL288852

> <chembl_pref_name>
None

> <i_lp_mmshare_version>
53161

> <r_lp_tautomer_probability>
1

> <s_lp_Force_Field>
OPLS_2005

> <r_lp_Energy>
23.457353

> <b_lp_Chiralities_Consistent>
1

> <s_lp_Variant>
CHEMBL1966_lig735-1

> <s_i_glide_gridfile>
glide-grid_1d3g

> <i_i_glide_lignum>
806

> <i_i_glide_rotatable_bonds>
4

> <r_i_docking_score>
-8.48682747373092

> <r_i_glide_ligand_efficiency>
-0.339473098949237

> <r_i_glide_ligand_efficiency_sa>
-0.992625361908614

> <r_i_glide_ligand_efficiency_ln>
-2.01163244097047

> <r_i_glide_gscore>
-8.48682747373092

> <r_i_glide_lipo>
-4.2252774703428

> <r_i_glide_hbond>
0

> <r_i_glide_metal>
0

> <r_i_glide_rewards>
-3.14057609202899

> <r_i_glide_evdw>
-34.2155456542969

> <r_i_glide_ecoul>
0.46687051653862

> <r_i_glide_erotb>
0.519772793874928

> <r_i_glide_esite>
0

> <r_i_glide_emodel>
-38.2018539576919

> <r_i_glide_energy>
-33.7486751377583

> <r_i_glide_einternal>
2.98371601104736

> <i_i_glide_confnum>
27

> <i_i_glide_posenum>
83

> <r_i_glide_eff_state_penalty>
0

> <s_user_duplicate_titles>
CHEMBL1966_lig735

> <i_f3d_flags>
0

> <s_m_subgroup_title>
dock_pv

> <s_m_subgroupid>
dock_pv

> <b_m_subgroup_collapsed>
1

$$$$
CHEMBL1966_lig47
                    3D
 Schrodinger Suite 2021-1.
 34 36  0  0  1  0            999 V2000
   49.7461   41.6137   -2.0580 C   0  0  0  0  0  0
   48.7923   40.6296   -2.3747 C   0  0  0  0  0  0
   50.0224   41.6102   -0.7659 N   0  0  0  0  0  0
   49.2232   40.6828   -0.2307 N   0  0  0  0  0  0
   53.9373   46.7635   -1.7450 C   0  0  0  0  0  0
   48.4230   40.0709   -1.1502 C   0  0  0  0  0  0
   50.3462   42.4734   -2.9508 N   0  0  0  0  0  0
   52.9092   45.6844   -2.0916 C   0  0  0  0  0  0
   53.8692   47.1211   -0.4615 F   0  0  0  0  0  0
   53.7167   47.8391   -2.4993 F   0  0  0  0  0  0
   55.1755   46.3249   -1.9804 F   0  0  0  0  0  0
   51.1520   43.5868   -2.6671 C   0  0  0  0  0  0
   51.7940   45.4618   -1.2757 C   0  0  0  0  0  0
   53.1050   44.8922   -3.2263 C   0  0  0  0  0  0
   48.0761   40.2666   -3.6659 C   0  0  0  0  0  0
   50.9223   44.4120   -1.5591 C   0  0  0  0  0  0
   52.2158   43.8616   -3.5269 C   0  0  0  0  0  0
   47.3751   39.0102   -0.8871 C   0  0  0  0  0  0
   46.7190   39.6065   -3.3073 C   0  0  0  0  0  0
   46.8736   38.4933   -2.2486 C   0  0  0  0  0  0
   49.2224   40.4733    0.7571 H   0  0  0  0  0  0
   50.3627   42.2180   -3.9254 H   0  0  0  0  0  0
   51.6120   46.0737   -0.4042 H   0  0  0  0  0  0
   53.9582   45.0755   -3.8610 H   0  0  0  0  0  0
   47.9284   41.1465   -4.2939 H   0  0  0  0  0  0
   48.7001   39.6018   -4.2604 H   0  0  0  0  0  0
   50.0795   44.2363   -0.9089 H   0  0  0  0  0  0
   52.3972   43.2392   -4.3903 H   0  0  0  0  0  0
   47.7686   38.1880   -0.2873 H   0  0  0  0  0  0
   46.5422   39.4437   -0.3311 H   0  0  0  0  0  0
   46.2532   39.2104   -4.2103 H   0  0  0  0  0  0
   46.0296   40.3610   -2.9254 H   0  0  0  0  0  0
   47.5920   37.7594   -2.6156 H   0  0  0  0  0  0
   45.9302   37.9657   -2.1131 H   0  0  0  0  0  0
  1  3  2  0  0  0
  1  7  1  0  0  0
  1  2  1  0  0  0
  2  6  2  0  0  0
  2 15  1  0  0  0
  3  4  1  0  0  0
  4  6  1  0  0  0
  4 21  1  0  0  0
  5  8  1  0  0  0
  5  9  1  0  0  0
  5 10  1  0  0  0
  5 11  1  0  0  0
  6 18  1  0  0  0
  7 12  1  0  0  0
  7 22  1  0  0  0
  8 14  2  0  0  0
  8 13  1  0  0  0
 12 16  1  0  0  0
 12 17  2  0  0  0
 13 16  2  0  0  0
 13 23  1  0  0  0
 14 17  1  0  0  0
 14 24  1  0  0  0
 15 19  1  0  0  0
 15 25  1  0  0  0
 15 26  1  0  0  0
 16 27  1  0  0  0
 17 28  1  0  0  0
 18 20  1  0  0  0
 18 29  1  0  0  0
 18 30  1  0  0  0
 19 20  1  0  0  0
 19 31  1  0  0  0
 19 32  1  0  0  0
 20 33  1  0  0  0
 20 34  1  0  0  0
M  END
> <s_m_entry_id>
25796

> <s_m_entry_name>
dock_pv.448

> <s_m_Source_Path>
/home/csk/Desktop/cluster/DUD-E-result/pyrd

> <s_m_Source_File>
dock_pv.maegz

> <i_m_Source_File_Index>
448

> <chembl_id>
CHEMBL118168

> <chembl_pref_name>
None

> <i_lp_mmshare_version>
53161

> <r_lp_tautomer_probability>
0.842599999161192

> <s_lp_Force_Field>
OPLS_2005

> <r_lp_Energy>
15.803601

> <b_lp_Chiralities_Consistent>
1

> <s_lp_Variant>
CHEMBL1966_lig47-1

> <s_i_glide_gridfile>
glide-grid_1d3g

> <i_i_glide_lignum>
51

> <i_i_glide_rotatable_bonds>
3

> <r_i_docking_score>
-8.48080926684677

> <r_i_glide_ligand_efficiency>
-0.424040463342338

> <r_i_glide_ligand_efficiency_sa>
-1.15102290269612

> <r_i_glide_ligand_efficiency_ln>
-2.12246684368158

> <r_i_glide_gscore>
-8.48080926684677

> <r_i_glide_lipo>
-4.16526851393673

> <r_i_glide_hbond>
0

> <r_i_glide_metal>
0

> <r_i_glide_rewards>
-3.16808820747042

> <r_i_glide_evdw>
-29.8982772827148

> <r_i_glide_ecoul>
-0.729605615139008

> <r_i_glide_erotb>
0.456902160966979

> <r_i_glide_esite>
0

> <r_i_glide_emodel>
-42.7190888612513

> <r_i_glide_energy>
-30.6278828978539

> <r_i_glide_einternal>
3.172443151474

> <i_i_glide_confnum>
10

> <i_i_glide_posenum>
313

> <r_i_glide_eff_state_penalty>
0

> <s_user_duplicate_titles>
CHEMBL1966_lig47,CHEMBL1966_lig47

> <i_f3d_flags>
0

> <s_m_subgroup_title>
dock_pv

> <s_m_subgroupid>
dock_pv

> <b_m_subgroup_collapsed>
1

$$$$
CHEMBL1966_lig45
                    3D
 Schrodinger Suite 2021-1.
 34 35  0  0  1  0            999 V2000
   48.6973   40.6837   -3.1008 C   0  0  0  0  0  0
   49.6092   41.6115   -2.6111 C   0  0  0  0  0  0
   48.2159   39.9716   -1.9734 C   0  0  0  0  0  0
   49.6238   41.3816   -1.2637 N   0  0  0  0  0  0
   48.8040   40.4098   -0.8720 N   0  0  0  0  0  0
   53.8075   46.6050   -1.1107 C   0  0  0  0  0  0
   48.3207   40.5255   -4.4966 C   0  0  0  0  0  0
   50.4004   42.5415   -3.2499 N   0  0  0  0  0  0
   48.0248   40.4125   -5.6084 N   0  0  0  0  0  0
   52.8081   45.6103   -1.6986 C   0  0  0  0  0  0
   47.1971   38.8089   -1.9105 C   0  0  0  0  0  0
   54.9916   46.0164   -0.9492 F   0  0  0  0  0  0
   53.9698   47.6339   -1.9406 F   0  0  0  0  0  0
   53.4183   47.0580    0.0796 F   0  0  0  0  0  0
   51.1483   43.6015   -2.7158 C   0  0  0  0  0  0
   51.6235   45.2690   -1.0279 C   0  0  0  0  0  0
   53.1143   44.9954   -2.9137 C   0  0  0  0  0  0
   50.8050   44.2581   -1.5286 C   0  0  0  0  0  0
   52.2797   44.0045   -3.4239 C   0  0  0  0  0  0
   45.8001   39.2099   -1.4097 C   0  0  0  0  0  0
   47.6678   37.5914   -1.0863 C   0  0  0  0  0  0
   50.2129   41.8792   -0.6137 H   0  0  0  0  0  0
   50.5448   42.4424   -4.2440 H   0  0  0  0  0  0
   47.0613   38.4412   -2.9285 H   0  0  0  0  0  0
   51.3540   45.7506   -0.0988 H   0  0  0  0  0  0
   54.0158   45.2591   -3.4494 H   0  0  0  0  0  0
   49.9054   44.0000   -0.9913 H   0  0  0  0  0  0
   52.5478   43.5130   -4.3479 H   0  0  0  0  0  0
   45.2577   39.8596   -2.0994 H   0  0  0  0  0  0
   45.1940   38.3170   -1.2980 H   0  0  0  0  0  0
   45.8418   39.6558   -0.4162 H   0  0  0  0  0  0
   48.4441   37.0396   -1.6064 H   0  0  0  0  0  0
   48.0265   37.8868   -0.1004 H   0  0  0  0  0  0
   46.8686   36.8709   -0.9092 H   0  0  0  0  0  0
  1  2  2  0  0  0
  1  3  1  0  0  0
  1  7  1  0  0  0
  2  4  1  0  0  0
  2  8  1  0  0  0
  3  5  2  0  0  0
  3 11  1  0  0  0
  4  5  1  0  0  0
  4 22  1  0  0  0
  6 10  1  0  0  0
  6 12  1  0  0  0
  6 13  1  0  0  0
  6 14  1  0  0  0
  7  9  3  0  0  0
  8 15  1  0  0  0
  8 23  1  0  0  0
 10 17  2  0  0  0
 10 16  1  0  0  0
 11 20  1  0  0  0
 11 21  1  0  0  0
 11 24  1  0  0  0
 15 18  1  0  0  0
 15 19  2  0  0  0
 16 18  2  0  0  0
 16 25  1  0  0  0
 17 19  1  0  0  0
 17 26  1  0  0  0
 18 27  1  0  0  0
 19 28  1  0  0  0
 20 29  1  0  0  0
 20 30  1  0  0  0
 20 31  1  0  0  0
 21 32  1  0  0  0
 21 33  1  0  0  0
 21 34  1  0  0  0
M  END
> <s_m_entry_id>
25797

> <s_m_entry_name>
dock_pv.449

> <s_m_Source_Path>
/home/csk/Desktop/cluster/DUD-E-result/pyrd

> <s_m_Source_File>
dock_pv.maegz

> <i_m_Source_File_Index>
449

> <chembl_id>
CHEMBL118468

> <chembl_pref_name>
None

> <i_lp_mmshare_version>
53161

> <r_lp_tautomer_probability>
1

> <s_lp_Force_Field>
OPLS_2005

> <r_lp_Energy>
7.831001

> <b_lp_Chiralities_Consistent>
1

> <s_lp_Variant>
CHEMBL1966_lig45-1

> <s_i_glide_gridfile>
glide-grid_1d3g

> <i_i_glide_lignum>
49

> <i_i_glide_rotatable_bonds>
4

> <r_i_docking_score>
-8.47038867371804

> <r_i_glide_ligand_efficiency>
-0.403351841605621

> <r_i_glide_ligand_efficiency_sa>
-1.11281714626426

> <r_i_glide_ligand_efficiency_ln>
-2.09428648354485

> <r_i_glide_gscore>
-8.47038867371804

> <r_i_glide_lipo>
-3.81900616354786

> <r_i_glide_hbond>
-0.0637123550017322

> <r_i_glide_metal>
0

> <r_i_glide_rewards>
-3.25864517695602

> <r_i_glide_evdw>
-30.4659805297852

> <r_i_glide_ecoul>
-1.52031767368317

> <r_i_glide_erotb>
0.422321699329306

> <r_i_glide_esite>
0

> <r_i_glide_emodel>
-43.5111811469922

> <r_i_glide_energy>
-31.9862982034683

> <r_i_glide_einternal>
2.67753720283508

> <i_i_glide_confnum>
4

> <i_i_glide_posenum>
383

> <r_i_glide_eff_state_penalty>
0

> <s_user_duplicate_titles>
CHEMBL1966_lig45

> <i_f3d_flags>
0

> <s_m_subgroup_title>
dock_pv

> <s_m_subgroupid>
dock_pv

> <b_m_subgroup_collapsed>
1

$$$$
CHEMBL1966_lig344
                    3D
 Schrodinger Suite 2021-1.
 31 32  0  0  1  0            999 V2000
   50.0607   42.2417   -3.1691 C   0  0  0  0  0  0
   50.1217   42.7913   -4.5304 C   0  0  0  0  0  0
   49.2226   42.2567   -5.3922 N   0  0  0  0  0  0
   48.3773   41.2092   -5.2154 C   0  0  0  0  0  0
   48.4456   40.6667   -3.9692 N   0  0  0  0  0  0
   49.2171   41.1838   -2.9430 C   0  0  0  0  0  0
   48.9952   40.5638   -1.6349 C   0  0  0  0  0  0
   48.0218   39.6071   -1.6274 O   0  0  0  0  0  0
   49.5761   40.8591   -0.5942 O   0  0  0  0  0  0
   47.6255   40.8102   -6.0989 O   0  0  0  0  0  0
   50.9313   43.6120   -4.9413 O   0  0  0  0  0  0
   51.0156   42.9252   -2.1725 C   0  0  0  0  0  0
   50.5199   44.2955   -1.6551 C   0  0  0  0  0  0
   51.6232   45.2081   -1.1143 C   0  0  0  0  0  0
   51.6230   45.6099    0.2261 C   0  0  0  0  0  0
   52.6483   46.4102    0.7301 C   0  0  0  0  0  0
   53.6937   46.8095   -0.1031 C   0  0  0  0  0  0
   53.7065   46.4155   -1.4410 C   0  0  0  0  0  0
   52.6761   45.6201   -1.9437 C   0  0  0  0  0  0
   54.9969   46.9105   -2.4720 Cl  0  0  0  0  0  0
   49.2160   42.6761   -6.3084 H   0  0  0  0  0  0
   47.8414   39.8760   -3.7918 H   0  0  0  0  0  0
   47.9267   39.2494   -0.7409 H   0  0  0  0  0  0
   51.2704   42.2899   -1.3317 H   0  0  0  0  0  0
   51.9687   43.0468   -2.6903 H   0  0  0  0  0  0
   50.0230   44.8102   -2.4709 H   0  0  0  0  0  0
   49.7441   44.1466   -0.9021 H   0  0  0  0  0  0
   50.8379   45.2749    0.8883 H   0  0  0  0  0  0
   52.6407   46.7074    1.7696 H   0  0  0  0  0  0
   54.4920   47.4206    0.2892 H   0  0  0  0  0  0
   52.7001   45.3147   -2.9806 H   0  0  0  0  0  0
  1  2  1  0  0  0
  1  6  2  0  0  0
  1 12  1  0  0  0
  2  3  1  0  0  0
  2 11  2  0  0  0
  3  4  1  0  0  0
  3 21  1  0  0  0
  4  5  1  0  0  0
  4 10  2  0  0  0
  5  6  1  0  0  0
  5 22  1  0  0  0
  6  7  1  0  0  0
  7  8  1  0  0  0
  7  9  2  0  0  0
  8 23  1  0  0  0
 12 13  1  0  0  0
 12 24  1  0  0  0
 12 25  1  0  0  0
 13 14  1  0  0  0
 13 26  1  0  0  0
 13 27  1  0  0  0
 14 15  2  0  0  0
 14 19  1  0  0  0
 15 16  1  0  0  0
 15 28  1  0  0  0
 16 17  2  0  0  0
 16 29  1  0  0  0
 17 18  1  0  0  0
 17 30  1  0  0  0
 18 19  2  0  0  0
 18 20  1  0  0  0
 19 31  1  0  0  0
M  END
> <s_m_entry_id>
25798

> <s_m_entry_name>
dock_pv.450

> <s_m_Source_Path>
/home/csk/Desktop/cluster/DUD-E-result/pyrd

> <s_m_Source_File>
dock_pv.maegz

> <i_m_Source_File_Index>
450

> <chembl_id>
CHEMBL3910083

> <chembl_pref_name>
None

> <i_lp_mmshare_version>
53161

> <r_lp_tautomer_probability>
1

> <s_lp_Force_Field>
OPLS_2005

> <r_lp_Energy>
11.818522

> <b_lp_Chiralities_Consistent>
1

> <s_lp_Variant>
CHEMBL1966_lig344-1

> <s_i_glide_gridfile>
glide-grid_1d3g

> <i_i_glide_lignum>
394

> <i_i_glide_rotatable_bonds>
5

> <r_i_docking_score>
-8.43752440185245

> <r_i_glide_ligand_efficiency>
-0.421876220092623

> <r_i_glide_ligand_efficiency_sa>
-1.14514824269837

> <r_i_glide_ligand_efficiency_ln>
-2.1116340696039

> <r_i_glide_gscore>
-8.43752440185245

> <r_i_glide_lipo>
-3.76647237742668

> <r_i_glide_hbond>
-0.272236153859173

> <r_i_glide_metal>
0

> <r_i_glide_rewards>
-2.68361985404042

> <r_i_glide_evdw>
-36.9847984313965

> <r_i_glide_ecoul>
-4.72348403930664

> <r_i_glide_erotb>
0.84256651093964

> <r_i_glide_esite>
0

> <r_i_glide_emodel>
-61.1281779784183

> <r_i_glide_energy>
-41.7082824707031

> <r_i_glide_einternal>
1.68019425868988

> <i_i_glide_confnum>
24

> <i_i_glide_posenum>
368

> <r_i_glide_eff_state_penalty>
0

> <s_user_duplicate_titles>
CHEMBL1966_lig344

> <i_f3d_flags>
0

> <s_m_subgroup_title>
dock_pv

> <s_m_subgroupid>
dock_pv

> <b_m_subgroup_collapsed>
1

$$$$
CHEMBL1966_lig42
                    3D
 Schrodinger Suite 2021-1.
 28 28  0  0  1  0            999 V2000
   48.8416   41.2647   -3.8777 C   0  0  0  0  0  0
   49.7024   42.3159   -3.8060 C   0  0  0  0  0  0
   54.1843   46.8562   -1.5724 C   0  0  0  0  0  0
   48.1778   40.9564   -5.0989 C   0  0  0  0  0  0
   50.3188   42.7744   -2.6511 N   0  0  0  0  0  0
   48.4767   40.4100   -2.7320 C   0  0  0  0  0  0
   47.6230   40.8100   -6.0990 N   0  0  0  0  0  0
   53.0986   45.8346   -1.9087 C   0  0  0  0  0  0
   50.0230   43.2100   -5.3419 S   0  0  0  0  0  0
   54.1419   47.2100   -0.2872 F   0  0  0  0  0  0
   55.3957   46.3510   -1.8132 F   0  0  0  0  0  0
   54.0230   47.9449   -2.3241 F   0  0  0  0  0  0
   53.2514   45.0181   -3.0321 C   0  0  0  0  0  0
   51.9830   45.6639   -1.0787 C   0  0  0  0  0  0
   51.2230   43.8280   -2.4600 C   0  0  0  0  0  0
   49.0189   40.4809   -1.6296 O   0  0  0  0  0  0
   52.3284   44.0100   -3.2990 C   0  0  0  0  0  0
   51.0540   44.6597   -1.3490 C   0  0  0  0  0  0
   47.3331   39.4120   -2.8914 C   0  0  0  0  0  0
   49.9726   42.3928   -1.7809 H   0  0  0  0  0  0
   49.0309   44.1076   -5.2170 H   0  0  0  0  0  0
   54.1097   45.1337   -3.6786 H   0  0  0  0  0  0
   51.8436   46.2875   -0.2070 H   0  0  0  0  0  0
   52.5039   43.3481   -4.1336 H   0  0  0  0  0  0
   50.2098   44.5288   -0.6870 H   0  0  0  0  0  0
   47.5678   38.7235   -3.6990 H   0  0  0  0  0  0
   46.4028   39.9286   -3.1276 H   0  0  0  0  0  0
   47.1902   38.8358   -1.9768 H   0  0  0  0  0  0
  1  2  2  0  0  0
  1  4  1  0  0  0
  1  6  1  0  0  0
  2  5  1  0  0  0
  2  9  1  0  0  0
  3  8  1  0  0  0
  3 10  1  0  0  0
  3 11  1  0  0  0
  3 12  1  0  0  0
  4  7  3  0  0  0
  5 15  1  0  0  0
  5 20  1  0  0  0
  6 16  2  0  0  0
  6 19  1  0  0  0
  8 14  2  0  0  0
  8 13  1  0  0  0
  9 21  1  0  0  0
 13 17  2  0  0  0
 13 22  1  0  0  0
 14 18  1  0  0  0
 14 23  1  0  0  0
 15 17  1  0  0  0
 15 18  2  0  0  0
 17 24  1  0  0  0
 18 25  1  0  0  0
 19 26  1  0  0  0
 19 27  1  0  0  0
 19 28  1  0  0  0
M  END
> <s_m_entry_id>
25799

> <s_m_entry_name>
dock_pv.451

> <s_m_Source_Path>
/home/csk/Desktop/cluster/DUD-E-result/pyrd

> <s_m_Source_File>
dock_pv.maegz

> <i_m_Source_File_Index>
451

> <chembl_id>
CHEMBL70544

> <chembl_pref_name>
None

> <i_lp_mmshare_version>
53161

> <r_lp_tautomer_probability>
1

> <s_lp_Force_Field>
OPLS_2005

> <r_lp_Energy>
27.276217

> <b_lp_Chiralities_Consistent>
1

> <s_lp_Variant>
CHEMBL1966_lig42-1

> <s_i_glide_gridfile>
glide-grid_1d3g

> <i_i_glide_lignum>
46

> <i_i_glide_rotatable_bonds>
5

> <r_i_docking_score>
-8.43441459820106

> <r_i_glide_ligand_efficiency>
-0.443916557800056

> <r_i_glide_ligand_efficiency_sa>
-1.18454767356603

> <r_i_glide_ligand_efficiency_ln>
-2.13830525525926

> <r_i_glide_gscore>
-8.43441459820106

> <r_i_glide_lipo>
-2.89179079939259

> <r_i_glide_hbond>
-0.591822751970009

> <r_i_glide_metal>
0

> <r_i_glide_rewards>
-3.5565408339168

> <r_i_glide_evdw>
-30.1203289031982

> <r_i_glide_ecoul>
-5.16319370269775

> <r_i_glide_erotb>
0.886235287642913

> <r_i_glide_esite>
0

> <r_i_glide_emodel>
-49.9045207421591

> <r_i_glide_energy>
-35.283522605896

> <r_i_glide_einternal>
3.93428182601929

> <i_i_glide_confnum>
31

> <i_i_glide_posenum>
35

> <r_i_glide_eff_state_penalty>
0

> <s_user_duplicate_titles>
CHEMBL1966_lig42,111538

> <i_f3d_flags>
0

> <s_m_subgroup_title>
dock_pv

> <s_m_subgroupid>
dock_pv

> <b_m_subgroup_collapsed>
1

$$$$
CHEMBL1966_lig266
                    3D
 Schrodinger Suite 2021-1.
 31 32  0  0  1  0            999 V2000
   48.4230   40.3136   -2.4683 C   0  0  0  0  0  0
   47.4072   39.6100   -3.3549 C   0  0  0  0  0  0
   50.4108   42.2231   -2.0354 S   0  0  0  0  0  0
   50.9318   43.1124   -3.4337 C   0  0  0  0  0  0
   50.2904   42.8100   -4.5245 N   0  0  0  0  0  0
   49.3870   41.8626   -4.3529 C   0  0  0  0  0  0
   49.2823   41.3496   -3.0482 C   0  0  0  0  0  0
   48.6299   41.5015   -5.6120 C   0  0  0  0  0  0
   51.9716   44.0100   -3.4379 N   0  0  0  0  0  0
   52.4230   44.8708   -2.4232 C   0  0  0  0  0  0
   53.6867   45.4473   -2.5676 C   0  0  0  0  0  0
   54.2444   46.2382   -1.5537 C   0  0  0  0  0  0
   53.5089   46.4459   -0.3742 C   0  0  0  0  0  0
   52.1953   45.9938   -0.2817 C   0  0  0  0  0  0
   51.6517   45.2100   -1.2990 C   0  0  0  0  0  0
   48.4230   40.0100   -1.2745 O   0  0  0  0  0  0
   54.2018   47.2100    1.0134 Cl  0  0  0  0  0  0
   55.6407   46.8364   -1.7279 C   0  0  0  0  0  0
   55.5693   48.1670   -1.6736 F   0  0  0  0  0  0
   56.4230   46.4102   -0.7434 F   0  0  0  0  0  0
   56.2115   46.4961   -2.8853 F   0  0  0  0  0  0
   46.7662   40.3349   -3.8558 H   0  0  0  0  0  0
   46.7759   38.9453   -2.7648 H   0  0  0  0  0  0
   47.9297   39.0132   -4.0990 H   0  0  0  0  0  0
   48.3223   40.4605   -5.6516 H   0  0  0  0  0  0
   47.7365   42.1182   -5.7213 H   0  0  0  0  0  0
   49.2410   41.6581   -6.4990 H   0  0  0  0  0  0
   52.4754   44.1381   -4.3024 H   0  0  0  0  0  0
   54.2605   45.2384   -3.4583 H   0  0  0  0  0  0
   51.6230   46.1928    0.6119 H   0  0  0  0  0  0
   50.6392   44.8538   -1.1890 H   0  0  0  0  0  0
  1  2  1  0  0  0
  1  7  1  0  0  0
  1 16  2  0  0  0
  2 22  1  0  0  0
  2 23  1  0  0  0
  2 24  1  0  0  0
  3  4  1  0  0  0
  3  7  1  0  0  0
  4  5  2  0  0  0
  4  9  1  0  0  0
  5  6  1  0  0  0
  6  7  2  0  0  0
  6  8  1  0  0  0
  8 25  1  0  0  0
  8 26  1  0  0  0
  8 27  1  0  0  0
  9 10  1  0  0  0
  9 28  1  0  0  0
 10 11  1  0  0  0
 10 15  2  0  0  0
 11 12  2  0  0  0
 11 29  1  0  0  0
 12 13  1  0  0  0
 12 18  1  0  0  0
 13 14  2  0  0  0
 13 17  1  0  0  0
 14 15  1  0  0  0
 14 30  1  0  0  0
 15 31  1  0  0  0
 18 19  1  0  0  0
 18 20  1  0  0  0
 18 21  1  0  0  0
M  END
> <s_m_entry_id>
25800

> <s_m_entry_name>
dock_pv.452

> <s_m_Source_Path>
/home/csk/Desktop/cluster/DUD-E-result/pyrd

> <s_m_Source_File>
dock_pv.maegz

> <i_m_Source_File_Index>
452

> <chembl_id>
CHEMBL3410574

> <chembl_pref_name>
None

> <i_lp_mmshare_version>
53161

> <r_lp_tautomer_probability>
0.99995

> <s_lp_Force_Field>
OPLS_2005

> <r_lp_Energy>
8.793073

> <b_lp_Chiralities_Consistent>
1

> <s_lp_Variant>
CHEMBL1966_lig266-1

> <s_i_glide_gridfile>
glide-grid_1d3g

> <i_i_glide_lignum>
312

> <i_i_glide_rotatable_bonds>
4

> <r_i_docking_score>
-8.43046400937622

> <r_i_glide_ligand_efficiency>
-0.401450667113153

> <r_i_glide_ligand_efficiency_sa>
-1.1075719499988

> <r_i_glide_ligand_efficiency_ln>
-2.08441519096172

> <r_i_glide_gscore>
-8.43046400937622

> <r_i_glide_lipo>
-3.83480602836821

> <r_i_glide_hbond>
0

> <r_i_glide_metal>
0

> <r_i_glide_rewards>
-3.17293225428504

> <r_i_glide_evdw>
-35.6861991882324

> <r_i_glide_ecoul>
0.165875300765038

> <r_i_glide_erotb>
0.336702937573888

> <r_i_glide_esite>
0

> <r_i_glide_emodel>
-47.8324968321895

> <r_i_glide_energy>
-35.5203238874674

> <r_i_glide_einternal>
4.41816139221191

> <i_i_glide_confnum>
5

> <i_i_glide_posenum>
395

> <r_i_glide_eff_state_penalty>
0

> <s_user_duplicate_titles>
CHEMBL1966_lig266

> <i_f3d_flags>
0

> <s_m_subgroup_title>
dock_pv

> <s_m_subgroupid>
dock_pv

> <b_m_subgroup_collapsed>
1

$$$$
CHEMBL1966_lig8
                    3D
 Schrodinger Suite 2021-1.
 47 49  0  0  1  0            999 V2000
   50.5961   44.0627   -1.3492 C   0  0  0  0  0  0
   48.1151   40.3286   -2.8772 C   0  0  0  0  0  0
   49.1919   41.2254   -3.3170 C   0  0  0  0  0  0
   49.7622   43.8474   -0.0990 C   0  0  0  0  0  0
   47.0170   39.9510   -3.6122 C   0  0  0  0  0  0
   50.5685   43.1521   -2.4231 C   0  0  0  0  0  0
   49.6230   42.0890   -2.3750 N   0  0  0  0  0  0
   51.5407   45.1052   -1.3173 C   0  0  0  0  0  0
   57.2765   48.8375   -4.0320 C   0  0  0  0  0  0
   46.6191   40.4100   -4.9414 C   0  0  0  0  0  0
   52.5584   45.2100   -2.2618 C   0  0  0  0  0  0
   53.7036   46.1555   -2.0618 C   0  0  0  0  0  0
   56.2208   47.8808   -4.0990 O   0  0  0  0  0  0
   49.6230   41.2110   -4.4625 O   0  0  0  0  0  0
   54.4389   46.6622   -3.1425 C   0  0  0  0  0  0
   51.5115   43.3276   -3.4443 C   0  0  0  0  0  0
   47.2558   41.1350   -5.6990 O   0  0  0  0  0  0
   55.5507   47.4889   -2.9575 C   0  0  0  0  0  0
   52.4986   44.3166   -3.3411 C   0  0  0  0  0  0
   50.4230   44.4100    0.8905 F   0  0  0  0  0  0
   48.5815   44.4100   -0.0990 F   0  0  0  0  0  0
   49.5964   42.5562    0.1878 F   0  0  0  0  0  0
   57.7293   49.0195   -5.2703 F   0  0  0  0  0  0
   56.8373   50.0100   -3.5798 F   0  0  0  0  0  0
   58.3021   48.4100   -3.2990 F   0  0  0  0  0  0
   45.4009   39.9245   -5.2990 O   0  0  0  0  0  0
   47.9676   39.7411   -1.4619 C   0  0  0  0  0  0
   46.1511   38.9835   -2.8041 C   0  0  0  0  0  0
   47.0605   38.5555   -1.6769 C   0  0  0  0  0  0
   54.1162   46.5163   -0.7681 C   0  0  0  0  0  0
   55.2117   47.3507   -0.5630 C   0  0  0  0  0  0
   55.9257   47.8395   -1.6518 C   0  0  0  0  0  0
   49.1749   41.9943   -1.4762 H   0  0  0  0  0  0
   51.5402   45.8021   -0.4924 H   0  0  0  0  0  0
   54.1558   46.4100   -4.1527 H   0  0  0  0  0  0
   51.5458   42.6624   -4.2891 H   0  0  0  0  0  0
   53.2578   44.3442   -4.0990 H   0  0  0  0  0  0
   45.0064   39.4121   -4.5927 H   0  0  0  0  0  0
   47.4900   40.4100   -0.7605 H   0  0  0  0  0  0
   48.8230   39.4465   -0.8990 H   0  0  0  0  0  0
   45.8071   38.1029   -3.3469 H   0  0  0  0  0  0
   45.2638   39.4872   -2.4165 H   0  0  0  0  0  0
   46.5113   38.2828   -0.7754 H   0  0  0  0  0  0
   47.6513   37.6857   -1.9727 H   0  0  0  0  0  0
   53.6082   46.1320    0.1038 H   0  0  0  0  0  0
   55.5131   47.6100    0.4417 H   0  0  0  0  0  0
   56.7742   48.4771   -1.4566 H   0  0  0  0  0  0
  1  4  1  0  0  0
  1  6  2  0  0  0
  1  8  1  0  0  0
  2  3  1  0  0  0
  2  5  2  0  0  0
  2 27  1  0  0  0
  3  7  1  0  0  0
  3 14  2  0  0  0
  4 20  1  0  0  0
  4 21  1  0  0  0
  4 22  1  0  0  0
  5 10  1  0  0  0
  5 28  1  0  0  0
  6  7  1  0  0  0
  6 16  1  0  0  0
  7 33  1  0  0  0
  8 11  2  0  0  0
  8 34  1  0  0  0
  9 13  1  0  0  0
  9 23  1  0  0  0
  9 24  1  0  0  0
  9 25  1  0  0  0
 10 17  2  0  0  0
 10 26  1  0  0  0
 11 12  1  0  0  0
 11 19  1  0  0  0
 12 15  1  0  0  0
 12 30  2  0  0  0
 13 18  1  0  0  0
 15 18  2  0  0  0
 15 35  1  0  0  0
 16 19  2  0  0  0
 16 36  1  0  0  0
 18 32  1  0  0  0
 19 37  1  0  0  0
 26 38  1  0  0  0
 27 29  1  0  0  0
 27 39  1  0  0  0
 27 40  1  0  0  0
 28 29  1  0  0  0
 28 41  1  0  0  0
 28 42  1  0  0  0
 29 43  1  0  0  0
 29 44  1  0  0  0
 30 31  1  0  0  0
 30 45  1  0  0  0
 31 32  2  0  0  0
 31 46  1  0  0  0
 32 47  1  0  0  0
M  END
> <s_m_entry_id>
25801

> <s_m_entry_name>
dock_pv.453

> <s_m_Source_Path>
/home/csk/Desktop/cluster/DUD-E-result/pyrd

> <s_m_Source_File>
dock_pv.maegz

> <i_m_Source_File_Index>
453

> <chembl_id>
CHEMBL157004

> <chembl_pref_name>
None

> <i_lp_mmshare_version>
53161

> <r_lp_tautomer_probability>
1

> <s_lp_Force_Field>
OPLS_2005

> <r_lp_Energy>
45.766915

> <b_lp_Chiralities_Consistent>
1

> <s_lp_Variant>
CHEMBL1966_lig8-1

> <s_i_glide_gridfile>
glide-grid_1d3g

> <i_i_glide_lignum>
11

> <i_i_glide_rotatable_bonds>
9

> <r_i_docking_score>
-8.42218604572797

> <r_i_glide_ligand_efficiency>
-0.263193313928999

> <r_i_glide_ligand_efficiency_sa>
-0.835586685838472

> <r_i_glide_ligand_efficiency_ln>
-1.88595703575928

> <r_i_glide_gscore>
-8.42218604572797

> <r_i_glide_lipo>
-5.67843820472936

> <r_i_glide_hbond>
-0.0922022164352205

> <r_i_glide_metal>
0

> <r_i_glide_rewards>
-1.83689156650672

> <r_i_glide_evdw>
-25.9398612976074

> <r_i_glide_ecoul>
-0.598738551139832

> <r_i_glide_erotb>
0.572149789494675

> <r_i_glide_esite>
0

> <r_i_glide_emodel>
-21.9193856390812

> <r_i_glide_energy>
-26.5385998487473

> <r_i_glide_einternal>
12.1132383346558

> <i_i_glide_confnum>
19

> <i_i_glide_posenum>
66

> <r_i_glide_eff_state_penalty>
0

> <s_user_duplicate_titles>
CHEMBL1966_lig8,257819

> <i_f3d_flags>
0

> <s_m_subgroup_title>
dock_pv

> <s_m_subgroupid>
dock_pv

> <b_m_subgroup_collapsed>
1

$$$$
CHEMBL1966_lig38
                    3D
 Schrodinger Suite 2021-1.
 31 32  0  0  1  0            999 V2000
   48.8230   40.9964   -2.9673 C   0  0  0  0  0  0
   49.7718   41.8668   -2.2646 C   0  0  0  0  0  0
   54.1103   46.8277   -1.4706 C   0  0  0  0  0  0
   47.5439   40.2581   -4.7064 N   0  0  0  0  0  0
   47.9406   40.0097   -2.5078 C   0  0  0  0  0  0
   50.3356   42.7697   -2.9705 N   0  0  0  0  0  0
   47.1554   39.6099   -3.5411 O   0  0  0  0  0  0
   48.5491   41.0062   -4.3453 C   0  0  0  0  0  0
   53.0443   45.8051   -1.8635 C   0  0  0  0  0  0
   50.0229   41.6100   -0.5043 S   0  0  0  0  0  0
   53.9837   47.2099   -0.2002 F   0  0  0  0  0  0
   55.3277   46.3014   -1.6157 F   0  0  0  0  0  0
   54.0231   47.9031   -2.2540 F   0  0  0  0  0  0
   53.2403   45.0216   -3.0007 C   0  0  0  0  0  0
   51.8944   45.6098   -1.0873 C   0  0  0  0  0  0
   51.2225   43.7526   -2.5176 C   0  0  0  0  0  0
   52.3389   44.0102   -3.3167 C   0  0  0  0  0  0
   50.9868   44.6010   -1.4220 C   0  0  0  0  0  0
   47.6272   39.3387   -1.1695 C   0  0  0  0  0  0
   47.2631   37.8567   -1.2982 C   0  0  0  0  0  0
   49.0427   41.6373   -5.0710 H   0  0  0  0  0  0
   49.0953   40.6646   -0.3714 H   0  0  0  0  0  0
   54.1022   45.1799   -3.6356 H   0  0  0  0  0  0
   51.7023   46.2229   -0.2182 H   0  0  0  0  0  0
   52.5114   43.4043   -4.1976 H   0  0  0  0  0  0
   50.0948   44.4814   -0.8245 H   0  0  0  0  0  0
   48.4740   39.3808   -0.4933 H   0  0  0  0  0  0
   46.8228   39.8472   -0.6398 H   0  0  0  0  0  0
   47.2221   37.3834   -0.3189 H   0  0  0  0  0  0
   46.2938   37.7216   -1.7790 H   0  0  0  0  0  0
   48.0160   37.3168   -1.8763 H   0  0  0  0  0  0
  1  2  1  0  0  0
  1  5  2  0  0  0
  1  8  1  0  0  0
  2  6  2  0  0  0
  2 10  1  0  0  0
  3  9  1  0  0  0
  3 11  1  0  0  0
  3 12  1  0  0  0
  3 13  1  0  0  0
  4  8  2  0  0  0
  4  7  1  0  0  0
  5  7  1  0  0  0
  5 19  1  0  0  0
  6 16  1  0  0  0
  8 21  1  0  0  0
  9 15  2  0  0  0
  9 14  1  0  0  0
 10 22  1  0  0  0
 14 17  2  0  0  0
 14 23  1  0  0  0
 15 18  1  0  0  0
 15 24  1  0  0  0
 16 17  1  0  0  0
 16 18  2  0  0  0
 17 25  1  0  0  0
 18 26  1  0  0  0
 19 20  1  0  0  0
 19 27  1  0  0  0
 19 28  1  0  0  0
 20 29  1  0  0  0
 20 30  1  0  0  0
 20 31  1  0  0  0
M  END
> <s_m_entry_id>
25802

> <s_m_entry_name>
dock_pv.454

> <s_m_Source_Path>
/home/csk/Desktop/cluster/DUD-E-result/pyrd

> <s_m_Source_File>
dock_pv.maegz

> <i_m_Source_File_Index>
454

> <chembl_id>
CHEMBL304401

> <chembl_pref_name>
None

> <i_lp_mmshare_version>
53161

> <r_lp_tautomer_probability>
1

> <s_lp_Force_Field>
OPLS_2005

> <r_lp_Energy>
15.383793

> <b_lp_Chiralities_Consistent>
1

> <s_lp_Variant>
CHEMBL1966_lig38-1

> <s_i_glide_gridfile>
glide-grid_1d3g

> <i_i_glide_lignum>
42

> <i_i_glide_rotatable_bonds>
5

> <r_i_docking_score>
-8.41350453877032

> <r_i_glide_ligand_efficiency>
-0.420675226938516

> <r_i_glide_ligand_efficiency_sa>
-1.1418882457267

> <r_i_glide_ligand_efficiency_ln>
-2.10562269010255

> <r_i_glide_gscore>
-8.41350453877032

> <r_i_glide_lipo>
-3.56707240086649

> <r_i_glide_hbond>
0

> <r_i_glide_metal>
0

> <r_i_glide_rewards>
-3.73953234077844

> <r_i_glide_evdw>
-31.8859233856201

> <r_i_glide_ecoul>
-0.826877117156982

> <r_i_glide_erotb>
0.611427939729157

> <r_i_glide_esite>
0

> <r_i_glide_emodel>
-44.5040676230925

> <r_i_glide_energy>
-32.7128005027771

> <r_i_glide_einternal>
4.16320896148682

> <i_i_glide_confnum>
12

> <i_i_glide_posenum>
382

> <r_i_glide_eff_state_penalty>
0

> <s_user_duplicate_titles>
CHEMBL1966_lig38

> <i_f3d_flags>
0

> <s_m_subgroup_title>
dock_pv

> <s_m_subgroupid>
dock_pv

> <b_m_subgroup_collapsed>
1

$$$$
CHEMBL1966_lig32
                    3D
 Schrodinger Suite 2021-1.
 44 46  0  0  1  0            999 V2000
   56.0207   47.5822   -0.5075 C   0  0  0  0  0  0
   56.5465   48.2787   -1.5930 C   0  0  0  0  0  0
   55.9377   48.1762   -2.8466 C   0  0  0  0  0  0
   56.4460   48.8237   -3.9467 O   0  0  0  0  0  0
   57.7055   48.3497   -4.4277 C   0  0  0  0  0  0
   57.7526   47.0161   -4.4943 F   0  0  0  0  0  0
   57.8773   48.8092   -5.6646 F   0  0  0  0  0  0
   58.7091   48.8110   -3.6832 F   0  0  0  0  0  0
   54.7901   47.3938   -2.9943 C   0  0  0  0  0  0
   54.2486   46.6876   -1.9103 C   0  0  0  0  0  0
   53.0902   45.7668   -2.0809 C   0  0  0  0  0  0
   54.8764   46.8039   -0.6629 C   0  0  0  0  0  0
   52.1028   45.6514   -1.0928 C   0  0  0  0  0  0
   51.1211   44.6644   -1.1721 C   0  0  0  0  0  0
   50.2467   44.5143   -0.1487 F   0  0  0  0  0  0
   51.0861   43.7874   -2.2615 C   0  0  0  0  0  0
   50.1545   42.7369   -2.1874 N   0  0  0  0  0  0
   52.0216   43.9475   -3.2990 C   0  0  0  0  0  0
   53.0137   44.9235   -3.1956 C   0  0  0  0  0  0
   49.7083   41.9150   -3.1562 C   0  0  0  0  0  0
   48.8230   40.8635   -2.6528 C   0  0  0  0  0  0
   50.0218   42.0413   -4.3362 O   0  0  0  0  0  0
   47.8610   40.1992   -3.3641 C   0  0  0  0  0  0
   47.1287   39.1820   -2.4982 C   0  0  0  0  0  0
   47.6826   39.3949   -1.0935 C   0  0  0  0  0  0
   48.8228   40.4100   -1.1895 C   0  0  0  0  0  0
   47.5115   40.4100   -4.7614 C   0  0  0  0  0  0
   48.3040   40.4102   -5.6987 O   0  0  0  0  0  0
   46.1670   40.5567   -4.9362 O   0  0  0  0  0  0
   56.5187   47.6114    0.4477 H   0  0  0  0  0  0
   57.4370   48.8767   -1.4623 H   0  0  0  0  0  0
   54.3312   47.3235   -3.9700 H   0  0  0  0  0  0
   54.5059   46.2514    0.1884 H   0  0  0  0  0  0
   52.1265   46.2905   -0.2223 H   0  0  0  0  0  0
   49.7409   42.6163   -1.2763 H   0  0  0  0  0  0
   52.0495   43.2854   -4.1502 H   0  0  0  0  0  0
   53.7614   44.9941   -3.9677 H   0  0  0  0  0  0
   47.3414   38.1737   -2.8578 H   0  0  0  0  0  0
   46.0453   39.3099   -2.5107 H   0  0  0  0  0  0
   46.9007   39.7657   -0.4290 H   0  0  0  0  0  0
   48.0177   38.4547   -0.6536 H   0  0  0  0  0  0
   48.7150   41.2083   -0.4585 H   0  0  0  0  0  0
   49.7905   40.0100   -0.9276 H   0  0  0  0  0  0
   45.6936   40.6048   -4.1039 H   0  0  0  0  0  0
  1  2  2  0  0  0
  1 12  1  0  0  0
  1 30  1  0  0  0
  2  3  1  0  0  0
  2 31  1  0  0  0
  3  4  1  0  0  0
  3  9  2  0  0  0
  4  5  1  0  0  0
  5  6  1  0  0  0
  5  7  1  0  0  0
  5  8  1  0  0  0
  9 10  1  0  0  0
  9 32  1  0  0  0
 10 11  1  0  0  0
 10 12  2  0  0  0
 11 13  2  0  0  0
 11 19  1  0  0  0
 12 33  1  0  0  0
 13 14  1  0  0  0
 13 34  1  0  0  0
 14 15  1  0  0  0
 14 16  2  0  0  0
 16 17  1  0  0  0
 16 18  1  0  0  0
 17 20  1  0  0  0
 17 35  1  0  0  0
 18 19  2  0  0  0
 18 36  1  0  0  0
 19 37  1  0  0  0
 20 21  1  0  0  0
 20 22  2  0  0  0
 21 23  2  0  0  0
 21 26  1  0  0  0
 23 24  1  0  0  0
 23 27  1  0  0  0
 24 25  1  0  0  0
 24 38  1  0  0  0
 24 39  1  0  0  0
 25 26  1  0  0  0
 25 40  1  0  0  0
 25 41  1  0  0  0
 26 42  1  0  0  0
 26 43  1  0  0  0
 27 28  2  0  0  0
 27 29  1  0  0  0
 29 44  1  0  0  0
M  END
> <s_m_entry_id>
25803

> <s_m_entry_name>
dock_pv.455

> <s_m_Source_Path>
/home/csk/Desktop/cluster/DUD-E-result/pyrd

> <s_m_Source_File>
dock_pv.maegz

> <i_m_Source_File_Index>
455

> <chembl_id>
CHEMBL154493

> <chembl_pref_name>
None

> <i_lp_mmshare_version>
53161

> <r_lp_tautomer_probability>
1

> <s_lp_Force_Field>
OPLS_2005

> <r_lp_Energy>
43.455631

> <b_lp_Chiralities_Consistent>
1

> <s_lp_Variant>
CHEMBL1966_lig32-1

> <s_i_glide_gridfile>
glide-grid_1d3g

> <i_i_glide_lignum>
36

> <i_i_glide_rotatable_bonds>
8

> <r_i_docking_score>
-8.40822580982701

> <r_i_glide_ligand_efficiency>
-0.289938821028517

> <r_i_glide_ligand_efficiency_sa>
-0.890783917265587

> <r_i_glide_ligand_efficiency_ln>
-1.92527049624047

> <r_i_glide_gscore>
-8.40822580982701

> <r_i_glide_lipo>
-5.2734598904611

> <r_i_glide_hbond>
-0.121479495455614

> <r_i_glide_metal>
0

> <r_i_glide_rewards>
-1.19690673537592

> <r_i_glide_evdw>
-42.6860198974609

> <r_i_glide_ecoul>
-2.58110308647156

> <r_i_glide_erotb>
0.705086769309411

> <r_i_glide_esite>
0

> <r_i_glide_emodel>
-56.6359209325481

> <r_i_glide_energy>
-45.2671229839325

> <r_i_glide_einternal>
7.07903289794922

> <i_i_glide_confnum>
7

> <i_i_glide_posenum>
206

> <r_i_glide_eff_state_penalty>
0

> <s_user_duplicate_titles>
CHEMBL1966_lig32,257769

> <i_f3d_flags>
0

> <s_m_subgroup_title>
dock_pv

> <s_m_subgroupid>
dock_pv

> <b_m_subgroup_collapsed>
1

$$$$
CHEMBL1966_lig194
                    3D
 Schrodinger Suite 2021-1.
 44 46  0  0  1  0            999 V2000
   48.5902   40.4100   -5.5987 O   0  0  0  0  0  0
   47.4648   40.4100   -4.8359 C   0  0  0  0  0  0
   46.3378   40.5711   -5.2990 O   0  0  0  0  0  0
   47.7179   40.0984   -3.3803 C   0  0  0  0  0  0
   46.8732   39.1791   -2.7418 C   0  0  0  0  0  0
   47.0658   38.9037   -1.3895 C   0  0  0  0  0  0
   48.0205   39.5101   -0.6453 N   0  0  0  0  0  0
   48.8230   40.4100   -1.2615 C   0  0  0  0  0  0
   48.7210   40.7509   -2.6169 C   0  0  0  0  0  0
   49.5636   41.7247   -3.1902 N   0  0  0  0  0  0
   50.2940   42.8203   -2.6940 C   0  0  0  0  0  0
   50.0943   43.3314   -1.4021 C   0  0  0  0  0  0
   50.8452   44.4100   -0.9328 C   0  0  0  0  0  0
   51.8922   44.9454   -1.6990 C   0  0  0  0  0  0
   52.0831   44.4100   -2.9791 C   0  0  0  0  0  0
   51.2250   43.4670   -3.5331 C   0  0  0  0  0  0
   51.4318   43.2100   -4.8775 O   0  0  0  0  0  0
   50.3664   43.2838   -5.8406 C   0  0  0  0  0  0
   50.4230   42.3226   -6.7547 F   0  0  0  0  0  0
   49.1570   43.2100   -5.3224 F   0  0  0  0  0  0
   50.4823   44.4100   -6.4990 F   0  0  0  0  0  0
   52.8532   45.9675   -1.1624 C   0  0  0  0  0  0
   53.1072   46.0530    0.2141 C   0  0  0  0  0  0
   54.1671   46.8100    0.7010 C   0  0  0  0  0  0
   54.9580   47.5493   -0.1736 C   0  0  0  0  0  0
   54.6683   47.5708   -1.5446 C   0  0  0  0  0  0
   55.3544   48.3242   -2.4771 O   0  0  0  0  0  0
   56.4022   49.1845   -2.0392 C   0  0  0  0  0  0
   53.6230   46.7757   -2.0182 C   0  0  0  0  0  0
   46.0807   38.6794   -3.2824 H   0  0  0  0  0  0
   46.4354   38.1929   -0.8772 H   0  0  0  0  0  0
   49.5972   40.8219   -0.6349 H   0  0  0  0  0  0
   49.4500   41.8083   -4.1901 H   0  0  0  0  0  0
   49.3255   42.9426   -0.7561 H   0  0  0  0  0  0
   50.6380   44.7893    0.0568 H   0  0  0  0  0  0
   52.8708   44.7856   -3.6141 H   0  0  0  0  0  0
   52.5393   45.4714    0.9245 H   0  0  0  0  0  0
   54.3764   46.8238    1.7604 H   0  0  0  0  0  0
   55.7739   48.1213    0.2354 H   0  0  0  0  0  0
   56.8126   49.7175   -2.8969 H   0  0  0  0  0  0
   56.0384   49.9327   -1.3332 H   0  0  0  0  0  0
   57.2167   48.6234   -1.5780 H   0  0  0  0  0  0
   53.4360   46.7824   -3.0814 H   0  0  0  0  0  0
   49.3437   40.1346   -5.0702 H   0  0  0  0  0  0
  1  2  1  0  0  0
  1 44  1  0  0  0
  2  3  2  0  0  0
  2  4  1  0  0  0
  4  5  2  0  0  0
  4  9  1  0  0  0
  5  6  1  0  0  0
  5 30  1  0  0  0
  6  7  2  0  0  0
  6 31  1  0  0  0
  7  8  1  0  0  0
  8  9  2  0  0  0
  8 32  1  0  0  0
  9 10  1  0  0  0
 10 11  1  0  0  0
 10 33  1  0  0  0
 11 12  2  0  0  0
 11 16  1  0  0  0
 12 13  1  0  0  0
 12 34  1  0  0  0
 13 14  2  0  0  0
 13 35  1  0  0  0
 14 15  1  0  0  0
 14 22  1  0  0  0
 15 16  2  0  0  0
 15 36  1  0  0  0
 16 17  1  0  0  0
 17 18  1  0  0  0
 18 19  1  0  0  0
 18 20  1  0  0  0
 18 21  1  0  0  0
 22 23  2  0  0  0
 22 29  1  0  0  0
 23 24  1  0  0  0
 23 37  1  0  0  0
 24 25  2  0  0  0
 24 38  1  0  0  0
 25 26  1  0  0  0
 25 39  1  0  0  0
 26 27  1  0  0  0
 26 29  2  0  0  0
 27 28  1  0  0  0
 28 40  1  0  0  0
 28 41  1  0  0  0
 28 42  1  0  0  0
 29 43  1  0  0  0
M  END
> <s_m_entry_id>
25804

> <s_m_entry_name>
dock_pv.456

> <s_m_Source_Path>
/home/csk/Desktop/cluster/DUD-E-result/pyrd

> <s_m_Source_File>
dock_pv.maegz

> <i_m_Source_File_Index>
456

> <chembl_id>
CHEMBL2263634

> <chembl_pref_name>
None

> <i_lp_mmshare_version>
53161

> <r_lp_tautomer_probability>
1

> <s_lp_Force_Field>
OPLS_2005

> <r_lp_Energy>
31.02255

> <b_lp_Chiralities_Consistent>
1

> <s_lp_Variant>
CHEMBL1966_lig194-1

> <s_i_glide_gridfile>
glide-grid_1d3g

> <i_i_glide_lignum>
239

> <i_i_glide_rotatable_bonds>
8

> <r_i_docking_score>
-8.40319594887872

> <r_i_glide_ligand_efficiency>
-0.289765377547542

> <r_i_glide_ligand_efficiency_sa>
-0.890251043941279

> <r_i_glide_ligand_efficiency_ln>
-1.92411878562958

> <r_i_glide_gscore>
-8.40319594887872

> <r_i_glide_lipo>
-5.57469556271134

> <r_i_glide_hbond>
0

> <r_i_glide_metal>
0

> <r_i_glide_rewards>
-1.53949456803829

> <r_i_glide_evdw>
-34.7021179199219

> <r_i_glide_ecoul>
-0.776536464691162

> <r_i_glide_erotb>
0.600713379642762

> <r_i_glide_esite>
-0.0381328320720775

> <r_i_glide_emodel>
-31.6708568849845

> <r_i_glide_energy>
-35.478654384613

> <r_i_glide_einternal>
18.7310523986816

> <i_i_glide_confnum>
72

> <i_i_glide_posenum>
154

> <r_i_glide_eff_state_penalty>
0

> <s_user_duplicate_titles>
CHEMBL1966_lig194

> <i_f3d_flags>
0

> <s_m_subgroup_title>
dock_pv

> <s_m_subgroupid>
dock_pv

> <b_m_subgroup_collapsed>
1

$$$$
CHEMBL1966_lig111
                    3D
 Schrodinger Suite 2021-1.
 35 36  0  0  1  0            999 V2000
   50.9921   44.1894   -1.2470 C   0  0  0  0  0  0
   52.0266   44.8100   -1.9777 C   0  0  0  0  0  0
   52.1955   44.3783   -3.3040 C   0  0  0  0  0  0
   51.3918   43.3889   -3.8659 C   0  0  0  0  0  0
   50.4198   42.7567   -3.0982 C   0  0  0  0  0  0
   50.2208   43.1708   -1.7806 C   0  0  0  0  0  0
   53.0027   45.7412   -1.2749 C   0  0  0  0  0  0
   49.6230   41.7849   -3.7244 N   0  0  0  0  0  0
   48.8857   40.8100   -3.1420 C   0  0  0  0  0  0
   47.8797   40.0285   -4.0101 C   0  0  1  0  0  0
   48.9783   40.5143   -1.9515 O   0  0  0  0  0  0
   46.8404   39.3429   -3.2252 C   0  0  0  0  0  0
   47.2745   40.7898   -5.2074 C   0  0  0  0  0  0
   45.7611   40.9772   -5.2990 C   0  0  0  0  0  0
   48.0052   41.2100   -6.0990 O   0  0  0  0  0  0
   46.0230   38.8100   -2.6063 N   0  0  0  0  0  0
   54.3499   46.0100   -1.6762 C   0  0  0  0  0  0
   55.2162   46.7297   -0.8336 C   0  0  0  0  0  0
   54.8135   47.0878    0.4430 C   0  0  0  0  0  0
   53.5235   46.8100    0.8631 C   0  0  0  0  0  0
   52.6172   46.2413   -0.0149 C   0  0  0  0  0  0
   55.0716   45.3967   -3.1320 Cl  0  0  0  0  0  0
   56.8230   47.1659   -1.3137 Cl  0  0  0  0  0  0
   50.7979   44.4088   -0.2110 H   0  0  0  0  0  0
   52.8856   44.8472   -3.9766 H   0  0  0  0  0  0
   51.5345   43.1305   -4.9039 H   0  0  0  0  0  0
   49.4627   42.7323   -1.1527 H   0  0  0  0  0  0
   49.5695   41.8565   -4.7307 H   0  0  0  0  0  0
   45.2902   40.0672   -5.6701 H   0  0  0  0  0  0
   45.5172   41.7927   -5.9814 H   0  0  0  0  0  0
   45.3340   41.2100   -4.3237 H   0  0  0  0  0  0
   48.4471   39.2101   -4.4462 H   0  0  0  0  0  0
   55.4988   47.5990    1.1010 H   0  0  0  0  0  0
   53.2004   47.1089    1.8492 H   0  0  0  0  0  0
   51.6139   46.1382    0.3633 H   0  0  0  0  0  0
  1  6  1  0  0  0
  1  2  2  0  0  0
  1 24  1  0  0  0
  2  7  1  0  0  0
  2  3  1  0  0  0
  3  4  2  0  0  0
  3 25  1  0  0  0
  4  5  1  0  0  0
  4 26  1  0  0  0
  5  6  2  0  0  0
  5  8  1  0  0  0
  6 27  1  0  0  0
  7 17  2  0  0  0
  7 21  1  0  0  0
  8  9  1  0  0  0
  8 28  1  0  0  0
  9 11  2  0  0  0
  9 10  1  0  0  0
 10 12  1  0  0  0
 10 32  1  0  0  0
 10 13  1  0  0  0
 12 16  3  0  0  0
 13 15  2  0  0  0
 13 14  1  0  0  0
 14 29  1  0  0  0
 14 30  1  0  0  0
 14 31  1  0  0  0
 17 18  1  0  0  0
 17 22  1  0  0  0
 18 19  2  0  0  0
 18 23  1  0  0  0
 19 20  1  0  0  0
 19 33  1  0  0  0
 20 21  2  0  0  0
 20 34  1  0  0  0
 21 35  1  0  0  0
M  END
> <s_m_entry_id>
25805

> <s_m_entry_name>
dock_pv.457

> <s_m_Source_Path>
/home/csk/Desktop/cluster/DUD-E-result/pyrd

> <s_m_Source_File>
dock_pv.maegz

> <i_m_Source_File_Index>
457

> <chembl_id>
CHEMBL505315

> <chembl_pref_name>
None

> <i_lp_mmshare_version>
53161

> <r_lp_tautomer_probability>
0.995394628248396

> <s_lp_Force_Field>
OPLS_2005

> <r_lp_Energy>
24.511536

> <b_lp_Chiralities_Consistent>
1

> <s_lp_Variant>
CHEMBL1966_lig111-2

> <s_i_glide_gridfile>
glide-grid_1d3g

> <i_i_glide_lignum>
124

> <i_i_glide_rotatable_bonds>
5

> <r_i_docking_score>
-8.40141616734722

> <r_i_glide_ligand_efficiency>
-0.365278963797705

> <r_i_glide_ligand_efficiency_sa>
-1.03880478249297

> <r_i_glide_ligand_efficiency_ln>
-2.03153860909454

> <r_i_glide_gscore>
-8.40141616734722

> <r_i_glide_lipo>
-4.25539459638361

> <r_i_glide_hbond>
-0.195475118535762

> <r_i_glide_metal>
0

> <r_i_glide_rewards>
-2.48328904617184

> <r_i_glide_evdw>
-34.4981422424316

> <r_i_glide_ecoul>
-2.40012049674988

> <r_i_glide_erotb>
0.631184264284931

> <r_i_glide_esite>
-0.0135164839068716

> <r_i_glide_emodel>
-46.2565267462221

> <r_i_glide_energy>
-36.8982627391815

> <r_i_glide_einternal>
7.95700073242188

> <i_i_glide_confnum>
5

> <i_i_glide_posenum>
261

> <r_i_glide_eff_state_penalty>
0

> <s_user_duplicate_titles>
CHEMBL1966_lig111,520744

> <i_f3d_flags>
0

> <s_m_subgroup_title>
dock_pv

> <s_m_subgroupid>
dock_pv

> <b_m_subgroup_collapsed>
1

$$$$
CHEMBL1966_lig811
                    3D
 Schrodinger Suite 2021-1.
 35 36  0  0  1  0            999 V2000
   50.6938   44.0961   -1.7073 C   0  0  0  0  0  0
   50.8746   43.3554   -2.8883 C   0  0  0  0  0  0
   52.0184   43.6102   -3.6557 C   0  0  0  0  0  0
   52.9116   44.6159   -3.2990 C   0  0  0  0  0  0
   52.7261   45.3449   -2.1188 C   0  0  0  0  0  0
   51.6229   45.0582   -1.3033 C   0  0  0  0  0  0
   49.8881   42.3210   -3.3354 C   0  0  0  0  0  0
   53.6460   46.3093   -1.6919 N   0  0  0  0  0  0
   54.4722   47.0796   -2.4321 C   0  0  0  0  0  0
   55.4892   47.9011   -1.6231 C   0  0  1  0  0  0
   54.4201   47.1729   -3.6599 O   0  0  0  0  0  0
   55.8025   47.2989   -0.3196 C   0  0  0  0  0  0
   56.8005   48.2521   -2.3403 C   0  0  0  0  0  0
   57.3826   49.6394   -2.0983 C   0  0  0  0  0  0
   57.3904   47.4445   -3.0562 O   0  0  0  0  0  0
   56.0269   46.8100    0.7010 N   0  0  0  0  0  0
   49.3815   42.3275   -4.6568 C   0  0  0  0  0  0
   48.4708   41.3594   -5.0786 C   0  0  0  0  0  0
   48.0422   40.3691   -4.2042 C   0  0  0  0  0  0
   48.5234   40.3470   -2.9013 C   0  0  0  0  0  0
   49.4304   41.3102   -2.4606 C   0  0  0  0  0  0
   49.8234   43.5327   -5.8204 Cl  0  0  0  0  0  0
   49.9278   41.2111   -0.8020 Cl  0  0  0  0  0  0
   51.4319   45.8269    0.2323 Cl  0  0  0  0  0  0
   49.8299   43.9183   -1.0836 H   0  0  0  0  0  0
   52.2167   43.0393   -4.5496 H   0  0  0  0  0  0
   53.7755   44.7969   -3.9142 H   0  0  0  0  0  0
   53.6571   46.4519   -0.6923 H   0  0  0  0  0  0
   56.6755   50.4086   -2.4087 H   0  0  0  0  0  0
   58.3005   49.7679   -2.6724 H   0  0  0  0  0  0
   57.6228   49.7702   -1.0427 H   0  0  0  0  0  0
   54.9793   48.8317   -1.3911 H   0  0  0  0  0  0
   48.0800   41.3957   -6.0837 H   0  0  0  0  0  0
   47.3321   39.6213   -4.5246 H   0  0  0  0  0  0
   48.1837   39.5763   -2.2241 H   0  0  0  0  0  0
  1  6  1  0  0  0
  1  2  2  0  0  0
  1 25  1  0  0  0
  2  7  1  0  0  0
  2  3  1  0  0  0
  3  4  2  0  0  0
  3 26  1  0  0  0
  4  5  1  0  0  0
  4 27  1  0  0  0
  5  8  1  0  0  0
  5  6  2  0  0  0
  6 24  1  0  0  0
  7 17  2  0  0  0
  7 21  1  0  0  0
  8  9  1  0  0  0
  8 28  1  0  0  0
  9 11  2  0  0  0
  9 10  1  0  0  0
 10 12  1  0  0  0
 10 32  1  0  0  0
 10 13  1  0  0  0
 12 16  3  0  0  0
 13 15  2  0  0  0
 13 14  1  0  0  0
 14 29  1  0  0  0
 14 30  1  0  0  0
 14 31  1  0  0  0
 17 18  1  0  0  0
 17 22  1  0  0  0
 18 19  2  0  0  0
 18 33  1  0  0  0
 19 20  1  0  0  0
 19 34  1  0  0  0
 20 21  2  0  0  0
 20 35  1  0  0  0
 21 23  1  0  0  0
M  END
> <s_m_entry_id>
25806

> <s_m_entry_name>
dock_pv.458

> <s_m_Source_Path>
/home/csk/Desktop/cluster/DUD-E-result/pyrd

> <s_m_Source_File>
dock_pv.maegz

> <i_m_Source_File_Index>
458

> <chembl_id>
CHEMBL484594

> <chembl_pref_name>
None

> <i_lp_mmshare_version>
53161

> <r_lp_tautomer_probability>
0.995394628248396

> <s_lp_Force_Field>
OPLS_2005

> <r_lp_Energy>
24.605262

> <b_lp_Chiralities_Consistent>
1

> <s_lp_Variant>
CHEMBL1966_lig811-2

> <s_i_glide_gridfile>
glide-grid_1d3g

> <i_i_glide_lignum>
883

> <i_i_glide_rotatable_bonds>
5

> <r_i_docking_score>
-8.39864736207425

> <r_i_glide_ligand_efficiency>
-0.349943640086427

> <r_i_glide_ligand_efficiency_sa>
-1.0094121280236

> <r_i_glide_ligand_efficiency_ln>
-2.01018170255954

> <r_i_glide_gscore>
-8.39864736207425

> <r_i_glide_lipo>
-4.79380727714673

> <r_i_glide_hbond>
0

> <r_i_glide_metal>
0

> <r_i_glide_rewards>
-2.07199407907945

> <r_i_glide_evdw>
-43.470516204834

> <r_i_glide_ecoul>
0.716855823993683

> <r_i_glide_erotb>
0.533151430794578

> <r_i_glide_esite>
0

> <r_i_glide_emodel>
-61.7721258543583

> <r_i_glide_energy>
-42.7536603808403

> <r_i_glide_einternal>
3.44918823242188

> <i_i_glide_confnum>
40

> <i_i_glide_posenum>
328

> <r_i_glide_eff_state_penalty>
0

> <s_user_duplicate_titles>
CHEMBL1966_lig811

> <i_f3d_flags>
0

> <s_m_subgroup_title>
dock_pv

> <s_m_subgroupid>
dock_pv

> <b_m_subgroup_collapsed>
1

$$$$
CHEMBL1966_lig258
                    3D
 Schrodinger Suite 2021-1.
 38 40  0  0  1  0            999 V2000
   48.8230   40.4109   -1.5882 C   0  0  0  0  0  0
   48.0511   39.5389   -2.2595 O   0  0  0  0  0  0
   50.4785   42.5756   -1.7480 S   0  0  0  0  0  0
   50.9102   43.1211   -3.3327 C   0  0  0  0  0  0
   50.2191   42.5588   -4.2904 N   0  0  0  0  0  0
   49.4075   41.6090   -3.8556 C   0  0  0  0  0  0
   49.4479   41.3853   -2.4739 C   0  0  0  0  0  0
   48.5889   40.9047   -4.9174 C   0  0  0  0  0  0
   51.9346   44.0095   -3.5759 N   0  0  0  0  0  0
   52.6365   44.8529   -2.6932 C   0  0  0  0  0  0
   52.0837   45.3758   -1.5153 C   0  0  0  0  0  0
   52.8451   46.1551   -0.6481 C   0  0  0  0  0  0
   54.1839   46.4827   -0.9735 C   0  0  0  0  0  0
   54.7091   46.0594   -2.2301 C   0  0  0  0  0  0
   53.9177   45.2448   -3.0638 C   0  0  0  0  0  0
   48.9875   40.4100   -0.3637 O   0  0  0  0  0  0
   47.5363   38.3892   -1.6041 C   0  0  0  0  0  0
   46.0229   38.4102   -1.6936 C   0  0  0  0  0  0
   55.0188   47.2203   -0.0984 C   0  0  0  0  0  0
   56.3039   47.5833   -0.5000 C   0  0  0  0  0  0
   56.7873   47.2212   -1.7498 C   0  0  0  0  0  0
   56.0133   46.4517   -2.6098 C   0  0  0  0  0  0
   47.5484   41.2314   -4.8992 H   0  0  0  0  0  0
   48.9599   41.0841   -5.9276 H   0  0  0  0  0  0
   48.5820   39.8244   -4.7755 H   0  0  0  0  0  0
   52.3065   44.0469   -4.5120 H   0  0  0  0  0  0
   51.0577   45.1809   -1.2489 H   0  0  0  0  0  0
   52.4190   46.5108    0.2786 H   0  0  0  0  0  0
   54.3436   44.9215   -3.9961 H   0  0  0  0  0  0
   47.8367   38.3094   -0.5574 H   0  0  0  0  0  0
   47.9340   37.5034   -2.0992 H   0  0  0  0  0  0
   45.6131   37.4825   -1.2991 H   0  0  0  0  0  0
   45.6964   38.5091   -2.7290 H   0  0  0  0  0  0
   45.6063   39.2357   -1.1190 H   0  0  0  0  0  0
   54.6475   47.5104    0.8761 H   0  0  0  0  0  0
   56.9519   48.1329    0.1643 H   0  0  0  0  0  0
   57.7821   47.5158   -2.0436 H   0  0  0  0  0  0
   56.4100   46.1447   -3.5644 H   0  0  0  0  0  0
  1  2  1  0  0  0
  1  7  1  0  0  0
  1 16  2  0  0  0
  2 17  1  0  0  0
  3  4  1  0  0  0
  3  7  1  0  0  0
  4  5  2  0  0  0
  4  9  1  0  0  0
  5  6  1  0  0  0
  6  7  2  0  0  0
  6  8  1  0  0  0
  8 23  1  0  0  0
  8 24  1  0  0  0
  8 25  1  0  0  0
  9 10  1  0  0  0
  9 26  1  0  0  0
 10 11  2  0  0  0
 10 15  1  0  0  0
 11 12  1  0  0  0
 11 27  1  0  0  0
 12 13  2  0  0  0
 12 28  1  0  0  0
 13 19  1  0  0  0
 13 14  1  0  0  0
 14 15  2  0  0  0
 14 22  1  0  0  0
 15 29  1  0  0  0
 17 18  1  0  0  0
 17 30  1  0  0  0
 17 31  1  0  0  0
 18 32  1  0  0  0
 18 33  1  0  0  0
 18 34  1  0  0  0
 19 20  2  0  0  0
 19 35  1  0  0  0
 20 21  1  0  0  0
 20 36  1  0  0  0
 21 22  2  0  0  0
 21 37  1  0  0  0
 22 38  1  0  0  0
M  END
> <s_m_entry_id>
25807

> <s_m_entry_name>
dock_pv.459

> <s_m_Source_Path>
/home/csk/Desktop/cluster/DUD-E-result/pyrd

> <s_m_Source_File>
dock_pv.maegz

> <i_m_Source_File_Index>
459

> <chembl_id>
CHEMBL3410581

> <chembl_pref_name>
None

> <i_lp_mmshare_version>
53161

> <r_lp_tautomer_probability>
1

> <s_lp_Force_Field>
OPLS_2005

> <r_lp_Energy>
13.036948

> <b_lp_Chiralities_Consistent>
1

> <s_lp_Variant>
CHEMBL1966_lig258-1

> <s_i_glide_gridfile>
glide-grid_1d3g

> <i_i_glide_lignum>
304

> <i_i_glide_rotatable_bonds>
5

> <r_i_docking_score>
-8.39517292287693

> <r_i_glide_ligand_efficiency>
-0.381598769221678

> <r_i_glide_ligand_efficiency_sa>
-1.06925475878713

> <r_i_glide_ligand_efficiency_ln>
-2.05208648372382

> <r_i_glide_gscore>
-8.39517292287693

> <r_i_glide_lipo>
-4.93598861448754

> <r_i_glide_hbond>
0

> <r_i_glide_metal>
0

> <r_i_glide_rewards>
-2.40879813574818

> <r_i_glide_evdw>
-34.5009651184082

> <r_i_glide_ecoul>
-0.573754251003265

> <r_i_glide_erotb>
0.760725220929697

> <r_i_glide_esite>
0

> <r_i_glide_emodel>
-46.7610689085168

> <r_i_glide_energy>
-35.0747193694115

> <r_i_glide_einternal>
7.60277128219604

> <i_i_glide_confnum>
10

> <i_i_glide_posenum>
167

> <r_i_glide_eff_state_penalty>
0

> <s_user_duplicate_titles>
CHEMBL1966_lig258

> <i_f3d_flags>
0

> <s_m_subgroup_title>
dock_pv

> <s_m_subgroupid>
dock_pv

> <b_m_subgroup_collapsed>
1

$$$$
CHEMBL1966_lig302
                    3D
 Schrodinger Suite 2021-1.
 30 32  0  0  1  0            999 V2000
   48.2319   39.8366   -0.6127 C   0  0  0  0  0  0
   47.6402   39.4665   -1.8126 C   0  0  0  0  0  0
   48.0352   40.0604   -3.0120 C   0  0  0  0  0  0
   49.2274   40.8052   -0.5824 C   0  0  0  0  0  0
   49.6233   41.4534   -1.7749 C   0  0  0  0  0  0
   49.0026   41.1183   -3.0175 C   0  0  0  0  0  0
   49.3773   41.9082   -4.1610 C   0  0  0  0  0  0
   50.2941   42.9611   -3.9874 C   0  0  0  0  0  0
   50.8339   43.2275   -2.7265 C   0  0  0  0  0  0
   50.5464   42.4354   -1.6658 N   0  0  0  0  0  0
   51.7411   44.4007   -2.4390 C   0  0  0  0  0  0
   52.8230   44.6607   -3.2956 C   0  0  0  0  0  0
   53.7183   45.6975   -3.0378 C   0  0  0  0  0  0
   53.5578   46.4855   -1.9018 C   0  0  0  0  0  0
   52.5170   46.2180   -1.0160 C   0  0  0  0  0  0
   51.6233   45.1759   -1.2680 C   0  0  0  0  0  0
   48.8572   41.6301   -5.5460 C   0  0  0  0  0  0
   47.5046   41.5061   -5.6758 O   0  0  0  0  0  0
   49.6231   41.5505   -6.4982 O   0  0  0  0  0  0
   46.2571   38.1651   -1.7801 Br  0  0  0  0  0  0
   54.6588   47.7741   -1.5788 Cl  0  0  0  0  0  0
   50.4231   44.8402   -0.0689 Cl  0  0  0  0  0  0
   47.9231   39.3519    0.3005 H   0  0  0  0  0  0
   47.5594   39.7419   -3.9260 H   0  0  0  0  0  0
   49.6880   41.0810    0.3553 H   0  0  0  0  0  0
   50.5641   43.5907   -4.8247 H   0  0  0  0  0  0
   52.9781   44.0130   -4.1387 H   0  0  0  0  0  0
   54.5417   45.8809   -3.7125 H   0  0  0  0  0  0
   52.4121   46.8100   -0.1182 H   0  0  0  0  0  0
   47.0246   41.8182   -4.9062 H   0  0  0  0  0  0
  1  2  2  0  0  0
  1  4  1  0  0  0
  1 23  1  0  0  0
  2  3  1  0  0  0
  2 20  1  0  0  0
  3  6  2  0  0  0
  3 24  1  0  0  0
  4  5  2  0  0  0
  4 25  1  0  0  0
  5  6  1  0  0  0
  5 10  1  0  0  0
  6  7  1  0  0  0
  7  8  2  0  0  0
  7 17  1  0  0  0
  8  9  1  0  0  0
  8 26  1  0  0  0
  9 10  2  0  0  0
  9 11  1  0  0  0
 11 12  2  0  0  0
 11 16  1  0  0  0
 12 13  1  0  0  0
 12 27  1  0  0  0
 13 14  2  0  0  0
 13 28  1  0  0  0
 14 15  1  0  0  0
 14 21  1  0  0  0
 15 16  2  0  0  0
 15 29  1  0  0  0
 16 22  1  0  0  0
 17 18  1  0  0  0
 17 19  2  0  0  0
 18 30  1  0  0  0
M  END
> <s_m_entry_id>
25808

> <s_m_entry_name>
dock_pv.460

> <s_m_Source_Path>
/home/csk/Desktop/cluster/DUD-E-result/pyrd

> <s_m_Source_File>
dock_pv.maegz

> <i_m_Source_File_Index>
460

> <chembl_id>
CHEMBL3819188

> <chembl_pref_name>
None

> <i_lp_mmshare_version>
53161

> <r_lp_tautomer_probability>
1

> <s_lp_Force_Field>
OPLS_2005

> <r_lp_Energy>
20.540688

> <b_lp_Chiralities_Consistent>
1

> <s_lp_Variant>
CHEMBL1966_lig302-1

> <s_i_glide_gridfile>
glide-grid_1d3g

> <i_i_glide_lignum>
348

> <i_i_glide_rotatable_bonds>
3

> <r_i_docking_score>
-8.38941017756

> <r_i_glide_ligand_efficiency>
-0.381336826252727

> <r_i_glide_ligand_efficiency_sa>
-1.06852078428649

> <r_i_glide_ligand_efficiency_ln>
-2.05067785856712

> <r_i_glide_gscore>
-8.38941017756

> <r_i_glide_lipo>
-5.1505945016657

> <r_i_glide_hbond>
-0.0870958746861823

> <r_i_glide_metal>
0

> <r_i_glide_rewards>
-1.34861796977628

> <r_i_glide_evdw>
-31.5681133270264

> <r_i_glide_ecoul>
-3.15321183204651

> <r_i_glide_erotb>
0.248285609726457

> <r_i_glide_esite>
0

> <r_i_glide_emodel>
-49.2008901169266

> <r_i_glide_energy>
-34.7213251590729

> <r_i_glide_einternal>
3.07717108726501

> <i_i_glide_confnum>
9

> <i_i_glide_posenum>
318

> <r_i_glide_eff_state_penalty>
0

> <s_user_duplicate_titles>
CHEMBL1966_lig302

> <i_f3d_flags>
0

> <s_m_subgroup_title>
dock_pv

> <s_m_subgroupid>
dock_pv

> <b_m_subgroup_collapsed>
1

$$$$
CHEMBL1966_lig468
                    3D
 Schrodinger Suite 2021-1.
 46 48  0  0  1  0            999 V2000
   46.2675   41.1705   -5.4361 C   0  0  0  0  0  0
   47.4887   40.8098   -4.7947 O   0  0  0  0  0  0
   47.4167   40.1441   -3.5856 C   0  0  0  0  0  0
   46.3931   39.2100   -3.3737 C   0  0  0  0  0  0
   46.3521   38.4349   -2.2224 C   0  0  0  0  0  0
   47.2882   38.6366   -1.2344 C   0  0  0  0  0  0
   47.3146   37.8364   -0.1503 F   0  0  0  0  0  0
   48.2296   39.6397   -1.3830 C   0  0  0  0  0  0
   48.3560   40.4110   -2.5517 C   0  0  0  0  0  0
   49.3981   41.5218   -2.6385 C   0  0  0  0  0  0
   49.8195   41.8402   -3.9003 N   0  0  0  0  0  0
   50.7555   42.8098   -4.0957 C   0  0  0  0  0  0
   51.3372   43.5316   -3.0589 C   0  0  0  0  0  0
   52.4715   44.3480   -3.3037 N   0  0  0  0  0  0
   53.2030   45.2100   -2.4556 C   0  0  0  0  0  0
   52.4860   45.9593   -1.5135 C   0  0  0  0  0  0
   53.1369   46.7082   -0.5439 C   0  0  0  0  0  0
   54.5194   46.8155   -0.5609 C   0  0  0  0  0  0
   55.2237   47.6086    0.5171 C   0  0  0  0  0  0
   55.2488   46.1542   -1.5447 C   0  0  0  0  0  0
   54.6241   45.3049   -2.4768 C   0  0  0  0  0  0
   55.5346   44.4100   -3.2990 C   0  0  0  0  0  0
   55.2228   43.2896   -3.6985 O   0  0  0  0  0  0
   56.7708   44.9289   -3.5426 O   0  0  0  0  0  0
   50.8243   43.2873   -1.7820 C   0  0  0  0  0  0
   49.9122   42.2590   -1.5375 C   0  0  0  0  0  0
   49.6230   42.0235   -0.0566 C   0  0  0  0  0  0
   46.4573   42.0103   -6.0993 H   0  0  0  0  0  0
   45.8798   40.3458   -6.0350 H   0  0  0  0  0  0
   45.4930   41.4862   -4.7359 H   0  0  0  0  0  0
   45.6586   39.0107   -4.1391 H   0  0  0  0  0  0
   45.6232   37.6522   -2.0996 H   0  0  0  0  0  0
   48.9365   39.7186   -0.5776 H   0  0  0  0  0  0
   51.0763   42.9585   -5.1152 H   0  0  0  0  0  0
   52.9369   44.1483   -4.1766 H   0  0  0  0  0  0
   51.4068   45.9295   -1.4959 H   0  0  0  0  0  0
   52.5573   47.2100    0.2169 H   0  0  0  0  0  0
   54.7199   47.4894    1.4777 H   0  0  0  0  0  0
   55.2245   48.6651    0.2590 H   0  0  0  0  0  0
   56.2506   47.2681    0.6593 H   0  0  0  0  0  0
   56.3269   46.2370   -1.5085 H   0  0  0  0  0  0
   57.2901   44.3034   -4.0497 H   0  0  0  0  0  0
   51.2455   43.7986   -0.9324 H   0  0  0  0  0  0
   48.6839   41.6062    0.2930 H   0  0  0  0  0  0
   50.4162   41.3695    0.3010 H   0  0  0  0  0  0
   49.6228   42.9787    0.4705 H   0  0  0  0  0  0
  1  2  1  0  0  0
  1 28  1  0  0  0
  1 29  1  0  0  0
  1 30  1  0  0  0
  2  3  1  0  0  0
  3  4  2  0  0  0
  3  9  1  0  0  0
  4  5  1  0  0  0
  4 31  1  0  0  0
  5  6  2  0  0  0
  5 32  1  0  0  0
  6  7  1  0  0  0
  6  8  1  0  0  0
  8  9  2  0  0  0
  8 33  1  0  0  0
  9 10  1  0  0  0
 10 11  2  0  0  0
 10 26  1  0  0  0
 11 12  1  0  0  0
 12 13  2  0  0  0
 12 34  1  0  0  0
 13 14  1  0  0  0
 13 25  1  0  0  0
 14 15  1  0  0  0
 14 35  1  0  0  0
 15 16  2  0  0  0
 15 21  1  0  0  0
 16 17  1  0  0  0
 16 36  1  0  0  0
 17 18  2  0  0  0
 17 37  1  0  0  0
 18 19  1  0  0  0
 18 20  1  0  0  0
 19 38  1  0  0  0
 19 39  1  0  0  0
 19 40  1  0  0  0
 20 21  2  0  0  0
 20 41  1  0  0  0
 21 22  1  0  0  0
 22 23  2  0  0  0
 22 24  1  0  0  0
 24 42  1  0  0  0
 25 26  2  0  0  0
 25 43  1  0  0  0
 26 27  1  0  0  0
 27 44  1  0  0  0
 27 45  1  0  0  0
 27 46  1  0  0  0
M  END
> <s_m_entry_id>
25810

> <s_m_entry_name>
dock_pv.462

> <s_m_Source_Path>
/home/csk/Desktop/cluster/DUD-E-result/pyrd

> <s_m_Source_File>
dock_pv.maegz

> <i_m_Source_File_Index>
462

> <chembl_id>
CHEMBL3674677

> <chembl_pref_name>
None

> <i_lp_mmshare_version>
53161

> <r_lp_tautomer_probability>
0.999999999999999

> <s_lp_Force_Field>
OPLS_2005

> <r_lp_Energy>
34.462837

> <b_lp_Chiralities_Consistent>
1

> <s_lp_Variant>
CHEMBL1966_lig468-1

> <s_i_glide_gridfile>
glide-grid_1d3g

> <i_i_glide_lignum>
518

> <i_i_glide_rotatable_bonds>
6

> <r_i_docking_score>
-8.38632606300198

> <r_i_glide_ligand_efficiency>
-0.310604669000073

> <r_i_glide_ligand_efficiency_sa>
-0.931814005976518

> <r_i_glide_ligand_efficiency_ln>
-1.95219844807615

> <r_i_glide_gscore>
-8.38632606300198

> <r_i_glide_lipo>
-5.67343812435166

> <r_i_glide_hbond>
0

> <r_i_glide_metal>
0

> <r_i_glide_rewards>
-1.8642861406663

> <r_i_glide_evdw>
-32.0464782714844

> <r_i_glide_ecoul>
1.2028511762619

> <r_i_glide_erotb>
0.573512152532824

> <r_i_glide_esite>
-0.000217713381901481

> <r_i_glide_emodel>
-23.897638857436

> <r_i_glide_energy>
-30.8436270952225

> <r_i_glide_einternal>
15.3393850326538

> <i_i_glide_confnum>
28

> <i_i_glide_posenum>
396

> <r_i_glide_eff_state_penalty>
0

> <s_user_duplicate_titles>
CHEMBL1966_lig468

> <i_f3d_flags>
0

> <s_m_subgroup_title>
dock_pv

> <s_m_subgroupid>
dock_pv

> <b_m_subgroup_collapsed>
1

$$$$
CHEMBL1966_lig660 
                    3D
 Schrodinger Suite 2021-1.
 31 33  0  0  1  0            999 V2000
   46.1667   38.8100   -2.9343 C   0  0  0  0  0  0
   46.8004   38.7986   -1.6995 C   0  0  0  0  0  0
   47.9117   39.6100   -1.5007 C   0  0  0  0  0  0
   46.6378   39.6100   -3.9595 C   0  0  0  0  0  0
   47.7968   40.3712   -3.8032 C   0  0  0  0  0  0
   48.4230   40.4100   -2.5404 C   0  0  0  0  0  0
   49.5679   41.3265   -2.2560 C   0  0  0  0  0  0
   49.9796   42.1628   -3.4251 C   0  0  0  0  0  0
   49.4057   42.0370   -4.6530 C   0  0  0  0  0  0
   48.3084   41.1214   -4.9863 C   0  0  0  0  0  0
   47.8021   40.9740   -6.0990 O   0  0  0  0  0  0
   50.0230   41.3800   -1.1136 O   0  0  0  0  0  0
   49.7664   42.8100   -5.7208 O   0  0  0  0  0  0
   51.0117   43.0766   -3.2937 N   0  0  0  0  0  0
   51.2833   44.0227   -2.2996 C   0  0  0  0  0  0
   52.4230   44.8100   -2.4990 C   0  0  0  0  0  0
   52.8233   45.7360   -1.5382 C   0  0  0  0  0  0
   52.1029   45.8365   -0.3518 C   0  0  0  0  0  0
   50.9524   45.0852   -0.1649 C   0  0  0  0  0  0
   50.5027   44.2297   -1.1580 C   0  0  0  0  0  0
   52.6818   46.8100    0.9431 Cl  0  0  0  0  0  0
   45.3276   38.1839   -3.1645 H   0  0  0  0  0  0
   46.4324   38.1738   -0.8994 H   0  0  0  0  0  0
   48.3690   39.6081   -0.5201 H   0  0  0  0  0  0
   46.1080   39.5860   -4.9013 H   0  0  0  0  0  0
   50.1907   43.6107   -5.4044 H   0  0  0  0  0  0
   51.6745   43.1350   -4.0529 H   0  0  0  0  0  0
   53.0251   44.6937   -3.3888 H   0  0  0  0  0  0
   53.7217   46.3181   -1.6832 H   0  0  0  0  0  0
   50.4230   45.1467    0.7699 H   0  0  0  0  0  0
   49.5772   43.7080   -0.9868 H   0  0  0  0  0  0
  1  2  2  0  0  0
  1  4  1  0  0  0
  1 22  1  0  0  0
  2  3  1  0  0  0
  2 23  1  0  0  0
  3  6  2  0  0  0
  3 24  1  0  0  0
  4  5  2  0  0  0
  4 25  1  0  0  0
  5  6  1  0  0  0
  5 10  1  0  0  0
  6  7  1  0  0  0
  7  8  1  0  0  0
  7 12  2  0  0  0
  8  9  2  0  0  0
  8 14  1  0  0  0
  9 10  1  0  0  0
  9 13  1  0  0  0
 10 11  2  0  0  0
 13 26  1  0  0  0
 14 15  1  0  0  0
 14 27  1  0  0  0
 15 16  2  0  0  0
 15 20  1  0  0  0
 16 17  1  0  0  0
 16 28  1  0  0  0
 17 18  2  0  0  0
 17 29  1  0  0  0
 18 19  1  0  0  0
 18 21  1  0  0  0
 19 20  2  0  0  0
 19 30  1  0  0  0
 20 31  1  0  0  0
M  END
> <s_m_entry_id>
25811

> <s_m_entry_name>
dock_pv.463

> <s_m_Source_Path>
/home/csk/Desktop/cluster/DUD-E-result/pyrd

> <s_m_Source_File>
dock_pv.maegz

> <i_m_Source_File_Index>
463

> <chembl_id>
CHEMBL4560384

> <chembl_pref_name>
None

> <i_lp_mmshare_version>
53161

> <r_lp_tautomer_probability>
1

> <s_lp_Force_Field>
OPLS_2005

> <r_lp_Energy>
31.617146

> <b_lp_Chiralities_Consistent>
1

> <s_lp_Variant>
CHEMBL1966_lig660 -1

> <s_i_glide_gridfile>
glide-grid_1d3g

> <i_i_glide_lignum>
717

> <i_i_glide_rotatable_bonds>
3

> <r_i_docking_score>
-8.38496440287314

> <r_i_glide_ligand_efficiency>
-0.399284019184435

> <r_i_glide_ligand_efficiency_sa>
-1.10159433265262

> <r_i_glide_ligand_efficiency_ln>
-2.07316550519444

> <r_i_glide_gscore>
-8.38496440287314

> <r_i_glide_lipo>
-4.25983244686986

> <r_i_glide_hbond>
-0.265539684165615

> <r_i_glide_metal>
0

> <r_i_glide_rewards>
-2.4133211363824

> <r_i_glide_evdw>
-30.9024658203125

> <r_i_glide_ecoul>
-2.06784749031067

> <r_i_glide_erotb>
0.409029279106968

> <r_i_glide_esite>
0

> <r_i_glide_emodel>
-43.1253058504985

> <r_i_glide_energy>
-32.9703133106232

> <r_i_glide_einternal>
7.90260791778564

> <i_i_glide_confnum>
4

> <i_i_glide_posenum>
57

> <r_i_glide_eff_state_penalty>
0

> <s_user_duplicate_titles>
CHEMBL1966_lig660 

> <i_f3d_flags>
0

> <s_m_subgroup_title>
dock_pv

> <s_m_subgroupid>
dock_pv

> <b_m_subgroup_collapsed>
1

$$$$
CHEMBL1966_lig254
                    3D
 Schrodinger Suite 2021-1.
 43 45  0  0  1  0            999 V2000
   53.2786   46.5618   -0.5390 C   0  0  0  0  0  0
   48.7803   41.1108   -3.9558 N   0  0  0  0  0  0
   52.2269   44.2644   -3.2986 N   0  0  0  0  0  0
   47.1195   40.7014   -5.6989 C   0  0  0  0  0  0
   56.2198   47.1338   -2.9251 C   0  0  0  0  0  0
   49.7185   41.8254   -3.2468 C   0  0  0  0  0  0
   51.2268   43.3820   -2.9373 C   0  0  0  0  0  0
   54.5044   46.9938   -1.0368 C   0  0  0  0  0  0
   49.5863   40.8083    0.3010 O   0  0  0  0  0  0
   48.4734   41.2392   -5.2528 C   0  0  0  0  0  0
   48.2868   40.0101   -1.4086 O   0  0  0  0  0  0
   52.9296   45.2106   -2.5235 C   0  0  0  0  0  0
   52.4743   45.7204   -1.2991 C   0  0  0  0  0  0
   50.8201   42.9934   -1.3000 S   0  0  0  0  0  0
   50.5359   42.7081   -3.8100 N   0  0  0  0  0  0
   49.2226   41.7164   -6.0990 O   0  0  0  0  0  0
   47.5928   39.0861   -0.5896 C   0  0  0  0  0  0
   54.1365   45.6951   -3.0285 C   0  0  0  0  0  0
   49.2243   40.8100   -0.8735 C   0  0  0  0  0  0
   49.8104   41.7117   -1.8599 C   0  0  0  0  0  0
   54.9232   46.6020   -2.3155 C   0  0  0  0  0  0
   46.8954   38.0792   -1.4916 C   0  0  0  0  0  0
   55.4784   48.0110   -0.0465 Cl  0  0  0  0  0  0
   46.0302   40.4126   -4.7018 C   0  0  0  0  0  0
   45.9282   41.6101   -5.6589 C   0  0  0  0  0  0
   56.1617   48.4618   -3.0329 F   0  0  0  0  0  0
   57.2236   46.8096   -2.1213 F   0  0  0  0  0  0
   56.4777   46.6305   -4.1342 F   0  0  0  0  0  0
   52.9391   46.8902    0.4326 H   0  0  0  0  0  0
   48.1926   40.5146   -3.3915 H   0  0  0  0  0  0
   52.5521   44.2293   -4.2532 H   0  0  0  0  0  0
   47.2133   40.0101   -6.5018 H   0  0  0  0  0  0
   51.5064   45.4741   -0.8983 H   0  0  0  0  0  0
   46.8675   39.6093    0.0344 H   0  0  0  0  0  0
   48.2846   38.5603    0.0712 H   0  0  0  0  0  0
   54.4919   45.3658   -3.9853 H   0  0  0  0  0  0
   46.4238   37.2923   -0.9049 H   0  0  0  0  0  0
   47.6231   37.6102   -2.1526 H   0  0  0  0  0  0
   46.1296   38.5527   -2.1062 H   0  0  0  0  0  0
   45.3945   39.5437   -4.8759 H   0  0  0  0  0  0
   46.1633   40.6055   -3.6374 H   0  0  0  0  0  0
   46.0640   42.6311   -5.2990 H   0  0  0  0  0  0
   45.2231   41.6001   -6.4863 H   0  0  0  0  0  0
  1  8  1  0  0  0
  1 13  2  0  0  0
  1 29  1  0  0  0
  2 10  1  0  0  0
  2  6  1  0  0  0
  2 30  1  0  0  0
  3 12  1  0  0  0
  3  7  1  0  0  0
  3 31  1  0  0  0
  4 10  1  0  0  0
  4 24  1  0  0  0
  4 25  1  0  0  0
  4 32  1  0  0  0
  5 21  1  0  0  0
  5 26  1  0  0  0
  5 27  1  0  0  0
  5 28  1  0  0  0
  6 20  2  0  0  0
  6 15  1  0  0  0
  7 15  2  0  0  0
  7 14  1  0  0  0
  8 23  1  0  0  0
  8 21  2  0  0  0
  9 19  2  0  0  0
 10 16  2  0  0  0
 11 19  1  0  0  0
 11 17  1  0  0  0
 12 18  2  0  0  0
 12 13  1  0  0  0
 13 33  1  0  0  0
 14 20  1  0  0  0
 17 22  1  0  0  0
 17 34  1  0  0  0
 17 35  1  0  0  0
 18 21  1  0  0  0
 18 36  1  0  0  0
 19 20  1  0  0  0
 22 37  1  0  0  0
 22 38  1  0  0  0
 22 39  1  0  0  0
 24 25  1  0  0  0
 24 40  1  0  0  0
 24 41  1  0  0  0
 25 42  1  0  0  0
 25 43  1  0  0  0
M  END
> <s_m_entry_id>
25812

> <s_m_entry_name>
dock_pv.464

> <s_m_Source_Path>
/home/csk/Desktop/cluster/DUD-E-result/pyrd

> <s_m_Source_File>
dock_pv.maegz

> <i_m_Source_File_Index>
464

> <chembl_id>
CHEMBL3410585

> <chembl_pref_name>
None

> <i_lp_mmshare_version>
53161

> <r_lp_tautomer_probability>
1

> <s_lp_Force_Field>
OPLS_2005

> <r_lp_Energy>
17.000246

> <b_lp_Chiralities_Consistent>
1

> <s_lp_Variant>
CHEMBL1966_lig254-1

> <s_i_glide_gridfile>
glide-grid_1d3g

> <i_i_glide_lignum>
300

> <i_i_glide_rotatable_bonds>
9

> <r_i_docking_score>
-8.38493215631091

> <r_i_glide_ligand_efficiency>
-0.299461862725389

> <r_i_glide_ligand_efficiency_sa>
-0.909342588839223

> <r_i_glide_ligand_efficiency_ln>
-1.93548853398239

> <r_i_glide_gscore>
-8.38493215631091

> <r_i_glide_lipo>
-4.40708908106605

> <r_i_glide_hbond>
0

> <r_i_glide_metal>
0

> <r_i_glide_rewards>
-2.63798131264215

> <r_i_glide_evdw>
-35.9379425048828

> <r_i_glide_ecoul>
-1.88988566398621

> <r_i_glide_erotb>
0.74051821223936

> <r_i_glide_esite>
0

> <r_i_glide_emodel>
-44.1647831216226

> <r_i_glide_energy>
-37.827828168869

> <r_i_glide_einternal>
16.1508388519287

> <i_i_glide_confnum>
13

> <i_i_glide_posenum>
352

> <r_i_glide_eff_state_penalty>
0

> <s_user_duplicate_titles>
CHEMBL1966_lig254

> <i_f3d_flags>
0

> <s_m_subgroup_title>
dock_pv

> <s_m_subgroupid>
dock_pv

> <b_m_subgroup_collapsed>
1

$$$$
CHEMBL1966_lig356
                    3D
 Schrodinger Suite 2021-1.
 35 36  0  0  1  0            999 V2000
   50.1657   42.3361   -3.4792 C   0  0  0  0  0  0
   50.0899   42.8373   -4.8568 C   0  0  0  0  0  0
   49.1294   42.2593   -5.6118 N   0  0  0  0  0  0
   48.2754   41.2545   -5.2990 C   0  0  0  0  0  0
   48.4230   40.7921   -4.0292 N   0  0  0  0  0  0
   49.3247   41.3168   -3.1173 C   0  0  0  0  0  0
   49.2229   40.8100   -1.7473 C   0  0  0  0  0  0
   48.4124   39.7157   -1.6219 O   0  0  0  0  0  0
   49.6997   41.3499   -0.7527 O   0  0  0  0  0  0
   47.4631   40.8100   -6.0990 O   0  0  0  0  0  0
   50.8230   43.6730   -5.3689 O   0  0  0  0  0  0
   51.2187   43.0189   -2.5897 C   0  0  0  0  0  0
   50.6719   44.2557   -1.8360 C   0  0  0  0  0  0
   51.7234   45.2099   -1.2670 C   0  0  0  0  0  0
   51.6345   45.6100    0.0695 C   0  0  0  0  0  0
   52.6265   46.4097    0.6344 C   0  0  0  0  0  0
   53.7163   46.8100   -0.1367 C   0  0  0  0  0  0
   53.8105   46.4574   -1.4836 C   0  0  0  0  0  0
   52.8034   45.6542   -2.0434 C   0  0  0  0  0  0
   54.9068   46.9339   -2.1751 O   0  0  0  0  0  0
   55.0402   46.6263   -3.5587 C   0  0  0  0  0  0
   49.0464   42.6340   -6.5433 H   0  0  0  0  0  0
   47.6865   40.1660   -3.7411 H   0  0  0  0  0  0
   48.3871   39.1599   -2.4026 H   0  0  0  0  0  0
   51.6230   42.2992   -1.8815 H   0  0  0  0  0  0
   52.0821   43.2798   -3.2027 H   0  0  0  0  0  0
   50.0230   44.8100   -2.4990 H   0  0  0  0  0  0
   50.0154   43.9175   -1.0335 H   0  0  0  0  0  0
   50.8230   45.2598    0.6898 H   0  0  0  0  0  0
   52.5628   46.6981    1.6736 H   0  0  0  0  0  0
   54.4885   47.4196    0.3093 H   0  0  0  0  0  0
   52.8529   45.3622   -3.0805 H   0  0  0  0  0  0
   55.9462   47.0920   -3.9462 H   0  0  0  0  0  0
   55.1272   45.5509   -3.7206 H   0  0  0  0  0  0
   54.1988   47.0102   -4.1384 H   0  0  0  0  0  0
  1  2  1  0  0  0
  1  6  2  0  0  0
  1 12  1  0  0  0
  2  3  1  0  0  0
  2 11  2  0  0  0
  3  4  1  0  0  0
  3 22  1  0  0  0
  4  5  1  0  0  0
  4 10  2  0  0  0
  5  6  1  0  0  0
  5 23  1  0  0  0
  6  7  1  0  0  0
  7  8  1  0  0  0
  7  9  2  0  0  0
  8 24  1  0  0  0
 12 13  1  0  0  0
 12 25  1  0  0  0
 12 26  1  0  0  0
 13 14  1  0  0  0
 13 27  1  0  0  0
 13 28  1  0  0  0
 14 15  2  0  0  0
 14 19  1  0  0  0
 15 16  1  0  0  0
 15 29  1  0  0  0
 16 17  2  0  0  0
 16 30  1  0  0  0
 17 18  1  0  0  0
 17 31  1  0  0  0
 18 19  2  0  0  0
 18 20  1  0  0  0
 19 32  1  0  0  0
 20 21  1  0  0  0
 21 33  1  0  0  0
 21 34  1  0  0  0
 21 35  1  0  0  0
M  END
> <s_m_entry_id>
25813

> <s_m_entry_name>
dock_pv.465

> <s_m_Source_Path>
/home/csk/Desktop/cluster/DUD-E-result/pyrd

> <s_m_Source_File>
dock_pv.maegz

> <i_m_Source_File_Index>
465

> <chembl_id>
CHEMBL3978933

> <chembl_pref_name>
None

> <i_lp_mmshare_version>
53161

> <r_lp_tautomer_probability>
1

> <s_lp_Force_Field>
OPLS_2005

> <r_lp_Energy>
17.017029

> <b_lp_Chiralities_Consistent>
1

> <s_lp_Variant>
CHEMBL1966_lig356-1

> <s_i_glide_gridfile>
glide-grid_1d3g

> <i_i_glide_lignum>
406

> <i_i_glide_rotatable_bonds>
6

> <r_i_docking_score>
-8.38178689626152

> <r_i_glide_ligand_efficiency>
-0.399132709345787

> <r_i_glide_ligand_efficiency_sa>
-1.10117688028107

> <r_i_glide_ligand_efficiency_ln>
-2.07237987310548

> <r_i_glide_gscore>
-8.38178689626152

> <r_i_glide_lipo>
-3.76930372589517

> <r_i_glide_hbond>
-0.240840174633564

> <r_i_glide_metal>
0

> <r_i_glide_rewards>
-2.51874497095197

> <r_i_glide_evdw>
-36.9771270751953

> <r_i_glide_ecoul>
-5.79413032531738

> <r_i_glide_erotb>
0.865077877776554

> <r_i_glide_esite>
0

> <r_i_glide_emodel>
-61.9719045607002

> <r_i_glide_energy>
-42.7712574005127

> <r_i_glide_einternal>
2.87712502479553

> <i_i_glide_confnum>
13

> <i_i_glide_posenum>
178

> <r_i_glide_eff_state_penalty>
0

> <s_user_duplicate_titles>
CHEMBL1966_lig356

> <i_f3d_flags>
0

> <s_m_subgroup_title>
dock_pv

> <s_m_subgroupid>
dock_pv

> <b_m_subgroup_collapsed>
1

$$$$
CHEMBL1966_lig653 
                    3D
 Schrodinger Suite 2021-1.
 31 33  0  0  1  0            999 V2000
   46.6515   39.0190   -2.8680 C   0  0  0  0  0  0
   47.2229   39.1384   -1.6084 C   0  0  0  0  0  0
   48.2898   40.0099   -1.4183 C   0  0  0  0  0  0
   47.1690   39.7474   -3.9350 C   0  0  0  0  0  0
   48.2672   40.6049   -3.7719 C   0  0  0  0  0  0
   48.8231   40.7530   -2.4841 C   0  0  0  0  0  0
   49.9374   41.7079   -2.1886 C   0  0  0  0  0  0
   50.3037   42.5891   -3.3350 C   0  0  0  0  0  0
   49.7696   42.4103   -4.5780 C   0  0  0  0  0  0
   48.7780   41.3788   -4.9505 C   0  0  0  0  0  0
   48.3618   41.1774   -6.0976 O   0  0  0  0  0  0
   50.4230   41.7444   -1.0572 O   0  0  0  0  0  0
   50.0931   43.2098   -5.6415 O   0  0  0  0  0  0
   51.2385   43.6099   -3.1698 N   0  0  0  0  0  0
   51.5820   44.4276   -2.0692 C   0  0  0  0  0  0
   52.7563   45.2101   -2.1209 C   0  0  0  0  0  0
   53.1354   46.0101   -1.0401 C   0  0  0  0  0  0
   52.3812   46.0100    0.1283 C   0  0  0  0  0  0
   51.2230   45.2424    0.1910 C   0  0  0  0  0  0
   50.7867   44.5309   -0.9196 C   0  0  0  0  0  0
   53.7878   45.2160   -3.5028 Cl  0  0  0  0  0  0
   45.8105   38.3603   -3.0217 H   0  0  0  0  0  0
   46.8308   38.5750   -0.7740 H   0  0  0  0  0  0
   48.6933   40.0928   -0.4182 H   0  0  0  0  0  0
   46.6951   39.6342   -4.8991 H   0  0  0  0  0  0
   49.5179   42.9984   -6.3832 H   0  0  0  0  0  0
   51.6457   43.9617   -4.0264 H   0  0  0  0  0  0
   54.0373   46.6030   -1.0941 H   0  0  0  0  0  0
   52.6975   46.5899    0.9836 H   0  0  0  0  0  0
   50.6486   45.2099    1.1007 H   0  0  0  0  0  0
   49.8317   44.0383   -0.8466 H   0  0  0  0  0  0
  1  2  2  0  0  0
  1  4  1  0  0  0
  1 22  1  0  0  0
  2  3  1  0  0  0
  2 23  1  0  0  0
  3  6  2  0  0  0
  3 24  1  0  0  0
  4  5  2  0  0  0
  4 25  1  0  0  0
  5  6  1  0  0  0
  5 10  1  0  0  0
  6  7  1  0  0  0
  7  8  1  0  0  0
  7 12  2  0  0  0
  8  9  2  0  0  0
  8 14  1  0  0  0
  9 10  1  0  0  0
  9 13  1  0  0  0
 10 11  2  0  0  0
 13 26  1  0  0  0
 14 15  1  0  0  0
 14 27  1  0  0  0
 15 16  2  0  0  0
 15 20  1  0  0  0
 16 17  1  0  0  0
 16 21  1  0  0  0
 17 18  2  0  0  0
 17 28  1  0  0  0
 18 19  1  0  0  0
 18 29  1  0  0  0
 19 20  2  0  0  0
 19 30  1  0  0  0
 20 31  1  0  0  0
M  END
> <s_m_entry_id>
25814

> <s_m_entry_name>
dock_pv.466

> <s_m_Source_Path>
/home/csk/Desktop/cluster/DUD-E-result/pyrd

> <s_m_Source_File>
dock_pv.maegz

> <i_m_Source_File_Index>
466

> <chembl_id>
CHEMBL4452960

> <chembl_pref_name>
None

> <i_lp_mmshare_version>
53161

> <r_lp_tautomer_probability>
1

> <s_lp_Force_Field>
OPLS_2005

> <r_lp_Energy>
32.929827

> <b_lp_Chiralities_Consistent>
1

> <s_lp_Variant>
CHEMBL1966_lig653 -1

> <s_i_glide_gridfile>
glide-grid_1d3g

> <i_i_glide_lignum>
710

> <i_i_glide_rotatable_bonds>
3

> <r_i_docking_score>
-8.37008042116804

> <r_i_glide_ligand_efficiency>
-0.398575258150859

> <r_i_glide_ligand_efficiency_sa>
-1.09963891470379

> <r_i_glide_ligand_efficiency_ln>
-2.06948547079377

> <r_i_glide_gscore>
-8.37008042116804

> <r_i_glide_lipo>
-4.24739830400758

> <r_i_glide_hbond>
-0.153711923763221

> <r_i_glide_metal>
0

> <r_i_glide_rewards>
-2.54781405318315

> <r_i_glide_evdw>
-31.0634365081787

> <r_i_glide_ecoul>
-1.8467572927475

> <r_i_glide_erotb>
0.409029279106968

> <r_i_glide_esite>
0

> <r_i_glide_emodel>
-46.7544584229545

> <r_i_glide_energy>
-32.9101938009262

> <r_i_glide_einternal>
2.23612260818481

> <i_i_glide_confnum>
1

> <i_i_glide_posenum>
6

> <r_i_glide_eff_state_penalty>
0

> <s_user_duplicate_titles>
CHEMBL1966_lig653 

> <i_f3d_flags>
0

> <s_m_subgroup_title>
dock_pv

> <s_m_subgroupid>
dock_pv

> <b_m_subgroup_collapsed>
1

$$$$
CHEMBL1966_lig379
                    3D
 Schrodinger Suite 2021-1.
 41 43  0  0  1  0            999 V2000
   52.7400   46.0880   -0.6818 C   0  0  0  0  0  0
   52.9201   46.5350    0.6959 C   0  0  0  0  0  0
   54.2008   46.8104    1.0330 N   0  0  0  0  0  0
   55.3058   46.8047    0.2468 C   0  0  0  0  0  0
   55.0595   46.5298   -1.0577 N   0  0  0  0  0  0
   53.8279   46.1249   -1.5081 C   0  0  0  0  0  0
   53.8104   45.7048   -2.8897 C   0  0  0  0  0  0
   54.5278   46.5301   -3.7015 O   0  0  0  0  0  0
   53.2234   44.7113   -3.2994 O   0  0  0  0  0  0
   56.4229   46.9364    0.7008 O   0  0  0  0  0  0
   52.0230   46.6965    1.5010 O   0  0  0  0  0  0
   51.3100   45.6723   -1.0411 C   0  0  0  0  0  0
   50.8220   44.3488   -0.4005 C   0  0  0  0  0  0
   50.4378   43.1649   -1.2976 C   0  0  0  0  0  0
   50.0115   41.9918   -0.6775 C   0  0  0  0  0  0
   49.4336   40.9531   -1.3881 C   0  0  0  0  0  0
   50.4236   43.2225   -2.6923 C   0  0  0  0  0  0
   49.7626   42.2297   -3.4468 C   0  0  0  0  0  0
   49.2234   41.0955   -2.7675 C   0  0  0  0  0  0
   48.4265   40.1756   -3.4707 C   0  0  0  0  0  0
   48.1328   40.4088   -4.8014 C   0  0  0  0  0  0
   48.7124   41.4665   -5.4798 C   0  0  0  0  0  0
   49.5584   42.3720   -4.8437 C   0  0  0  0  0  0
   50.0900   43.4566   -5.5082 O   0  0  0  0  0  0
   50.8182   43.2104   -6.7088 C   0  0  0  0  0  0
   54.3595   47.0281    2.0064 H   0  0  0  0  0  0
   55.8438   46.6202   -1.6879 H   0  0  0  0  0  0
   54.4703   46.2208   -4.6078 H   0  0  0  0  0  0
   50.6381   46.4836   -0.7590 H   0  0  0  0  0  0
   51.2154   45.6596   -2.0988 H   0  0  0  0  0  0
   51.5733   44.0120    0.3009 H   0  0  0  0  0  0
   49.9491   44.5707    0.2147 H   0  0  0  0  0  0
   50.0224   41.8876    0.3873 H   0  0  0  0  0  0
   49.0394   40.0918   -0.8675 H   0  0  0  0  0  0
   50.7874   44.0675   -3.2410 H   0  0  0  0  0  0
   47.9941   39.3299   -2.9542 H   0  0  0  0  0  0
   47.4501   39.7445   -5.2990 H   0  0  0  0  0  0
   48.4498   41.6104   -6.4989 H   0  0  0  0  0  0
   50.8223   44.1239   -7.3012 H   0  0  0  0  0  0
   51.8575   42.9747   -6.4934 H   0  0  0  0  0  0
   50.4213   42.4069   -7.3291 H   0  0  0  0  0  0
  1  2  1  0  0  0
  1  6  2  0  0  0
  1 12  1  0  0  0
  2  3  1  0  0  0
  2 11  2  0  0  0
  3  4  1  0  0  0
  3 26  1  0  0  0
  4  5  1  0  0  0
  4 10  2  0  0  0
  5  6  1  0  0  0
  5 27  1  0  0  0
  6  7  1  0  0  0
  7  8  1  0  0  0
  7  9  2  0  0  0
  8 28  1  0  0  0
 12 13  1  0  0  0
 12 29  1  0  0  0
 12 30  1  0  0  0
 13 14  1  0  0  0
 13 31  1  0  0  0
 13 32  1  0  0  0
 14 15  2  0  0  0
 14 17  1  0  0  0
 15 16  1  0  0  0
 15 33  1  0  0  0
 16 19  2  0  0  0
 16 34  1  0  0  0
 17 18  2  0  0  0
 17 35  1  0  0  0
 18 19  1  0  0  0
 18 23  1  0  0  0
 19 20  1  0  0  0
 20 21  2  0  0  0
 20 36  1  0  0  0
 21 22  1  0  0  0
 21 37  1  0  0  0
 22 23  2  0  0  0
 22 38  1  0  0  0
 23 24  1  0  0  0
 24 25  1  0  0  0
 25 39  1  0  0  0
 25 40  1  0  0  0
 25 41  1  0  0  0
M  END
> <s_m_entry_id>
25815

> <s_m_entry_name>
dock_pv.467

> <s_m_Source_Path>
/home/csk/Desktop/cluster/DUD-E-result/pyrd

> <s_m_Source_File>
dock_pv.maegz

> <i_m_Source_File_Index>
467

> <chembl_id>
CHEMBL3964957

> <chembl_pref_name>
None

> <i_lp_mmshare_version>
53161

> <r_lp_tautomer_probability>
1

> <s_lp_Force_Field>
OPLS_2005

> <r_lp_Energy>
19.845593

> <b_lp_Chiralities_Consistent>
1

> <s_lp_Variant>
CHEMBL1966_lig379-1

> <s_i_glide_gridfile>
glide-grid_1d3g

> <i_i_glide_lignum>
429

> <i_i_glide_rotatable_bonds>
6

> <r_i_docking_score>
-8.35467818957097

> <r_i_glide_ligand_efficiency>
-0.334187127582839

> <r_i_glide_ligand_efficiency_sa>
-0.977169087886164

> <r_i_glide_ligand_efficiency_ln>
-1.98030910043008

> <r_i_glide_gscore>
-8.35467818957097

> <r_i_glide_lipo>
-4.71326245007241

> <r_i_glide_hbond>
-0.0858680471737336

> <r_i_glide_metal>
0

> <r_i_glide_rewards>
-2.08691661408739

> <r_i_glide_evdw>
-44.9141311645508

> <r_i_glide_ecoul>
0.820807099342346

> <r_i_glide_erotb>
0.653954415088751

> <r_i_glide_esite>
0

> <r_i_glide_emodel>
-51.1952193594187

> <r_i_glide_energy>
-44.0933240652084

> <r_i_glide_einternal>
8.92844009399414

> <i_i_glide_confnum>
47

> <i_i_glide_posenum>
259

> <r_i_glide_eff_state_penalty>
0

> <s_user_duplicate_titles>
CHEMBL1966_lig379

> <i_f3d_flags>
0

> <s_m_subgroup_title>
dock_pv

> <s_m_subgroupid>
dock_pv

> <b_m_subgroup_collapsed>
1

$$$$
CHEMBL1966_lig264
                    3D
 Schrodinger Suite 2021-1.
 34 36  0  0  1  0            999 V2000
   55.2109   47.0849   -0.4954 C   0  0  0  0  0  0
   56.3620   47.6879   -1.2990 C   0  0  0  0  0  0
   54.3851   45.7217   -2.7735 S   0  0  0  0  0  0
   52.8230   44.9962   -2.6700 C   0  0  0  0  0  0
   52.1355   45.3027   -1.5996 N   0  0  0  0  0  0
   52.8323   46.0504   -0.7607 C   0  0  0  0  0  0
   54.1348   46.3773   -1.1797 C   0  0  0  0  0  0
   52.1122   46.4100    0.5235 C   0  0  0  0  0  0
   52.4377   44.1814   -3.6990 N   0  0  0  0  0  0
   51.2918   43.3953   -3.8554 C   0  0  0  0  0  0
   50.7026   43.3789   -5.1164 C   0  0  0  0  0  0
   49.6230   42.5539   -5.3945 C   0  0  0  0  0  0
   49.1235   41.6827   -4.4049 C   0  0  0  0  0  0
   49.7171   41.6941   -3.1042 C   0  0  0  0  0  0
   50.7899   42.5830   -2.8388 C   0  0  0  0  0  0
   55.2219   47.2099    0.7231 O   0  0  0  0  0  0
   48.0411   40.8099   -4.6694 C   0  0  0  0  0  0
   47.5543   39.9814   -3.6644 C   0  0  0  0  0  0
   48.1408   39.9785   -2.4041 C   0  0  0  0  0  0
   49.2204   40.8101   -2.1179 C   0  0  0  0  0  0
   55.9747   48.3397   -2.0814 H   0  0  0  0  0  0
   56.9551   46.9008   -1.7639 H   0  0  0  0  0  0
   57.0149   48.2766   -0.6531 H   0  0  0  0  0  0
   51.2230   47.0092    0.3256 H   0  0  0  0  0  0
   51.7884   45.5238    1.0704 H   0  0  0  0  0  0
   52.7265   46.9901    1.2104 H   0  0  0  0  0  0
   52.9079   44.3125   -4.5811 H   0  0  0  0  0  0
   51.0820   44.0100   -5.9060 H   0  0  0  0  0  0
   49.1795   42.5661   -6.3766 H   0  0  0  0  0  0
   51.2446   42.5819   -1.8597 H   0  0  0  0  0  0
   47.5783   40.8076   -5.6445 H   0  0  0  0  0  0
   46.7165   39.3289   -3.8620 H   0  0  0  0  0  0
   47.7565   39.3196   -1.6387 H   0  0  0  0  0  0
   49.6637   40.8035   -1.1329 H   0  0  0  0  0  0
  1  2  1  0  0  0
  1  7  1  0  0  0
  1 16  2  0  0  0
  2 21  1  0  0  0
  2 22  1  0  0  0
  2 23  1  0  0  0
  3  4  1  0  0  0
  3  7  1  0  0  0
  4  5  2  0  0  0
  4  9  1  0  0  0
  5  6  1  0  0  0
  6  7  2  0  0  0
  6  8  1  0  0  0
  8 24  1  0  0  0
  8 25  1  0  0  0
  8 26  1  0  0  0
  9 10  1  0  0  0
  9 27  1  0  0  0
 10 11  2  0  0  0
 10 15  1  0  0  0
 11 12  1  0  0  0
 11 28  1  0  0  0
 12 13  2  0  0  0
 12 29  1  0  0  0
 13 17  1  0  0  0
 13 14  1  0  0  0
 14 15  2  0  0  0
 14 20  1  0  0  0
 15 30  1  0  0  0
 17 18  2  0  0  0
 17 31  1  0  0  0
 18 19  1  0  0  0
 18 32  1  0  0  0
 19 20  2  0  0  0
 19 33  1  0  0  0
 20 34  1  0  0  0
M  END
> <s_m_entry_id>
25816

> <s_m_entry_name>
dock_pv.468

> <s_m_Source_Path>
/home/csk/Desktop/cluster/DUD-E-result/pyrd

> <s_m_Source_File>
dock_pv.maegz

> <i_m_Source_File_Index>
468

> <chembl_id>
CHEMBL3410576

> <chembl_pref_name>
None

> <i_lp_mmshare_version>
53161

> <r_lp_tautomer_probability>
0.99995

> <s_lp_Force_Field>
OPLS_2005

> <r_lp_Energy>
11.181882

> <b_lp_Chiralities_Consistent>
1

> <s_lp_Variant>
CHEMBL1966_lig264-1

> <s_i_glide_gridfile>
glide-grid_1d3g

> <i_i_glide_lignum>
310

> <i_i_glide_rotatable_bonds>
3

> <r_i_docking_score>
-8.34493123235224

> <r_i_glide_ligand_efficiency>
-0.417246561617612

> <r_i_glide_ligand_efficiency_sa>
-1.13258141618753

> <r_i_glide_ligand_efficiency_ln>
-2.08846105320512

> <r_i_glide_gscore>
-8.34493123235224

> <r_i_glide_lipo>
-4.71907218907257

> <r_i_glide_hbond>
0

> <r_i_glide_metal>
0

> <r_i_glide_rewards>
-2.25056784848485

> <r_i_glide_evdw>
-38.1964569091797

> <r_i_glide_ecoul>
0.537842750549316

> <r_i_glide_erotb>
0.453855238081773

> <r_i_glide_esite>
0

> <r_i_glide_emodel>
-51.8644284392568

> <r_i_glide_energy>
-37.6586141586304

> <r_i_glide_einternal>
3.16099524497986

> <i_i_glide_confnum>
1

> <i_i_glide_posenum>
128

> <r_i_glide_eff_state_penalty>
0

> <s_user_duplicate_titles>
CHEMBL1966_lig264

> <i_f3d_flags>
0

> <s_m_subgroup_title>
dock_pv

> <s_m_subgroupid>
dock_pv

> <b_m_subgroup_collapsed>
1

$$$$
CHEMBL1966_lig671
                    3D
 Schrodinger Suite 2021-1.
 37 39  0  0  1  0            999 V2000
   50.8153   42.8102   -7.1924 C   0  0  0  0  0  0
   50.0230   42.4886   -5.9321 C   0  0  0  0  0  0
   50.3928   43.1502   -4.7725 C   0  0  0  0  0  0
   50.0226   42.6343   -3.5307 C   0  0  0  0  0  0
   50.4230   43.2300   -2.3243 N   0  0  0  0  0  0
   51.3487   44.2588   -2.0931 C   0  0  0  0  0  0
   51.2103   45.0718   -0.9669 C   0  0  0  0  0  0
   52.1945   46.0099   -0.6487 C   0  0  0  0  0  0
   53.3420   46.1177   -1.4466 C   0  0  0  0  0  0
   53.4570   45.3407   -2.5985 C   0  0  0  0  0  0
   52.4751   44.4100   -2.9072 C   0  0  0  0  0  0
   54.5138   47.0038   -1.0358 C   0  0  0  0  0  0
   54.4291   48.1654   -1.6826 F   0  0  0  0  0  0
   54.5140   47.2149    0.2808 F   0  0  0  0  0  0
   55.6790   46.4327   -1.3487 F   0  0  0  0  0  0
   49.2136   41.5238   -3.5511 N   0  0  0  0  0  0
   48.6832   40.8018   -2.5219 N   0  0  0  0  0  0
   47.8725   39.9463   -3.1446 C   0  0  0  0  0  0
   47.8749   40.0100   -4.4728 N   0  0  0  0  0  0
   48.7607   40.9842   -4.7541 C   0  0  0  0  0  0
   49.1875   41.4161   -5.9516 N   0  0  0  0  0  0
   46.9406   38.9356   -2.4177 C   0  0  0  0  0  0
   47.6396   37.8628   -1.5671 C   0  0  0  0  0  0
   46.0636   38.4100   -3.2739 F   0  0  0  0  0  0
   46.1750   39.5077   -1.5150 F   0  0  0  0  0  0
   50.8820   43.8890   -7.3346 H   0  0  0  0  0  0
   51.8234   42.4182   -7.1008 H   0  0  0  0  0  0
   50.4230   42.3716   -8.0980 H   0  0  0  0  0  0
   51.0196   44.0099   -4.8776 H   0  0  0  0  0  0
   49.8585   42.9583   -1.5332 H   0  0  0  0  0  0
   50.3584   44.9482   -0.3171 H   0  0  0  0  0  0
   52.0873   46.6035    0.2485 H   0  0  0  0  0  0
   54.3416   45.3992   -3.2170 H   0  0  0  0  0  0
   52.6788   43.7318   -3.7193 H   0  0  0  0  0  0
   46.9059   37.1754   -1.1468 H   0  0  0  0  0  0
   48.1481   38.3183   -0.7168 H   0  0  0  0  0  0
   48.3640   37.2599   -2.0990 H   0  0  0  0  0  0
  1  2  1  0  0  0
  1 26  1  0  0  0
  1 27  1  0  0  0
  1 28  1  0  0  0
  2  3  1  0  0  0
  2 21  2  0  0  0
  3  4  2  0  0  0
  3 29  1  0  0  0
  4  5  1  0  0  0
  4 16  1  0  0  0
  5  6  1  0  0  0
  5 30  1  0  0  0
  6  7  2  0  0  0
  6 11  1  0  0  0
  7  8  1  0  0  0
  7 31  1  0  0  0
  8  9  2  0  0  0
  8 32  1  0  0  0
  9 10  1  0  0  0
  9 12  1  0  0  0
 10 11  2  0  0  0
 10 33  1  0  0  0
 11 34  1  0  0  0
 12 13  1  0  0  0
 12 14  1  0  0  0
 12 15  1  0  0  0
 16 17  1  0  0  0
 16 20  1  0  0  0
 17 18  2  0  0  0
 18 19  1  0  0  0
 18 22  1  0  0  0
 19 20  2  0  0  0
 20 21  1  0  0  0
 22 23  1  0  0  0
 22 24  1  0  0  0
 22 25  1  0  0  0
 23 35  1  0  0  0
 23 36  1  0  0  0
 23 37  1  0  0  0
M  END
> <s_m_entry_id>
25817

> <s_m_entry_name>
dock_pv.469

> <s_m_Source_Path>
/home/csk/Desktop/cluster/DUD-E-result/pyrd

> <s_m_Source_File>
dock_pv.maegz

> <i_m_Source_File_Index>
469

> <chembl_id>
CHEMBL1738786

> <chembl_pref_name>
None

> <i_lp_mmshare_version>
53161

> <r_lp_tautomer_probability>
1

> <s_lp_Force_Field>
OPLS_2005

> <r_lp_Energy>
12.53459

> <b_lp_Chiralities_Consistent>
1

> <s_lp_Variant>
CHEMBL1966_lig671-1

> <s_i_glide_gridfile>
glide-grid_1d3g

> <i_i_glide_lignum>
740

> <i_i_glide_rotatable_bonds>
4

> <r_i_docking_score>
-8.34317178474546

> <r_i_glide_ligand_efficiency>
-0.333726871389818

> <r_i_glide_ligand_efficiency_sa>
-0.975823290615094

> <r_i_glide_ligand_efficiency_ln>
-1.97758173766731

> <r_i_glide_gscore>
-8.34317178474546

> <r_i_glide_lipo>
-3.72382512754256

> <r_i_glide_hbond>
-0.0313745785857951

> <r_i_glide_metal>
0

> <r_i_glide_rewards>
-3.2912216594522

> <r_i_glide_evdw>
-24.7350616455078

> <r_i_glide_ecoul>
-2.39943480491638

> <r_i_glide_erotb>
0.299917883847948

> <r_i_glide_esite>
0

> <r_i_glide_emodel>
-35.2080323447343

> <r_i_glide_energy>
-27.1344964504242

> <r_i_glide_einternal>
2.48950409889221

> <i_i_glide_confnum>
1

> <i_i_glide_posenum>
10

> <r_i_glide_eff_state_penalty>
0

> <s_user_duplicate_titles>
CHEMBL1966_lig671

> <i_f3d_flags>
0

> <s_m_subgroup_title>
dock_pv

> <s_m_subgroupid>
dock_pv

> <b_m_subgroup_collapsed>
1

$$$$
CHEMBL1966_lig121
                    3D
 Schrodinger Suite 2021-1.
 32 33  0  0  1  0            999 V2000
   51.6822   45.3526   -1.2989 C   0  0  0  0  0  0
   52.8652   45.6099   -2.0053 C   0  0  0  0  0  0
   53.1482   44.8842   -3.1652 C   0  0  0  0  0  0
   52.2690   43.8998   -3.6103 C   0  0  0  0  0  0
   51.1268   43.5993   -2.8664 C   0  0  0  0  0  0
   50.8230   44.3358   -1.7093 C   0  0  0  0  0  0
   53.8888   46.6263   -1.5012 C   0  0  0  0  0  0
   53.6380   47.0091   -0.2482 F   0  0  0  0  0  0
   55.1137   46.0968   -1.5269 F   0  0  0  0  0  0
   53.8761   47.6985   -2.2930 F   0  0  0  0  0  0
   50.3376   42.5394   -3.3390 N   0  0  0  0  0  0
   49.7137   41.6014   -2.5932 C   0  0  0  0  0  0
   49.0569   40.4233   -3.3548 C   0  0  2  0  0  0
   49.7466   41.6105   -1.3635 O   0  0  0  0  0  0
   48.9120   40.6403   -4.8062 C   0  0  0  0  0  0
   47.7429   39.8340   -2.7890 C   0  0  0  0  0  0
   47.6592   39.4619   -1.2932 C   0  0  0  0  0  0
   46.7858   39.6092   -3.5338 O   0  0  0  0  0  0
   48.8030   40.8137   -5.9447 N   0  0  0  0  0  0
   46.2803   39.2100   -0.7043 C   0  0  0  0  0  0
   47.2227   38.0626   -0.9125 C   0  0  0  0  0  0
   51.4422   45.9085   -0.4042 H   0  0  0  0  0  0
   54.0663   45.0720   -3.7009 H   0  0  0  0  0  0
   52.5120   43.3336   -4.4983 H   0  0  0  0  0  0
   49.9310   44.1346   -1.1348 H   0  0  0  0  0  0
   50.3840   42.3822   -4.3347 H   0  0  0  0  0  0
   48.4491   39.8742   -0.6721 H   0  0  0  0  0  0
   49.7790   39.6108   -3.2924 H   0  0  0  0  0  0
   45.3909   39.2685   -1.3346 H   0  0  0  0  0  0
   46.0830   39.5749    0.3008 H   0  0  0  0  0  0
   47.6936   37.6000   -0.0452 H   0  0  0  0  0  0
   47.0267   37.3404   -1.6984 H   0  0  0  0  0  0
  1  6  1  0  0  0
  1  2  2  0  0  0
  1 22  1  0  0  0
  2  3  1  0  0  0
  2  7  1  0  0  0
  3  4  2  0  0  0
  3 23  1  0  0  0
  4  5  1  0  0  0
  4 24  1  0  0  0
  5 11  1  0  0  0
  5  6  2  0  0  0
  6 25  1  0  0  0
  7  8  1  0  0  0
  7  9  1  0  0  0
  7 10  1  0  0  0
 11 12  1  0  0  0
 11 26  1  0  0  0
 12 14  2  0  0  0
 12 13  1  0  0  0
 13 15  1  0  0  0
 13 28  1  0  0  0
 13 16  1  0  0  0
 15 19  3  0  0  0
 16 18  2  0  0  0
 16 17  1  0  0  0
 17 20  1  0  0  0
 17 21  1  0  0  0
 17 27  1  0  0  0
 20 21  1  0  0  0
 20 29  1  0  0  0
 20 30  1  0  0  0
 21 31  1  0  0  0
 21 32  1  0  0  0
M  END
> <s_m_entry_id>
25818

> <s_m_entry_name>
dock_pv.470

> <s_m_Source_Path>
/home/csk/Desktop/cluster/DUD-E-result/pyrd

> <s_m_Source_File>
dock_pv.maegz

> <i_m_Source_File_Index>
470

> <chembl_id>
CHEMBL141732

> <chembl_pref_name>
None

> <i_lp_mmshare_version>
53161

> <r_lp_tautomer_probability>
0.995394627300976

> <s_lp_Force_Field>
OPLS_2005

> <r_lp_Energy>
25.597602

> <b_lp_Chiralities_Consistent>
1

> <s_lp_Variant>
CHEMBL1966_lig121-1

> <s_i_glide_gridfile>
glide-grid_1d3g

> <i_i_glide_lignum>
143

> <i_i_glide_rotatable_bonds>
6

> <r_i_docking_score>
-8.34247476987292

> <r_i_glide_ligand_efficiency>
-0.397260703327282

> <r_i_glide_ligand_efficiency_sa>
-1.09601215762353

> <r_i_glide_ligand_efficiency_ln>
-2.06266002929353

> <r_i_glide_gscore>
-8.34247476987292

> <r_i_glide_lipo>
-3.16890365887631

> <r_i_glide_hbond>
-0.16

> <r_i_glide_metal>
0

> <r_i_glide_rewards>
-3.57754806314548

> <r_i_glide_evdw>
-32.2130851745605

> <r_i_glide_ecoul>
-4.40150928497314

> <r_i_glide_erotb>
0.834857603622873

> <r_i_glide_esite>
0

> <r_i_glide_emodel>
-52.9385365894378

> <r_i_glide_energy>
-36.6145944595337

> <r_i_glide_einternal>
4.81627655029297

> <i_i_glide_confnum>
9

> <i_i_glide_posenum>
246

> <r_i_glide_eff_state_penalty>
0

> <s_user_duplicate_titles>
CHEMBL1966_lig121,235052

> <i_f3d_flags>
0

> <s_m_subgroup_title>
dock_pv

> <s_m_subgroupid>
dock_pv

> <b_m_subgroup_collapsed>
1

$$$$
CHEMBL1966_lig166
                    3D
 Schrodinger Suite 2021-1.
 28 30  0  0  1  0            999 V2000
   55.0286   47.3762   -2.5533 C   0  0  0  0  0  0
   53.8528   46.6293   -2.5845 C   0  0  0  0  0  0
   53.2627   46.1549   -1.3990 C   0  0  0  0  0  0
   53.8795   46.4761   -0.1672 C   0  0  0  0  0  0
   55.0673   47.2097   -0.1505 C   0  0  0  0  0  0
   55.6408   47.6599   -1.3365 C   0  0  0  0  0  0
   57.1014   48.5766   -1.2990 Cl  0  0  0  0  0  0
   53.2351   46.0097    1.3736 Cl  0  0  0  0  0  0
   52.0229   45.2881   -1.4700 C   0  0  0  0  0  0
   51.9946   44.4101   -2.4997 N   0  0  0  0  0  0
   51.1168   45.4123   -0.6470 O   0  0  0  0  0  0
   51.0173   43.4605   -2.7255 C   0  0  0  0  0  0
   50.5914   43.2110   -3.9290 N   0  0  0  0  0  0
   50.4226   42.4097   -1.4498 S   0  0  0  0  0  0
   49.5124   41.5394   -2.6769 C   0  0  0  0  0  0
   49.7047   42.1813   -3.9315 C   0  0  0  0  0  0
   49.0028   41.7388   -5.0611 C   0  0  0  0  0  0
   48.1287   40.6618   -4.9133 C   0  0  0  0  0  0
   47.9799   40.0100   -3.6908 C   0  0  0  0  0  0
   48.6745   40.4197   -2.5541 C   0  0  0  0  0  0
   55.4667   47.7308   -3.4747 H   0  0  0  0  0  0
   53.4075   46.4304   -3.5495 H   0  0  0  0  0  0
   55.5394   47.4435    0.7923 H   0  0  0  0  0  0
   52.6188   44.5810   -3.2719 H   0  0  0  0  0  0
   49.1184   42.2415   -6.0097 H   0  0  0  0  0  0
   47.5535   40.3210   -5.7591 H   0  0  0  0  0  0
   47.3028   39.1715   -3.6193 H   0  0  0  0  0  0
   48.5277   39.9263   -1.6037 H   0  0  0  0  0  0
  1  2  2  0  0  0
  1  6  1  0  0  0
  1 21  1  0  0  0
  2  3  1  0  0  0
  2 22  1  0  0  0
  3  4  2  0  0  0
  3  9  1  0  0  0
  4  5  1  0  0  0
  4  8  1  0  0  0
  5  6  2  0  0  0
  5 23  1  0  0  0
  6  7  1  0  0  0
  9 10  1  0  0  0
  9 11  2  0  0  0
 10 12  1  0  0  0
 10 24  1  0  0  0
 12 13  2  0  0  0
 12 14  1  0  0  0
 13 16  1  0  0  0
 14 15  1  0  0  0
 15 16  2  0  0  0
 15 20  1  0  0  0
 16 17  1  0  0  0
 17 18  2  0  0  0
 17 25  1  0  0  0
 18 19  1  0  0  0
 18 26  1  0  0  0
 19 20  2  0  0  0
 19 27  1  0  0  0
 20 28  1  0  0  0
M  END
> <s_m_entry_id>
25819

> <s_m_entry_name>
dock_pv.471

> <s_m_Source_Path>
/home/csk/Desktop/cluster/DUD-E-result/pyrd

> <s_m_Source_File>
dock_pv.maegz

> <i_m_Source_File_Index>
471

> <chembl_id>
CHEMBL2178109

> <chembl_pref_name>
None

> <i_lp_mmshare_version>
53161

> <r_lp_tautomer_probability>
1

> <s_lp_Force_Field>
OPLS_2005

> <r_lp_Energy>
17.598797

> <b_lp_Chiralities_Consistent>
1

> <s_lp_Variant>
CHEMBL1966_lig166-1

> <s_i_glide_gridfile>
glide-grid_1d3g

> <i_i_glide_lignum>
211

> <i_i_glide_rotatable_bonds>
3

> <r_i_docking_score>
-8.33638609192077

> <r_i_glide_ligand_efficiency>
-0.416819304596038

> <r_i_glide_ligand_efficiency_sa>
-1.13142166220251

> <r_i_glide_ligand_efficiency_ln>
-2.08632248639271

> <r_i_glide_gscore>
-8.33638609192077

> <r_i_glide_lipo>
-4.71430291102925

> <r_i_glide_hbond>
0

> <r_i_glide_metal>
0

> <r_i_glide_rewards>
-2.24310443634323

> <r_i_glide_evdw>
-40.1599464416504

> <r_i_glide_ecoul>
0.610967516899109

> <r_i_glide_erotb>
0.537373449999369

> <r_i_glide_esite>
0

> <r_i_glide_emodel>
-56.3777390688115

> <r_i_glide_energy>
-39.5489789247513

> <r_i_glide_einternal>
3.20271921157837

> <i_i_glide_confnum>
1

> <i_i_glide_posenum>
323

> <r_i_glide_eff_state_penalty>
0

> <s_user_duplicate_titles>
CHEMBL1966_lig166

> <i_f3d_flags>
0

> <s_m_subgroup_title>
dock_pv

> <s_m_subgroupid>
dock_pv

> <b_m_subgroup_collapsed>
1

$$$$
CHEMBL1966_lig163
                    3D
 Schrodinger Suite 2021-1.
 32 34  0  0  1  0            999 V2000
   47.4058   39.0728   -1.1510 C   0  0  0  0  0  0
   46.8183   38.8795   -2.3967 C   0  0  0  0  0  0
   47.2471   39.6099   -3.5037 C   0  0  0  0  0  0
   48.4230   40.0100   -0.9908 C   0  0  0  0  0  0
   48.8894   40.7554   -2.1042 C   0  0  0  0  0  0
   48.3155   40.5242   -3.3888 C   0  0  0  0  0  0
   48.7784   41.2684   -4.4990 C   0  0  0  0  0  0
   49.7221   42.2732   -4.3202 C   0  0  0  0  0  0
   50.2566   42.5389   -3.0592 C   0  0  0  0  0  0
   49.8711   41.7608   -1.9652 C   0  0  0  0  0  0
   51.2230   43.6100   -2.8990 C   0  0  0  0  0  0
   51.2331   44.4100   -1.9000 N   0  0  0  0  0  0
   52.2697   45.3436   -1.6653 C   0  0  0  0  0  0
   53.3201   45.6470   -2.5574 C   0  0  0  0  0  0
   54.3775   46.4681   -2.1756 C   0  0  0  0  0  0
   54.4030   47.0084   -0.8962 C   0  0  0  0  0  0
   53.3440   46.7880   -0.0215 C   0  0  0  0  0  0
   52.2716   45.9951   -0.4238 C   0  0  0  0  0  0
   55.4783   47.7554   -0.5004 O   0  0  0  0  0  0
   47.0625   38.5063   -0.2971 H   0  0  0  0  0  0
   46.0201   38.1613   -2.5041 H   0  0  0  0  0  0
   46.7710   39.4692   -4.4623 H   0  0  0  0  0  0
   48.8570   40.1737   -0.0151 H   0  0  0  0  0  0
   48.3439   41.1004   -5.4727 H   0  0  0  0  0  0
   50.0195   42.8636   -5.1764 H   0  0  0  0  0  0
   50.2888   41.9469   -0.9849 H   0  0  0  0  0  0
   51.9633   43.6474   -3.6925 H   0  0  0  0  0  0
   53.3588   45.2194   -3.5468 H   0  0  0  0  0  0
   55.1908   46.6582   -2.8604 H   0  0  0  0  0  0
   53.3493   47.2097    0.9723 H   0  0  0  0  0  0
   51.4692   45.8089    0.2757 H   0  0  0  0  0  0
   55.4362   48.0123    0.4228 H   0  0  0  0  0  0
  1  2  2  0  0  0
  1  4  1  0  0  0
  1 20  1  0  0  0
  2  3  1  0  0  0
  2 21  1  0  0  0
  3  6  2  0  0  0
  3 22  1  0  0  0
  4  5  2  0  0  0
  4 23  1  0  0  0
  5  6  1  0  0  0
  5 10  1  0  0  0
  6  7  1  0  0  0
  7  8  2  0  0  0
  7 24  1  0  0  0
  8  9  1  0  0  0
  8 25  1  0  0  0
  9 10  2  0  0  0
  9 11  1  0  0  0
 10 26  1  0  0  0
 11 12  2  0  0  0
 11 27  1  0  0  0
 12 13  1  0  0  0
 13 14  2  0  0  0
 13 18  1  0  0  0
 14 15  1  0  0  0
 14 28  1  0  0  0
 15 16  2  0  0  0
 15 29  1  0  0  0
 16 17  1  0  0  0
 16 19  1  0  0  0
 17 18  2  0  0  0
 17 30  1  0  0  0
 18 31  1  0  0  0
 19 32  1  0  0  0
M  END
> <s_m_entry_id>
25820

> <s_m_entry_name>
dock_pv.472

> <s_m_Source_Path>
/home/csk/Desktop/cluster/DUD-E-result/pyrd

> <s_m_Source_File>
dock_pv.maegz

> <i_m_Source_File_Index>
472

> <chembl_id>
CHEMBL2178111

> <chembl_pref_name>
None

> <i_lp_mmshare_version>
53161

> <r_lp_tautomer_probability>
1

> <s_lp_Force_Field>
OPLS_2005

> <r_lp_Energy>
19.573406

> <b_lp_Chiralities_Consistent>
1

> <s_lp_Variant>
CHEMBL1966_lig163-1

> <s_i_glide_gridfile>
glide-grid_1d3g

> <i_i_glide_lignum>
208

> <i_i_glide_rotatable_bonds>
3

> <r_i_docking_score>
-8.33414937797365

> <r_i_glide_ligand_efficiency>
-0.438639440945981

> <r_i_glide_ligand_efficiency_sa>
-1.17046620626594

> <r_i_glide_ligand_efficiency_ln>
-2.11288586843213

> <r_i_glide_gscore>
-8.33414937797365

> <r_i_glide_lipo>
-4.74605704635163

> <r_i_glide_hbond>
0

> <r_i_glide_metal>
0

> <r_i_glide_rewards>
-2.51982418919283

> <r_i_glide_evdw>
-32.7764091491699

> <r_i_glide_ecoul>
1.65782766998746e-05

> <r_i_glide_erotb>
0.570549828287797

> <r_i_glide_esite>
0

> <r_i_glide_emodel>
-46.7029941960808

> <r_i_glide_energy>
-32.7763925708932

> <r_i_glide_einternal>
2.49779486656189

> <i_i_glide_confnum>
1

> <i_i_glide_posenum>
110

> <r_i_glide_eff_state_penalty>
0

> <s_user_duplicate_titles>
CHEMBL1966_lig163

> <i_f3d_flags>
0

> <s_m_subgroup_title>
dock_pv

> <s_m_subgroupid>
dock_pv

> <b_m_subgroup_collapsed>
1

$$$$
CHEMBL1966_lig104
                    3D
 Schrodinger Suite 2021-1.
 31 33  0  0  1  0            999 V2000
   47.4624   39.2414   -1.7762 C   0  0  0  0  0  0
   48.0723   39.6100   -0.5942 C   0  0  0  0  0  0
   49.1012   40.5454   -0.5720 C   0  0  0  0  0  0
   47.8528   39.8186   -2.9782 C   0  0  0  0  0  0
   48.8333   40.8608   -3.0016 C   0  0  0  0  0  0
   49.4669   41.2100   -1.7672 C   0  0  0  0  0  0
   50.3707   42.2128   -1.6687 N   0  0  0  0  0  0
   50.6773   42.9472   -2.7643 C   0  0  0  0  0  0
   50.1310   42.6709   -4.0261 C   0  0  0  0  0  0
   49.1992   41.6212   -4.1642 C   0  0  0  0  0  0
   51.5772   44.1051   -2.4784 C   0  0  0  0  0  0
   52.6744   44.4053   -3.2990 C   0  0  0  0  0  0
   53.5121   45.4795   -3.0049 C   0  0  0  0  0  0
   53.2487   46.2792   -1.8962 C   0  0  0  0  0  0
   52.1562   46.0100   -1.0755 C   0  0  0  0  0  0
   51.3286   44.9267   -1.3624 C   0  0  0  0  0  0
   50.4737   43.4549   -5.1054 O   0  0  0  0  0  0
   48.6134   41.3117   -5.5184 C   0  0  0  0  0  0
   47.2541   41.2100   -5.5896 O   0  0  0  0  0  0
   49.3375   41.2100   -6.4990 O   0  0  0  0  0  0
   54.2873   47.6100   -1.5366 Cl  0  0  0  0  0  0
   46.0230   38.0100   -1.6990 Br  0  0  0  0  0  0
   47.7513   39.1217    0.3010 H   0  0  0  0  0  0
   49.5793   40.8101    0.3606 H   0  0  0  0  0  0
   47.3608   39.4911   -3.8793 H   0  0  0  0  0  0
   52.8915   43.7702   -4.1419 H   0  0  0  0  0  0
   54.3614   45.6898   -3.6383 H   0  0  0  0  0  0
   51.9515   46.6327   -0.2169 H   0  0  0  0  0  0
   50.4828   44.7322   -0.7183 H   0  0  0  0  0  0
   50.0648   43.1540   -5.9224 H   0  0  0  0  0  0
   46.8106   41.4775   -4.7813 H   0  0  0  0  0  0
  1  2  2  0  0  0
  1  4  1  0  0  0
  1 22  1  0  0  0
  2  3  1  0  0  0
  2 23  1  0  0  0
  3  6  2  0  0  0
  3 24  1  0  0  0
  4  5  2  0  0  0
  4 25  1  0  0  0
  5  6  1  0  0  0
  5 10  1  0  0  0
  6  7  1  0  0  0
  7  8  2  0  0  0
  8 11  1  0  0  0
  8  9  1  0  0  0
  9 17  1  0  0  0
  9 10  2  0  0  0
 10 18  1  0  0  0
 11 12  2  0  0  0
 11 16  1  0  0  0
 12 13  1  0  0  0
 12 26  1  0  0  0
 13 14  2  0  0  0
 13 27  1  0  0  0
 14 15  1  0  0  0
 14 21  1  0  0  0
 15 16  2  0  0  0
 15 28  1  0  0  0
 16 29  1  0  0  0
 17 30  1  0  0  0
 18 19  1  0  0  0
 18 20  2  0  0  0
 19 31  1  0  0  0
M  END
> <s_m_entry_id>
25821

> <s_m_entry_name>
dock_pv.473

> <s_m_Source_Path>
/home/csk/Desktop/cluster/DUD-E-result/pyrd

> <s_m_Source_File>
dock_pv.maegz

> <i_m_Source_File_Index>
473

> <chembl_id>
CHEMBL218700

> <chembl_pref_name>
None

> <i_lp_mmshare_version>
53161

> <r_lp_tautomer_probability>
1

> <s_lp_Force_Field>
OPLS_2005

> <r_lp_Energy>
24.382851

> <b_lp_Chiralities_Consistent>
1

> <s_lp_Variant>
CHEMBL1966_lig104-1

> <s_i_glide_gridfile>
glide-grid_1d3g

> <i_i_glide_lignum>
113

> <i_i_glide_rotatable_bonds>
4

> <r_i_docking_score>
-8.33290956036041

> <r_i_glide_ligand_efficiency>
-0.378768616380018

> <r_i_glide_ligand_efficiency_sa>
-1.0613245592212

> <r_i_glide_ligand_efficiency_ln>
-2.03686704681345

> <r_i_glide_gscore>
-8.33290956036041

> <r_i_glide_lipo>
-4.7681027305678

> <r_i_glide_hbond>
-0.16

> <r_i_glide_metal>
0

> <r_i_glide_rewards>
-1.36565098702811

> <r_i_glide_evdw>
-32.0630950927734

> <r_i_glide_ecoul>
-4.70945405960083

> <r_i_glide_erotb>
0.270417020814303

> <r_i_glide_esite>
0

> <r_i_glide_emodel>
-51.6040858189907

> <r_i_glide_energy>
-36.7725491523743

> <r_i_glide_einternal>
3.33165144920349

> <i_i_glide_confnum>
6

> <i_i_glide_posenum>
329

> <r_i_glide_eff_state_penalty>
0

> <s_user_duplicate_titles>
CHEMBL1966_lig104,365587

> <i_f3d_flags>
0

> <s_m_subgroup_title>
dock_pv

> <s_m_subgroupid>
dock_pv

> <b_m_subgroup_collapsed>
1

$$$$
CHEMBL1966_lig115
                    3D
 Schrodinger Suite 2021-1.
 35 36  0  0  1  0            999 V2000
   50.6043   44.0800   -1.2215 C   0  0  0  0  0  0
   50.6358   43.0348   -2.1621 C   0  0  0  0  0  0
   51.5470   43.1435   -3.2182 C   0  0  0  0  0  0
   52.4328   44.2113   -3.2990 C   0  0  0  0  0  0
   52.4456   45.2100   -2.3246 C   0  0  0  0  0  0
   51.4840   45.1690   -1.2989 C   0  0  0  0  0  0
   49.7492   41.8315   -2.0178 C   0  0  0  0  0  0
   53.3476   46.2584   -2.5522 N   0  0  0  0  0  0
   54.2500   46.7623   -1.6887 C   0  0  0  0  0  0
   55.2078   47.8077   -2.3028 C   0  0  2  0  0  0
   54.3377   46.4063   -0.5123 O   0  0  0  0  0  0
   55.8683   47.3445   -3.5328 C   0  0  0  0  0  0
   56.2902   48.4102   -1.3955 C   0  0  0  0  0  0
   56.7587   49.8283   -1.6991 C   0  0  0  0  0  0
   56.8227   47.7674   -0.4989 O   0  0  0  0  0  0
   56.3870   46.9783   -4.4992 N   0  0  0  0  0  0
   49.0029   41.2793   -3.0849 C   0  0  0  0  0  0
   48.1307   40.2021   -2.8531 C   0  0  0  0  0  0
   48.0230   39.6385   -1.5822 C   0  0  0  0  0  0
   48.7713   40.1565   -0.5288 C   0  0  0  0  0  0
   49.6230   41.2347   -0.7514 C   0  0  0  0  0  0
   49.0449   41.9840   -4.6738 Cl  0  0  0  0  0  0
   47.0921   39.6100   -4.0990 Cl  0  0  0  0  0  0
   51.3195   46.4443   -0.1454 Cl  0  0  0  0  0  0
   49.8841   44.0536   -0.4164 H   0  0  0  0  0  0
   51.6185   42.3655   -3.9605 H   0  0  0  0  0  0
   53.1522   44.2299   -4.0990 H   0  0  0  0  0  0
   53.4847   46.4910   -3.5245 H   0  0  0  0  0  0
   55.9317   50.5334   -1.6277 H   0  0  0  0  0  0
   57.1851   49.8808   -2.7006 H   0  0  0  0  0  0
   57.5305   50.1275   -0.9893 H   0  0  0  0  0  0
   54.5710   48.6362   -2.6127 H   0  0  0  0  0  0
   47.3516   38.8100   -1.4088 H   0  0  0  0  0  0
   48.7013   39.7060    0.4512 H   0  0  0  0  0  0
   50.1920   41.6101    0.0831 H   0  0  0  0  0  0
  1  6  1  0  0  0
  1  2  2  0  0  0
  1 25  1  0  0  0
  2  7  1  0  0  0
  2  3  1  0  0  0
  3  4  2  0  0  0
  3 26  1  0  0  0
  4  5  1  0  0  0
  4 27  1  0  0  0
  5  8  1  0  0  0
  5  6  2  0  0  0
  6 24  1  0  0  0
  7 17  2  0  0  0
  7 21  1  0  0  0
  8  9  1  0  0  0
  8 28  1  0  0  0
  9 11  2  0  0  0
  9 10  1  0  0  0
 10 12  1  0  0  0
 10 32  1  0  0  0
 10 13  1  0  0  0
 12 16  3  0  0  0
 13 15  2  0  0  0
 13 14  1  0  0  0
 14 29  1  0  0  0
 14 30  1  0  0  0
 14 31  1  0  0  0
 17 18  1  0  0  0
 17 22  1  0  0  0
 18 19  2  0  0  0
 18 23  1  0  0  0
 19 20  1  0  0  0
 19 33  1  0  0  0
 20 21  2  0  0  0
 20 34  1  0  0  0
 21 35  1  0  0  0
M  END
> <s_m_entry_id>
25822

> <s_m_entry_name>
dock_pv.474

> <s_m_Source_Path>
/home/csk/Desktop/cluster/DUD-E-result/pyrd

> <s_m_Source_File>
dock_pv.maegz

> <i_m_Source_File_Index>
474

> <chembl_id>
CHEMBL520999

> <chembl_pref_name>
None

> <i_lp_mmshare_version>
53161

> <r_lp_tautomer_probability>
0.995394628248396

> <s_lp_Force_Field>
OPLS_2005

> <r_lp_Energy>
25.034741

> <b_lp_Chiralities_Consistent>
1

> <s_lp_Variant>
CHEMBL1966_lig115-1

> <s_i_glide_gridfile>
glide-grid_1d3g

> <i_i_glide_lignum>
131

> <i_i_glide_rotatable_bonds>
5

> <r_i_docking_score>
-8.32621737674411

> <r_i_glide_ligand_efficiency>
-0.346925724031005

> <r_i_glide_ligand_efficiency_sa>
-1.00070695176451

> <r_i_glide_ligand_efficiency_ln>
-1.99284588347458

> <r_i_glide_gscore>
-8.32621737674411

> <r_i_glide_lipo>
-4.87957530813128

> <r_i_glide_hbond>
0

> <r_i_glide_metal>
0

> <r_i_glide_rewards>
-2.28346396982396

> <r_i_glide_evdw>
-33.209114074707

> <r_i_glide_ecoul>
-0.23915883898735

> <r_i_glide_erotb>
0.533151430794578

> <r_i_glide_esite>
0

> <r_i_glide_emodel>
-45.3049794768732

> <r_i_glide_energy>
-33.4482729136944

> <r_i_glide_einternal>
7.69385528564453

> <i_i_glide_confnum>
19

> <i_i_glide_posenum>
16

> <r_i_glide_eff_state_penalty>
0

> <s_user_duplicate_titles>
CHEMBL1966_lig115,520676

> <i_f3d_flags>
0

> <s_m_subgroup_title>
dock_pv

> <s_m_subgroupid>
dock_pv

> <b_m_subgroup_collapsed>
1

$$$$
CHEMBL1966_lig216
                    3D
 Schrodinger Suite 2021-1.
 37 39  0  0  1  0            999 V2000
   50.7801   42.8579   -7.0369 C   0  0  0  0  0  0
   50.0230   42.6203   -5.7392 C   0  0  0  0  0  0
   50.5034   43.3093   -4.6359 C   0  0  0  0  0  0
   50.2377   42.8392   -3.3571 C   0  0  0  0  0  0
   50.7026   43.4871   -2.1980 N   0  0  0  0  0  0
   51.6230   44.5316   -1.9816 C   0  0  0  0  0  0
   51.5414   45.2540   -0.7905 C   0  0  0  0  0  0
   52.5360   46.1684   -0.4317 C   0  0  0  0  0  0
   52.4244   46.8087    0.7540 F   0  0  0  0  0  0
   53.6435   46.3802   -1.2700 C   0  0  0  0  0  0
   53.6890   45.7162   -2.4979 C   0  0  0  0  0  0
   54.7291   45.8986   -3.3428 F   0  0  0  0  0  0
   52.6980   44.8071   -2.8437 C   0  0  0  0  0  0
   54.8277   47.2653   -0.8743 C   0  0  0  0  0  0
   54.8231   47.6096    0.4115 F   0  0  0  0  0  0
   55.9727   46.6155   -1.0904 F   0  0  0  0  0  0
   54.8230   48.3691   -1.6225 F   0  0  0  0  0  0
   49.4755   41.6972   -3.2845 N   0  0  0  0  0  0
   49.1204   40.9782   -2.1975 N   0  0  0  0  0  0
   48.3058   40.0568   -2.7009 C   0  0  0  0  0  0
   48.1920   40.0261   -4.0267 N   0  0  0  0  0  0
   48.9423   41.0844   -4.4222 C   0  0  0  0  0  0
   49.2137   41.5272   -5.6621 N   0  0  0  0  0  0
   47.4745   39.1417   -1.7782 C   0  0  0  0  0  0
   46.0230   39.0312   -2.2608 C   0  0  0  0  0  0
   47.4659   39.6077   -0.5267 F   0  0  0  0  0  0
   47.9622   37.9049   -1.6994 F   0  0  0  0  0  0
   50.8229   43.9129   -7.3087 H   0  0  0  0  0  0
   51.8165   42.5676   -6.8991 H   0  0  0  0  0  0
   50.4227   42.2643   -7.8670 H   0  0  0  0  0  0
   51.1445   44.1481   -4.8143 H   0  0  0  0  0  0
   50.2075   43.1849   -1.3718 H   0  0  0  0  0  0
   50.7330   45.0707   -0.0996 H   0  0  0  0  0  0
   52.8574   44.2189   -3.7275 H   0  0  0  0  0  0
   45.3999   38.5754   -1.4915 H   0  0  0  0  0  0
   45.9538   38.4215   -3.1623 H   0  0  0  0  0  0
   45.6100   40.0098   -2.4991 H   0  0  0  0  0  0
  1  2  1  0  0  0
  1 28  1  0  0  0
  1 29  1  0  0  0
  1 30  1  0  0  0
  2  3  1  0  0  0
  2 23  2  0  0  0
  3  4  2  0  0  0
  3 31  1  0  0  0
  4  5  1  0  0  0
  4 18  1  0  0  0
  5  6  1  0  0  0
  5 32  1  0  0  0
  6  7  2  0  0  0
  6 13  1  0  0  0
  7  8  1  0  0  0
  7 33  1  0  0  0
  8  9  1  0  0  0
  8 10  2  0  0  0
 10 11  1  0  0  0
 10 14  1  0  0  0
 11 12  1  0  0  0
 11 13  2  0  0  0
 13 34  1  0  0  0
 14 15  1  0  0  0
 14 16  1  0  0  0
 14 17  1  0  0  0
 18 19  1  0  0  0
 18 22  1  0  0  0
 19 20  2  0  0  0
 20 21  1  0  0  0
 20 24  1  0  0  0
 21 22  2  0  0  0
 22 23  1  0  0  0
 24 25  1  0  0  0
 24 26  1  0  0  0
 24 27  1  0  0  0
 25 35  1  0  0  0
 25 36  1  0  0  0
 25 37  1  0  0  0
M  END
> <s_m_entry_id>
25823

> <s_m_entry_name>
dock_pv.475

> <s_m_Source_Path>
/home/csk/Desktop/cluster/DUD-E-result/pyrd

> <s_m_Source_File>
dock_pv.maegz

> <i_m_Source_File_Index>
475

> <chembl_id>
CHEMBL3289671

> <chembl_pref_name>
None

> <i_lp_mmshare_version>
53161

> <r_lp_tautomer_probability>
1

> <s_lp_Force_Field>
OPLS_2005

> <r_lp_Energy>
14.448619

> <b_lp_Chiralities_Consistent>
1

> <s_lp_Variant>
CHEMBL1966_lig216-1

> <s_i_glide_gridfile>
glide-grid_1d3g

> <i_i_glide_lignum>
261

> <i_i_glide_rotatable_bonds>
4

> <r_i_docking_score>
-8.31282099245061

> <r_i_glide_ligand_efficiency>
-0.307882258979652

> <r_i_glide_ligand_efficiency_sa>
-0.923646775924227

> <r_i_glide_ligand_efficiency_ln>
-1.93508767947759

> <r_i_glide_gscore>
-8.31282099245061

> <r_i_glide_lipo>
-3.74757336481083

> <r_i_glide_hbond>
0

> <r_i_glide_metal>
0

> <r_i_glide_rewards>
-3.17794043325311

> <r_i_glide_evdw>
-34.2380828857422

> <r_i_glide_ecoul>
0.479969382286072

> <r_i_glide_erotb>
0.252601542557538

> <r_i_glide_esite>
0

> <r_i_glide_emodel>
-33.3768053193229

> <r_i_glide_energy>
-33.7581135034561

> <r_i_glide_einternal>
3.47254538536072

> <i_i_glide_confnum>
5

> <i_i_glide_posenum>
169

> <r_i_glide_eff_state_penalty>
0

> <s_user_duplicate_titles>
CHEMBL1966_lig216

> <i_f3d_flags>
0

> <s_m_subgroup_title>
dock_pv

> <s_m_subgroupid>
dock_pv

> <b_m_subgroup_collapsed>
1

$$$$
CHEMBL1966_lig171
                    3D
 Schrodinger Suite 2021-1.
 35 37  0  0  1  0            999 V2000
   48.0184   39.5960   -0.6445 C   0  0  0  0  0  0
   48.7385   40.4098   -1.5092 C   0  0  0  0  0  0
   48.4234   40.4103   -2.8745 C   0  0  0  0  0  0
   47.3837   39.6111   -3.3570 C   0  0  0  0  0  0
   46.6604   38.8099   -2.4904 C   0  0  0  0  0  0
   46.9880   38.7991   -1.1415 C   0  0  0  0  0  0
   49.1427   41.3193   -3.7990 C   0  0  0  0  0  0
   48.7842   41.6105   -5.1158 C   0  0  0  0  0  0
   49.8350   42.8246   -5.7467 S   0  0  0  0  0  0
   50.6563   42.8101   -4.2469 C   0  0  0  0  0  0
   50.1908   41.9887   -3.3589 N   0  0  0  0  0  0
   51.7484   43.6101   -4.0994 N   0  0  0  0  0  0
   52.0264   44.2265   -2.8978 N   0  0  0  0  0  0
   52.8236   45.2136   -2.8996 C   0  0  0  0  0  0
   53.2539   45.8771   -1.6512 C   0  0  0  0  0  0
   52.3145   46.0097   -0.6116 C   0  0  0  0  0  0
   52.6889   46.4423    0.6557 C   0  0  0  0  0  0
   54.0067   46.8098    0.8957 C   0  0  0  0  0  0
   54.9386   46.7781   -0.1362 C   0  0  0  0  0  0
   54.5842   46.3153   -1.4147 C   0  0  0  0  0  0
   55.6615   46.2764   -2.4573 C   0  0  0  0  0  0
   56.8227   46.6404   -2.2748 O   0  0  0  0  0  0
   48.2700   39.5781    0.4032 H   0  0  0  0  0  0
   49.5298   41.0245   -1.1076 H   0  0  0  0  0  0
   47.1201   39.6101   -4.4032 H   0  0  0  0  0  0
   45.8608   38.1902   -2.8646 H   0  0  0  0  0  0
   46.4237   38.1539   -0.4948 H   0  0  0  0  0  0
   47.9522   41.2479   -5.6965 H   0  0  0  0  0  0
   52.1530   44.0792   -4.8960 H   0  0  0  0  0  0
   53.2451   45.6169   -3.8157 H   0  0  0  0  0  0
   51.2857   45.7081   -0.7594 H   0  0  0  0  0  0
   51.9593   46.4942    1.4500 H   0  0  0  0  0  0
   54.3027   47.1495    1.8782 H   0  0  0  0  0  0
   55.9483   47.1005    0.0803 H   0  0  0  0  0  0
   55.3637   45.8921   -3.4329 H   0  0  0  0  0  0
  1  2  2  0  0  0
  1  6  1  0  0  0
  1 23  1  0  0  0
  2  3  1  0  0  0
  2 24  1  0  0  0
  3  4  2  0  0  0
  3  7  1  0  0  0
  4  5  1  0  0  0
  4 25  1  0  0  0
  5  6  2  0  0  0
  5 26  1  0  0  0
  6 27  1  0  0  0
  7  8  2  0  0  0
  7 11  1  0  0  0
  8  9  1  0  0  0
  8 28  1  0  0  0
  9 10  1  0  0  0
 10 11  2  0  0  0
 10 12  1  0  0  0
 12 13  1  0  0  0
 12 29  1  0  0  0
 13 14  2  0  0  0
 14 15  1  0  0  0
 14 30  1  0  0  0
 15 16  2  0  0  0
 15 20  1  0  0  0
 16 17  1  0  0  0
 16 31  1  0  0  0
 17 18  2  0  0  0
 17 32  1  0  0  0
 18 19  1  0  0  0
 18 33  1  0  0  0
 19 20  2  0  0  0
 19 34  1  0  0  0
 20 21  1  0  0  0
 21 22  2  0  0  0
 21 35  1  0  0  0
M  END
> <s_m_entry_id>
25824

> <s_m_entry_name>
dock_pv.476

> <s_m_Source_Path>
/home/csk/Desktop/cluster/DUD-E-result/pyrd

> <s_m_Source_File>
dock_pv.maegz

> <i_m_Source_File_Index>
476

> <chembl_id>
CHEMBL2178104

> <chembl_pref_name>
None

> <i_lp_mmshare_version>
53161

> <r_lp_tautomer_probability>
1

> <s_lp_Force_Field>
OPLS_2005

> <r_lp_Energy>
20.68328

> <b_lp_Chiralities_Consistent>
1

> <s_lp_Variant>
CHEMBL1966_lig171-1

> <s_i_glide_gridfile>
glide-grid_1d3g

> <i_i_glide_lignum>
216

> <i_i_glide_rotatable_bonds>
5

> <r_i_docking_score>
-8.31269551157806

> <r_i_glide_ligand_efficiency>
-0.377849795980821

> <r_i_glide_ligand_efficiency_sa>
-1.05874998832749

> <r_i_glide_ligand_efficiency_ln>
-2.0319259959657

> <r_i_glide_gscore>
-8.31269551157806

> <r_i_glide_lipo>
-4.59134985637554

> <r_i_glide_hbond>
0

> <r_i_glide_metal>
0

> <r_i_glide_rewards>
-2.65721132298505

> <r_i_glide_evdw>
-38.2489166259766

> <r_i_glide_ecoul>
0.437666088342667

> <r_i_glide_erotb>
0.782661585829958

> <r_i_glide_esite>
0

> <r_i_glide_emodel>
-55.8582036777833

> <r_i_glide_energy>
-37.8112505376339

> <r_i_glide_einternal>
2.1717221736908

> <i_i_glide_confnum>
15

> <i_i_glide_posenum>
308

> <r_i_glide_eff_state_penalty>
0

> <s_user_duplicate_titles>
CHEMBL1966_lig171

> <i_f3d_flags>
0

> <s_m_subgroup_title>
dock_pv

> <s_m_subgroupid>
dock_pv

> <b_m_subgroup_collapsed>
1

$$$$
CHEMBL1966_lig244
                    3D
 Schrodinger Suite 2021-1.
 42 44  0  0  1  0            999 V2000
   52.4232   46.0130   -0.1471 C   0  0  0  0  0  0
   53.7527   46.4186   -0.0577 C   0  0  0  0  0  0
   54.3008   46.7761    1.2991 C   0  0  0  0  0  0
   51.6231   46.1060    0.9309 F   0  0  0  0  0  0
   51.9502   45.4182   -1.3058 C   0  0  0  0  0  0
   52.4637   44.4132   -3.4820 N   0  0  0  0  0  0
   52.8219   45.2049   -2.3802 C   0  0  0  0  0  0
   49.8943   42.0004   -3.2340 C   0  0  0  0  0  0
   50.7170   43.4694   -5.2080 S   0  0  0  0  0  0
   45.4373   40.7855   -4.9503 C   0  0  0  0  0  0
   49.6751   42.2317   -4.6088 C   0  0  0  0  0  0
   47.5478   41.8898   -5.2996 O   0  0  0  0  0  0
   49.2228   40.9187   -6.4988 O   0  0  0  0  0  0
   54.5880   46.3351   -1.1726 C   0  0  0  0  0  0
   50.8315   42.8002   -2.7352 N   0  0  0  0  0  0
   48.8144   41.6113   -5.5739 C   0  0  0  0  0  0
   54.1178   45.7260   -2.3360 C   0  0  0  0  0  0
   46.4764   41.2507   -5.9575 C   0  0  0  0  0  0
   51.3921   43.5733   -3.6351 C   0  0  0  0  0  0
   49.2267   40.9771   -2.3318 C   0  0  0  0  0  0
   48.3228   40.0257   -2.8337 C   0  0  0  0  0  0
   47.6179   39.1736   -1.9931 C   0  0  0  0  0  0
   47.8593   39.2091   -0.6295 C   0  0  0  0  0  0
   48.8231   40.0680   -0.1116 C   0  0  0  0  0  0
   49.4896   40.9600   -0.9515 C   0  0  0  0  0  0
   53.8113   47.6100    1.7898 H   0  0  0  0  0  0
   54.0265   45.9127    1.9010 H   0  0  0  0  0  0
   55.3868   46.8985    1.3139 H   0  0  0  0  0  0
   50.9340   45.0560   -1.3287 H   0  0  0  0  0  0
   53.1923   44.3859   -4.1788 H   0  0  0  0  0  0
   44.8223   40.0197   -5.4125 H   0  0  0  0  0  0
   45.8800   40.3454   -4.0598 H   0  0  0  0  0  0
   44.7971   41.6099   -4.6387 H   0  0  0  0  0  0
   55.6195   46.6530   -1.1125 H   0  0  0  0  0  0
   54.7932   45.5894   -3.1684 H   0  0  0  0  0  0
   46.0118   41.9417   -6.6590 H   0  0  0  0  0  0
   46.8269   40.3755   -6.4981 H   0  0  0  0  0  0
   48.1317   39.9029   -3.8813 H   0  0  0  0  0  0
   46.9135   38.4653   -2.4036 H   0  0  0  0  0  0
   47.3378   38.5205    0.0160 H   0  0  0  0  0  0
   49.0641   40.0172    0.9394 H   0  0  0  0  0  0
   50.2073   41.6402   -0.5172 H   0  0  0  0  0  0
  1  2  2  0  0  0
  1  4  1  0  0  0
  1  5  1  0  0  0
  2 14  1  0  0  0
  2  3  1  0  0  0
  3 26  1  0  0  0
  3 27  1  0  0  0
  3 28  1  0  0  0
  5  7  2  0  0  0
  5 29  1  0  0  0
  6 19  1  0  0  0
  6  7  1  0  0  0
  6 30  1  0  0  0
  7 17  1  0  0  0
  8 11  2  0  0  0
  8 15  1  0  0  0
  8 20  1  0  0  0
  9 19  1  0  0  0
  9 11  1  0  0  0
 10 18  1  0  0  0
 10 31  1  0  0  0
 10 32  1  0  0  0
 10 33  1  0  0  0
 11 16  1  0  0  0
 12 16  1  0  0  0
 12 18  1  0  0  0
 13 16  2  0  0  0
 14 17  2  0  0  0
 14 34  1  0  0  0
 15 19  2  0  0  0
 17 35  1  0  0  0
 18 36  1  0  0  0
 18 37  1  0  0  0
 20 21  1  0  0  0
 20 25  2  0  0  0
 21 22  2  0  0  0
 21 38  1  0  0  0
 22 23  1  0  0  0
 22 39  1  0  0  0
 23 24  2  0  0  0
 23 40  1  0  0  0
 24 25  1  0  0  0
 24 41  1  0  0  0
 25 42  1  0  0  0
M  END
> <s_m_entry_id>
25825

> <s_m_entry_name>
dock_pv.477

> <s_m_Source_Path>
/home/csk/Desktop/cluster/DUD-E-result/pyrd

> <s_m_Source_File>
dock_pv.maegz

> <i_m_Source_File_Index>
477

> <chembl_id>
CHEMBL3410595

> <chembl_pref_name>
None

> <i_lp_mmshare_version>
53161

> <r_lp_tautomer_probability>
1

> <s_lp_Force_Field>
OPLS_2005

> <r_lp_Energy>
17.383052

> <b_lp_Chiralities_Consistent>
1

> <s_lp_Variant>
CHEMBL1966_lig244-1

> <s_i_glide_gridfile>
glide-grid_1d3g

> <i_i_glide_lignum>
290

> <i_i_glide_rotatable_bonds>
6

> <r_i_docking_score>
-8.31073875440435

> <r_i_glide_ligand_efficiency>
-0.332429550176174

> <r_i_glide_ligand_efficiency_sa>
-0.972029900378309

> <r_i_glide_ligand_efficiency_ln>
-1.96989413753698

> <r_i_glide_gscore>
-8.31073875440435

> <r_i_glide_lipo>
-5.13289726675758

> <r_i_glide_hbond>
-0.16

> <r_i_glide_metal>
0

> <r_i_glide_rewards>
-2.14489449678866

> <r_i_glide_evdw>
-24.0683288574219

> <r_i_glide_ecoul>
-2.8171648979187

> <r_i_glide_erotb>
0.753044186700782

> <r_i_glide_esite>
0

> <r_i_glide_emodel>
-32.1048292665819

> <r_i_glide_energy>
-26.8854937553406

> <r_i_glide_einternal>
8.45866680145264

> <i_i_glide_confnum>
32

> <i_i_glide_posenum>
386

> <r_i_glide_eff_state_penalty>
0

> <s_user_duplicate_titles>
CHEMBL1966_lig244

> <i_f3d_flags>
0

> <s_m_subgroup_title>
dock_pv

> <s_m_subgroupid>
dock_pv

> <b_m_subgroup_collapsed>
1

$$$$
CHEMBL1966_lig811
                    3D
 Schrodinger Suite 2021-1.
 35 36  0  0  1  0            999 V2000
   52.2705   43.8403   -3.3424 C   0  0  0  0  0  0
   51.0181   43.6694   -2.7350 C   0  0  0  0  0  0
   50.6768   44.5529   -1.6990 C   0  0  0  0  0  0
   51.5435   45.5777   -1.2975 C   0  0  0  0  0  0
   52.7946   45.7234   -1.9036 C   0  0  0  0  0  0
   53.1780   44.8099   -2.8988 C   0  0  0  0  0  0
   50.0967   42.5683   -3.1739 C   0  0  0  0  0  0
   53.7190   46.6305   -1.3654 N   0  0  0  0  0  0
   54.4382   47.5145   -2.0937 C   0  0  0  0  0  0
   55.8875   47.7633   -1.6354 C   0  0  2  0  0  0
   54.0273   48.0082   -3.1439 O   0  0  0  0  0  0
   56.1866   47.2407   -0.2953 C   0  0  0  0  0  0
   56.4226   49.1908   -1.8158 C   0  0  0  0  0  0
   56.9734   49.5673   -3.1873 C   0  0  0  0  0  0
   56.4231   50.0094   -0.9000 O   0  0  0  0  0  0
   56.4048   46.8100    0.7522 N   0  0  0  0  0  0
   49.6283   41.5887   -2.2686 C   0  0  0  0  0  0
   48.8227   40.5371   -2.7081 C   0  0  0  0  0  0
   48.4275   40.4532   -4.0375 C   0  0  0  0  0  0
   48.8420   41.4296   -4.9351 C   0  0  0  0  0  0
   49.6776   42.4673   -4.5191 C   0  0  0  0  0  0
   50.0235   41.6153   -0.5829 Cl  0  0  0  0  0  0
   50.1658   43.6100   -5.7233 Cl  0  0  0  0  0  0
   54.8508   44.6037   -3.3029 Cl  0  0  0  0  0  0
   52.5968   43.1274   -4.0867 H   0  0  0  0  0  0
   49.7225   44.4594   -1.2013 H   0  0  0  0  0  0
   51.2484   46.2356   -0.4938 H   0  0  0  0  0  0
   53.9894   46.4611   -0.4064 H   0  0  0  0  0  0
   56.2324   49.3706   -3.9634 H   0  0  0  0  0  0
   57.8783   48.9978   -3.4012 H   0  0  0  0  0  0
   57.2270   50.6275   -3.2170 H   0  0  0  0  0  0
   56.4942   47.1324   -2.2845 H   0  0  0  0  0  0
   48.4840   39.7851   -2.0092 H   0  0  0  0  0  0
   47.7940   39.6415   -4.3636 H   0  0  0  0  0  0
   48.5250   41.3802   -5.9653 H   0  0  0  0  0  0
  1  6  1  0  0  0
  1  2  2  0  0  0
  1 25  1  0  0  0
  2  7  1  0  0  0
  2  3  1  0  0  0
  3  4  2  0  0  0
  3 26  1  0  0  0
  4  5  1  0  0  0
  4 27  1  0  0  0
  5  8  1  0  0  0
  5  6  2  0  0  0
  6 24  1  0  0  0
  7 17  2  0  0  0
  7 21  1  0  0  0
  8  9  1  0  0  0
  8 28  1  0  0  0
  9 11  2  0  0  0
  9 10  1  0  0  0
 10 12  1  0  0  0
 10 32  1  0  0  0
 10 13  1  0  0  0
 12 16  3  0  0  0
 13 15  2  0  0  0
 13 14  1  0  0  0
 14 29  1  0  0  0
 14 30  1  0  0  0
 14 31  1  0  0  0
 17 18  1  0  0  0
 17 22  1  0  0  0
 18 19  2  0  0  0
 18 33  1  0  0  0
 19 20  1  0  0  0
 19 34  1  0  0  0
 20 21  2  0  0  0
 20 35  1  0  0  0
 21 23  1  0  0  0
M  END
> <s_m_entry_id>
25826

> <s_m_entry_name>
dock_pv.478

> <s_m_Source_Path>
/home/csk/Desktop/cluster/DUD-E-result/pyrd

> <s_m_Source_File>
dock_pv.maegz

> <i_m_Source_File_Index>
478

> <chembl_id>
CHEMBL484594

> <chembl_pref_name>
None

> <i_lp_mmshare_version>
53161

> <r_lp_tautomer_probability>
0.995394628248396

> <s_lp_Force_Field>
OPLS_2005

> <r_lp_Energy>
24.605254

> <b_lp_Chiralities_Consistent>
1

> <s_lp_Variant>
CHEMBL1966_lig811-1

> <s_i_glide_gridfile>
glide-grid_1d3g

> <i_i_glide_lignum>
882

> <i_i_glide_rotatable_bonds>
5

> <r_i_docking_score>
-8.30955259023249

> <r_i_glide_ligand_efficiency>
-0.346231357926354

> <r_i_glide_ligand_efficiency_sa>
-0.99870405333449

> <r_i_glide_ligand_efficiency_ln>
-1.98885723536513

> <r_i_glide_gscore>
-8.30955259023249

> <r_i_glide_lipo>
-4.81470142171964

> <r_i_glide_hbond>
0

> <r_i_glide_metal>
0

> <r_i_glide_rewards>
-1.7969006244625

> <r_i_glide_evdw>
-41.9062347412109

> <r_i_glide_ecoul>
-0.905268251895905

> <r_i_glide_erotb>
0.533151430794578

> <r_i_glide_esite>
0

> <r_i_glide_emodel>
-52.7819038076525

> <r_i_glide_energy>
-42.8115029931068

> <r_i_glide_einternal>
15.8599290847778

> <i_i_glide_confnum>
20

> <i_i_glide_posenum>
184

> <r_i_glide_eff_state_penalty>
0

> <s_user_duplicate_titles>
CHEMBL1966_lig811

> <i_f3d_flags>
0

> <s_m_subgroup_title>
dock_pv

> <s_m_subgroupid>
dock_pv

> <b_m_subgroup_collapsed>
1

$$$$
CHEMBL1966_lig269
                    3D
 Schrodinger Suite 2021-1.
 40 41  0  0  1  0            999 V2000
   48.8230   41.2082   -4.9473 C   0  0  0  0  0  0
   47.5740   40.3637   -4.7280 C   0  0  0  0  0  0
   50.5006   43.2100   -3.9872 S   0  0  0  0  0  0
   50.6223   43.3312   -2.2532 C   0  0  0  0  0  0
   50.0230   42.3517   -1.6224 N   0  0  0  0  0  0
   49.4242   41.4920   -2.4338 C   0  0  0  0  0  0
   49.4745   41.8156   -3.7919 C   0  0  0  0  0  0
   48.7627   40.2920   -1.7802 C   0  0  0  0  0  0
   51.2230   44.3777   -1.5725 N   0  0  0  0  0  0
   52.3230   45.2100   -1.8815 C   0  0  0  0  0  0
   53.1501   45.0096   -2.9914 C   0  0  0  0  0  0
   54.2728   45.8032   -3.1888 C   0  0  0  0  0  0
   54.6117   46.8105   -2.2790 C   0  0  0  0  0  0
   53.8011   46.9807   -1.1490 C   0  0  0  0  0  0
   52.6630   46.1987   -0.9596 C   0  0  0  0  0  0
   49.2230   41.3514   -6.0990 O   0  0  0  0  0  0
   55.8668   47.6766   -2.5463 C   0  0  0  0  0  0
   57.1257   46.7985   -2.4232 C   0  0  0  0  0  0
   56.0234   48.8741   -1.5745 C   0  0  0  0  0  0
   55.7974   48.2744   -3.9682 C   0  0  0  0  0  0
   46.9536   40.7901   -3.9415 H   0  0  0  0  0  0
   46.9739   40.3307   -5.6364 H   0  0  0  0  0  0
   47.8489   39.3473   -4.4501 H   0  0  0  0  0  0
   48.8230   39.4253   -2.4372 H   0  0  0  0  0  0
   49.2230   40.0102   -0.8326 H   0  0  0  0  0  0
   47.7000   40.4100   -1.5832 H   0  0  0  0  0  0
   50.9192   44.5286   -0.6226 H   0  0  0  0  0  0
   52.9663   44.2193   -3.6989 H   0  0  0  0  0  0
   54.8900   45.6144   -4.0540 H   0  0  0  0  0  0
   54.0280   47.7252   -0.4043 H   0  0  0  0  0  0
   52.0600   46.3557   -0.0767 H   0  0  0  0  0  0
   58.0230   47.3718   -2.6498 H   0  0  0  0  0  0
   57.1099   45.9463   -3.1036 H   0  0  0  0  0  0
   57.2230   46.4100   -1.4109 H   0  0  0  0  0  0
   55.2067   49.5840   -1.6990 H   0  0  0  0  0  0
   56.0686   48.5643   -0.5298 H   0  0  0  0  0  0
   56.9432   49.4282   -1.7695 H   0  0  0  0  0  0
   54.8573   48.8100   -4.0990 H   0  0  0  0  0  0
   56.6095   48.9781   -4.1577 H   0  0  0  0  0  0
   55.8576   47.5115   -4.7444 H   0  0  0  0  0  0
  1  2  1  0  0  0
  1  7  1  0  0  0
  1 16  2  0  0  0
  2 21  1  0  0  0
  2 22  1  0  0  0
  2 23  1  0  0  0
  3  4  1  0  0  0
  3  7  1  0  0  0
  4  5  2  0  0  0
  4  9  1  0  0  0
  5  6  1  0  0  0
  6  7  2  0  0  0
  6  8  1  0  0  0
  8 24  1  0  0  0
  8 25  1  0  0  0
  8 26  1  0  0  0
  9 10  1  0  0  0
  9 27  1  0  0  0
 10 11  1  0  0  0
 10 15  2  0  0  0
 11 12  2  0  0  0
 11 28  1  0  0  0
 12 13  1  0  0  0
 12 29  1  0  0  0
 13 14  2  0  0  0
 13 17  1  0  0  0
 14 15  1  0  0  0
 14 30  1  0  0  0
 15 31  1  0  0  0
 17 18  1  0  0  0
 17 19  1  0  0  0
 17 20  1  0  0  0
 18 32  1  0  0  0
 18 33  1  0  0  0
 18 34  1  0  0  0
 19 35  1  0  0  0
 19 36  1  0  0  0
 19 37  1  0  0  0
 20 38  1  0  0  0
 20 39  1  0  0  0
 20 40  1  0  0  0
M  END
> <s_m_entry_id>
25827

> <s_m_entry_name>
dock_pv.479

> <s_m_Source_Path>
/home/csk/Desktop/cluster/DUD-E-result/pyrd

> <s_m_Source_File>
dock_pv.maegz

> <i_m_Source_File_Index>
479

> <chembl_id>
CHEMBL3410571

> <chembl_pref_name>
None

> <i_lp_mmshare_version>
53161

> <r_lp_tautomer_probability>
0.99995

> <s_lp_Force_Field>
OPLS_2005

> <r_lp_Energy>
10.783176

> <b_lp_Chiralities_Consistent>
1

> <s_lp_Variant>
CHEMBL1966_lig269-1

> <s_i_glide_gridfile>
glide-grid_1d3g

> <i_i_glide_lignum>
315

> <i_i_glide_rotatable_bonds>
4

> <r_i_docking_score>
-8.29761348770974

> <r_i_glide_ligand_efficiency>
-0.414880674385487

> <r_i_glide_ligand_efficiency_sa>
-1.12615941021218

> <r_i_glide_ligand_efficiency_ln>
-2.07661898236477

> <r_i_glide_gscore>
-8.29761348770974

> <r_i_glide_lipo>
-4.2973919948529

> <r_i_glide_hbond>
-0.0885000226013871

> <r_i_glide_metal>
0

> <r_i_glide_rewards>
-2.3786235483522

> <r_i_glide_evdw>
-34.3819847106934

> <r_i_glide_ecoul>
-1.67612373828888

> <r_i_glide_erotb>
0.437419874374738

> <r_i_glide_esite>
0

> <r_i_glide_emodel>
-46.2652442841638

> <r_i_glide_energy>
-36.0581084489822

> <r_i_glide_einternal>
8.40944290161133

> <i_i_glide_confnum>
5

> <i_i_glide_posenum>
84

> <r_i_glide_eff_state_penalty>
0

> <s_user_duplicate_titles>
CHEMBL1966_lig269

> <i_f3d_flags>
0

> <s_m_subgroup_title>
dock_pv

> <s_m_subgroupid>
dock_pv

> <b_m_subgroup_collapsed>
1

$$$$
CHEMBL1966_lig414
                    3D
 Schrodinger Suite 2021-1.
 39 41  0  0  1  0            999 V2000
   47.0588   38.5740   -0.7989 C   0  0  0  0  0  0
   47.8957   39.6101   -1.5238 C   0  0  0  0  0  0
   48.8230   40.3732   -0.8114 C   0  0  0  0  0  0
   49.6230   41.2852   -1.4774 C   0  0  0  0  0  0
   49.4849   41.5018   -2.8523 C   0  0  0  0  0  0
   50.3119   42.4438   -3.4798 N   0  0  0  0  0  0
   51.1085   43.4761   -2.9686 C   0  0  0  0  0  0
   50.8249   44.1867   -1.7898 C   0  0  0  0  0  0
   51.6861   45.2100   -1.3738 C   0  0  0  0  0  0
   52.8230   45.4941   -2.1503 C   0  0  0  0  0  0
   53.0905   44.8099   -3.2985 N   0  0  0  0  0  0
   52.2382   43.8359   -3.6964 C   0  0  0  0  0  0
   53.8358   46.5291   -1.7934 C   0  0  0  0  0  0
   54.4191   47.3207   -2.7981 C   0  0  0  0  0  0
   55.4192   48.2434   -2.5004 C   0  0  0  0  0  0
   55.8624   48.3837   -1.1902 C   0  0  0  0  0  0
   56.8233   49.2863   -0.8990 F   0  0  0  0  0  0
   55.2942   47.6101   -0.1807 C   0  0  0  0  0  0
   54.2747   46.7098   -0.4709 C   0  0  0  0  0  0
   53.7367   46.0100    0.5526 F   0  0  0  0  0  0
   48.5261   40.7615   -3.5840 C   0  0  0  0  0  0
   47.7481   39.8107   -2.8993 C   0  0  0  0  0  0
   48.3164   40.9458   -5.0727 C   0  0  0  0  0  0
   49.2222   41.2281   -5.8544 O   0  0  0  0  0  0
   47.0208   40.8099   -5.4734 O   0  0  0  0  0  0
   46.3835   39.0671   -0.0997 H   0  0  0  0  0  0
   47.7016   37.9103   -0.2185 H   0  0  0  0  0  0
   46.4742   37.9586   -1.4843 H   0  0  0  0  0  0
   48.9532   40.2177    0.2502 H   0  0  0  0  0  0
   50.3733   41.8040   -0.9028 H   0  0  0  0  0  0
   50.4470   42.2493   -4.4631 H   0  0  0  0  0  0
   49.9362   43.9786   -1.2145 H   0  0  0  0  0  0
   51.4681   45.7690   -0.4757 H   0  0  0  0  0  0
   52.5029   43.3059   -4.5988 H   0  0  0  0  0  0
   54.0988   47.2165   -3.8257 H   0  0  0  0  0  0
   55.8566   48.8450   -3.2835 H   0  0  0  0  0  0
   55.6245   47.7091    0.8396 H   0  0  0  0  0  0
   47.0289   39.2014   -3.4289 H   0  0  0  0  0  0
   46.4398   40.7578   -4.7119 H   0  0  0  0  0  0
  1  2  1  0  0  0
  1 26  1  0  0  0
  1 27  1  0  0  0
  1 28  1  0  0  0
  2  3  2  0  0  0
  2 22  1  0  0  0
  3  4  1  0  0  0
  3 29  1  0  0  0
  4  5  2  0  0  0
  4 30  1  0  0  0
  5  6  1  0  0  0
  5 21  1  0  0  0
  6  7  1  0  0  0
  6 31  1  0  0  0
  7  8  2  0  0  0
  7 12  1  0  0  0
  8  9  1  0  0  0
  8 32  1  0  0  0
  9 10  2  0  0  0
  9 33  1  0  0  0
 10 11  1  0  0  0
 10 13  1  0  0  0
 11 12  2  0  0  0
 12 34  1  0  0  0
 13 14  2  0  0  0
 13 19  1  0  0  0
 14 15  1  0  0  0
 14 35  1  0  0  0
 15 16  2  0  0  0
 15 36  1  0  0  0
 16 17  1  0  0  0
 16 18  1  0  0  0
 18 19  2  0  0  0
 18 37  1  0  0  0
 19 20  1  0  0  0
 21 22  2  0  0  0
 21 23  1  0  0  0
 22 38  1  0  0  0
 23 24  2  0  0  0
 23 25  1  0  0  0
 25 39  1  0  0  0
M  END
> <s_m_entry_id>
25828

> <s_m_entry_name>
dock_pv.480

> <s_m_Source_Path>
/home/csk/Desktop/cluster/DUD-E-result/pyrd

> <s_m_Source_File>
dock_pv.maegz

> <i_m_Source_File_Index>
480

> <chembl_id>
CHEMBL3674678

> <chembl_pref_name>
None

> <i_lp_mmshare_version>
53161

> <r_lp_tautomer_probability>
0.999999999999999

> <s_lp_Force_Field>
OPLS_2005

> <r_lp_Energy>
27.939356

> <b_lp_Chiralities_Consistent>
1

> <s_lp_Variant>
CHEMBL1966_lig414-1

> <s_i_glide_gridfile>
glide-grid_1d3g

> <i_i_glide_lignum>
464

> <i_i_glide_rotatable_bonds>
5

> <r_i_docking_score>
-8.29597367981504

> <r_i_glide_ligand_efficiency>
-0.331838947192601

> <r_i_glide_ligand_efficiency_sa>
-0.970302966779954

> <r_i_glide_ligand_efficiency_ln>
-1.96639437238573

> <r_i_glide_gscore>
-8.29597367981504

> <r_i_glide_lipo>
-5.30924329166615

> <r_i_glide_hbond>
-0.0384414147373722

> <r_i_glide_metal>
0

> <r_i_glide_rewards>
-1.22838225705025

> <r_i_glide_evdw>
-42.4335594177246

> <r_i_glide_ecoul>
-1.68137037754059

> <r_i_glide_erotb>
0.65397681115606

> <r_i_glide_esite>
0

> <r_i_glide_emodel>
-57.9580770116846

> <r_i_glide_energy>
-44.1149297952652

> <r_i_glide_einternal>
12.3372201919556

> <i_i_glide_confnum>
43

> <i_i_glide_posenum>
230

> <r_i_glide_eff_state_penalty>
0

> <s_user_duplicate_titles>
CHEMBL1966_lig414

> <i_f3d_flags>
0

> <s_m_subgroup_title>
dock_pv

> <s_m_subgroupid>
dock_pv

> <b_m_subgroup_collapsed>
1

$$$$
CHEMBL1966_lig404
                    3D
 Schrodinger Suite 2021-1.
 46 48  0  0  1  0            999 V2000
   56.3063   46.4807   -2.9538 C   0  0  0  0  0  0
   56.6170   45.2274   -3.6661 C   0  0  0  0  0  0
   57.2503   45.4027   -4.8548 N   0  0  0  0  0  0
   57.6246   46.5512   -5.4784 C   0  0  0  0  0  0
   57.3194   47.6686   -4.7719 N   0  0  0  0  0  0
   56.6763   47.6640   -3.5513 C   0  0  0  0  0  0
   56.4196   48.9993   -3.0025 C   0  0  0  0  0  0
   57.1008   50.0098   -3.6278 O   0  0  0  0  0  0
   55.6277   49.2468   -2.0992 O   0  0  0  0  0  0
   58.1642   46.5779   -6.5787 O   0  0  0  0  0  0
   56.3514   44.0859   -3.2982 O   0  0  0  0  0  0
   55.6307   46.3066   -1.5712 C   0  0  0  0  0  0
   54.2467   45.6100   -1.5272 C   0  0  0  0  0  0
   53.1742   46.0571   -2.5395 C   0  0  0  0  0  0
   52.7384   44.9265   -3.5138 C   0  0  0  0  0  0
   51.6159   43.9544   -3.0987 C   0  0  0  0  0  0
   51.2230   43.7871   -1.7701 C   0  0  0  0  0  0
   50.3843   42.7394   -1.3970 C   0  0  0  0  0  0
   50.9576   43.2100   -4.0900 C   0  0  0  0  0  0
   49.9983   42.2135   -3.7489 C   0  0  0  0  0  0
   49.7911   41.9064   -2.3751 C   0  0  0  0  0  0
   48.9610   40.8101   -2.0246 C   0  0  0  0  0  0
   48.2011   40.1454   -2.9896 C   0  0  0  0  0  0
   48.3489   40.5047   -4.3339 C   0  0  0  0  0  0
   49.2373   41.5090   -4.7194 C   0  0  0  0  0  0
   47.1580   39.1385   -2.5714 C   0  0  0  0  0  0
   46.2222   38.8133   -3.2985 O   0  0  0  0  0  0
   47.3154   38.6283   -1.3185 O   0  0  0  0  0  0
   57.4609   44.5547   -5.3568 H   0  0  0  0  0  0
   57.6185   48.5409   -5.1847 H   0  0  0  0  0  0
   56.8229   50.8719   -3.2922 H   0  0  0  0  0  0
   56.3190   45.7177   -0.9628 H   0  0  0  0  0  0
   55.5610   47.2277   -1.0048 H   0  0  0  0  0  0
   54.4230   44.5589   -1.7014 H   0  0  0  0  0  0
   53.8452   45.6686   -0.5152 H   0  0  0  0  0  0
   52.3064   46.4785   -2.0301 H   0  0  0  0  0  0
   53.5733   46.8832   -3.1291 H   0  0  0  0  0  0
   52.4230   45.4277   -4.4259 H   0  0  0  0  0  0
   53.6056   44.3214   -3.7713 H   0  0  0  0  0  0
   51.6528   44.4003   -0.9933 H   0  0  0  0  0  0
   50.1671   42.5640   -0.3542 H   0  0  0  0  0  0
   51.1788   43.3836   -5.1338 H   0  0  0  0  0  0
   48.8356   40.5853   -0.9738 H   0  0  0  0  0  0
   47.7598   40.0103   -5.0923 H   0  0  0  0  0  0
   49.3556   41.7616   -5.7625 H   0  0  0  0  0  0
   46.6096   38.0083   -1.1344 H   0  0  0  0  0  0
  1  2  1  0  0  0
  1  6  2  0  0  0
  1 12  1  0  0  0
  2  3  1  0  0  0
  2 11  2  0  0  0
  3  4  1  0  0  0
  3 29  1  0  0  0
  4  5  1  0  0  0
  4 10  2  0  0  0
  5  6  1  0  0  0
  5 30  1  0  0  0
  6  7  1  0  0  0
  7  8  1  0  0  0
  7  9  2  0  0  0
  8 31  1  0  0  0
 12 13  1  0  0  0
 12 32  1  0  0  0
 12 33  1  0  0  0
 13 14  1  0  0  0
 13 34  1  0  0  0
 13 35  1  0  0  0
 14 15  1  0  0  0
 14 36  1  0  0  0
 14 37  1  0  0  0
 15 16  1  0  0  0
 15 38  1  0  0  0
 15 39  1  0  0  0
 16 17  2  0  0  0
 16 19  1  0  0  0
 17 18  1  0  0  0
 17 40  1  0  0  0
 18 21  2  0  0  0
 18 41  1  0  0  0
 19 20  2  0  0  0
 19 42  1  0  0  0
 20 21  1  0  0  0
 20 25  1  0  0  0
 21 22  1  0  0  0
 22 23  2  0  0  0
 22 43  1  0  0  0
 23 24  1  0  0  0
 23 26  1  0  0  0
 24 25  2  0  0  0
 24 44  1  0  0  0
 25 45  1  0  0  0
 26 27  2  0  0  0
 26 28  1  0  0  0
 28 46  1  0  0  0
M  END
> <s_m_entry_id>
25829

> <s_m_entry_name>
dock_pv.481

> <s_m_Source_Path>
/home/csk/Desktop/cluster/DUD-E-result/pyrd

> <s_m_Source_File>
dock_pv.maegz

> <i_m_Source_File_Index>
481

> <chembl_id>
CHEMBL3983745

> <chembl_pref_name>
None

> <i_lp_mmshare_version>
53161

> <r_lp_tautomer_probability>
1

> <s_lp_Force_Field>
OPLS_2005

> <r_lp_Energy>
20.679984

> <b_lp_Chiralities_Consistent>
1

> <s_lp_Variant>
CHEMBL1966_lig404-1

> <s_i_glide_gridfile>
glide-grid_1d3g

> <i_i_glide_lignum>
454

> <i_i_glide_rotatable_bonds>
9

> <r_i_docking_score>
-8.29591404733845

> <r_i_glide_ligand_efficiency>
-0.296282644547802

> <r_i_glide_ligand_efficiency_sa>
-0.899688609992696

> <r_i_glide_ligand_efficiency_ln>
-1.9149405407463

> <r_i_glide_gscore>
-8.29591404733845

> <r_i_glide_lipo>
-4.70065534930034

> <r_i_glide_hbond>
0

> <r_i_glide_metal>
0

> <r_i_glide_rewards>
-2.06620341398881

> <r_i_glide_evdw>
-42.4995040893555

> <r_i_glide_ecoul>
-2.22611212730408

> <r_i_glide_erotb>
0.929836739514085

> <r_i_glide_esite>
0

> <r_i_glide_emodel>
-52.2195042813852

> <r_i_glide_energy>
-44.7256162166595

> <r_i_glide_einternal>
10.956859588623

> <i_i_glide_confnum>
64

> <i_i_glide_posenum>
306

> <r_i_glide_eff_state_penalty>
0

> <s_user_duplicate_titles>
CHEMBL1966_lig404

> <i_f3d_flags>
0

> <s_m_subgroup_title>
dock_pv

> <s_m_subgroupid>
dock_pv

> <b_m_subgroup_collapsed>
1

$$$$
CHEMBL1966_lig109
                    3D
 Schrodinger Suite 2021-1.
 35 36  0  0  1  0            999 V2000
   51.7575   45.2311   -1.2371 C   0  0  0  0  0  0
   52.7994   45.4252   -2.1550 C   0  0  0  0  0  0
   52.8229   44.6148   -3.2978 C   0  0  0  0  0  0
   51.8689   43.6094   -3.4866 C   0  0  0  0  0  0
   50.8711   43.3695   -2.5249 C   0  0  0  0  0  0
   50.8193   44.2089   -1.3996 C   0  0  0  0  0  0
   53.8784   46.4234   -1.9026 C   0  0  0  0  0  0
   49.9576   42.2881   -2.6127 N   0  0  0  0  0  0
   49.4824   41.6873   -3.7288 C   0  0  0  0  0  0
   48.5707   40.4403   -3.5755 C   0  0  1  0  0  0
   49.7417   42.0911   -4.8628 O   0  0  0  0  0  0
   48.2708   39.9810   -2.2022 C   0  0  0  0  0  0
   47.2653   40.4098   -4.4101 C   0  0  0  0  0  0
   47.1340   41.2133   -5.6988 C   0  0  0  0  0  0
   46.3135   39.7120   -4.0632 O   0  0  0  0  0  0
   48.0227   39.6140   -1.1307 N   0  0  0  0  0  0
   54.3936   46.5984   -0.6098 C   0  0  0  0  0  0
   55.4379   47.4883   -0.3752 C   0  0  0  0  0  0
   55.9702   48.2224   -1.4305 C   0  0  0  0  0  0
   55.4639   48.0728   -2.7187 C   0  0  0  0  0  0
   54.4235   47.1760   -2.9525 C   0  0  0  0  0  0
   49.6168   44.0058   -0.1701 Cl  0  0  0  0  0  0
   51.6947   45.8540   -0.3557 H   0  0  0  0  0  0
   53.6078   44.7408   -4.0246 H   0  0  0  0  0  0
   51.9643   42.9815   -4.3587 H   0  0  0  0  0  0
   49.5805   41.9829   -1.7277 H   0  0  0  0  0  0
   47.2736   42.2801   -5.5081 H   0  0  0  0  0  0
   46.1289   41.0839   -6.0998 H   0  0  0  0  0  0
   47.8676   40.8818   -6.4306 H   0  0  0  0  0  0
   49.1642   39.6185   -3.9794 H   0  0  0  0  0  0
   54.0042   46.0250    0.2185 H   0  0  0  0  0  0
   55.8339   47.6068    0.6235 H   0  0  0  0  0  0
   56.7818   48.9124   -1.2456 H   0  0  0  0  0  0
   55.8798   48.6466   -3.5351 H   0  0  0  0  0  0
   54.0399   47.0701   -3.9576 H   0  0  0  0  0  0
  1  6  1  0  0  0
  1  2  2  0  0  0
  1 23  1  0  0  0
  2  7  1  0  0  0
  2  3  1  0  0  0
  3  4  2  0  0  0
  3 24  1  0  0  0
  4  5  1  0  0  0
  4 25  1  0  0  0
  5  6  2  0  0  0
  5  8  1  0  0  0
  6 22  1  0  0  0
  7 17  2  0  0  0
  7 21  1  0  0  0
  8  9  1  0  0  0
  8 26  1  0  0  0
  9 11  2  0  0  0
  9 10  1  0  0  0
 10 12  1  0  0  0
 10 30  1  0  0  0
 10 13  1  0  0  0
 12 16  3  0  0  0
 13 15  2  0  0  0
 13 14  1  0  0  0
 14 27  1  0  0  0
 14 28  1  0  0  0
 14 29  1  0  0  0
 17 18  1  0  0  0
 17 31  1  0  0  0
 18 19  2  0  0  0
 18 32  1  0  0  0
 19 20  1  0  0  0
 19 33  1  0  0  0
 20 21  2  0  0  0
 20 34  1  0  0  0
 21 35  1  0  0  0
M  END
> <s_m_entry_id>
25830

> <s_m_entry_name>
dock_pv.482

> <s_m_Source_Path>
/home/csk/Desktop/cluster/DUD-E-result/pyrd

> <s_m_Source_File>
dock_pv.maegz

> <i_m_Source_File_Index>
482

> <chembl_id>
CHEMBL483994

> <chembl_pref_name>
None

> <i_lp_mmshare_version>
53161

> <r_lp_tautomer_probability>
0.995394628248396

> <s_lp_Force_Field>
OPLS_2005

> <r_lp_Energy>
22.348689

> <b_lp_Chiralities_Consistent>
1

> <s_lp_Variant>
CHEMBL1966_lig109-2

> <s_i_glide_gridfile>
glide-grid_1d3g

> <i_i_glide_lignum>
120

> <i_i_glide_rotatable_bonds>
5

> <r_i_docking_score>
-8.29301514772194

> <r_i_glide_ligand_efficiency>
-0.376955233987361

> <r_i_glide_ligand_efficiency_sa>
-1.05624339044069

> <r_i_glide_ligand_efficiency_ln>
-2.02711539718055

> <r_i_glide_gscore>
-8.29301514772194

> <r_i_glide_lipo>
-4.30389081145688

> <r_i_glide_hbond>
0

> <r_i_glide_metal>
0

> <r_i_glide_rewards>
-2.7814484273315

> <r_i_glide_evdw>
-40.3626670837402

> <r_i_glide_ecoul>
0.341886132955551

> <r_i_glide_erotb>
0.759174525310115

> <r_i_glide_esite>
0

> <r_i_glide_emodel>
-56.0959928849139

> <r_i_glide_energy>
-40.0207809507847

> <r_i_glide_einternal>
4.80553197860718

> <i_i_glide_confnum>
12

> <i_i_glide_posenum>
232

> <r_i_glide_eff_state_penalty>
0

> <s_user_duplicate_titles>
CHEMBL1966_lig109,520746

> <i_f3d_flags>
0

> <s_m_subgroup_title>
dock_pv

> <s_m_subgroupid>
dock_pv

> <b_m_subgroup_collapsed>
1

$$$$
CHEMBL1966_lig437
                    3D
 Schrodinger Suite 2021-1.
 49 51  0  0  1  0            999 V2000
   58.2800   49.5518   -4.3445 C   0  0  0  0  0  0
   57.6533   48.4345   -3.5072 C   0  0  0  0  0  0
   57.7828   47.0571   -4.1871 C   0  0  0  0  0  0
   56.2780   48.7647   -3.3157 O   0  0  0  0  0  0
   55.6223   48.0740   -2.3247 C   0  0  0  0  0  0
   55.9925   48.2076   -0.9859 C   0  0  0  0  0  0
   55.3029   47.5026   -0.0046 C   0  0  0  0  0  0
   54.2488   46.6615   -0.3459 C   0  0  0  0  0  0
   53.6192   46.0102    0.6569 F   0  0  0  0  0  0
   53.8724   46.4874   -1.6924 C   0  0  0  0  0  0
   54.5625   47.2318   -2.6653 C   0  0  0  0  0  0
   52.8230   45.5022   -2.0986 C   0  0  0  0  0  0
   51.6841   45.2271   -1.3211 C   0  0  0  0  0  0
   50.8227   44.2004   -1.7216 C   0  0  0  0  0  0
   51.0918   43.4790   -2.8964 C   0  0  0  0  0  0
   50.3023   42.4196   -3.3687 N   0  0  0  0  0  0
   49.4895   41.4797   -2.7114 C   0  0  0  0  0  0
   49.6230   41.3064   -1.3282 C   0  0  0  0  0  0
   48.8232   40.4100   -0.6342 C   0  0  0  0  0  0
   47.9181   39.6099   -1.3238 C   0  0  0  0  0  0
   47.1041   38.5685   -0.5805 C   0  0  0  0  0  0
   47.7906   39.7454   -2.7034 C   0  0  0  0  0  0
   48.5477   40.6901   -3.4174 C   0  0  0  0  0  0
   48.3241   40.8114   -4.9090 C   0  0  0  0  0  0
   49.1714   41.2322   -5.6938 O   0  0  0  0  0  0
   47.0762   40.4364   -5.3128 O   0  0  0  0  0  0
   52.2041   43.8523   -3.6445 C   0  0  0  0  0  0
   53.0671   44.8245   -3.2587 N   0  0  0  0  0  0
   59.3452   49.3809   -4.4982 H   0  0  0  0  0  0
   58.1620   50.5198   -3.8571 H   0  0  0  0  0  0
   57.8067   49.6102   -5.3221 H   0  0  0  0  0  0
   58.1811   48.4140   -2.5521 H   0  0  0  0  0  0
   58.8231   46.8199   -4.4078 H   0  0  0  0  0  0
   57.3972   46.2602   -3.5504 H   0  0  0  0  0  0
   57.2303   47.0312   -5.1272 H   0  0  0  0  0  0
   56.8069   48.8600   -0.7054 H   0  0  0  0  0  0
   55.5821   47.6092    1.0324 H   0  0  0  0  0  0
   54.2972   47.1358   -3.7094 H   0  0  0  0  0  0
   51.4708   45.7801   -0.4172 H   0  0  0  0  0  0
   49.9450   43.9922   -1.1300 H   0  0  0  0  0  0
   50.4169   42.2118   -4.3517 H   0  0  0  0  0  0
   50.3655   41.8502   -0.7664 H   0  0  0  0  0  0
   48.9623   40.2791    0.4285 H   0  0  0  0  0  0
   46.5270   37.9322   -1.2548 H   0  0  0  0  0  0
   47.7706   37.9217   -0.0096 H   0  0  0  0  0  0
   46.4228   39.0559    0.1184 H   0  0  0  0  0  0
   47.0974   39.0855   -3.2069 H   0  0  0  0  0  0
   46.5119   40.3000   -4.5498 H   0  0  0  0  0  0
   52.4548   43.3261   -4.5525 H   0  0  0  0  0  0
  1  2  1  0  0  0
  1 29  1  0  0  0
  1 30  1  0  0  0
  1 31  1  0  0  0
  2  3  1  0  0  0
  2  4  1  0  0  0
  2 32  1  0  0  0
  3 33  1  0  0  0
  3 34  1  0  0  0
  3 35  1  0  0  0
  4  5  1  0  0  0
  5  6  2  0  0  0
  5 11  1  0  0  0
  6  7  1  0  0  0
  6 36  1  0  0  0
  7  8  2  0  0  0
  7 37  1  0  0  0
  8  9  1  0  0  0
  8 10  1  0  0  0
 10 11  2  0  0  0
 10 12  1  0  0  0
 11 38  1  0  0  0
 12 13  2  0  0  0
 12 28  1  0  0  0
 13 14  1  0  0  0
 13 39  1  0  0  0
 14 15  2  0  0  0
 14 40  1  0  0  0
 15 16  1  0  0  0
 15 27  1  0  0  0
 16 17  1  0  0  0
 16 41  1  0  0  0
 17 18  2  0  0  0
 17 23  1  0  0  0
 18 19  1  0  0  0
 18 42  1  0  0  0
 19 20  2  0  0  0
 19 43  1  0  0  0
 20 21  1  0  0  0
 20 22  1  0  0  0
 21 44  1  0  0  0
 21 45  1  0  0  0
 21 46  1  0  0  0
 22 23  2  0  0  0
 22 47  1  0  0  0
 23 24  1  0  0  0
 24 25  2  0  0  0
 24 26  1  0  0  0
 26 48  1  0  0  0
 27 28  2  0  0  0
 27 49  1  0  0  0
M  END
> <s_m_entry_id>
25831

> <s_m_entry_name>
dock_pv.483

> <s_m_Source_Path>
/home/csk/Desktop/cluster/DUD-E-result/pyrd

> <s_m_Source_File>
dock_pv.maegz

> <i_m_Source_File_Index>
483

> <chembl_id>
CHEMBL3674647

> <chembl_pref_name>
None

> <i_lp_mmshare_version>
53161

> <r_lp_tautomer_probability>
0.999999999999999

> <s_lp_Force_Field>
OPLS_2005

> <r_lp_Energy>
31.391545

> <b_lp_Chiralities_Consistent>
1

> <s_lp_Variant>
CHEMBL1966_lig437-1

> <s_i_glide_gridfile>
glide-grid_1d3g

> <i_i_glide_lignum>
487

> <i_i_glide_rotatable_bonds>
7

> <r_i_docking_score>
-8.28509230563483

> <r_i_glide_ligand_efficiency>
-0.295896153772673

> <r_i_glide_ligand_efficiency_sa>
-0.898514996368511

> <r_i_glide_ligand_efficiency_ln>
-1.91244256502096

> <r_i_glide_gscore>
-8.28509230563483

> <r_i_glide_lipo>
-5.64221167739502

> <r_i_glide_hbond>
0

> <r_i_glide_metal>
0

> <r_i_glide_rewards>
-0.665320525570203

> <r_i_glide_evdw>
-46.6552047729492

> <r_i_glide_ecoul>
-2.10065054893494

> <r_i_glide_erotb>
0.670297718318092

> <r_i_glide_esite>
0

> <r_i_glide_emodel>
-57.9823990791135

> <r_i_glide_energy>
-48.7558553218842

> <r_i_glide_einternal>
18.6012706756592

> <i_i_glide_confnum>
11

> <i_i_glide_posenum>
388

> <r_i_glide_eff_state_penalty>
0

> <s_user_duplicate_titles>
CHEMBL1966_lig437

> <i_f3d_flags>
0

> <s_m_subgroup_title>
dock_pv

> <s_m_subgroupid>
dock_pv

> <b_m_subgroup_collapsed>
1

$$$$
CHEMBL1966_lig172
                    3D
 Schrodinger Suite 2021-1.
 34 36  0  0  1  0            999 V2000
   47.7687   40.0806   -4.1613 C   0  0  0  0  0  0
   47.7847   39.6496   -2.8349 C   0  0  0  0  0  0
   48.5176   40.2421   -1.8525 N   0  0  0  0  0  0
   48.5769   41.1507   -4.4988 C   0  0  0  0  0  0
   49.3125   41.7457   -3.5151 N   0  0  0  0  0  0
   49.2733   41.2834   -2.2056 C   0  0  0  0  0  0
   50.0230   42.1037   -1.4362 N   0  0  0  0  0  0
   50.4230   43.0096   -2.3087 C   0  0  0  0  0  0
   50.0807   42.8423   -3.5761 N   0  0  0  0  0  0
   51.3316   44.4100   -1.7922 S   0  0  0  0  0  0
   52.5091   44.4099   -3.2104 C   0  0  0  0  0  0
   53.8267   45.1546   -2.9655 C   0  0  0  0  0  0
   55.0789   44.5392   -3.1792 C   0  0  0  0  0  0
   56.2600   45.2579   -2.9924 C   0  0  0  0  0  0
   56.2122   46.6005   -2.6339 C   0  0  0  0  0  0
   54.9803   47.2263   -2.4643 C   0  0  0  0  0  0
   53.7944   46.5081   -2.6165 C   0  0  0  0  0  0
   48.6505   41.7139   -5.7374 O   0  0  0  0  0  0
   47.0198   38.4024   -2.4684 C   0  0  0  0  0  0
   55.2230   42.8951   -3.6990 Cl  0  0  0  0  0  0
   46.8442   38.0822   -0.9794 C   0  0  0  0  0  0
   54.9296   48.9027   -2.0990 Cl  0  0  0  0  0  0
   47.1401   39.6114   -4.8973 H   0  0  0  0  0  0
   52.7095   43.3703   -3.4637 H   0  0  0  0  0  0
   52.0273   44.8098   -4.0990 H   0  0  0  0  0  0
   57.2172   44.7797   -3.1439 H   0  0  0  0  0  0
   57.1291   47.1583   -2.5090 H   0  0  0  0  0  0
   52.8467   47.0110   -2.4885 H   0  0  0  0  0  0
   49.1381   42.5429   -5.7012 H   0  0  0  0  0  0
   47.6229   37.6100   -2.8990 H   0  0  0  0  0  0
   46.0490   38.4062   -2.9660 H   0  0  0  0  0  0
   46.3976   37.0928   -0.8992 H   0  0  0  0  0  0
   46.1982   38.8101   -0.4872 H   0  0  0  0  0  0
   47.7964   38.0528   -0.4474 H   0  0  0  0  0  0
  1  2  1  0  0  0
  1  4  2  0  0  0
  1 23  1  0  0  0
  2  3  2  0  0  0
  2 19  1  0  0  0
  3  6  1  0  0  0
  4  5  1  0  0  0
  4 18  1  0  0  0
  5  6  1  0  0  0
  5  9  1  0  0  0
  6  7  2  0  0  0
  7  8  1  0  0  0
  8  9  2  0  0  0
  8 10  1  0  0  0
 10 11  1  0  0  0
 11 12  1  0  0  0
 11 24  1  0  0  0
 11 25  1  0  0  0
 12 13  2  0  0  0
 12 17  1  0  0  0
 13 14  1  0  0  0
 13 20  1  0  0  0
 14 15  2  0  0  0
 14 26  1  0  0  0
 15 16  1  0  0  0
 15 27  1  0  0  0
 16 17  2  0  0  0
 16 22  1  0  0  0
 17 28  1  0  0  0
 18 29  1  0  0  0
 19 21  1  0  0  0
 19 30  1  0  0  0
 19 31  1  0  0  0
 21 32  1  0  0  0
 21 33  1  0  0  0
 21 34  1  0  0  0
M  END
> <s_m_entry_id>
25832

> <s_m_entry_name>
dock_pv.484

> <s_m_Source_Path>
/home/csk/Desktop/cluster/DUD-E-result/pyrd

> <s_m_Source_File>
dock_pv.maegz

> <i_m_Source_File_Index>
484

> <chembl_id>
CHEMBL2177861

> <chembl_pref_name>
None

> <i_lp_mmshare_version>
53161

> <r_lp_tautomer_probability>
1

> <s_lp_Force_Field>
OPLS_2005

> <r_lp_Energy>
6.077333

> <b_lp_Chiralities_Consistent>
1

> <s_lp_Variant>
CHEMBL1966_lig172-1

> <s_i_glide_gridfile>
glide-grid_1d3g

> <i_i_glide_lignum>
217

> <i_i_glide_rotatable_bonds>
5

> <r_i_docking_score>
-8.28482780476384

> <r_i_glide_ligand_efficiency>
-0.37658308203472

> <r_i_glide_ligand_efficiency_sa>
-1.05520060603349

> <r_i_glide_ligand_efficiency_ln>
-2.025114111921

> <r_i_glide_gscore>
-8.28482780476384

> <r_i_glide_lipo>
-3.71810527936912

> <r_i_glide_hbond>
0

> <r_i_glide_metal>
0

> <r_i_glide_rewards>
-2.88813825499729

> <r_i_glide_evdw>
-35.9689788818359

> <r_i_glide_ecoul>
-2.23079991340637

> <r_i_glide_erotb>
0.454484660705325

> <r_i_glide_esite>
0

> <r_i_glide_emodel>
-48.4827858128743

> <r_i_glide_energy>
-38.1997787952423

> <r_i_glide_einternal>
7.1158299446106

> <i_i_glide_confnum>
4

> <i_i_glide_posenum>
264

> <r_i_glide_eff_state_penalty>
0

> <s_user_duplicate_titles>
CHEMBL1966_lig172

> <i_f3d_flags>
0

> <s_m_subgroup_title>
dock_pv

> <s_m_subgroupid>
dock_pv

> <b_m_subgroup_collapsed>
1

$$$$
CHEMBL1966_lig118
                    3D
 Schrodinger Suite 2021-1.
 35 36  0  0  1  0            999 V2000
   52.2362   44.3933   -3.4378 C   0  0  0  0  0  0
   52.1980   44.8100   -2.0990 C   0  0  0  0  0  0
   51.2229   44.2116   -1.2813 C   0  0  0  0  0  0
   50.3651   43.2231   -1.7575 C   0  0  0  0  0  0
   50.3947   42.8539   -3.1061 C   0  0  0  0  0  0
   51.2997   43.4916   -3.9592 C   0  0  0  0  0  0
   53.2986   45.6751   -1.5373 C   0  0  0  0  0  0
   49.5323   41.8971   -3.6714 N   0  0  0  0  0  0
   48.8661   40.8792   -3.0851 C   0  0  0  0  0  0
   47.8817   40.0665   -3.9554 C   0  0  1  0  0  0
   49.0071   40.5720   -1.9030 O   0  0  0  0  0  0
   46.8443   39.3613   -3.1840 C   0  0  0  0  0  0
   47.2891   40.7824   -5.1921 C   0  0  0  0  0  0
   45.7779   40.9749   -5.2990 C   0  0  0  0  0  0
   48.0237   41.1682   -6.0990 O   0  0  0  0  0  0
   46.0278   38.8100   -2.5784 N   0  0  0  0  0  0
   53.1669   46.4667   -0.3720 C   0  0  0  0  0  0
   54.2934   47.0545    0.2126 C   0  0  0  0  0  0
   55.5447   46.9620   -0.3845 C   0  0  0  0  0  0
   55.6820   46.2590   -1.5730 C   0  0  0  0  0  0
   54.5795   45.6100   -2.1242 C   0  0  0  0  0  0
   51.6382   46.8099    0.3751 Cl  0  0  0  0  0  0
   51.2229   43.2122   -5.6690 Cl  0  0  0  0  0  0
   52.9520   44.8447   -4.0990 H   0  0  0  0  0  0
   51.1822   44.4102   -0.2236 H   0  0  0  0  0  0
   49.6667   42.7740   -1.0678 H   0  0  0  0  0  0
   49.4308   41.9790   -4.6744 H   0  0  0  0  0  0
   45.3079   40.0663   -5.6732 H   0  0  0  0  0  0
   45.5447   41.7904   -5.9841 H   0  0  0  0  0  0
   45.3421   41.2101   -4.3281 H   0  0  0  0  0  0
   48.4732   39.2501   -4.3627 H   0  0  0  0  0  0
   54.1942   47.6099    1.1330 H   0  0  0  0  0  0
   56.4015   47.4401    0.0689 H   0  0  0  0  0  0
   56.6509   46.1774   -2.0446 H   0  0  0  0  0  0
   54.7619   45.0089   -3.0014 H   0  0  0  0  0  0
  1  6  1  0  0  0
  1  2  2  0  0  0
  1 24  1  0  0  0
  2  7  1  0  0  0
  2  3  1  0  0  0
  3  4  2  0  0  0
  3 25  1  0  0  0
  4  5  1  0  0  0
  4 26  1  0  0  0
  5  6  2  0  0  0
  5  8  1  0  0  0
  6 23  1  0  0  0
  7 17  2  0  0  0
  7 21  1  0  0  0
  8  9  1  0  0  0
  8 27  1  0  0  0
  9 11  2  0  0  0
  9 10  1  0  0  0
 10 12  1  0  0  0
 10 31  1  0  0  0
 10 13  1  0  0  0
 12 16  3  0  0  0
 13 15  2  0  0  0
 13 14  1  0  0  0
 14 28  1  0  0  0
 14 29  1  0  0  0
 14 30  1  0  0  0
 17 18  1  0  0  0
 17 22  1  0  0  0
 18 19  2  0  0  0
 18 32  1  0  0  0
 19 20  1  0  0  0
 19 33  1  0  0  0
 20 21  2  0  0  0
 20 34  1  0  0  0
 21 35  1  0  0  0
M  END
> <s_m_entry_id>
25833

> <s_m_entry_name>
dock_pv.485

> <s_m_Source_Path>
/home/csk/Desktop/cluster/DUD-E-result/pyrd

> <s_m_Source_File>
dock_pv.maegz

> <i_m_Source_File_Index>
485

> <chembl_id>
CHEMBL483552

> <chembl_pref_name>
None

> <i_lp_mmshare_version>
53161

> <r_lp_tautomer_probability>
0.995394628248396

> <s_lp_Force_Field>
OPLS_2005

> <r_lp_Energy>
24.33603

> <b_lp_Chiralities_Consistent>
1

> <s_lp_Variant>
CHEMBL1966_lig118-2

> <s_i_glide_gridfile>
glide-grid_1d3g

> <i_i_glide_lignum>
138

> <i_i_glide_rotatable_bonds>
5

> <r_i_docking_score>
-8.28060444263401

> <r_i_glide_ligand_efficiency>
-0.360026280114522

> <r_i_glide_ligand_efficiency_sa>
-1.02386684882637

> <r_i_glide_ligand_efficiency_ln>
-2.00232523859873

> <r_i_glide_gscore>
-8.28060444263401

> <r_i_glide_lipo>
-4.19103898192866

> <r_i_glide_hbond>
-0.202723903893367

> <r_i_glide_metal>
0

> <r_i_glide_rewards>
-2.57544875216378

> <r_i_glide_evdw>
-29.6315231323242

> <r_i_glide_ecoul>
-2.99591302871704

> <r_i_glide_erotb>
0.631184264284931

> <r_i_glide_esite>
-0.0116139580093617

> <r_i_glide_emodel>
-37.1114386942644

> <r_i_glide_energy>
-32.6274361610413

> <r_i_glide_einternal>
8.13909721374512

> <i_i_glide_confnum>
1

> <i_i_glide_posenum>
383

> <r_i_glide_eff_state_penalty>
0

> <s_user_duplicate_titles>
CHEMBL1966_lig118

> <i_f3d_flags>
0

> <s_m_subgroup_title>
dock_pv

> <s_m_subgroupid>
dock_pv

> <b_m_subgroup_collapsed>
1

$$$$
CHEMBL1966_lig360
                    3D
 Schrodinger Suite 2021-1.
 37 38  0  0  1  0            999 V2000
   50.1493   42.3321   -3.1481 C   0  0  0  0  0  0
   50.0905   42.7818   -4.5459 C   0  0  0  0  0  0
   49.1462   42.1542   -5.2873 N   0  0  0  0  0  0
   48.3239   41.1275   -4.9479 C   0  0  0  0  0  0
   48.5171   40.6721   -3.6807 N   0  0  0  0  0  0
   49.3417   41.2925   -2.7627 C   0  0  0  0  0  0
   49.2230   40.8100   -1.3826 C   0  0  0  0  0  0
   48.2197   39.8994   -1.1985 O   0  0  0  0  0  0
   49.8742   41.2101   -0.4225 O   0  0  0  0  0  0
   47.4472   40.7185   -5.6990 O   0  0  0  0  0  0
   50.8230   43.6100   -5.0767 O   0  0  0  0  0  0
   51.1661   43.0805   -2.2775 C   0  0  0  0  0  0
   50.6023   44.3517   -1.6058 C   0  0  0  0  0  0
   51.6714   45.2655   -1.0130 C   0  0  0  0  0  0
   52.7376   45.7352   -1.7943 C   0  0  0  0  0  0
   53.7745   46.4965   -1.2307 C   0  0  0  0  0  0
   53.7063   46.8100    0.1360 C   0  0  0  0  0  0
   52.6282   46.3856    0.9071 C   0  0  0  0  0  0
   51.6230   45.6100    0.3381 C   0  0  0  0  0  0
   54.9193   46.9472   -2.0894 C   0  0  0  0  0  0
   55.8932   47.5822   -1.3870 O   0  0  0  0  0  0
   54.9779   46.7412   -3.3049 O   0  0  0  0  0  0
   57.0649   48.0625   -2.0304 C   0  0  0  0  0  0
   49.0370   42.5143   -6.2220 H   0  0  0  0  0  0
   47.9591   39.8759   -3.4039 H   0  0  0  0  0  0
   48.1693   39.6355   -0.2758 H   0  0  0  0  0  0
   52.0254   43.3324   -2.8990 H   0  0  0  0  0  0
   51.5945   42.4121   -1.5355 H   0  0  0  0  0  0
   49.8872   44.0605   -0.8344 H   0  0  0  0  0  0
   50.0230   44.9211   -2.3237 H   0  0  0  0  0  0
   52.7717   45.4776   -2.8445 H   0  0  0  0  0  0
   54.4783   47.3924    0.6195 H   0  0  0  0  0  0
   52.5833   46.6370    1.9535 H   0  0  0  0  0  0
   50.8231   45.2395    0.9624 H   0  0  0  0  0  0
   57.7129   48.5483   -1.3005 H   0  0  0  0  0  0
   56.8179   48.7915   -2.8037 H   0  0  0  0  0  0
   57.6230   47.2450   -2.4896 H   0  0  0  0  0  0
  1  2  1  0  0  0
  1  6  2  0  0  0
  1 12  1  0  0  0
  2  3  1  0  0  0
  2 11  2  0  0  0
  3  4  1  0  0  0
  3 24  1  0  0  0
  4  5  1  0  0  0
  4 10  2  0  0  0
  5  6  1  0  0  0
  5 25  1  0  0  0
  6  7  1  0  0  0
  7  8  1  0  0  0
  7  9  2  0  0  0
  8 26  1  0  0  0
 12 13  1  0  0  0
 12 27  1  0  0  0
 12 28  1  0  0  0
 13 14  1  0  0  0
 13 29  1  0  0  0
 13 30  1  0  0  0
 14 15  2  0  0  0
 14 19  1  0  0  0
 15 16  1  0  0  0
 15 31  1  0  0  0
 16 17  2  0  0  0
 16 20  1  0  0  0
 17 18  1  0  0  0
 17 32  1  0  0  0
 18 19  2  0  0  0
 18 33  1  0  0  0
 19 34  1  0  0  0
 20 21  1  0  0  0
 20 22  2  0  0  0
 21 23  1  0  0  0
 23 35  1  0  0  0
 23 36  1  0  0  0
 23 37  1  0  0  0
M  END
> <s_m_entry_id>
25834

> <s_m_entry_name>
dock_pv.486

> <s_m_Source_Path>
/home/csk/Desktop/cluster/DUD-E-result/pyrd

> <s_m_Source_File>
dock_pv.maegz

> <i_m_Source_File_Index>
486

> <chembl_id>
CHEMBL3898445

> <chembl_pref_name>
None

> <i_lp_mmshare_version>
53161

> <r_lp_tautomer_probability>
1

> <s_lp_Force_Field>
OPLS_2005

> <r_lp_Energy>
12.765076

> <b_lp_Chiralities_Consistent>
1

> <s_lp_Variant>
CHEMBL1966_lig360-1

> <s_i_glide_gridfile>
glide-grid_1d3g

> <i_i_glide_lignum>
410

> <i_i_glide_rotatable_bonds>
7

> <r_i_docking_score>
-8.27044743496668

> <r_i_glide_ligand_efficiency>
-0.359584671085508

> <r_i_glide_ligand_efficiency_sa>
-1.02261097149206

> <r_i_glide_ligand_efficiency_ln>
-1.99986918204612

> <r_i_glide_gscore>
-8.27044743496668

> <r_i_glide_lipo>
-3.71445232855035

> <r_i_glide_hbond>
-0.0661802707406701

> <r_i_glide_metal>
0

> <r_i_glide_rewards>
-2.6454901806283

> <r_i_glide_evdw>
-43.2064361572266

> <r_i_glide_ecoul>
-4.02765035629272

> <r_i_glide_erotb>
0.920144706257877

> <r_i_glide_esite>
0

> <r_i_glide_emodel>
-69.3816796160237

> <r_i_glide_energy>
-47.2340865135193

> <r_i_glide_einternal>
1.43334126472473

> <i_i_glide_confnum>
3

> <i_i_glide_posenum>
376

> <r_i_glide_eff_state_penalty>
0

> <s_user_duplicate_titles>
CHEMBL1966_lig360

> <i_f3d_flags>
0

> <s_m_subgroup_title>
dock_pv

> <s_m_subgroupid>
dock_pv

> <b_m_subgroup_collapsed>
1

$$$$
CHEMBL1966_lig347
                    3D
 Schrodinger Suite 2021-1.
 34 35  0  0  1  0            999 V2000
   50.1286   42.1264   -2.9136 C   0  0  0  0  0  0
   50.0226   42.4948   -4.3334 C   0  0  0  0  0  0
   49.0936   41.7881   -5.0192 N   0  0  0  0  0  0
   48.2506   40.8150   -4.5876 C   0  0  0  0  0  0
   48.4306   40.4767   -3.2812 N   0  0  0  0  0  0
   49.3051   41.1406   -2.4313 C   0  0  0  0  0  0
   49.2230   40.8100   -1.0030 C   0  0  0  0  0  0
   48.4230   39.7375   -0.7086 O   0  0  0  0  0  0
   49.6955   41.4894   -0.0990 O   0  0  0  0  0  0
   47.3404   40.4100   -5.2990 O   0  0  0  0  0  0
   50.6674   43.3601   -4.9195 O   0  0  0  0  0  0
   51.2230   42.8770   -2.1336 C   0  0  0  0  0  0
   50.8313   44.3047   -1.6684 C   0  0  0  0  0  0
   51.8958   45.2100   -0.9828 C   0  0  0  0  0  0
   53.1205   45.6802   -1.5442 C   0  0  0  0  0  0
   53.9905   46.4558   -0.7601 C   0  0  0  0  0  0
   53.6857   46.7849    0.5532 C   0  0  0  0  0  0
   52.4892   46.3516    1.1010 C   0  0  0  0  0  0
   51.6230   45.5725    0.3435 C   0  0  0  0  0  0
   53.6284   45.3941   -2.9528 C   0  0  0  0  0  0
   54.6981   44.5998   -2.8990 F   0  0  0  0  0  0
   52.7238   44.8100   -3.6990 F   0  0  0  0  0  0
   53.9862   46.5289   -3.5572 F   0  0  0  0  0  0
   48.9640   42.0876   -5.9724 H   0  0  0  0  0  0
   47.7775   39.7821   -2.9557 H   0  0  0  0  0  0
   48.2874   39.1247   -1.4299 H   0  0  0  0  0  0
   51.5887   42.2844   -1.2997 H   0  0  0  0  0  0
   52.0601   42.8872   -2.8184 H   0  0  0  0  0  0
   50.3714   44.8100   -2.4990 H   0  0  0  0  0  0
   49.9899   44.1825   -0.9843 H   0  0  0  0  0  0
   54.9285   46.8033   -1.1708 H   0  0  0  0  0  0
   54.3753   47.3713    1.1437 H   0  0  0  0  0  0
   52.2363   46.5971    2.1202 H   0  0  0  0  0  0
   50.7285   45.2100    0.8241 H   0  0  0  0  0  0
  1  2  1  0  0  0
  1  6  2  0  0  0
  1 12  1  0  0  0
  2  3  1  0  0  0
  2 11  2  0  0  0
  3  4  1  0  0  0
  3 24  1  0  0  0
  4  5  1  0  0  0
  4 10  2  0  0  0
  5  6  1  0  0  0
  5 25  1  0  0  0
  6  7  1  0  0  0
  7  8  1  0  0  0
  7  9  2  0  0  0
  8 26  1  0  0  0
 12 13  1  0  0  0
 12 27  1  0  0  0
 12 28  1  0  0  0
 13 14  1  0  0  0
 13 29  1  0  0  0
 13 30  1  0  0  0
 14 15  2  0  0  0
 14 19  1  0  0  0
 15 16  1  0  0  0
 15 20  1  0  0  0
 16 17  2  0  0  0
 16 31  1  0  0  0
 17 18  1  0  0  0
 17 32  1  0  0  0
 18 19  2  0  0  0
 18 33  1  0  0  0
 19 34  1  0  0  0
 20 21  1  0  0  0
 20 22  1  0  0  0
 20 23  1  0  0  0
M  END
> <s_m_entry_id>
25835

> <s_m_entry_name>
dock_pv.487

> <s_m_Source_Path>
/home/csk/Desktop/cluster/DUD-E-result/pyrd

> <s_m_Source_File>
dock_pv.maegz

> <i_m_Source_File_Index>
487

> <chembl_id>
CHEMBL3925433

> <chembl_pref_name>
None

> <i_lp_mmshare_version>
53161

> <r_lp_tautomer_probability>
1

> <s_lp_Force_Field>
OPLS_2005

> <r_lp_Energy>
15.933629

> <b_lp_Chiralities_Consistent>
1

> <s_lp_Variant>
CHEMBL1966_lig347-1

> <s_i_glide_gridfile>
glide-grid_1d3g

> <i_i_glide_lignum>
397

> <i_i_glide_rotatable_bonds>
6

> <r_i_docking_score>
-8.26540800485525

> <r_i_glide_ligand_efficiency>
-0.359365565428489

> <r_i_glide_ligand_efficiency_sa>
-1.02198786414962

> <r_i_glide_ligand_efficiency_ln>
-1.99865060215015

> <r_i_glide_gscore>
-8.26540800485525

> <r_i_glide_lipo>
-3.69483495285539

> <r_i_glide_hbond>
0

> <r_i_glide_metal>
0

> <r_i_glide_rewards>
-3.22794544635876

> <r_i_glide_evdw>
-33.4799880981445

> <r_i_glide_ecoul>
-2.43866348266602

> <r_i_glide_erotb>
0.697171321666036

> <r_i_glide_esite>
0

> <r_i_glide_emodel>
-48.0500746757053

> <r_i_glide_energy>
-35.9186515808105

> <r_i_glide_einternal>
4.86884450912476

> <i_i_glide_confnum>
24

> <i_i_glide_posenum>
25

> <r_i_glide_eff_state_penalty>
0

> <s_user_duplicate_titles>
CHEMBL1966_lig347

> <i_f3d_flags>
0

> <s_m_subgroup_title>
dock_pv

> <s_m_subgroupid>
dock_pv

> <b_m_subgroup_collapsed>
1

$$$$
CHEMBL1966_lig382
                    3D
 Schrodinger Suite 2021-1.
 45 47  0  0  1  0            999 V2000
   48.3996   40.4416   -3.9229 C   0  0  0  0  0  0
   48.5754   41.3433   -5.0649 C   0  0  0  0  0  0
   47.4162   41.6122   -5.6990 N   0  0  0  0  0  0
   46.1690   41.1428   -5.4590 C   0  0  0  0  0  0
   46.0989   40.1959   -4.4897 N   0  0  0  0  0  0
   47.1663   39.8940   -3.6794 C   0  0  0  0  0  0
   46.8622   39.0258   -2.5408 C   0  0  0  0  0  0
   45.6230   39.2100   -2.0326 O   0  0  0  0  0  0
   47.6230   38.2211   -2.0235 O   0  0  0  0  0  0
   45.2230   41.6100   -6.0546 O   0  0  0  0  0  0
   49.6140   41.8678   -5.4588 O   0  0  0  0  0  0
   49.6181   40.2591   -3.0474 C   0  0  0  0  0  0
   49.5063   40.9767   -1.6871 C   0  0  0  0  0  0
   50.0467   42.4029   -1.6368 C   0  0  0  0  0  0
   49.7996   43.1852   -0.5087 C   0  0  0  0  0  0
   50.4342   44.4100   -0.3364 C   0  0  0  0  0  0
   50.8958   42.8905   -2.6327 C   0  0  0  0  0  0
   51.6230   44.0732   -2.4383 C   0  0  0  0  0  0
   51.3858   44.8614   -1.2765 C   0  0  0  0  0  0
   52.1837   46.0104   -1.0467 C   0  0  0  0  0  0
   53.2463   46.3270   -1.8946 C   0  0  0  0  0  0
   53.4832   45.5314   -3.0207 C   0  0  0  0  0  0
   52.6841   44.4245   -3.2990 C   0  0  0  0  0  0
   54.0186   47.4246   -1.5665 O   0  0  0  0  0  0
   55.4018   47.3704   -1.7693 C   0  0  0  0  0  0
   56.0223   46.4106   -0.9686 O   0  0  0  0  0  0
   56.0222   46.7264    0.4180 C   0  0  0  0  0  0
   47.4645   42.3473   -6.3914 H   0  0  0  0  0  0
   45.1742   39.8491   -4.2787 H   0  0  0  0  0  0
   45.5081   38.6513   -1.2614 H   0  0  0  0  0  0
   49.6805   39.2100   -2.8990 H   0  0  0  0  0  0
   50.5483   40.4261   -3.5747 H   0  0  0  0  0  0
   48.4753   40.9176   -1.3526 H   0  0  0  0  0  0
   50.0230   40.4100   -0.9203 H   0  0  0  0  0  0
   49.1663   42.8126    0.2836 H   0  0  0  0  0  0
   50.3116   44.9450    0.5885 H   0  0  0  0  0  0
   51.1515   42.3270   -3.5114 H   0  0  0  0  0  0
   52.0097   46.6065   -0.1629 H   0  0  0  0  0  0
   54.2900   45.7595   -3.6988 H   0  0  0  0  0  0
   52.8925   43.7949   -4.1486 H   0  0  0  0  0  0
   55.6341   47.1803   -2.8170 H   0  0  0  0  0  0
   55.8181   48.3567   -1.5533 H   0  0  0  0  0  0
   56.4531   45.9027    0.9833 H   0  0  0  0  0  0
   56.6295   47.6099    0.6143 H   0  0  0  0  0  0
   55.0150   46.8993    0.8007 H   0  0  0  0  0  0
  1  2  1  0  0  0
  1  6  2  0  0  0
  1 12  1  0  0  0
  2  3  1  0  0  0
  2 11  2  0  0  0
  3  4  1  0  0  0
  3 28  1  0  0  0
  4  5  1  0  0  0
  4 10  2  0  0  0
  5  6  1  0  0  0
  5 29  1  0  0  0
  6  7  1  0  0  0
  7  8  1  0  0  0
  7  9  2  0  0  0
  8 30  1  0  0  0
 12 13  1  0  0  0
 12 31  1  0  0  0
 12 32  1  0  0  0
 13 14  1  0  0  0
 13 33  1  0  0  0
 13 34  1  0  0  0
 14 15  2  0  0  0
 14 17  1  0  0  0
 15 16  1  0  0  0
 15 35  1  0  0  0
 16 19  2  0  0  0
 16 36  1  0  0  0
 17 18  2  0  0  0
 17 37  1  0  0  0
 18 19  1  0  0  0
 18 23  1  0  0  0
 19 20  1  0  0  0
 20 21  2  0  0  0
 20 38  1  0  0  0
 21 22  1  0  0  0
 21 24  1  0  0  0
 22 23  2  0  0  0
 22 39  1  0  0  0
 23 40  1  0  0  0
 24 25  1  0  0  0
 25 26  1  0  0  0
 25 41  1  0  0  0
 25 42  1  0  0  0
 26 27  1  0  0  0
 27 43  1  0  0  0
 27 44  1  0  0  0
 27 45  1  0  0  0
M  END
> <s_m_entry_id>
25836

> <s_m_entry_name>
dock_pv.488

> <s_m_Source_Path>
/home/csk/Desktop/cluster/DUD-E-result/pyrd

> <s_m_Source_File>
dock_pv.maegz

> <i_m_Source_File_Index>
488

> <chembl_id>
CHEMBL3917382

> <chembl_pref_name>
None

> <i_lp_mmshare_version>
53161

> <r_lp_tautomer_probability>
1

> <s_lp_Force_Field>
OPLS_2005

> <r_lp_Energy>
20.099978

> <b_lp_Chiralities_Consistent>
1

> <s_lp_Variant>
CHEMBL1966_lig382-1

> <s_i_glide_gridfile>
glide-grid_1d3g

> <i_i_glide_lignum>
432

> <i_i_glide_rotatable_bonds>
8

> <r_i_docking_score>
-8.26024202725253

> <r_i_glide_ligand_efficiency>
-0.305934889898242

> <r_i_glide_ligand_efficiency_sa>
-0.917804668686414

> <r_i_glide_ligand_efficiency_ln>
-1.92284816321147

> <r_i_glide_gscore>
-8.26024202725253

> <r_i_glide_lipo>
-4.83491525733215

> <r_i_glide_hbond>
-0.320289790603191

> <r_i_glide_metal>
0

> <r_i_glide_rewards>
-2.02949548862437

> <r_i_glide_evdw>
-36.6751098632812

> <r_i_glide_ecoul>
0.364041328430176

> <r_i_glide_erotb>
0.843861589957475

> <r_i_glide_esite>
-0.14025378675076

> <r_i_glide_emodel>
-37.6926060079682

> <r_i_glide_energy>
-36.3110685348511

> <r_i_glide_einternal>
11.3972749710083

> <i_i_glide_confnum>
20

> <i_i_glide_posenum>
164

> <r_i_glide_eff_state_penalty>
0

> <s_user_duplicate_titles>
CHEMBL1966_lig382

> <i_f3d_flags>
0

> <s_m_subgroup_title>
dock_pv

> <s_m_subgroupid>
dock_pv

> <b_m_subgroup_collapsed>
1

$$$$
CHEMBL1966_lig184
                    3D
 Schrodinger Suite 2021-1.
 39 41  0  0  1  0            999 V2000
   51.2230   43.9734   -4.9159 C   0  0  0  0  0  0
   50.8806   43.3745   -3.5670 C   0  0  0  0  0  0
   50.1707   42.1876   -3.6583 C   0  0  0  0  0  0
   50.0230   41.6734   -4.8948 F   0  0  0  0  0  0
   49.6687   41.5382   -2.5285 C   0  0  0  0  0  0
   48.8230   40.4100   -2.6098 N   0  0  0  0  0  0
   47.7636   40.1367   -3.5066 C   0  0  0  0  0  0
   47.7504   40.8102   -4.6783 N   0  0  0  0  0  0
   46.6911   40.8100   -5.4941 C   0  0  0  0  0  0
   45.6230   39.9778   -5.2603 C   0  0  0  0  0  0
   45.6309   39.2100   -4.0990 C   0  0  0  0  0  0
   46.6864   39.3016   -3.1776 C   0  0  0  0  0  0
   46.5808   38.6160   -1.8516 C   0  0  0  0  0  0
   45.6230   38.8100   -1.1113 O   0  0  0  0  0  0
   47.6230   37.7869   -1.5644 O   0  0  0  0  0  0
   50.0059   42.0633   -1.2767 C   0  0  0  0  0  0
   49.6230   41.4343   -0.1398 F   0  0  0  0  0  0
   50.7371   43.2451   -1.1792 C   0  0  0  0  0  0
   51.2230   43.9164   -2.3092 C   0  0  0  0  0  0
   52.2151   45.0323   -2.0990 C   0  0  0  0  0  0
   53.3671   45.1272   -2.8971 C   0  0  0  0  0  0
   54.3800   46.0350   -2.6042 C   0  0  0  0  0  0
   54.2703   46.8428   -1.4788 C   0  0  0  0  0  0
   53.1444   46.7630   -0.6673 C   0  0  0  0  0  0
   52.1037   45.8982   -0.9999 C   0  0  0  0  0  0
   51.6230   44.9710   -4.8990 H   0  0  0  0  0  0
   51.9254   43.2971   -5.4084 H   0  0  0  0  0  0
   50.3332   44.0100   -5.5477 H   0  0  0  0  0  0
   48.8230   39.8397   -1.7764 H   0  0  0  0  0  0
   46.7304   41.4881   -6.3323 H   0  0  0  0  0  0
   44.8177   39.9083   -5.9638 H   0  0  0  0  0  0
   44.8230   38.5239   -3.9345 H   0  0  0  0  0  0
   48.2381   37.6874   -2.3005 H   0  0  0  0  0  0
   50.9834   43.6100   -0.1939 H   0  0  0  0  0  0
   53.5255   44.4325   -3.7035 H   0  0  0  0  0  0
   55.2655   46.0792   -3.2213 H   0  0  0  0  0  0
   55.0684   47.5258   -1.2263 H   0  0  0  0  0  0
   53.0690   47.3731    0.2193 H   0  0  0  0  0  0
   51.2381   45.8572   -0.3547 H   0  0  0  0  0  0
  1  2  1  0  0  0
  1 26  1  0  0  0
  1 27  1  0  0  0
  1 28  1  0  0  0
  2  3  2  0  0  0
  2 19  1  0  0  0
  3  4  1  0  0  0
  3  5  1  0  0  0
  5  6  1  0  0  0
  5 16  2  0  0  0
  6  7  1  0  0  0
  6 29  1  0  0  0
  7  8  2  0  0  0
  7 12  1  0  0  0
  8  9  1  0  0  0
  9 10  2  0  0  0
  9 30  1  0  0  0
 10 11  1  0  0  0
 10 31  1  0  0  0
 11 12  2  0  0  0
 11 32  1  0  0  0
 12 13  1  0  0  0
 13 14  2  0  0  0
 13 15  1  0  0  0
 15 33  1  0  0  0
 16 17  1  0  0  0
 16 18  1  0  0  0
 18 19  2  0  0  0
 18 34  1  0  0  0
 19 20  1  0  0  0
 20 21  2  0  0  0
 20 25  1  0  0  0
 21 22  1  0  0  0
 21 35  1  0  0  0
 22 23  2  0  0  0
 22 36  1  0  0  0
 23 24  1  0  0  0
 23 37  1  0  0  0
 24 25  2  0  0  0
 24 38  1  0  0  0
 25 39  1  0  0  0
M  END
> <s_m_entry_id>
25837

> <s_m_entry_name>
dock_pv.489

> <s_m_Source_Path>
/home/csk/Desktop/cluster/DUD-E-result/pyrd

> <s_m_Source_File>
dock_pv.maegz

> <i_m_Source_File_Index>
489

> <chembl_id>
CHEMBL2263644

> <chembl_pref_name>
None

> <i_lp_mmshare_version>
53161

> <r_lp_tautomer_probability>
1

> <s_lp_Force_Field>
OPLS_2005

> <r_lp_Energy>
27.741859

> <b_lp_Chiralities_Consistent>
1

> <s_lp_Variant>
CHEMBL1966_lig184-1

> <s_i_glide_gridfile>
glide-grid_1d3g

> <i_i_glide_lignum>
229

> <i_i_glide_rotatable_bonds>
5

> <r_i_docking_score>
-8.25925733101176

> <r_i_glide_ligand_efficiency>
-0.330370293240471

> <r_i_glide_ligand_efficiency_sa>
-0.966008596577235

> <r_i_glide_ligand_efficiency_ln>
-1.95769149741917

> <r_i_glide_gscore>
-8.25925733101176

> <r_i_glide_lipo>
-4.72030812407519

> <r_i_glide_hbond>
0

> <r_i_glide_metal>
0

> <r_i_glide_rewards>
-2.65226563677549

> <r_i_glide_evdw>
-23.3832340240479

> <r_i_glide_ecoul>
-2.47665786743164

> <r_i_glide_erotb>
0.65397681115606

> <r_i_glide_esite>
0

> <r_i_glide_emodel>
-20.2552015804612

> <r_i_glide_energy>
-25.8598918914795

> <r_i_glide_einternal>
12.8937969207764

> <i_i_glide_confnum>
15

> <i_i_glide_posenum>
263

> <r_i_glide_eff_state_penalty>
0

> <s_user_duplicate_titles>
CHEMBL1966_lig184

> <i_f3d_flags>
0

> <s_m_subgroup_title>
dock_pv

> <s_m_subgroupid>
dock_pv

> <b_m_subgroup_collapsed>
1

$$$$
CHEMBL1966_lig239
                    3D
 Schrodinger Suite 2021-1.
 42 44  0  0  1  0            999 V2000
   53.2204   46.3428   -1.3484 C   0  0  0  0  0  0
   53.8785   46.5809   -0.1496 C   0  0  0  0  0  0
   52.0141   45.6680   -1.3351 C   0  0  0  0  0  0
   50.4397   44.1821   -0.0988 N   0  0  0  0  0  0
   51.4390   45.2016   -0.1526 C   0  0  0  0  0  0
   49.2368   41.2101   -1.6961 C   0  0  0  0  0  0
   50.8234   43.0487   -2.4996 S   0  0  0  0  0  0
   51.0190   43.3706   -6.8989 C   0  0  0  0  0  0
   49.7781   41.7243   -2.8801 C   0  0  0  0  0  0
   50.0229   42.4245   -5.0135 O   0  0  0  0  0  0
   49.0480   40.4100   -4.7468 O   0  0  0  0  0  0
   53.2412   46.2866    1.0587 C   0  0  0  0  0  0
   49.6230   41.9278   -0.6163 N   0  0  0  0  0  0
   49.5697   41.4220   -4.2844 C   0  0  0  0  0  0
   52.0229   45.6102    1.0501 C   0  0  0  0  0  0
   49.9487   42.4311   -6.3825 C   0  0  0  0  0  0
   50.2487   43.0598   -0.9116 C   0  0  0  0  0  0
   48.2052   40.0846   -1.6235 C   0  0  0  0  0  0
   48.0848   39.2725   -0.4993 C   0  0  0  0  0  0
   47.2230   38.1885   -0.5057 C   0  0  0  0  0  0
   46.3377   38.0106   -1.5535 C   0  0  0  0  0  0
   46.3419   38.8721   -2.6325 C   0  0  0  0  0  0
   47.2697   39.8979   -2.6589 C   0  0  0  0  0  0
   55.3006   47.1092   -0.1755 C   0  0  0  0  0  0
   55.9036   46.9118   -1.3496 F   0  0  0  0  0  0
   55.2267   48.4061    0.0480 F   0  0  0  0  0  0
   56.0431   46.5362    0.7662 F   0  0  0  0  0  0
   53.6712   46.5999   -2.2973 H   0  0  0  0  0  0
   51.6238   45.4172   -2.2873 H   0  0  0  0  0  0
   50.0215   44.1469    0.8188 H   0  0  0  0  0  0
   51.0781   43.3325   -7.9817 H   0  0  0  0  0  0
   50.8178   44.4013   -6.6095 H   0  0  0  0  0  0
   51.9968   43.1069   -6.4993 H   0  0  0  0  0  0
   53.7280   46.4916    1.9988 H   0  0  0  0  0  0
   51.6237   45.2475    1.9813 H   0  0  0  0  0  0
   50.0226   41.4407   -6.8366 H   0  0  0  0  0  0
   48.9450   42.8331   -6.4989 H   0  0  0  0  0  0
   48.7490   39.4117    0.3413 H   0  0  0  0  0  0
   47.2307   37.4840    0.3011 H   0  0  0  0  0  0
   45.6229   37.2073   -1.5176 H   0  0  0  0  0  0
   45.6249   38.7595   -3.4323 H   0  0  0  0  0  0
   47.1707   40.5970   -3.4684 H   0  0  0  0  0  0
  1  2  2  0  0  0
  1  3  1  0  0  0
  1 28  1  0  0  0
  2 12  1  0  0  0
  2 24  1  0  0  0
  3  5  2  0  0  0
  3 29  1  0  0  0
  4 17  1  0  0  0
  4  5  1  0  0  0
  4 30  1  0  0  0
  5 15  1  0  0  0
  6  9  2  0  0  0
  6 13  1  0  0  0
  6 18  1  0  0  0
  7 17  1  0  0  0
  7  9  1  0  0  0
  8 16  1  0  0  0
  8 31  1  0  0  0
  8 32  1  0  0  0
  8 33  1  0  0  0
  9 14  1  0  0  0
 10 14  1  0  0  0
 10 16  1  0  0  0
 11 14  2  0  0  0
 12 15  2  0  0  0
 12 34  1  0  0  0
 13 17  2  0  0  0
 15 35  1  0  0  0
 16 36  1  0  0  0
 16 37  1  0  0  0
 18 19  1  0  0  0
 18 23  2  0  0  0
 19 20  2  0  0  0
 19 38  1  0  0  0
 20 21  1  0  0  0
 20 39  1  0  0  0
 21 22  2  0  0  0
 21 40  1  0  0  0
 22 23  1  0  0  0
 22 41  1  0  0  0
 23 42  1  0  0  0
 24 25  1  0  0  0
 24 26  1  0  0  0
 24 27  1  0  0  0
M  END
> <s_m_entry_id>
25838

> <s_m_entry_name>
dock_pv.490

> <s_m_Source_Path>
/home/csk/Desktop/cluster/DUD-E-result/pyrd

> <s_m_Source_File>
dock_pv.maegz

> <i_m_Source_File_Index>
490

> <chembl_id>
CHEMBL3410600

> <chembl_pref_name>
None

> <i_lp_mmshare_version>
53161

> <r_lp_tautomer_probability>
1

> <s_lp_Force_Field>
OPLS_2005

> <r_lp_Energy>
16.741564

> <b_lp_Chiralities_Consistent>
1

> <s_lp_Variant>
CHEMBL1966_lig239-1

> <s_i_glide_gridfile>
glide-grid_1d3g

> <i_i_glide_lignum>
285

> <i_i_glide_rotatable_bonds>
7

> <r_i_docking_score>
-8.2379871026501

> <r_i_glide_ligand_efficiency>
-0.305110633431485

> <r_i_glide_ligand_efficiency_sa>
-0.91533189928886

> <r_i_glide_ligand_efficiency_ln>
-1.91766758366513

> <r_i_glide_gscore>
-8.2379871026501

> <r_i_glide_lipo>
-5.14173718622759

> <r_i_glide_hbond>
0

> <r_i_glide_metal>
0

> <r_i_glide_rewards>
-2.8644126848694

> <r_i_glide_evdw>
-14.2181692123413

> <r_i_glide_ecoul>
-1.03293752670288

> <r_i_glide_erotb>
0.634011858069398

> <r_i_glide_esite>
0

> <r_i_glide_emodel>
-29.1473841306857

> <r_i_glide_energy>
-15.2511067390442

> <r_i_glide_einternal>
16.7303237915039

> <i_i_glide_confnum>
115

> <i_i_glide_posenum>
156

> <r_i_glide_eff_state_penalty>
0

> <s_user_duplicate_titles>
CHEMBL1966_lig239

> <i_f3d_flags>
0

> <s_m_subgroup_title>
dock_pv

> <s_m_subgroupid>
dock_pv

> <b_m_subgroup_collapsed>
1

$$$$
CHEMBL1966_lig173
                    3D
 Schrodinger Suite 2021-1.
 31 33  0  0  1  0            999 V2000
   47.8774   40.0820   -4.0989 C   0  0  0  0  0  0
   47.8876   39.7803   -2.7353 C   0  0  0  0  0  0
   48.6838   40.4085   -1.8278 N   0  0  0  0  0  0
   48.7609   41.0521   -4.5510 C   0  0  0  0  0  0
   49.5550   41.6909   -3.6382 N   0  0  0  0  0  0
   49.4929   41.3607   -2.2898 C   0  0  0  0  0  0
   50.2749   42.2059   -1.5982 N   0  0  0  0  0  0
   50.7350   42.9937   -2.5471 C   0  0  0  0  0  0
   50.4021   42.7282   -3.8010 N   0  0  0  0  0  0
   51.6230   44.4100   -2.0818 S   0  0  0  0  0  0
   52.8349   44.5588   -3.4368 C   0  0  0  0  0  0
   54.1416   45.2373   -3.0237 C   0  0  0  0  0  0
   55.3919   44.6114   -3.1770 C   0  0  0  0  0  0
   56.5683   45.3062   -2.8988 C   0  0  0  0  0  0
   56.5136   46.6268   -2.4614 C   0  0  0  0  0  0
   55.2816   47.2544   -2.3046 C   0  0  0  0  0  0
   54.1027   46.5678   -2.5906 C   0  0  0  0  0  0
   48.8573   41.4752   -5.8472 O   0  0  0  0  0  0
   46.9733   38.7195   -2.1609 C   0  0  0  0  0  0
   55.5330   42.9748   -3.6990 Cl  0  0  0  0  0  0
   55.2229   48.8888   -1.7740 Cl  0  0  0  0  0  0
   47.1847   39.6103   -4.7721 H   0  0  0  0  0  0
   52.4227   45.2079   -4.1966 H   0  0  0  0  0  0
   52.9915   43.5877   -3.9052 H   0  0  0  0  0  0
   57.5268   44.8204   -3.0155 H   0  0  0  0  0  0
   57.4257   47.1637   -2.2454 H   0  0  0  0  0  0
   53.1549   47.0772   -2.4905 H   0  0  0  0  0  0
   49.4330   42.2449   -5.9004 H   0  0  0  0  0  0
   46.2157   38.4093   -2.8804 H   0  0  0  0  0  0
   47.5589   37.8448   -1.8759 H   0  0  0  0  0  0
   46.4610   39.0913   -1.2728 H   0  0  0  0  0  0
  1  2  1  0  0  0
  1  4  2  0  0  0
  1 22  1  0  0  0
  2  3  2  0  0  0
  2 19  1  0  0  0
  3  6  1  0  0  0
  4  5  1  0  0  0
  4 18  1  0  0  0
  5  6  1  0  0  0
  5  9  1  0  0  0
  6  7  2  0  0  0
  7  8  1  0  0  0
  8  9  2  0  0  0
  8 10  1  0  0  0
 10 11  1  0  0  0
 11 12  1  0  0  0
 11 23  1  0  0  0
 11 24  1  0  0  0
 12 13  2  0  0  0
 12 17  1  0  0  0
 13 14  1  0  0  0
 13 20  1  0  0  0
 14 15  2  0  0  0
 14 25  1  0  0  0
 15 16  1  0  0  0
 15 26  1  0  0  0
 16 17  2  0  0  0
 16 21  1  0  0  0
 17 27  1  0  0  0
 18 28  1  0  0  0
 19 29  1  0  0  0
 19 30  1  0  0  0
 19 31  1  0  0  0
M  END
> <s_m_entry_id>
25839

> <s_m_entry_name>
dock_pv.491

> <s_m_Source_Path>
/home/csk/Desktop/cluster/DUD-E-result/pyrd

> <s_m_Source_File>
dock_pv.maegz

> <i_m_Source_File_Index>
491

> <chembl_id>
CHEMBL2177858

> <chembl_pref_name>
None

> <i_lp_mmshare_version>
53161

> <r_lp_tautomer_probability>
1

> <s_lp_Force_Field>
OPLS_2005

> <r_lp_Energy>
11.649829

> <b_lp_Chiralities_Consistent>
1

> <s_lp_Variant>
CHEMBL1966_lig173-1

> <s_i_glide_gridfile>
glide-grid_1d3g

> <i_i_glide_lignum>
218

> <i_i_glide_rotatable_bonds>
4

> <r_i_docking_score>
-8.23777058244168

> <r_i_glide_ligand_efficiency>
-0.39227478964008

> <r_i_glide_ligand_efficiency_sa>
-1.08225639982452

> <r_i_glide_ligand_efficiency_ln>
-2.03677213052588

> <r_i_glide_gscore>
-8.23777058244168

> <r_i_glide_lipo>
-3.6587464445646

> <r_i_glide_hbond>
-0.00562315837616886

> <r_i_glide_metal>
0

> <r_i_glide_rewards>
-3.01595083333333

> <r_i_glide_evdw>
-34.5461235046387

> <r_i_glide_ecoul>
-2.12235832214355

> <r_i_glide_erotb>
0.488209777385884

> <r_i_glide_esite>
0

> <r_i_glide_emodel>
-47.82484561425

> <r_i_glide_energy>
-36.6684818267822

> <r_i_glide_einternal>
5.56263875961304

> <i_i_glide_confnum>
9

> <i_i_glide_posenum>
328

> <r_i_glide_eff_state_penalty>
0

> <s_user_duplicate_titles>
CHEMBL1966_lig173

> <i_f3d_flags>
0

> <s_m_subgroup_title>
dock_pv

> <s_m_subgroupid>
dock_pv

> <b_m_subgroup_collapsed>
1

$$$$
CHEMBL1966_lig652
                    3D
 Schrodinger Suite 2021-1.
 31 33  0  0  1  0            999 V2000
   47.0904   38.9692   -1.3775 C   0  0  0  0  0  0
   46.4452   38.8290   -2.5981 C   0  0  0  0  0  0
   46.8645   39.5730   -3.6983 C   0  0  0  0  0  0
   48.1414   39.8704   -1.2613 C   0  0  0  0  0  0
   48.6166   40.5906   -2.3747 C   0  0  0  0  0  0
   47.9829   40.4101   -3.6254 C   0  0  0  0  0  0
   48.4231   41.1382   -4.8638 C   0  0  0  0  0  0
   49.4982   42.1139   -4.6040 C   0  0  0  0  0  0
   50.1022   42.3336   -3.4021 C   0  0  0  0  0  0
   49.7270   41.5877   -2.1703 C   0  0  0  0  0  0
   49.8369   42.8102   -5.7331 O   0  0  0  0  0  0
   51.1763   43.2113   -3.3889 N   0  0  0  0  0  0
   51.6232   44.2015   -2.4990 C   0  0  0  0  0  0
   47.9098   40.9338   -5.9702 O   0  0  0  0  0  0
   50.2264   41.7478   -1.0539 O   0  0  0  0  0  0
   52.8225   44.8254   -2.8853 C   0  0  0  0  0  0
   53.3786   45.8302   -2.0995 C   0  0  0  0  0  0
   52.7434   46.2096   -0.9221 C   0  0  0  0  0  0
   51.5475   45.6099   -0.5368 C   0  0  0  0  0  0
   50.9712   44.6169   -1.3297 C   0  0  0  0  0  0
   46.7647   38.4074   -0.5145 H   0  0  0  0  0  0
   45.6231   38.1413   -2.6961 H   0  0  0  0  0  0
   46.3236   39.4539   -4.6262 H   0  0  0  0  0  0
   48.5992   39.9865   -0.2880 H   0  0  0  0  0  0
   49.1854   42.6359   -6.4186 H   0  0  0  0  0  0
   51.6535   43.2975   -4.2746 H   0  0  0  0  0  0
   53.3362   44.5263   -3.7847 H   0  0  0  0  0  0
   54.3046   46.3014   -2.3952 H   0  0  0  0  0  0
   53.1828   46.9758   -0.2997 H   0  0  0  0  0  0
   51.0791   45.9095    0.3851 H   0  0  0  0  0  0
   50.0277   44.1910   -1.0285 H   0  0  0  0  0  0
  1  2  2  0  0  0
  1  4  1  0  0  0
  1 21  1  0  0  0
  2  3  1  0  0  0
  2 22  1  0  0  0
  3  6  2  0  0  0
  3 23  1  0  0  0
  4  5  2  0  0  0
  4 24  1  0  0  0
  5  6  1  0  0  0
  5 10  1  0  0  0
  6  7  1  0  0  0
  7  8  1  0  0  0
  7 14  2  0  0  0
  8  9  2  0  0  0
  8 11  1  0  0  0
  9 10  1  0  0  0
  9 12  1  0  0  0
 10 15  2  0  0  0
 11 25  1  0  0  0
 12 13  1  0  0  0
 12 26  1  0  0  0
 13 16  2  0  0  0
 13 20  1  0  0  0
 16 17  1  0  0  0
 16 27  1  0  0  0
 17 18  2  0  0  0
 17 28  1  0  0  0
 18 19  1  0  0  0
 18 29  1  0  0  0
 19 20  2  0  0  0
 19 30  1  0  0  0
 20 31  1  0  0  0
M  END
> <s_m_entry_id>
25840

> <s_m_entry_name>
dock_pv.492

> <s_m_Source_Path>
/home/csk/Desktop/cluster/DUD-E-result/pyrd

> <s_m_Source_File>
dock_pv.maegz

> <i_m_Source_File_Index>
492

> <chembl_id>
CHEMBL2408377

> <chembl_pref_name>
None

> <i_lp_mmshare_version>
53161

> <r_lp_tautomer_probability>
1

> <s_lp_Force_Field>
OPLS_2005

> <r_lp_Energy>
32.210766

> <b_lp_Chiralities_Consistent>
1

> <s_lp_Variant>
CHEMBL1966_lig652-1

> <s_i_glide_gridfile>
glide-grid_1d3g

> <i_i_glide_lignum>
709

> <i_i_glide_rotatable_bonds>
3

> <r_i_docking_score>
-8.23229430371985

> <r_i_glide_ligand_efficiency>
-0.411614715185992

> <r_i_glide_ligand_efficiency_sa>
-1.11729423303485

> <r_i_glide_ligand_efficiency_ln>
-2.06027174498297

> <r_i_glide_gscore>
-8.23229430371985

> <r_i_glide_lipo>
-4.02604872315944

> <r_i_glide_hbond>
-0.186299866406706

> <r_i_glide_metal>
0

> <r_i_glide_rewards>
-2.70682789750223

> <r_i_glide_evdw>
-31.0406398773193

> <r_i_glide_ecoul>
-1.77872371673584

> <r_i_glide_erotb>
0.505722734724871

> <r_i_glide_esite>
0

> <r_i_glide_emodel>
-45.8104016359091

> <r_i_glide_energy>
-32.8193635940552

> <r_i_glide_einternal>
6.51483964920044

> <i_i_glide_confnum>
4

> <i_i_glide_posenum>
272

> <r_i_glide_eff_state_penalty>
0

> <s_user_duplicate_titles>
CHEMBL1966_lig652

> <i_f3d_flags>
0

> <s_m_subgroup_title>
dock_pv

> <s_m_subgroupid>
dock_pv

> <b_m_subgroup_collapsed>
1

$$$$
CHEMBL1966_lig265
                    3D
 Schrodinger Suite 2021-1.
 31 32  0  0  1  0            999 V2000
   48.4148   40.3123   -2.4677 C   0  0  0  0  0  0
   47.3894   39.6100   -3.3442 C   0  0  0  0  0  0
   50.4073   42.2220   -2.0519 S   0  0  0  0  0  0
   50.9159   43.1120   -3.4543 C   0  0  0  0  0  0
   50.2644   42.8100   -4.5394 N   0  0  0  0  0  0
   49.3636   41.8615   -4.3608 C   0  0  0  0  0  0
   49.2697   41.3481   -3.0551 C   0  0  0  0  0  0
   48.5991   41.5021   -5.6158 C   0  0  0  0  0  0
   51.9554   44.0100   -3.4696 N   0  0  0  0  0  0
   52.4230   44.8694   -2.4617 C   0  0  0  0  0  0
   53.6733   45.4606   -2.6379 C   0  0  0  0  0  0
   54.2427   46.2521   -1.6340 C   0  0  0  0  0  0
   53.5392   46.4376   -0.4326 C   0  0  0  0  0  0
   52.2267   45.9908   -0.3141 C   0  0  0  0  0  0
   51.6686   45.2100   -1.3235 C   0  0  0  0  0  0
   48.4230   40.0100   -1.2737 O   0  0  0  0  0  0
   54.3629   47.2100    1.1010 Br  0  0  0  0  0  0
   55.6218   46.8700   -1.8370 C   0  0  0  0  0  0
   56.4230   46.4100   -0.8878 F   0  0  0  0  0  0
   56.1619   46.5688   -3.0199 F   0  0  0  0  0  0
   55.5457   48.1978   -1.7386 F   0  0  0  0  0  0
   46.7410   40.3357   -3.8342 H   0  0  0  0  0  0
   46.7667   38.9420   -2.7487 H   0  0  0  0  0  0
   47.9034   39.0166   -4.0969 H   0  0  0  0  0  0
   48.2468   40.4753   -5.6384 H   0  0  0  0  0  0
   47.7337   42.1537   -5.7466 H   0  0  0  0  0  0
   49.2249   41.6129   -6.4990 H   0  0  0  0  0  0
   52.4446   44.1423   -4.3419 H   0  0  0  0  0  0
   54.2273   45.2641   -3.5437 H   0  0  0  0  0  0
   51.6687   46.1792    0.5917 H   0  0  0  0  0  0
   50.6600   44.8490   -1.1958 H   0  0  0  0  0  0
  1  2  1  0  0  0
  1  7  1  0  0  0
  1 16  2  0  0  0
  2 22  1  0  0  0
  2 23  1  0  0  0
  2 24  1  0  0  0
  3  4  1  0  0  0
  3  7  1  0  0  0
  4  5  2  0  0  0
  4  9  1  0  0  0
  5  6  1  0  0  0
  6  7  2  0  0  0
  6  8  1  0  0  0
  8 25  1  0  0  0
  8 26  1  0  0  0
  8 27  1  0  0  0
  9 10  1  0  0  0
  9 28  1  0  0  0
 10 11  1  0  0  0
 10 15  2  0  0  0
 11 12  2  0  0  0
 11 29  1  0  0  0
 12 13  1  0  0  0
 12 18  1  0  0  0
 13 14  2  0  0  0
 13 17  1  0  0  0
 14 15  1  0  0  0
 14 30  1  0  0  0
 15 31  1  0  0  0
 18 19  1  0  0  0
 18 20  1  0  0  0
 18 21  1  0  0  0
M  END
> <s_m_entry_id>
25841

> <s_m_entry_name>
dock_pv.493

> <s_m_Source_Path>
/home/csk/Desktop/cluster/DUD-E-result/pyrd

> <s_m_Source_File>
dock_pv.maegz

> <i_m_Source_File_Index>
493

> <chembl_id>
CHEMBL3410575

> <chembl_pref_name>
None

> <i_lp_mmshare_version>
53161

> <r_lp_tautomer_probability>
0.99995

> <s_lp_Force_Field>
OPLS_2005

> <r_lp_Energy>
8.495451

> <b_lp_Chiralities_Consistent>
1

> <s_lp_Variant>
CHEMBL1966_lig265-1

> <s_i_glide_gridfile>
glide-grid_1d3g

> <i_i_glide_lignum>
311

> <i_i_glide_rotatable_bonds>
4

> <r_i_docking_score>
-8.23004651532157

> <r_i_glide_ligand_efficiency>
-0.391906976920075

> <r_i_glide_ligand_efficiency_sa>
-1.08124163241994

> <r_i_glide_ligand_efficiency_ln>
-2.03486237053838

> <r_i_glide_gscore>
-8.23004651532157

> <r_i_glide_lipo>
-3.81359424175875

> <r_i_glide_hbond>
0

> <r_i_glide_metal>
0

> <r_i_glide_rewards>
-2.87739534807286

> <r_i_glide_evdw>
-36.7291679382324

> <r_i_glide_ecoul>
0.184936627745628

> <r_i_glide_erotb>
0.269660977259814

> <r_i_glide_esite>
0

> <r_i_glide_emodel>
-48.3178494211637

> <r_i_glide_energy>
-36.5442313104868

> <r_i_glide_einternal>
4.73013353347778

> <i_i_glide_confnum>
5

> <i_i_glide_posenum>
381

> <r_i_glide_eff_state_penalty>
0

> <s_user_duplicate_titles>
CHEMBL1966_lig265

> <i_f3d_flags>
0

> <s_m_subgroup_title>
dock_pv

> <s_m_subgroupid>
dock_pv

> <b_m_subgroup_collapsed>
1

$$$$
CHEMBL1966_lig114
                    3D
 Schrodinger Suite 2021-1.
 35 36  0  0  1  0            999 V2000
   51.1081   44.5543   -1.1024 C   0  0  0  0  0  0
   52.0567   44.8115   -2.0990 C   0  0  0  0  0  0
   52.0231   44.0100   -3.2551 C   0  0  0  0  0  0
   51.0965   42.9829   -3.3892 C   0  0  0  0  0  0
   50.2111   42.6771   -2.3471 C   0  0  0  0  0  0
   50.2321   43.4783   -1.1907 C   0  0  0  0  0  0
   53.1261   45.8527   -1.8902 C   0  0  0  0  0  0
   49.3107   41.5956   -2.4019 N   0  0  0  0  0  0
   48.8230   40.9238   -3.4694 C   0  0  0  0  0  0
   47.8165   39.7975   -3.1605 C   0  0  1  0  0  0
   49.1234   41.1651   -4.6391 O   0  0  0  0  0  0
   47.6230   39.4666   -1.7382 C   0  0  0  0  0  0
   46.4699   39.7531   -3.9137 C   0  0  0  0  0  0
   46.2215   40.6114   -5.1555 C   0  0  0  0  0  0
   45.6230   38.9242   -3.5914 O   0  0  0  0  0  0
   47.4778   39.2100   -0.6212 N   0  0  0  0  0  0
   53.8355   46.4100   -2.9674 C   0  0  0  0  0  0
   54.8824   47.3106   -2.7595 C   0  0  0  0  0  0
   55.2405   47.6828   -1.4674 C   0  0  0  0  0  0
   54.5469   47.1580   -0.3831 C   0  0  0  0  0  0
   53.5004   46.2622   -0.5955 C   0  0  0  0  0  0
   55.7553   47.9519   -4.0990 Cl  0  0  0  0  0  0
   49.2230   43.1830    0.1860 Cl  0  0  0  0  0  0
   51.0750   45.1538   -0.2058 H   0  0  0  0  0  0
   52.7342   44.1546   -4.0532 H   0  0  0  0  0  0
   51.1267   42.4100   -4.2983 H   0  0  0  0  0  0
   48.9307   41.3401   -1.5015 H   0  0  0  0  0  0
   46.1349   41.6652   -4.8990 H   0  0  0  0  0  0
   45.2856   40.3146   -5.6294 H   0  0  0  0  0  0
   47.0253   40.4804   -5.8771 H   0  0  0  0  0  0
   48.3148   38.9174   -3.5315 H   0  0  0  0  0  0
   53.5869   46.1483   -3.9846 H   0  0  0  0  0  0
   56.0557   48.3733   -1.3054 H   0  0  0  0  0  0
   54.8234   47.4394    0.6230 H   0  0  0  0  0  0
   53.0131   45.8617    0.2797 H   0  0  0  0  0  0
  1  6  1  0  0  0
  1  2  2  0  0  0
  1 24  1  0  0  0
  2  7  1  0  0  0
  2  3  1  0  0  0
  3  4  2  0  0  0
  3 25  1  0  0  0
  4  5  1  0  0  0
  4 26  1  0  0  0
  5  6  2  0  0  0
  5  8  1  0  0  0
  6 23  1  0  0  0
  7 17  2  0  0  0
  7 21  1  0  0  0
  8  9  1  0  0  0
  8 27  1  0  0  0
  9 11  2  0  0  0
  9 10  1  0  0  0
 10 12  1  0  0  0
 10 31  1  0  0  0
 10 13  1  0  0  0
 12 16  3  0  0  0
 13 15  2  0  0  0
 13 14  1  0  0  0
 14 28  1  0  0  0
 14 29  1  0  0  0
 14 30  1  0  0  0
 17 18  1  0  0  0
 17 32  1  0  0  0
 18 19  2  0  0  0
 18 22  1  0  0  0
 19 20  1  0  0  0
 19 33  1  0  0  0
 20 21  2  0  0  0
 20 34  1  0  0  0
 21 35  1  0  0  0
M  END
> <s_m_entry_id>
25842

> <s_m_entry_name>
dock_pv.494

> <s_m_Source_Path>
/home/csk/Desktop/cluster/DUD-E-result/pyrd

> <s_m_Source_File>
dock_pv.maegz

> <i_m_Source_File_Index>
494

> <chembl_id>
CHEMBL484595

> <chembl_pref_name>
None

> <i_lp_mmshare_version>
53161

> <r_lp_tautomer_probability>
0.995394628248396

> <s_lp_Force_Field>
OPLS_2005

> <r_lp_Energy>
21.832823

> <b_lp_Chiralities_Consistent>
1

> <s_lp_Variant>
CHEMBL1966_lig114-2

> <s_i_glide_gridfile>
glide-grid_1d3g

> <i_i_glide_lignum>
130

> <i_i_glide_rotatable_bonds>
5

> <r_i_docking_score>
-8.22780811703583

> <r_i_glide_ligand_efficiency>
-0.35773078769721

> <r_i_glide_ligand_efficiency_sa>
-1.0173387737451

> <r_i_glide_ligand_efficiency_ln>
-1.98955860833848

> <r_i_glide_gscore>
-8.22780811703583

> <r_i_glide_lipo>
-3.97451397308418

> <r_i_glide_hbond>
0

> <r_i_glide_metal>
0

> <r_i_glide_rewards>
-3.13044334663875

> <r_i_glide_evdw>
-32.6711959838867

> <r_i_glide_ecoul>
-0.803168416023254

> <r_i_glide_erotb>
0.631184264284931

> <r_i_glide_esite>
0

> <r_i_glide_emodel>
-35.4585739341056

> <r_i_glide_energy>
-33.47436439991

> <r_i_glide_einternal>
3.40286803245544

> <i_i_glide_confnum>
36

> <i_i_glide_posenum>
112

> <r_i_glide_eff_state_penalty>
0

> <s_user_duplicate_titles>
CHEMBL1966_lig114

> <i_f3d_flags>
0

> <s_m_subgroup_title>
dock_pv

> <s_m_subgroupid>
dock_pv

> <b_m_subgroup_collapsed>
1

$$$$
CHEMBL1966_lig231
                    3D
 Schrodinger Suite 2021-1.
 42 45  0  0  1  0            999 V2000
   46.7580   40.4101   -4.8971 C   0  0  0  0  0  0
   46.7803   39.6624   -3.7206 C   0  0  0  0  0  0
   47.8791   41.2092   -5.1822 C   0  0  0  0  0  0
   50.0228   42.1479   -4.5415 N   0  0  0  0  0  0
   48.9720   41.2491   -4.2945 C   0  0  0  0  0  0
   52.1773   44.4100   -2.8992 C   0  0  0  0  0  0
   50.1623   43.0998   -2.0041 S   0  0  0  0  0  0
   54.0808   46.8099    0.8170 C   0  0  0  0  0  0
   51.2810   44.4030   -1.8000 C   0  0  0  0  0  0
   52.2273   45.9788   -0.4026 O   0  0  0  0  0  0
   50.4252   44.8096    0.3528 O   0  0  0  0  0  0
   47.8605   39.6593   -2.8899 C   0  0  0  0  0  0
   51.7918   43.6101   -3.8944 N   0  0  0  0  0  0
   51.2247   45.1004   -0.5283 C   0  0  0  0  0  0
   48.9904   40.4102   -3.1657 C   0  0  0  0  0  0
   52.5749   46.5362    0.8531 C   0  0  0  0  0  0
   50.7107   42.9189   -3.6259 C   0  0  0  0  0  0
   53.4876   45.1499   -3.0256 C   0  0  0  0  0  0
   53.5732   46.5409   -2.9000 C   0  0  0  0  0  0
   54.8044   47.1879   -2.9743 C   0  0  0  0  0  0
   55.9640   46.4421   -3.1675 C   0  0  0  0  0  0
   55.8998   45.0580   -3.2984 C   0  0  0  0  0  0
   54.6637   44.4187   -3.2379 C   0  0  0  0  0  0
   45.8470   38.8149   -3.2208 O   0  0  0  0  0  0
   46.2575   38.5591   -1.9038 C   0  0  0  0  0  0
   47.6232   38.8389   -1.8346 O   0  0  0  0  0  0
   45.8977   40.4040   -5.5492 H   0  0  0  0  0  0
   47.8637   41.8547   -6.0486 H   0  0  0  0  0  0
   50.1935   42.3103   -5.5227 H   0  0  0  0  0  0
   54.4238   47.2102    1.7690 H   0  0  0  0  0  0
   54.6426   45.8948    0.6263 H   0  0  0  0  0  0
   54.3366   47.5285    0.0382 H   0  0  0  0  0  0
   49.8413   40.3784   -2.5030 H   0  0  0  0  0  0
   52.0120   47.4542    1.0217 H   0  0  0  0  0  0
   52.3510   45.8539    1.6757 H   0  0  0  0  0  0
   52.6784   47.1239   -2.7368 H   0  0  0  0  0  0
   54.8587   48.2619   -2.8749 H   0  0  0  0  0  0
   56.9215   46.9402   -3.2169 H   0  0  0  0  0  0
   56.8030   44.4834   -3.4456 H   0  0  0  0  0  0
   54.6207   43.3422   -3.3278 H   0  0  0  0  0  0
   45.7143   39.2108   -1.2154 H   0  0  0  0  0  0
   46.0489   37.5315   -1.6132 H   0  0  0  0  0  0
  1  2  2  0  0  0
  1  3  1  0  0  0
  1 27  1  0  0  0
  2 24  1  0  0  0
  2 12  1  0  0  0
  3  5  2  0  0  0
  3 28  1  0  0  0
  4 17  1  0  0  0
  4  5  1  0  0  0
  4 29  1  0  0  0
  5 15  1  0  0  0
  6  9  2  0  0  0
  6 13  1  0  0  0
  6 18  1  0  0  0
  7 17  1  0  0  0
  7  9  1  0  0  0
  8 16  1  0  0  0
  8 30  1  0  0  0
  8 31  1  0  0  0
  8 32  1  0  0  0
  9 14  1  0  0  0
 10 14  1  0  0  0
 10 16  1  0  0  0
 11 14  2  0  0  0
 12 15  2  0  0  0
 12 26  1  0  0  0
 13 17  2  0  0  0
 15 33  1  0  0  0
 16 34  1  0  0  0
 16 35  1  0  0  0
 18 19  1  0  0  0
 18 23  2  0  0  0
 19 20  2  0  0  0
 19 36  1  0  0  0
 20 21  1  0  0  0
 20 37  1  0  0  0
 21 22  2  0  0  0
 21 38  1  0  0  0
 22 23  1  0  0  0
 22 39  1  0  0  0
 23 40  1  0  0  0
 24 25  1  0  0  0
 25 26  1  0  0  0
 25 41  1  0  0  0
 25 42  1  0  0  0
M  END
> <s_m_entry_id>
25843

> <s_m_entry_name>
dock_pv.495

> <s_m_Source_Path>
/home/csk/Desktop/cluster/DUD-E-result/pyrd

> <s_m_Source_File>
dock_pv.maegz

> <i_m_Source_File_Index>
495

> <chembl_id>
CHEMBL3410608

> <chembl_pref_name>
None

> <i_lp_mmshare_version>
53161

> <r_lp_tautomer_probability>
1

> <s_lp_Force_Field>
OPLS_2005

> <r_lp_Energy>
27.897242

> <b_lp_Chiralities_Consistent>
1

> <s_lp_Variant>
CHEMBL1966_lig231-1

> <s_i_glide_gridfile>
glide-grid_1d3g

> <i_i_glide_lignum>
277

> <i_i_glide_rotatable_bonds>
6

> <r_i_docking_score>
-8.20126648358565

> <r_i_glide_ligand_efficiency>
-0.315433326291756

> <r_i_glide_ligand_efficiency_sa>
-0.934469987969121

> <r_i_glide_ligand_efficiency_ln>
-1.92604052311983

> <r_i_glide_gscore>
-8.20126648358565

> <r_i_glide_lipo>
-4.82197550504209

> <r_i_glide_hbond>
0

> <r_i_glide_metal>
0

> <r_i_glide_rewards>
-2.19698677809654

> <r_i_glide_evdw>
-38.0660057067871

> <r_i_glide_ecoul>
0.0741161480545998

> <r_i_glide_erotb>
0.709878662684147

> <r_i_glide_esite>
0

> <r_i_glide_emodel>
-45.9395784269402

> <r_i_glide_energy>
-37.9918895587325

> <r_i_glide_einternal>
7.3915376663208

> <i_i_glide_confnum>
20

> <i_i_glide_posenum>
319

> <r_i_glide_eff_state_penalty>
0

> <s_user_duplicate_titles>
CHEMBL1966_lig231

> <i_f3d_flags>
0

> <s_m_subgroup_title>
dock_pv

> <s_m_subgroupid>
dock_pv

> <b_m_subgroup_collapsed>
1

$$$$
CHEMBL1966_lig64
                    3D
 Schrodinger Suite 2021-1.
 44 46  0  0  1  0            999 V2000
   48.8435   40.8793   -2.5368 C   0  0  0  0  0  0
   49.6996   41.9711   -2.9930 C   0  0  0  0  0  0
   47.9306   40.1920   -3.2898 C   0  0  0  0  0  0
   47.6133   40.4100   -4.6960 C   0  0  0  0  0  0
   50.1008   42.7719   -1.9854 N   0  0  0  0  0  0
   50.0230   42.1463   -4.1652 O   0  0  0  0  0  0
   48.4230   40.4102   -5.6206 O   0  0  0  0  0  0
   50.9788   43.8613   -2.0260 C   0  0  0  0  0  0
   53.6997   47.0047   -1.6010 O   0  0  0  0  0  0
   46.2717   40.5467   -4.8990 O   0  0  0  0  0  0
   52.8063   45.9731   -1.8189 C   0  0  0  0  0  0
   48.8230   40.4100   -1.0782 C   0  0  0  0  0  0
   47.2134   39.1383   -2.4566 C   0  0  0  0  0  0
   54.3826   47.6078   -2.7028 C   0  0  0  0  0  0
   50.8870   44.7692   -0.9692 C   0  0  0  0  0  0
   51.9808   44.0100   -2.9977 C   0  0  0  0  0  0
   51.8033   45.8111   -0.8649 C   0  0  0  0  0  0
   52.8748   45.0780   -2.8990 C   0  0  0  0  0  0
   55.6624   46.8852   -3.1223 C   0  0  0  0  0  0
   47.6962   39.3762   -1.0283 C   0  0  0  0  0  0
   56.4572   47.4685   -4.1099 C   0  0  0  0  0  0
   56.0334   45.6525   -2.5781 C   0  0  0  0  0  0
   57.5707   46.7951   -4.6055 C   0  0  0  0  0  0
   57.1394   44.9713   -3.0762 C   0  0  0  0  0  0
   57.8958   45.5392   -4.0990 C   0  0  0  0  0  0
   49.6869   42.5927   -1.0851 H   0  0  0  0  0  0
   45.7818   40.5840   -4.0758 H   0  0  0  0  0  0
   48.6697   41.1943   -0.3382 H   0  0  0  0  0  0
   49.7879   40.0100   -0.7975 H   0  0  0  0  0  0
   47.4936   38.1433   -2.8063 H   0  0  0  0  0  0
   46.1261   39.2089   -2.5142 H   0  0  0  0  0  0
   53.7158   47.7107   -3.5612 H   0  0  0  0  0  0
   54.6461   48.6205   -2.3951 H   0  0  0  0  0  0
   50.1266   44.6610   -0.2089 H   0  0  0  0  0  0
   52.1028   43.3085   -3.8088 H   0  0  0  0  0  0
   51.7422   46.4947   -0.0309 H   0  0  0  0  0  0
   53.6333   45.1773   -3.6589 H   0  0  0  0  0  0
   46.8760   39.7431   -0.4093 H   0  0  0  0  0  0
   48.0230   38.4473   -0.5581 H   0  0  0  0  0  0
   56.2008   48.4418   -4.4990 H   0  0  0  0  0  0
   55.4478   45.2100   -1.7890 H   0  0  0  0  0  0
   58.1771   47.2416   -5.3797 H   0  0  0  0  0  0
   57.4121   44.0109   -2.6626 H   0  0  0  0  0  0
   58.7606   45.0142   -4.4784 H   0  0  0  0  0  0
  1  2  1  0  0  0
  1  3  2  0  0  0
  1 12  1  0  0  0
  2  5  1  0  0  0
  2  6  2  0  0  0
  3  4  1  0  0  0
  3 13  1  0  0  0
  4  7  2  0  0  0
  4 10  1  0  0  0
  5  8  1  0  0  0
  5 26  1  0  0  0
  8 15  2  0  0  0
  8 16  1  0  0  0
  9 11  1  0  0  0
  9 14  1  0  0  0
 10 27  1  0  0  0
 11 18  1  0  0  0
 11 17  2  0  0  0
 12 20  1  0  0  0
 12 28  1  0  0  0
 12 29  1  0  0  0
 13 20  1  0  0  0
 13 30  1  0  0  0
 13 31  1  0  0  0
 14 19  1  0  0  0
 14 32  1  0  0  0
 14 33  1  0  0  0
 15 17  1  0  0  0
 15 34  1  0  0  0
 16 18  2  0  0  0
 16 35  1  0  0  0
 17 36  1  0  0  0
 18 37  1  0  0  0
 19 21  2  0  0  0
 19 22  1  0  0  0
 20 38  1  0  0  0
 20 39  1  0  0  0
 21 23  1  0  0  0
 21 40  1  0  0  0
 22 24  2  0  0  0
 22 41  1  0  0  0
 23 25  2  0  0  0
 23 42  1  0  0  0
 24 25  1  0  0  0
 24 43  1  0  0  0
 25 44  1  0  0  0
M  END
> <s_m_entry_id>
25844

> <s_m_entry_name>
dock_pv.496

> <s_m_Source_Path>
/home/csk/Desktop/cluster/DUD-E-result/pyrd

> <s_m_Source_File>
dock_pv.maegz

> <i_m_Source_File_Index>
496

> <chembl_id>
CHEMBL370008

> <chembl_pref_name>
None

> <i_lp_mmshare_version>
53161

> <r_lp_tautomer_probability>
1

> <s_lp_Force_Field>
OPLS_2005

> <r_lp_Energy>
46.479457

> <b_lp_Chiralities_Consistent>
1

> <s_lp_Variant>
CHEMBL1966_lig64-1

> <s_i_glide_gridfile>
glide-grid_1d3g

> <i_i_glide_lignum>
70

> <i_i_glide_rotatable_bonds>
8

> <r_i_docking_score>
-8.2009763190652

> <r_i_glide_ligand_efficiency>
-0.328039052762608

> <r_i_glide_ligand_efficiency_sa>
-0.959192008075239

> <r_i_glide_ligand_efficiency_ln>
-1.94387715104684

> <r_i_glide_gscore>
-8.2009763190652

> <r_i_glide_lipo>
-4.81570889672436

> <r_i_glide_hbond>
-0.0967060471845225

> <r_i_glide_metal>
0

> <r_i_glide_rewards>
-2.12667454464272

> <r_i_glide_evdw>
-40.3010520935059

> <r_i_glide_ecoul>
-2.06075835227966

> <r_i_glide_erotb>
1.16227952700364

> <r_i_glide_esite>
0

> <r_i_glide_emodel>
-62.086496557428

> <r_i_glide_energy>
-42.3618104457855

> <r_i_glide_einternal>
3.40201759338379

> <i_i_glide_confnum>
15

> <i_i_glide_posenum>
44

> <r_i_glide_eff_state_penalty>
0

> <s_user_duplicate_titles>
CHEMBL1966_lig64

> <i_f3d_flags>
0

> <s_m_subgroup_title>
dock_pv

> <s_m_subgroupid>
dock_pv

> <b_m_subgroup_collapsed>
1

$$$$
CHEMBL1966_lig408
                    3D
 Schrodinger Suite 2021-1.
 38 39  0  0  1  0            999 V2000
   50.1617   42.3740   -2.2461 C   0  0  0  0  0  0
   49.6230   41.3083   -1.3932 C   0  0  0  0  0  0
   48.8230   40.4243   -2.0578 N   0  0  0  0  0  0
   48.4541   40.4092   -3.3700 C   0  0  0  0  0  0
   49.0807   41.3491   -4.1218 N   0  0  0  0  0  0
   49.8774   42.3284   -3.5845 C   0  0  0  0  0  0
   50.4647   43.2236   -4.5588 C   0  0  0  0  0  0
   49.6230   43.6095   -5.5640 O   0  0  0  0  0  0
   51.6235   43.6100   -4.4990 O   0  0  0  0  0  0
   47.5810   39.6751   -3.8171 O   0  0  0  0  0  0
   49.7774   41.2099   -0.1765 O   0  0  0  0  0  0
   51.0494   43.4116   -1.5408 C   0  0  0  0  0  0
   50.3798   44.7477   -1.1865 C   0  0  0  0  0  0
   51.3081   45.7373   -0.4520 C   0  0  0  0  0  0
   52.5526   46.0108   -1.1679 N   0  0  0  0  0  0
   53.6962   46.4100   -0.5824 C   0  0  0  0  0  0
   54.8365   46.7547   -1.5100 C   0  0  0  0  0  0
   53.8150   46.5331    0.6380 O   0  0  0  0  0  0
   54.9391   46.1859   -2.7906 C   0  0  0  0  0  0
   55.9973   46.5293   -3.6277 C   0  0  0  0  0  0
   56.9564   47.4397   -3.1921 C   0  0  0  0  0  0
   56.8714   48.0060   -1.9231 C   0  0  0  0  0  0
   55.8187   47.6591   -1.0828 C   0  0  0  0  0  0
   48.3887   39.7203   -1.4810 H   0  0  0  0  0  0
   48.9219   41.2907   -5.1161 H   0  0  0  0  0  0
   48.7028   43.7379   -5.2990 H   0  0  0  0  0  0
   51.4576   42.9890   -0.6263 H   0  0  0  0  0  0
   51.9056   43.6282   -2.1696 H   0  0  0  0  0  0
   50.0218   45.2132   -2.0990 H   0  0  0  0  0  0
   49.4988   44.5649   -0.5691 H   0  0  0  0  0  0
   50.8230   46.7009   -0.3080 H   0  0  0  0  0  0
   51.5361   45.3265    0.5353 H   0  0  0  0  0  0
   52.5099   46.0003   -2.1755 H   0  0  0  0  0  0
   54.2118   45.4710   -3.1498 H   0  0  0  0  0  0
   56.0745   46.0888   -4.6110 H   0  0  0  0  0  0
   57.7789   47.7029   -3.8411 H   0  0  0  0  0  0
   57.6234   48.7051   -1.5859 H   0  0  0  0  0  0
   55.7691   48.1052   -0.0989 H   0  0  0  0  0  0
  1  2  1  0  0  0
  1  6  2  0  0  0
  1 12  1  0  0  0
  2  3  1  0  0  0
  2 11  2  0  0  0
  3  4  1  0  0  0
  3 24  1  0  0  0
  4  5  1  0  0  0
  4 10  2  0  0  0
  5  6  1  0  0  0
  5 25  1  0  0  0
  6  7  1  0  0  0
  7  8  1  0  0  0
  7  9  2  0  0  0
  8 26  1  0  0  0
 12 13  1  0  0  0
 12 27  1  0  0  0
 12 28  1  0  0  0
 13 14  1  0  0  0
 13 29  1  0  0  0
 13 30  1  0  0  0
 14 15  1  0  0  0
 14 31  1  0  0  0
 14 32  1  0  0  0
 15 16  1  0  0  0
 15 33  1  0  0  0
 16 17  1  0  0  0
 16 18  2  0  0  0
 17 19  2  0  0  0
 17 23  1  0  0  0
 19 20  1  0  0  0
 19 34  1  0  0  0
 20 21  2  0  0  0
 20 35  1  0  0  0
 21 22  1  0  0  0
 21 36  1  0  0  0
 22 23  2  0  0  0
 22 37  1  0  0  0
 23 38  1  0  0  0
M  END
> <s_m_entry_id>
25845

> <s_m_entry_name>
dock_pv.497

> <s_m_Source_Path>
/home/csk/Desktop/cluster/DUD-E-result/pyrd

> <s_m_Source_File>
dock_pv.maegz

> <i_m_Source_File_Index>
497

> <chembl_id>
CHEMBL3960872

> <chembl_pref_name>
None

> <i_lp_mmshare_version>
53161

> <r_lp_tautomer_probability>
1

> <s_lp_Force_Field>
OPLS_2005

> <r_lp_Energy>
18.15572

> <b_lp_Chiralities_Consistent>
1

> <s_lp_Variant>
CHEMBL1966_lig408-1

> <s_i_glide_gridfile>
glide-grid_1d3g

> <i_i_glide_lignum>
458

> <i_i_glide_rotatable_bonds>
8

> <r_i_docking_score>
-8.18509592855357

> <r_i_glide_ligand_efficiency>
-0.355873736024068

> <r_i_glide_ligand_efficiency_sa>
-1.01205756581749

> <r_i_glide_ligand_efficiency_ln>
-1.97923041387076

> <r_i_glide_gscore>
-8.18509592855357

> <r_i_glide_lipo>
-3.43878614670618

> <r_i_glide_hbond>
0

> <r_i_glide_metal>
0

> <r_i_glide_rewards>
-2.83523919907047

> <r_i_glide_evdw>
-43.8019561767578

> <r_i_glide_ecoul>
-5.54124736785889

> <r_i_glide_erotb>
1.1102143312398

> <r_i_glide_esite>
0

> <r_i_glide_emodel>
-69.8787357343182

> <r_i_glide_energy>
-49.3432035446167

> <r_i_glide_einternal>
5.67189025878906

> <i_i_glide_confnum>
68

> <i_i_glide_posenum>
396

> <r_i_glide_eff_state_penalty>
0

> <s_user_duplicate_titles>
CHEMBL1966_lig408

> <i_f3d_flags>
0

> <s_m_subgroup_title>
dock_pv

> <s_m_subgroupid>
dock_pv

> <b_m_subgroup_collapsed>
1

$$$$
CHEMBL1966_lig113
                    3D
 Schrodinger Suite 2021-1.
 35 36  0  0  1  0            999 V2000
   49.9920   43.6096   -5.7700 Cl  0  0  0  0  0  0
   49.6230   42.4418   -4.5447 C   0  0  0  0  0  0
   48.7751   41.3928   -4.9040 C   0  0  0  0  0  0
   48.4229   40.4173   -3.9758 C   0  0  0  0  0  0
   48.9153   40.4947   -2.6781 C   0  0  0  0  0  0
   49.7684   41.5371   -2.3152 C   0  0  0  0  0  0
   50.1384   42.5313   -3.2324 C   0  0  0  0  0  0
   51.0935   43.6100   -2.8206 C   0  0  0  0  0  0
   50.9396   44.4040   -1.6580 C   0  0  0  0  0  0
   51.8799   45.3939   -1.3408 C   0  0  0  0  0  0
   49.6230   44.1903   -0.5529 Cl  0  0  0  0  0  0
   52.2254   43.8278   -3.6171 C   0  0  0  0  0  0
   53.1559   44.8100   -3.2989 C   0  0  0  0  0  0
   52.9880   45.6101   -2.1651 C   0  0  0  0  0  0
   53.9728   46.5201   -1.7545 N   0  0  0  0  0  0
   54.9202   47.1123   -2.5221 C   0  0  0  0  0  0
   54.8240   47.2544   -3.7418 O   0  0  0  0  0  0
   56.2059   47.5615   -1.8097 C   0  0  2  0  0  0
   56.2454   47.1528   -0.3980 C   0  0  0  0  0  0
   56.2519   46.8100    0.7029 N   0  0  0  0  0  0
   56.5631   49.0446   -1.9860 C   0  0  0  0  0  0
   57.1228   49.4870   -3.3351 C   0  0  0  0  0  0
   56.4231   49.8602   -1.0782 O   0  0  0  0  0  0
   48.3771   41.3472   -5.9055 H   0  0  0  0  0  0
   47.7625   39.6099   -4.2545 H   0  0  0  0  0  0
   48.6364   39.7430   -1.9544 H   0  0  0  0  0  0
   50.1554   41.5618   -1.3073 H   0  0  0  0  0  0
   51.7494   45.9776   -0.4407 H   0  0  0  0  0  0
   52.4058   43.2135   -4.4874 H   0  0  0  0  0  0
   54.0330   44.9184   -3.9128 H   0  0  0  0  0  0
   54.0363   46.6551   -0.7559 H   0  0  0  0  0  0
   56.3865   49.3343   -4.1238 H   0  0  0  0  0  0
   58.0286   48.9302   -3.5752 H   0  0  0  0  0  0
   57.3699   50.5487   -3.3092 H   0  0  0  0  0  0
   57.0170   46.9938   -2.2658 H   0  0  0  0  0  0
  1  2  1  0  0  0
  2  3  2  0  0  0
  2  7  1  0  0  0
  3  4  1  0  0  0
  3 24  1  0  0  0
  4  5  2  0  0  0
  4 25  1  0  0  0
  5  6  1  0  0  0
  5 26  1  0  0  0
  6  7  2  0  0  0
  6 27  1  0  0  0
  7  8  1  0  0  0
  8  9  2  0  0  0
  8 12  1  0  0  0
  9 10  1  0  0  0
  9 11  1  0  0  0
 10 14  2  0  0  0
 10 28  1  0  0  0
 12 13  2  0  0  0
 12 29  1  0  0  0
 13 14  1  0  0  0
 13 30  1  0  0  0
 14 15  1  0  0  0
 15 16  1  0  0  0
 15 31  1  0  0  0
 16 17  2  0  0  0
 16 18  1  0  0  0
 18 19  1  0  0  0
 18 35  1  0  0  0
 18 21  1  0  0  0
 19 20  3  0  0  0
 21 23  2  0  0  0
 21 22  1  0  0  0
 22 32  1  0  0  0
 22 33  1  0  0  0
 22 34  1  0  0  0
M  END
> <s_m_entry_id>
25846

> <s_m_entry_name>
dock_pv.498

> <s_m_Source_Path>
/home/csk/Desktop/cluster/DUD-E-result/pyrd

> <s_m_Source_File>
dock_pv.maegz

> <i_m_Source_File_Index>
498

> <chembl_id>
CHEMBL484780

> <chembl_pref_name>
None

> <i_lp_mmshare_version>
53161

> <r_lp_tautomer_probability>
0.995394628248396

> <s_lp_Force_Field>
OPLS_2005

> <r_lp_Energy>
24.664959

> <b_lp_Chiralities_Consistent>
1

> <s_lp_Variant>
CHEMBL1966_lig113-1

> <s_i_glide_gridfile>
glide-grid_1d3g

> <i_i_glide_lignum>
127

> <i_i_glide_rotatable_bonds>
5

> <r_i_docking_score>
-8.16268745130657

> <r_i_glide_ligand_efficiency>
-0.354899454404634

> <r_i_glide_ligand_efficiency_sa>
-1.0092868384938

> <r_i_glide_ligand_efficiency_ln>
-1.97381184088359

> <r_i_glide_gscore>
-8.16268745130657

> <r_i_glide_lipo>
-4.5030095579179

> <r_i_glide_hbond>
0

> <r_i_glide_metal>
0

> <r_i_glide_rewards>
-2.14891190502143

> <r_i_glide_evdw>
-43.0269737243652

> <r_i_glide_ecoul>
0.0626562237739563

> <r_i_glide_erotb>
0.631184264284931

> <r_i_glide_esite>
0

> <r_i_glide_emodel>
-56.890066655561

> <r_i_glide_energy>
-42.9643175005913

> <r_i_glide_einternal>
9.28773975372314

> <i_i_glide_confnum>
23

> <i_i_glide_posenum>
360

> <r_i_glide_eff_state_penalty>
0

> <s_user_duplicate_titles>
CHEMBL1966_lig113

> <i_f3d_flags>
0

> <s_m_subgroup_title>
dock_pv

> <s_m_subgroupid>
dock_pv

> <b_m_subgroup_collapsed>
1

$$$$
CHEMBL1966_lig175
                    3D
 Schrodinger Suite 2021-1.
 33 35  0  0  1  0            999 V2000
   48.8230   40.9211   -4.3550 C   0  0  0  0  0  0
   48.4686   40.2842   -3.1596 C   0  0  0  0  0  0
   48.9044   40.6601   -1.9378 N   0  0  0  0  0  0
   49.6296   42.0530   -4.2609 C   0  0  0  0  0  0
   50.0107   42.4805   -3.0153 N   0  0  0  0  0  0
   49.6349   41.7685   -1.8834 C   0  0  0  0  0  0
   50.0230   42.4446   -0.7952 N   0  0  0  0  0  0
   50.5439   43.5392   -1.3065 C   0  0  0  0  0  0
   50.6506   43.6100   -2.6278 N   0  0  0  0  0  0
   50.9753   44.8100   -0.1830 S   0  0  0  0  0  0
   51.6520   46.1589   -1.1882 C   0  0  0  0  0  0
   53.1509   46.0404   -1.4834 C   0  0  0  0  0  0
   54.1560   46.4117   -0.5563 C   0  0  0  0  0  0
   55.4992   46.4100   -0.9814 C   0  0  0  0  0  0
   55.8568   46.0094   -2.2595 C   0  0  0  0  0  0
   54.8736   45.5858   -3.1390 C   0  0  0  0  0  0
   53.5339   45.6103   -2.7612 C   0  0  0  0  0  0
   50.0154   42.8283   -5.3212 O   0  0  0  0  0  0
   47.4683   39.1642   -3.1013 C   0  0  0  0  0  0
   53.8763   46.8097    0.8462 N   0  3  0  0  0  0
   52.7514   46.7437    1.3215 O   0  0  0  0  0  0
   54.8220   47.2100    1.5010 O   0  5  0  0  0  0
   48.4442   40.5882   -5.3068 H   0  0  0  0  0  0
   51.4260   47.0878   -0.6704 H   0  0  0  0  0  0
   51.0894   46.2507   -2.0983 H   0  0  0  0  0  0
   56.2958   46.7060   -0.3136 H   0  0  0  0  0  0
   56.8962   46.0013   -2.5560 H   0  0  0  0  0  0
   55.1624   45.2448   -4.1159 H   0  0  0  0  0  0
   52.7941   45.3017   -3.4835 H   0  0  0  0  0  0
   50.4876   43.6101   -5.0252 H   0  0  0  0  0  0
   47.2716   38.8101   -4.0966 H   0  0  0  0  0  0
   47.8397   38.3339   -2.4998 H   0  0  0  0  0  0
   46.5313   39.5133   -2.6679 H   0  0  0  0  0  0
  1  2  1  0  0  0
  1  4  2  0  0  0
  1 23  1  0  0  0
  2  3  2  0  0  0
  2 19  1  0  0  0
  3  6  1  0  0  0
  4  5  1  0  0  0
  4 18  1  0  0  0
  5  6  1  0  0  0
  5  9  1  0  0  0
  6  7  2  0  0  0
  7  8  1  0  0  0
  8  9  2  0  0  0
  8 10  1  0  0  0
 10 11  1  0  0  0
 11 12  1  0  0  0
 11 24  1  0  0  0
 11 25  1  0  0  0
 12 13  2  0  0  0
 12 17  1  0  0  0
 13 14  1  0  0  0
 13 20  1  0  0  0
 14 15  2  0  0  0
 14 26  1  0  0  0
 15 16  1  0  0  0
 15 27  1  0  0  0
 16 17  2  0  0  0
 16 28  1  0  0  0
 17 29  1  0  0  0
 18 30  1  0  0  0
 19 31  1  0  0  0
 19 32  1  0  0  0
 19 33  1  0  0  0
 20 21  2  0  0  0
 20 22  1  0  0  0
M  CHG  2  20   1  22  -1
M  END
> <s_m_entry_id>
25847

> <s_m_entry_name>
dock_pv.499

> <s_m_Source_Path>
/home/csk/Desktop/cluster/DUD-E-result/pyrd

> <s_m_Source_File>
dock_pv.maegz

> <i_m_Source_File_Index>
499

> <chembl_id>
CHEMBL2177855

> <chembl_pref_name>
None

> <i_lp_mmshare_version>
53161

> <r_lp_tautomer_probability>
1

> <s_lp_Force_Field>
OPLS_2005

> <r_lp_Energy>
13.737784

> <b_lp_Chiralities_Consistent>
1

> <s_lp_Variant>
CHEMBL1966_lig175-1

> <s_i_glide_gridfile>
glide-grid_1d3g

> <i_i_glide_lignum>
220

> <i_i_glide_rotatable_bonds>
5

> <r_i_docking_score>
-8.15091892224574

> <r_i_glide_ligand_efficiency>
-0.370496314647534

> <r_i_glide_ligand_efficiency_sa>
-1.03814524443561

> <r_i_glide_ligand_efficiency_ln>
-1.99238189658841

> <r_i_glide_gscore>
-8.15091892224574

> <r_i_glide_lipo>
-3.60417290108701

> <r_i_glide_hbond>
0

> <r_i_glide_metal>
0

> <r_i_glide_rewards>
-3.34511384039916

> <r_i_glide_evdw>
-34.3611068725586

> <r_i_glide_ecoul>
-0.257330030202866

> <r_i_glide_erotb>
0.555022667398789

> <r_i_glide_esite>
0

> <r_i_glide_emodel>
-42.2234866483341

> <r_i_glide_energy>
-34.6184369027615

> <r_i_glide_einternal>
1.90883016586304

> <i_i_glide_confnum>
4

> <i_i_glide_posenum>
111

> <r_i_glide_eff_state_penalty>
0

> <s_user_duplicate_titles>
CHEMBL1966_lig175

> <i_f3d_flags>
0

> <s_m_subgroup_title>
dock_pv

> <s_m_subgroupid>
dock_pv

> <b_m_subgroup_collapsed>
1

$$$$
CHEMBL1966_lig366
                    3D
 Schrodinger Suite 2021-1.
 35 36  0  0  1  0            999 V2000
   49.6094   41.3973   -2.4788 C   0  0  0  0  0  0
   49.2232   40.8100   -1.1819 C   0  0  0  0  0  0
   48.2049   39.9121   -1.2416 N   0  0  0  0  0  0
   47.5277   39.4473   -2.3280 C   0  0  0  0  0  0
   47.9306   40.0101   -3.4947 N   0  0  0  0  0  0
   48.9094   40.9746   -3.5828 C   0  0  0  0  0  0
   49.0482   41.4831   -4.9382 C   0  0  0  0  0  0
   49.3558   42.8091   -4.9893 O   0  0  0  0  0  0
   48.8231   40.8137   -5.9522 O   0  0  0  0  0  0
   46.6119   38.6351   -2.2564 O   0  0  0  0  0  0
   49.7077   41.1195   -0.0976 O   0  0  0  0  0  0
   50.8035   42.3939   -2.4431 C   0  0  0  0  0  0
   50.4565   43.8693   -2.0855 C   0  0  0  0  0  0
   51.6230   44.7891   -1.6990 C   0  0  0  0  0  0
   51.6230   45.4532   -0.4697 C   0  0  0  0  0  0
   52.7033   46.2492   -0.0982 C   0  0  0  0  0  0
   53.7996   46.4032   -0.9580 C   0  0  0  0  0  0
   53.7763   45.7784   -2.2129 C   0  0  0  0  0  0
   52.6986   44.9750   -2.5759 C   0  0  0  0  0  0
   55.0118   47.1673   -0.4872 C   0  0  0  0  0  0
   55.3154   47.2101    0.7009 O   0  0  0  0  0  0
   55.7452   47.7850   -1.4133 N   0  0  0  0  0  0
   47.9157   39.5285   -0.3543 H   0  0  0  0  0  0
   47.4677   39.6660   -4.3235 H   0  0  0  0  0  0
   49.3194   43.1496   -5.8853 H   0  0  0  0  0  0
   51.3277   42.3667   -3.3979 H   0  0  0  0  0  0
   51.5413   42.0136   -1.7338 H   0  0  0  0  0  0
   49.6992   43.8927   -1.2992 H   0  0  0  0  0  0
   50.0216   44.3364   -2.9626 H   0  0  0  0  0  0
   50.8165   45.3114    0.2298 H   0  0  0  0  0  0
   52.7002   46.7148    0.8773 H   0  0  0  0  0  0
   54.6070   45.8658   -2.9001 H   0  0  0  0  0  0
   52.7097   44.4768   -3.5347 H   0  0  0  0  0  0
   56.5712   48.2885   -1.1261 H   0  0  0  0  0  0
   55.4625   47.7778   -2.3803 H   0  0  0  0  0  0
  1  2  1  0  0  0
  1  6  2  0  0  0
  1 12  1  0  0  0
  2  3  1  0  0  0
  2 11  2  0  0  0
  3  4  1  0  0  0
  3 23  1  0  0  0
  4  5  1  0  0  0
  4 10  2  0  0  0
  5  6  1  0  0  0
  5 24  1  0  0  0
  6  7  1  0  0  0
  7  8  1  0  0  0
  7  9  2  0  0  0
  8 25  1  0  0  0
 12 13  1  0  0  0
 12 26  1  0  0  0
 12 27  1  0  0  0
 13 14  1  0  0  0
 13 28  1  0  0  0
 13 29  1  0  0  0
 14 15  2  0  0  0
 14 19  1  0  0  0
 15 16  1  0  0  0
 15 30  1  0  0  0
 16 17  2  0  0  0
 16 31  1  0  0  0
 17 18  1  0  0  0
 17 20  1  0  0  0
 18 19  2  0  0  0
 18 32  1  0  0  0
 19 33  1  0  0  0
 20 21  2  0  0  0
 20 22  1  0  0  0
 22 34  1  0  0  0
 22 35  1  0  0  0
M  END
> <s_m_entry_id>
25848

> <s_m_entry_name>
dock_pv.500

> <s_m_Source_Path>
/home/csk/Desktop/cluster/DUD-E-result/pyrd

> <s_m_Source_File>
dock_pv.maegz

> <i_m_Source_File_Index>
500

> <chembl_id>
CHEMBL3967690

> <chembl_pref_name>
None

> <i_lp_mmshare_version>
53161

> <r_lp_tautomer_probability>
1

> <s_lp_Force_Field>
OPLS_2005

> <r_lp_Energy>
13.505114

> <b_lp_Chiralities_Consistent>
1

> <s_lp_Variant>
CHEMBL1966_lig366-1

> <s_i_glide_gridfile>
glide-grid_1d3g

> <i_i_glide_lignum>
416

> <i_i_glide_rotatable_bonds>
6

> <r_i_docking_score>
-8.13820433817887

> <r_i_glide_ligand_efficiency>
-0.36991837900813

> <r_i_glide_ligand_efficiency_sa>
-1.03652584604509

> <r_i_glide_ligand_efficiency_ln>
-1.98927398846674

> <r_i_glide_gscore>
-8.13820433817887

> <r_i_glide_lipo>
-3.12173397238454

> <r_i_glide_hbond>
-0.16

> <r_i_glide_metal>
0

> <r_i_glide_rewards>
-2.95976794337164

> <r_i_glide_evdw>
-37.7348709106445

> <r_i_glide_ecoul>
-5.40845727920532

> <r_i_glide_erotb>
0.801309714990335

> <r_i_glide_esite>
0

> <r_i_glide_emodel>
-61.4373962118685

> <r_i_glide_energy>
-43.1433281898499

> <r_i_glide_einternal>
2.19157242774963

> <i_i_glide_confnum>
30

> <i_i_glide_posenum>
242

> <r_i_glide_eff_state_penalty>
0

> <s_user_duplicate_titles>
CHEMBL1966_lig366

> <i_f3d_flags>
0

> <s_m_subgroup_title>
dock_pv

> <s_m_subgroupid>
dock_pv

> <b_m_subgroup_collapsed>
1

$$$$
CHEMBL1966_lig233
                    3D
 Schrodinger Suite 2021-1.
 42 44  0  0  1  0            999 V2000
   55.3917   46.0097   -1.9398 C   0  0  0  0  0  0
   54.8498   46.3295   -0.7056 C   0  0  0  0  0  0
   54.5802   45.4438   -2.9088 C   0  0  0  0  0  0
   52.6008   44.4661   -3.6962 N   0  0  0  0  0  0
   53.2280   45.1841   -2.6631 C   0  0  0  0  0  0
   50.0065   42.1060   -3.3280 C   0  0  0  0  0  0
   50.7649   43.5340   -5.3373 S   0  0  0  0  0  0
   45.6311   40.5057   -4.8166 C   0  0  0  0  0  0
   49.7306   42.3153   -4.6891 C   0  0  0  0  0  0
   47.5757   41.9223   -5.2997 O   0  0  0  0  0  0
   49.2231   40.9156   -6.4966 O   0  0  0  0  0  0
   53.4836   46.1894   -0.4739 C   0  0  0  0  0  0
   51.0144   42.8481   -2.8814 N   0  0  0  0  0  0
   48.8370   41.6538   -5.5981 C   0  0  0  0  0  0
   52.6529   45.6134   -1.4435 C   0  0  0  0  0  0
   46.4996   41.1909   -5.8694 C   0  0  0  0  0  0
   51.5347   43.6107   -3.7970 C   0  0  0  0  0  0
   49.3339   41.1548   -2.3769 C   0  0  0  0  0  0
   48.4319   40.1599   -2.7833 C   0  0  0  0  0  0
   47.7353   39.4039   -1.8475 C   0  0  0  0  0  0
   48.0151   39.5811   -0.4991 C   0  0  0  0  0  0
   49.0291   40.4285   -0.0997 C   0  0  0  0  0  0
   49.6259   41.2652   -1.0145 C   0  0  0  0  0  0
   51.1790   45.4785   -1.0850 C   0  0  0  0  0  0
   56.0226   46.8100    0.6911 Br  0  0  0  0  0  0
   56.4495   46.1327   -2.1204 H   0  0  0  0  0  0
   55.0434   45.1526   -3.8395 H   0  0  0  0  0  0
   53.1572   44.5479   -4.5312 H   0  0  0  0  0  0
   44.8188   39.9828   -5.3092 H   0  0  0  0  0  0
   46.1736   39.7467   -4.2617 H   0  0  0  0  0  0
   45.2199   41.2102   -4.0998 H   0  0  0  0  0  0
   53.0821   46.4693    0.4894 H   0  0  0  0  0  0
   45.8988   41.8520   -6.4990 H   0  0  0  0  0  0
   46.8752   40.3921   -6.4979 H   0  0  0  0  0  0
   48.2565   39.9448   -3.8189 H   0  0  0  0  0  0
   47.0104   38.6700   -2.1653 H   0  0  0  0  0  0
   47.5116   39.0036    0.2702 H   0  0  0  0  0  0
   49.2956   40.4835    0.9428 H   0  0  0  0  0  0
   50.3453   41.9819   -0.6464 H   0  0  0  0  0  0
   50.8253   46.4347   -0.6950 H   0  0  0  0  0  0
   50.5297   45.2241   -1.9175 H   0  0  0  0  0  0
   51.0461   44.7441   -0.2886 H   0  0  0  0  0  0
  1  2  2  0  0  0
  1  3  1  0  0  0
  1 26  1  0  0  0
  2 12  1  0  0  0
  2 25  1  0  0  0
  3  5  2  0  0  0
  3 27  1  0  0  0
  4 17  1  0  0  0
  4  5  1  0  0  0
  4 28  1  0  0  0
  5 15  1  0  0  0
  6  9  2  0  0  0
  6 13  1  0  0  0
  6 18  1  0  0  0
  7 17  1  0  0  0
  7  9  1  0  0  0
  8 16  1  0  0  0
  8 29  1  0  0  0
  8 30  1  0  0  0
  8 31  1  0  0  0
  9 14  1  0  0  0
 10 14  1  0  0  0
 10 16  1  0  0  0
 11 14  2  0  0  0
 12 15  2  0  0  0
 12 32  1  0  0  0
 13 17  2  0  0  0
 15 24  1  0  0  0
 16 33  1  0  0  0
 16 34  1  0  0  0
 18 19  1  0  0  0
 18 23  2  0  0  0
 19 20  2  0  0  0
 19 35  1  0  0  0
 20 21  1  0  0  0
 20 36  1  0  0  0
 21 22  2  0  0  0
 21 37  1  0  0  0
 22 23  1  0  0  0
 22 38  1  0  0  0
 23 39  1  0  0  0
 24 40  1  0  0  0
 24 41  1  0  0  0
 24 42  1  0  0  0
M  END
> <s_m_entry_id>
25849

> <s_m_entry_name>
dock_pv.501

> <s_m_Source_Path>
/home/csk/Desktop/cluster/DUD-E-result/pyrd

> <s_m_Source_File>
dock_pv.maegz

> <i_m_Source_File_Index>
501

> <chembl_id>
CHEMBL3410606

> <chembl_pref_name>
None

> <i_lp_mmshare_version>
53161

> <r_lp_tautomer_probability>
1

> <s_lp_Force_Field>
OPLS_2005

> <r_lp_Energy>
15.853598

> <b_lp_Chiralities_Consistent>
1

> <s_lp_Variant>
CHEMBL1966_lig233-1

> <s_i_glide_gridfile>
glide-grid_1d3g

> <i_i_glide_lignum>
279

> <i_i_glide_rotatable_bonds>
6

> <r_i_docking_score>
-8.13421842212851

> <r_i_glide_ligand_efficiency>
-0.32536873688514

> <r_i_glide_ligand_efficiency_sa>
-0.95138395709127

> <r_i_glide_ligand_efficiency_ln>
-1.92805352890011

> <r_i_glide_gscore>
-8.13421842212851

> <r_i_glide_lipo>
-5.42974567903689

> <r_i_glide_hbond>
-0.16

> <r_i_glide_metal>
0

> <r_i_glide_rewards>
-1.27114790054647

> <r_i_glide_evdw>
-28.465311050415

> <r_i_glide_ecoul>
-2.7832133769989

> <r_i_glide_erotb>
0.567422716525441

> <r_i_glide_esite>
0

> <r_i_glide_emodel>
-28.3695259434192

> <r_i_glide_energy>
-31.2485244274139

> <r_i_glide_einternal>
12.1508941650391

> <i_i_glide_confnum>
45

> <i_i_glide_posenum>
262

> <r_i_glide_eff_state_penalty>
0

> <s_user_duplicate_titles>
CHEMBL1966_lig233

> <i_f3d_flags>
0

> <s_m_subgroup_title>
dock_pv

> <s_m_subgroupid>
dock_pv

> <b_m_subgroup_collapsed>
1

$$$$
CHEMBL1966_lig174
                    3D
 Schrodinger Suite 2021-1.
 31 33  0  0  1  0            999 V2000
   46.0230   39.2100   -3.6088 C   0  0  0  0  0  0
   46.8837   39.0288   -2.5223 C   0  0  0  0  0  0
   48.0793   39.6584   -2.4008 N   0  0  0  0  0  0
   46.4203   40.0774   -4.6148 C   0  0  0  0  0  0
   47.6494   40.6674   -4.5211 N   0  0  0  0  0  0
   48.4504   40.4573   -3.4060 C   0  0  0  0  0  0
   49.5382   41.2429   -3.5179 N   0  0  0  0  0  0
   49.3157   41.9056   -4.6444 C   0  0  0  0  0  0
   48.2380   41.5730   -5.3313 N   0  0  0  0  0  0
   50.3624   43.2100   -5.2103 S   0  0  0  0  0  0
   51.7982   43.0158   -4.1016 C   0  0  0  0  0  0
   51.8045   44.0100   -2.9588 C   0  0  0  0  0  0
   52.8230   44.9717   -2.8872 C   0  0  0  0  0  0
   52.8732   45.8639   -1.8121 C   0  0  0  0  0  0
   51.9051   45.7926   -0.8002 C   0  0  0  0  0  0
   50.8740   44.8556   -0.8893 C   0  0  0  0  0  0
   50.8230   43.9663   -1.9603 C   0  0  0  0  0  0
   45.6544   40.4100   -5.6990 O   0  0  0  0  0  0
   46.5417   38.1137   -1.3685 C   0  0  0  0  0  0
   54.1521   47.0268   -1.7512 Cl  0  0  0  0  0  0
   51.9870   46.8100    0.5957 Cl  0  0  0  0  0  0
   45.0905   38.6841   -3.6990 H   0  0  0  0  0  0
   52.7010   43.1214   -4.7014 H   0  0  0  0  0  0
   51.8475   42.0109   -3.6990 H   0  0  0  0  0  0
   53.5815   45.0247   -3.6549 H   0  0  0  0  0  0
   50.1228   44.8038   -0.1147 H   0  0  0  0  0  0
   50.0281   43.2380   -1.9979 H   0  0  0  0  0  0
   44.7487   40.1145   -5.5901 H   0  0  0  0  0  0
   45.6230   37.5615   -1.5507 H   0  0  0  0  0  0
   47.3437   37.3925   -1.2054 H   0  0  0  0  0  0
   46.4230   38.7004   -0.4571 H   0  0  0  0  0  0
  1  2  1  0  0  0
  1  4  2  0  0  0
  1 22  1  0  0  0
  2  3  2  0  0  0
  2 19  1  0  0  0
  3  6  1  0  0  0
  4  5  1  0  0  0
  4 18  1  0  0  0
  5  6  1  0  0  0
  5  9  1  0  0  0
  6  7  2  0  0  0
  7  8  1  0  0  0
  8  9  2  0  0  0
  8 10  1  0  0  0
 10 11  1  0  0  0
 11 12  1  0  0  0
 11 23  1  0  0  0
 11 24  1  0  0  0
 12 13  2  0  0  0
 12 17  1  0  0  0
 13 14  1  0  0  0
 13 25  1  0  0  0
 14 15  2  0  0  0
 14 20  1  0  0  0
 15 16  1  0  0  0
 15 21  1  0  0  0
 16 17  2  0  0  0
 16 26  1  0  0  0
 17 27  1  0  0  0
 18 28  1  0  0  0
 19 29  1  0  0  0
 19 30  1  0  0  0
 19 31  1  0  0  0
M  END
> <s_m_entry_id>
25850

> <s_m_entry_name>
dock_pv.502

> <s_m_Source_Path>
/home/csk/Desktop/cluster/DUD-E-result/pyrd

> <s_m_Source_File>
dock_pv.maegz

> <i_m_Source_File_Index>
502

> <chembl_id>
CHEMBL2177856

> <chembl_pref_name>
None

> <i_lp_mmshare_version>
53161

> <r_lp_tautomer_probability>
1

> <s_lp_Force_Field>
OPLS_2005

> <r_lp_Energy>
11.43973

> <b_lp_Chiralities_Consistent>
1

> <s_lp_Variant>
CHEMBL1966_lig174-1

> <s_i_glide_gridfile>
glide-grid_1d3g

> <i_i_glide_lignum>
219

> <i_i_glide_rotatable_bonds>
4

> <r_i_docking_score>
-8.12905424428093

> <r_i_glide_ligand_efficiency>
-0.387097821156235

> <r_i_glide_ligand_efficiency_sa>
-1.06797353632857

> <r_i_glide_ligand_efficiency_ln>
-2.00989223559768

> <r_i_glide_gscore>
-8.12905424428093

> <r_i_glide_lipo>
-4.20935023426439

> <r_i_glide_hbond>
-0.0369901860011937

> <r_i_glide_metal>
0

> <r_i_glide_rewards>
-2.46266730132811

> <r_i_glide_evdw>
-38.2583961486816

> <r_i_glide_ecoul>
0.0310900490731001

> <r_i_glide_erotb>
0.488209777385884

> <r_i_glide_esite>
0

> <r_i_glide_emodel>
-52.8844607255315

> <r_i_glide_energy>
-38.2273060996085

> <r_i_glide_einternal>
4.03811645507812

> <i_i_glide_confnum>
14

> <i_i_glide_posenum>
309

> <r_i_glide_eff_state_penalty>
0

> <s_user_duplicate_titles>
CHEMBL1966_lig174

> <i_f3d_flags>
0

> <s_m_subgroup_title>
dock_pv

> <s_m_subgroupid>
dock_pv

> <b_m_subgroup_collapsed>
1

$$$$
CHEMBL1966_lig110
                    3D
 Schrodinger Suite 2021-1.
 35 36  0  0  1  0            999 V2000
   50.8984   42.4429   -3.2953 C   0  0  0  0  0  0
   50.0230   42.2015   -2.2404 C   0  0  0  0  0  0
   50.0022   43.1143   -1.1758 C   0  0  0  0  0  0
   50.8230   44.2290   -1.1606 C   0  0  0  0  0  0
   51.7335   44.4162   -2.2052 C   0  0  0  0  0  0
   51.7335   43.5509   -3.2990 C   0  0  0  0  0  0
   49.1133   41.0148   -2.2360 C   0  0  0  0  0  0
   52.7391   45.4128   -2.2251 N   0  0  0  0  0  0
   53.1142   46.2983   -1.2731 C   0  0  0  0  0  0
   54.3064   47.2213   -1.6104 C   0  0  2  0  0  0
   52.5711   46.4100   -0.1741 O   0  0  0  0  0  0
   54.7747   47.1851   -3.0047 C   0  0  0  0  0  0
   55.5224   47.1333   -0.6690 C   0  0  0  0  0  0
   56.6471   48.1370   -0.8990 C   0  0  0  0  0  0
   55.6171   46.3053    0.2362 O   0  0  0  0  0  0
   55.1434   47.1584   -4.0990 N   0  0  0  0  0  0
   48.4227   40.5401   -3.3781 C   0  0  0  0  0  0
   47.4603   39.5387   -3.2487 C   0  0  0  0  0  0
   47.1890   38.9583   -2.0152 C   0  0  0  0  0  0
   47.8711   39.3984   -0.8893 C   0  0  0  0  0  0
   48.8230   40.4100   -1.0011 C   0  0  0  0  0  0
   48.5994   41.2103   -4.9677 Cl  0  0  0  0  0  0
   50.9715   41.7366   -4.0990 H   0  0  0  0  0  0
   49.3224   42.9827   -0.3472 H   0  0  0  0  0  0
   50.7655   44.8930   -0.3131 H   0  0  0  0  0  0
   52.4305   43.6806   -4.1139 H   0  0  0  0  0  0
   53.2733   45.4333   -3.0811 H   0  0  0  0  0  0
   56.2718   49.1585   -0.8463 H   0  0  0  0  0  0
   57.1177   47.9748   -1.8686 H   0  0  0  0  0  0
   57.4126   48.0140   -0.1330 H   0  0  0  0  0  0
   53.9346   48.2356   -1.4917 H   0  0  0  0  0  0
   46.9085   39.2101   -4.1145 H   0  0  0  0  0  0
   46.4468   38.1781   -1.9311 H   0  0  0  0  0  0
   47.6679   38.9536    0.0725 H   0  0  0  0  0  0
   49.3281   40.7275   -0.1006 H   0  0  0  0  0  0
  1  6  1  0  0  0
  1  2  2  0  0  0
  1 23  1  0  0  0
  2  7  1  0  0  0
  2  3  1  0  0  0
  3  4  2  0  0  0
  3 24  1  0  0  0
  4  5  1  0  0  0
  4 25  1  0  0  0
  5  6  2  0  0  0
  5  8  1  0  0  0
  6 26  1  0  0  0
  7 17  2  0  0  0
  7 21  1  0  0  0
  8  9  1  0  0  0
  8 27  1  0  0  0
  9 11  2  0  0  0
  9 10  1  0  0  0
 10 12  1  0  0  0
 10 31  1  0  0  0
 10 13  1  0  0  0
 12 16  3  0  0  0
 13 15  2  0  0  0
 13 14  1  0  0  0
 14 28  1  0  0  0
 14 29  1  0  0  0
 14 30  1  0  0  0
 17 18  1  0  0  0
 17 22  1  0  0  0
 18 19  2  0  0  0
 18 32  1  0  0  0
 19 20  1  0  0  0
 19 33  1  0  0  0
 20 21  2  0  0  0
 20 34  1  0  0  0
 21 35  1  0  0  0
M  END
> <s_m_entry_id>
25851

> <s_m_entry_name>
dock_pv.503

> <s_m_Source_Path>
/home/csk/Desktop/cluster/DUD-E-result/pyrd

> <s_m_Source_File>
dock_pv.maegz

> <i_m_Source_File_Index>
503

> <chembl_id>
CHEMBL484531

> <chembl_pref_name>
None

> <i_lp_mmshare_version>
53161

> <r_lp_tautomer_probability>
0.995394628248396

> <s_lp_Force_Field>
OPLS_2005

> <r_lp_Energy>
24.216677

> <b_lp_Chiralities_Consistent>
1

> <s_lp_Variant>
CHEMBL1966_lig110-1

> <s_i_glide_gridfile>
glide-grid_1d3g

> <i_i_glide_lignum>
121

> <i_i_glide_rotatable_bonds>
5

> <r_i_docking_score>
-8.11639255852938

> <r_i_glide_ligand_efficiency>
-0.368926934478608

> <r_i_glide_ligand_efficiency_sa>
-1.03374777948206

> <r_i_glide_ligand_efficiency_ln>
-1.98394239391641

> <r_i_glide_gscore>
-8.11639255852938

> <r_i_glide_lipo>
-4.1807940582104

> <r_i_glide_hbond>
0

> <r_i_glide_metal>
0

> <r_i_glide_rewards>
-2.86323430371004

> <r_i_glide_evdw>
-35.1015739440918

> <r_i_glide_ecoul>
-0.509733498096466

> <r_i_glide_erotb>
0.759174525310115

> <r_i_glide_esite>
0

> <r_i_glide_emodel>
-48.0213549464224

> <r_i_glide_energy>
-35.6113074421883

> <r_i_glide_einternal>
4.83096742630005

> <i_i_glide_confnum>
23

> <i_i_glide_posenum>
208

> <r_i_glide_eff_state_penalty>
0

> <s_user_duplicate_titles>
CHEMBL1966_lig110

> <i_f3d_flags>
0

> <s_m_subgroup_title>
dock_pv

> <s_m_subgroupid>
dock_pv

> <b_m_subgroup_collapsed>
1

$$$$
CHEMBL1966_lig161
                    3D
 Schrodinger Suite 2021-1.
 32 34  0  0  1  0            999 V2000
   52.3725   46.0096   -1.1480 S   0  0  0  0  0  0
   50.4246   43.5609   -0.9807 O   0  0  0  0  0  0
   47.7531   39.2602   -2.2489 O   0  0  0  0  0  0
   53.6277   45.0076   -3.2066 N   0  0  0  0  0  0
   51.6230   43.9207   -2.8989 N   0  0  0  0  0  0
   54.0100   46.5700   -1.4973 C   0  0  0  0  0  0
   54.4848   45.9068   -2.6596 C   0  0  0  0  0  0
   52.5401   44.8870   -2.5031 C   0  0  0  0  0  0
   50.6459   43.3371   -2.1729 C   0  0  0  0  0  0
   49.8332   42.2987   -2.9183 C   0  0  0  0  0  0
   54.8170   47.4986   -0.8223 C   0  0  0  0  0  0
   55.7696   46.1783   -3.1547 C   0  0  0  0  0  0
   49.2427   41.2290   -2.2232 C   0  0  0  0  0  0
   48.4236   40.2930   -2.8773 C   0  0  0  0  0  0
   49.6101   42.3997   -4.3008 C   0  0  0  0  0  0
   56.0939   47.7473   -1.3286 C   0  0  0  0  0  0
   56.5615   47.1030   -2.4727 C   0  0  0  0  0  0
   48.2442   40.4100   -4.2550 C   0  0  0  0  0  0
   48.8234   41.4603   -4.9636 C   0  0  0  0  0  0
   47.7221   39.1929   -0.8243 C   0  0  0  0  0  0
   51.8333   43.4873   -3.7820 H   0  0  0  0  0  0
   54.4688   48.0078    0.0637 H   0  0  0  0  0  0
   56.1444   45.6729   -4.0332 H   0  0  0  0  0  0
   49.3998   41.1545   -1.1575 H   0  0  0  0  0  0
   50.0133   43.2210   -4.8751 H   0  0  0  0  0  0
   56.7352   48.4535   -0.8213 H   0  0  0  0  0  0
   57.5579   47.3201   -2.8289 H   0  0  0  0  0  0
   47.6215   39.6945   -4.7681 H   0  0  0  0  0  0
   48.6496   41.5614   -6.0239 H   0  0  0  0  0  0
   47.2428   38.2629   -0.5204 H   0  0  0  0  0  0
   48.7090   39.2113   -0.3633 H   0  0  0  0  0  0
   47.1431   40.0099   -0.4002 H   0  0  0  0  0  0
  1  6  1  0  0  0
  1  8  1  0  0  0
  2  9  2  0  0  0
  3 14  1  0  0  0
  3 20  1  0  0  0
  4  7  1  0  0  0
  4  8  2  0  0  0
  5  8  1  0  0  0
  5  9  1  0  0  0
  5 21  1  0  0  0
  6  7  1  0  0  0
  6 11  2  0  0  0
  7 12  2  0  0  0
  9 10  1  0  0  0
 10 13  2  0  0  0
 10 15  1  0  0  0
 11 16  1  0  0  0
 11 22  1  0  0  0
 12 17  1  0  0  0
 12 23  1  0  0  0
 13 14  1  0  0  0
 13 24  1  0  0  0
 14 18  2  0  0  0
 15 19  2  0  0  0
 15 25  1  0  0  0
 16 17  2  0  0  0
 16 26  1  0  0  0
 17 27  1  0  0  0
 18 19  1  0  0  0
 18 28  1  0  0  0
 19 29  1  0  0  0
 20 30  1  0  0  0
 20 31  1  0  0  0
 20 32  1  0  0  0
M  END
> <s_m_entry_id>
25852

> <s_m_entry_name>
dock_pv.504

> <s_m_Source_Path>
/home/csk/Desktop/cluster/DUD-E-result/pyrd

> <s_m_Source_File>
dock_pv.maegz

> <i_m_Source_File_Index>
504

> <chembl_id>
CHEMBL1373924

> <chembl_pref_name>
None

> <i_lp_mmshare_version>
53161

> <r_lp_tautomer_probability>
1

> <s_lp_Force_Field>
OPLS_2005

> <r_lp_Energy>
18.343304

> <b_lp_Chiralities_Consistent>
1

> <s_lp_Variant>
CHEMBL1966_lig161-1

> <s_i_glide_gridfile>
glide-grid_1d3g

> <i_i_glide_lignum>
206

> <i_i_glide_rotatable_bonds>
4

> <r_i_docking_score>
-8.11595079269951

> <r_i_glide_ligand_efficiency>
-0.405797539634976

> <r_i_glide_ligand_efficiency_sa>
-1.10150398925611

> <r_i_glide_ligand_efficiency_ln>
-2.03115480144039

> <r_i_glide_gscore>
-8.11595079269951

> <r_i_glide_lipo>
-4.57358870476386

> <r_i_glide_hbond>
0

> <r_i_glide_metal>
0

> <r_i_glide_rewards>
-2.30095893715614

> <r_i_glide_evdw>
-36.9009780883789

> <r_i_glide_ecoul>
-0.459621965885162

> <r_i_glide_erotb>
0.672589048522203

> <r_i_glide_esite>
0

> <r_i_glide_emodel>
-52.708691318155

> <r_i_glide_energy>
-37.3606000542641

> <r_i_glide_einternal>
2.62834000587463

> <i_i_glide_confnum>
1

> <i_i_glide_posenum>
364

> <r_i_glide_eff_state_penalty>
0

> <s_user_duplicate_titles>
CHEMBL1966_lig161

> <i_f3d_flags>
0

> <s_m_subgroup_title>
dock_pv

> <s_m_subgroupid>
dock_pv

> <b_m_subgroup_collapsed>
1

$$$$
CHEMBL1966_lig111
                    3D
 Schrodinger Suite 2021-1.
 35 36  0  0  1  0            999 V2000
   52.0316   43.7062   -3.5887 C   0  0  0  0  0  0
   50.9302   43.4927   -2.7578 C   0  0  0  0  0  0
   50.7861   44.2982   -1.6156 C   0  0  0  0  0  0
   51.7224   45.2898   -1.3076 C   0  0  0  0  0  0
   52.8159   45.4986   -2.1571 C   0  0  0  0  0  0
   52.9572   44.7018   -3.2989 C   0  0  0  0  0  0
   49.9753   42.3835   -3.0609 C   0  0  0  0  0  0
   53.8064   46.4117   -1.7660 N   0  0  0  0  0  0
   54.7489   46.9996   -2.5436 C   0  0  0  0  0  0
   56.0333   47.4680   -1.8370 C   0  0  2  0  0  0
   54.6504   47.1221   -3.7648 O   0  0  0  0  0  0
   56.0565   47.1108   -0.4113 C   0  0  0  0  0  0
   56.4232   48.9389   -2.0612 C   0  0  0  0  0  0
   56.8556   49.3630   -3.4617 C   0  0  0  0  0  0
   56.4231   49.7587   -1.1458 O   0  0  0  0  0  0
   56.0498   46.8101    0.7011 N   0  0  0  0  0  0
   49.4187   42.1687   -4.3434 C   0  0  0  0  0  0
   48.5613   41.0792   -4.5631 C   0  0  0  0  0  0
   48.2591   40.2005   -3.5272 C   0  0  0  0  0  0
   48.7902   40.4100   -2.2618 C   0  0  0  0  0  0
   49.6318   41.4945   -2.0332 C   0  0  0  0  0  0
   49.7447   43.2467   -5.6661 Cl  0  0  0  0  0  0
   47.8218   40.8100   -6.0989 Cl  0  0  0  0  0  0
   52.1995   43.0803   -4.4525 H   0  0  0  0  0  0
   49.9466   44.1509   -0.9516 H   0  0  0  0  0  0
   51.5973   45.8790   -0.4104 H   0  0  0  0  0  0
   53.8137   44.8121   -3.9392 H   0  0  0  0  0  0
   53.8715   46.5624   -0.7696 H   0  0  0  0  0  0
   56.0170   49.3020   -4.1540 H   0  0  0  0  0  0
   57.6660   48.7300   -3.8215 H   0  0  0  0  0  0
   57.2026   50.3972   -3.4509 H   0  0  0  0  0  0
   56.8424   46.8751   -2.2637 H   0  0  0  0  0  0
   47.6011   39.3609   -3.6986 H   0  0  0  0  0  0
   48.5354   39.7383   -1.4546 H   0  0  0  0  0  0
   50.0411   41.6302   -1.0424 H   0  0  0  0  0  0
  1  6  1  0  0  0
  1  2  2  0  0  0
  1 24  1  0  0  0
  2  7  1  0  0  0
  2  3  1  0  0  0
  3  4  2  0  0  0
  3 25  1  0  0  0
  4  5  1  0  0  0
  4 26  1  0  0  0
  5  6  2  0  0  0
  5  8  1  0  0  0
  6 27  1  0  0  0
  7 17  2  0  0  0
  7 21  1  0  0  0
  8  9  1  0  0  0
  8 28  1  0  0  0
  9 11  2  0  0  0
  9 10  1  0  0  0
 10 12  1  0  0  0
 10 32  1  0  0  0
 10 13  1  0  0  0
 12 16  3  0  0  0
 13 15  2  0  0  0
 13 14  1  0  0  0
 14 29  1  0  0  0
 14 30  1  0  0  0
 14 31  1  0  0  0
 17 18  1  0  0  0
 17 22  1  0  0  0
 18 19  2  0  0  0
 18 23  1  0  0  0
 19 20  1  0  0  0
 19 33  1  0  0  0
 20 21  2  0  0  0
 20 34  1  0  0  0
 21 35  1  0  0  0
M  END
> <s_m_entry_id>
25853

> <s_m_entry_name>
dock_pv.505

> <s_m_Source_Path>
/home/csk/Desktop/cluster/DUD-E-result/pyrd

> <s_m_Source_File>
dock_pv.maegz

> <i_m_Source_File_Index>
505

> <chembl_id>
CHEMBL505315

> <chembl_pref_name>
None

> <i_lp_mmshare_version>
53161

> <r_lp_tautomer_probability>
0.995394628248396

> <s_lp_Force_Field>
OPLS_2005

> <r_lp_Energy>
24.511536

> <b_lp_Chiralities_Consistent>
1

> <s_lp_Variant>
CHEMBL1966_lig111-1

> <s_i_glide_gridfile>
glide-grid_1d3g

> <i_i_glide_lignum>
123

> <i_i_glide_rotatable_bonds>
5

> <r_i_docking_score>
-8.11082504627039

> <r_i_glide_ligand_efficiency>
-0.352644567229147

> <r_i_glide_ligand_efficiency_sa>
-1.00287423931885

> <r_i_glide_ligand_efficiency_ln>
-1.96127104108356

> <r_i_glide_gscore>
-8.11082504627039

> <r_i_glide_lipo>
-4.29690873897735

> <r_i_glide_hbond>
0

> <r_i_glide_metal>
0

> <r_i_glide_rewards>
-2.25376435107512

> <r_i_glide_evdw>
-42.0800666809082

> <r_i_glide_ecoul>
-0.582219243049622

> <r_i_glide_erotb>
0.631184264284931

> <r_i_glide_esite>
0

> <r_i_glide_emodel>
-58.6835390451116

> <r_i_glide_energy>
-42.6622859239578

> <r_i_glide_einternal>
9.65892696380615

> <i_i_glide_confnum>
23

> <i_i_glide_posenum>
192

> <r_i_glide_eff_state_penalty>
0

> <s_user_duplicate_titles>
CHEMBL1966_lig111

> <i_f3d_flags>
0

> <s_m_subgroup_title>
dock_pv

> <s_m_subgroupid>
dock_pv

> <b_m_subgroup_collapsed>
1

$$$$
CHEMBL1966_lig668 
                    3D
 Schrodinger Suite 2021-1.
 45 48  0  0  1  0            999 V2000
   50.0240   42.4114   -4.4807 C   0  0  0  0  0  0
   50.7971   43.3661   -3.8125 C   0  0  0  0  0  0
   50.8247   43.4727   -2.4171 C   0  0  0  0  0  0
   50.1797   42.5037   -1.6471 C   0  0  0  0  0  0
   49.3431   41.4838   -3.6904 C   0  0  0  0  0  0
   49.4389   41.4937   -2.2745 C   0  0  0  0  0  0
   48.6431   40.4099   -1.7837 C   0  0  0  0  0  0
   48.0151   39.8511   -2.8697 C   0  0  0  0  0  0
   48.4814   40.4563   -4.0110 N   0  0  0  0  0  0
   46.9889   38.7528   -2.8991 C   0  0  0  0  0  0
   48.4368   40.0230   -0.3449 C   0  0  0  0  0  0
   51.4991   44.6088   -1.7004 C   0  0  0  0  0  0
   51.2035   45.0985   -0.5192 N   0  0  0  0  0  0
   52.1558   46.0709   -0.2447 N   0  0  0  0  0  0
   52.9527   46.0958   -1.2815 C   0  0  0  0  0  0
   52.5916   45.2100   -2.2477 O   0  0  0  0  0  0
   54.4179   47.0644   -1.4598 S   0  0  0  0  0  0
   54.7636   46.9067   -3.2412 C   0  0  0  0  0  0
   55.6964   45.7296   -3.5828 C   0  0  0  0  0  0
   56.8455   45.9432   -4.2704 N   0  0  0  0  0  0
   55.3684   44.5989   -3.2219 O   0  0  0  0  0  0
   57.2485   47.2045   -4.9037 C   0  0  0  0  0  0
   58.0996   46.7168   -6.0722 C   0  0  0  0  0  0
   58.7847   45.4843   -5.5197 C   0  0  0  0  0  0
   57.7349   44.8308   -4.6251 C   0  0  0  0  0  0
   49.9662   42.4013   -5.5592 H   0  0  0  0  0  0
   51.3598   44.0573   -4.4156 H   0  0  0  0  0  0
   50.2099   42.5551   -0.5690 H   0  0  0  0  0  0
   48.1646   40.1805   -4.9259 H   0  0  0  0  0  0
   46.3575   38.7737   -2.0102 H   0  0  0  0  0  0
   46.3154   38.8127   -3.7526 H   0  0  0  0  0  0
   47.4883   37.7875   -2.8997 H   0  0  0  0  0  0
   48.8195   39.0373   -0.0989 H   0  0  0  0  0  0
   48.9365   40.7323    0.3046 H   0  0  0  0  0  0
   47.3759   40.0112   -0.0984 H   0  0  0  0  0  0
   55.2211   47.8543   -3.5147 H   0  0  0  0  0  0
   53.8401   46.8416   -3.8175 H   0  0  0  0  0  0
   57.8820   47.7754   -4.2232 H   0  0  0  0  0  0
   56.4239   47.7907   -5.2980 H   0  0  0  0  0  0
   58.7939   47.4783   -6.4282 H   0  0  0  0  0  0
   57.4598   46.4466   -6.9157 H   0  0  0  0  0  0
   59.1724   44.8130   -6.2870 H   0  0  0  0  0  0
   59.6245   45.7943   -4.9017 H   0  0  0  0  0  0
   57.1953   44.0688   -5.1887 H   0  0  0  0  0  0
   58.2123   44.4102   -3.7393 H   0  0  0  0  0  0
  1  5  1  0  0  0
  1  2  2  0  0  0
  1 26  1  0  0  0
  2  3  1  0  0  0
  2 27  1  0  0  0
  3  4  2  0  0  0
  3 12  1  0  0  0
  4  6  1  0  0  0
  4 28  1  0  0  0
  5  6  2  0  0  0
  5  9  1  0  0  0
  6  7  1  0  0  0
  7  8  2  0  0  0
  7 11  1  0  0  0
  8  9  1  0  0  0
  8 10  1  0  0  0
  9 29  1  0  0  0
 10 30  1  0  0  0
 10 31  1  0  0  0
 10 32  1  0  0  0
 11 33  1  0  0  0
 11 34  1  0  0  0
 11 35  1  0  0  0
 12 13  2  0  0  0
 12 16  1  0  0  0
 13 14  1  0  0  0
 14 15  2  0  0  0
 15 16  1  0  0  0
 15 17  1  0  0  0
 17 18  1  0  0  0
 18 19  1  0  0  0
 18 36  1  0  0  0
 18 37  1  0  0  0
 19 20  1  0  0  0
 19 21  2  0  0  0
 20 22  1  0  0  0
 20 25  1  0  0  0
 22 23  1  0  0  0
 22 38  1  0  0  0
 22 39  1  0  0  0
 23 24  1  0  0  0
 23 40  1  0  0  0
 23 41  1  0  0  0
 24 25  1  0  0  0
 24 42  1  0  0  0
 24 43  1  0  0  0
 25 44  1  0  0  0
 25 45  1  0  0  0
M  END
> <s_m_entry_id>
25854

> <s_m_entry_name>
dock_pv.506

> <s_m_Source_Path>
/home/csk/Desktop/cluster/DUD-E-result/pyrd

> <s_m_Source_File>
dock_pv.maegz

> <i_m_Source_File_Index>
506

> <chembl_id>
CHEMBL4592233

> <chembl_pref_name>
None

> <i_lp_mmshare_version>
53161

> <r_lp_tautomer_probability>
1

> <s_lp_Force_Field>
OPLS_2005

> <r_lp_Energy>
32.638038

> <b_lp_Chiralities_Consistent>
1

> <s_lp_Variant>
CHEMBL1966_lig668 -1

> <s_i_glide_gridfile>
glide-grid_1d3g

> <i_i_glide_lignum>
737

> <i_i_glide_rotatable_bonds>
5

> <r_i_docking_score>
-8.05838264554635

> <r_i_glide_ligand_efficiency>
-0.322335305821854

> <r_i_glide_ligand_efficiency_sa>
-0.942514150864091

> <r_i_glide_ligand_efficiency_ln>
-1.91007817723531

> <r_i_glide_gscore>
-8.05838264554635

> <r_i_glide_lipo>
-4.48230551275549

> <r_i_glide_hbond>
0

> <r_i_glide_metal>
0

> <r_i_glide_rewards>
-2.14895465306195

> <r_i_glide_evdw>
-42.029354095459

> <r_i_glide_ecoul>
0.479963362216949

> <r_i_glide_erotb>
0.602350720711499

> <r_i_glide_esite>
0

> <r_i_glide_emodel>
-55.8265518283203

> <r_i_glide_energy>
-41.549390733242

> <r_i_glide_einternal>
3.77262258529663

> <i_i_glide_confnum>
4

> <i_i_glide_posenum>
34

> <r_i_glide_eff_state_penalty>
0

> <s_user_duplicate_titles>
CHEMBL1966_lig668 

> <i_f3d_flags>
0

> <s_m_subgroup_title>
dock_pv

> <s_m_subgroupid>
dock_pv

> <b_m_subgroup_collapsed>
1

$$$$
CHEMBL1966_lig627
                    3D
 Schrodinger Suite 2021-1.
 38 39  0  0  1  0            999 V2000
   56.8194   48.7187   -1.9198 C   0  0  0  0  0  0
   55.7345   48.6178   -2.7795 C   0  0  0  0  0  0
   54.6496   47.8091   -2.4426 C   0  0  0  0  0  0
   54.6388   47.0477   -1.2572 C   0  0  0  0  0  0
   55.7866   47.0985   -0.4536 C   0  0  0  0  0  0
   56.8230   47.9607   -0.7576 C   0  0  0  0  0  0
   53.4685   46.3515   -0.8124 N   0  0  0  0  0  0
   53.0978   46.3957    0.4998 C   0  0  0  0  0  0
   51.7383   45.8148    0.7136 C   0  0  0  0  0  0
   51.0398   45.6126   -0.8992 S   0  0  0  0  0  0
   52.6609   45.5625   -1.6191 C   0  0  0  0  0  0
   53.0306   44.8098   -2.6960 C   0  0  0  0  0  0
   53.6230   47.7718   -3.2991 F   0  0  0  0  0  0
   52.1483   43.8760   -3.4742 C   0  0  0  0  0  0
   54.4075   44.7620   -3.0881 C   0  0  0  0  0  0
   55.5449   44.6900   -3.2995 N   0  0  0  0  0  0
   50.8724   43.7370   -3.0575 O   0  0  0  0  0  0
   52.5706   43.2100   -4.4100 O   0  0  0  0  0  0
   49.9799   42.7681   -3.6164 C   0  0  0  0  0  0
   53.7369   46.8101    1.4609 O   0  0  0  0  0  0
   49.8783   41.5326   -2.7057 C   0  0  0  0  0  0
   49.7860   41.8952   -1.2102 C   0  0  0  0  0  0
   49.1500   40.8100   -0.3389 C   0  0  0  0  0  0
   57.6496   49.3699   -2.1518 H   0  0  0  0  0  0
   55.7191   49.1866   -3.6973 H   0  0  0  0  0  0
   55.8750   46.5186    0.4533 H   0  0  0  0  0  0
   57.6254   48.0103   -0.0535 H   0  0  0  0  0  0
   51.2229   46.5704    1.2920 H   0  0  0  0  0  0
   51.7786   44.8866    1.2809 H   0  0  0  0  0  0
   50.2570   42.4774   -4.6313 H   0  0  0  0  0  0
   48.9905   43.2107   -3.7070 H   0  0  0  0  0  0
   50.7397   40.8869   -2.8739 H   0  0  0  0  0  0
   49.0061   40.9524   -3.0102 H   0  0  0  0  0  0
   49.2231   42.8218   -1.0833 H   0  0  0  0  0  0
   50.7882   42.1148   -0.8382 H   0  0  0  0  0  0
   49.2230   41.0993    0.7012 H   0  0  0  0  0  0
   49.6419   39.8606   -0.4307 H   0  0  0  0  0  0
   48.1029   40.6294   -0.5754 H   0  0  0  0  0  0
  1  2  2  0  0  0
  1  6  1  0  0  0
  1 24  1  0  0  0
  2  3  1  0  0  0
  2 25  1  0  0  0
  3  4  2  0  0  0
  3 13  1  0  0  0
  4  5  1  0  0  0
  4  7  1  0  0  0
  5  6  2  0  0  0
  5 26  1  0  0  0
  6 27  1  0  0  0
  7  8  1  0  0  0
  7 11  1  0  0  0
  8  9  1  0  0  0
  8 20  2  0  0  0
  9 10  1  0  0  0
  9 28  1  0  0  0
  9 29  1  0  0  0
 10 11  1  0  0  0
 11 12  2  0  0  0
 12 14  1  0  0  0
 12 15  1  0  0  0
 14 17  1  0  0  0
 14 18  2  0  0  0
 15 16  3  0  0  0
 17 19  1  0  0  0
 19 21  1  0  0  0
 19 30  1  0  0  0
 19 31  1  0  0  0
 21 22  1  0  0  0
 21 32  1  0  0  0
 21 33  1  0  0  0
 22 23  1  0  0  0
 22 34  1  0  0  0
 22 35  1  0  0  0
 23 36  1  0  0  0
 23 37  1  0  0  0
 23 38  1  0  0  0
M  END
> <s_m_entry_id>
25855

> <s_m_entry_name>
dock_pv.507

> <s_m_Source_Path>
/home/csk/Desktop/cluster/DUD-E-result/pyrd

> <s_m_Source_File>
dock_pv.maegz

> <i_m_Source_File_Index>
507

> <chembl_id>
CHEMBL4288967

> <chembl_pref_name>
None

> <i_lp_mmshare_version>
53161

> <r_lp_tautomer_probability>
1

> <s_lp_Force_Field>
OPLS_2005

> <r_lp_Energy>
34.945289

> <b_lp_Chiralities_Consistent>
1

> <s_lp_Variant>
CHEMBL1966_lig627-1

> <s_i_glide_gridfile>
glide-grid_1d3g

> <i_i_glide_lignum>
681

> <i_i_glide_rotatable_bonds>
6

> <r_i_docking_score>
-8.03919138927221

> <r_i_glide_ligand_efficiency>
-0.34953006040314

> <r_i_glide_ligand_efficiency_sa>
-0.9940169962071

> <r_i_glide_ligand_efficiency_ln>
-1.94394937328331

> <r_i_glide_gscore>
-8.03919138927221

> <r_i_glide_lipo>
-3.79183950698318

> <r_i_glide_hbond>
0

> <r_i_glide_metal>
0

> <r_i_glide_rewards>
-3.72615074017748

> <r_i_glide_evdw>
-29.4259510040283

> <r_i_glide_ecoul>
0.711000442504883

> <r_i_glide_erotb>
0.843446341714134

> <r_i_glide_esite>
0

> <r_i_glide_emodel>
-25.7391297928454

> <r_i_glide_energy>
-28.7149505615234

> <r_i_glide_einternal>
6.47968053817749

> <i_i_glide_confnum>
27

> <i_i_glide_posenum>
347

> <r_i_glide_eff_state_penalty>
0

> <s_user_duplicate_titles>
CHEMBL1966_lig627

> <i_f3d_flags>
0

> <s_m_subgroup_title>
dock_pv

> <s_m_subgroupid>
dock_pv

> <b_m_subgroup_collapsed>
1

$$$$
CHEMBL1966_lig52
                    3D
 Schrodinger Suite 2021-1.
 28 29  0  0  1  0            999 V2000
   50.1554   42.7001   -3.1304 C   0  0  0  0  0  0
   50.4231   43.3081   -1.9013 C   0  0  0  0  0  0
   50.0732   42.3677   -0.9757 N   0  0  0  0  0  0
   49.6228   41.2320   -1.4996 N   0  0  0  0  0  0
   55.8293   47.2495   -2.1048 C   0  0  0  0  0  0
   49.6071   41.4504   -2.7933 C   0  0  0  0  0  0
   50.3075   43.2100   -4.4838 C   0  0  0  0  0  0
   50.8234   44.5445   -1.4602 N   0  0  0  0  0  0
   50.4271   43.6077   -5.5639 N   0  0  0  0  0  0
   54.4826   46.5420   -1.9590 C   0  0  0  0  0  0
   56.2029   47.8597   -0.9778 F   0  0  0  0  0  0
   56.7796   46.3737   -2.4353 F   0  0  0  0  0  0
   55.7361   48.1665   -3.0677 F   0  0  0  0  0  0
   52.0332   45.2101   -1.6989 C   0  0  0  0  0  0
   54.0812   45.6103   -2.9199 C   0  0  0  0  0  0
   53.6470   46.8085   -0.8712 C   0  0  0  0  0  0
   52.8626   44.9475   -2.7964 C   0  0  0  0  0  0
   52.4247   46.1549   -0.7506 C   0  0  0  0  0  0
   49.0042   40.4097   -3.6995 C   0  0  0  0  0  0
   50.1443   42.5010    0.0209 H   0  0  0  0  0  0
   50.3629   44.9286   -0.6486 H   0  0  0  0  0  0
   54.7208   45.3919   -3.7623 H   0  0  0  0  0  0
   53.9380   47.5241   -0.1163 H   0  0  0  0  0  0
   52.5948   44.2155   -3.5392 H   0  0  0  0  0  0
   51.7975   46.3736    0.1015 H   0  0  0  0  0  0
   48.7375   40.8078   -4.6772 H   0  0  0  0  0  0
   49.7156   39.6100   -3.8664 H   0  0  0  0  0  0
   48.1019   39.9642   -3.2818 H   0  0  0  0  0  0
  1  2  2  0  0  0
  1  6  1  0  0  0
  1  7  1  0  0  0
  2  3  1  0  0  0
  2  8  1  0  0  0
  3  4  1  0  0  0
  3 20  1  0  0  0
  4  6  2  0  0  0
  5 10  1  0  0  0
  5 11  1  0  0  0
  5 12  1  0  0  0
  5 13  1  0  0  0
  6 19  1  0  0  0
  7  9  3  0  0  0
  8 14  1  0  0  0
  8 21  1  0  0  0
 10 16  2  0  0  0
 10 15  1  0  0  0
 14 17  1  0  0  0
 14 18  2  0  0  0
 15 17  2  0  0  0
 15 22  1  0  0  0
 16 18  1  0  0  0
 16 23  1  0  0  0
 17 24  1  0  0  0
 18 25  1  0  0  0
 19 26  1  0  0  0
 19 27  1  0  0  0
 19 28  1  0  0  0
M  END
> <s_m_entry_id>
25856

> <s_m_entry_name>
dock_pv.508

> <s_m_Source_Path>
/home/csk/Desktop/cluster/DUD-E-result/pyrd

> <s_m_Source_File>
dock_pv.maegz

> <i_m_Source_File_Index>
508

> <chembl_id>
CHEMBL334317

> <chembl_pref_name>
None

> <i_lp_mmshare_version>
53161

> <r_lp_tautomer_probability>
1

> <s_lp_Force_Field>
OPLS_2005

> <r_lp_Energy>
10.410523

> <b_lp_Chiralities_Consistent>
1

> <s_lp_Variant>
CHEMBL1966_lig52-1

> <s_i_glide_gridfile>
glide-grid_1d3g

> <i_i_glide_lignum>
57

> <i_i_glide_rotatable_bonds>
3

> <r_i_docking_score>
-8.02659286487824

> <r_i_glide_ligand_efficiency>
-0.422452256046223

> <r_i_glide_ligand_efficiency_sa>
-1.12727229543365

> <r_i_glide_ligand_efficiency_ln>
-2.03491368665423

> <r_i_glide_gscore>
-8.02659286487824

> <r_i_glide_lipo>
-3.29176965779246

> <r_i_glide_hbond>
0

> <r_i_glide_metal>
0

> <r_i_glide_rewards>
-3.67265971352079

> <r_i_glide_evdw>
-34.7199478149414

> <r_i_glide_ecoul>
1.14167046546936

> <r_i_glide_erotb>
0.502583327361679

> <r_i_glide_esite>
0

> <r_i_glide_emodel>
-47.6799484215717

> <r_i_glide_energy>
-33.578277349472

> <r_i_glide_einternal>
1.58341121673584

> <i_i_glide_confnum>
1

> <i_i_glide_posenum>
299

> <r_i_glide_eff_state_penalty>
0

> <s_user_duplicate_titles>
CHEMBL1966_lig52

> <i_f3d_flags>
0

> <s_m_subgroup_title>
dock_pv

> <s_m_subgroupid>
dock_pv

> <b_m_subgroup_collapsed>
1

$$$$
CHEMBL1966_lig412
                    3D
 Schrodinger Suite 2021-1.
 37 39  0  0  1  0            999 V2000
   49.2811   41.2654   -2.9566 C   0  0  0  0  0  0
   49.2230   40.8100   -1.5471 C   0  0  0  0  0  0
   48.2577   39.8890   -1.2828 N   0  0  0  0  0  0
   47.4276   39.2291   -2.1346 C   0  0  0  0  0  0
   47.5774   39.6177   -3.4253 N   0  0  0  0  0  0
   48.4229   40.6278   -3.8341 C   0  0  0  0  0  0
   48.2601   40.9023   -5.2574 C   0  0  0  0  0  0
   46.9720   41.2100   -5.5995 O   0  0  0  0  0  0
   49.1482   40.8100   -6.0990 O   0  0  0  0  0  0
   46.5907   38.4100   -1.7701 O   0  0  0  0  0  0
   49.8940   41.2110   -0.5976 O   0  0  0  0  0  0
   50.2523   42.3715   -3.2742 C   0  0  0  0  0  0
   50.4887   42.8100   -4.4969 N   0  0  0  0  0  0
   51.6127   43.6108   -4.4990 N   0  0  0  0  0  0
   51.9418   43.8598   -3.2300 N   0  0  0  0  0  0
   51.0942   43.1181   -2.4320 C   0  0  0  0  0  0
   53.1019   44.6451   -2.8990 C   0  0  0  0  0  0
   53.1466   45.7522   -2.0175 C   0  0  0  0  0  0
   54.3536   46.4762   -1.8895 C   0  0  0  0  0  0
   55.5355   46.0223   -2.4620 C   0  0  0  0  0  0
   55.5385   44.8101   -3.1317 C   0  0  0  0  0  0
   54.3399   44.1238   -3.2990 C   0  0  0  0  0  0
   52.0221   46.1109   -1.1077 C   0  0  0  0  0  0
   50.8398   45.8281   -1.2990 O   0  0  0  0  0  0
   52.4927   46.6589    0.0386 O   0  0  0  0  0  0
   51.6241   46.9825    1.0895 C   0  0  0  0  0  0
   48.1759   39.6176   -0.3144 H   0  0  0  0  0  0
   47.0377   39.0851   -4.0911 H   0  0  0  0  0  0
   46.4108   41.4089   -4.8459 H   0  0  0  0  0  0
   51.2230   43.1197   -1.3614 H   0  0  0  0  0  0
   54.4121   47.3709   -1.2844 H   0  0  0  0  0  0
   56.4555   46.5727   -2.3273 H   0  0  0  0  0  0
   56.4611   44.4006   -3.5173 H   0  0  0  0  0  0
   54.3674   43.1735   -3.8132 H   0  0  0  0  0  0
   52.1497   47.5227    1.8767 H   0  0  0  0  0  0
   51.2230   46.0603    1.5010 H   0  0  0  0  0  0
   50.8230   47.6100    0.7010 H   0  0  0  0  0  0
  1  2  1  0  0  0
  1  6  2  0  0  0
  1 12  1  0  0  0
  2  3  1  0  0  0
  2 11  2  0  0  0
  3  4  1  0  0  0
  3 27  1  0  0  0
  4  5  1  0  0  0
  4 10  2  0  0  0
  5  6  1  0  0  0
  5 28  1  0  0  0
  6  7  1  0  0  0
  7  8  1  0  0  0
  7  9  2  0  0  0
  8 29  1  0  0  0
 12 13  1  0  0  0
 12 16  2  0  0  0
 13 14  2  0  0  0
 14 15  1  0  0  0
 15 16  1  0  0  0
 15 17  1  0  0  0
 16 30  1  0  0  0
 17 18  2  0  0  0
 17 22  1  0  0  0
 18 19  1  0  0  0
 18 23  1  0  0  0
 19 20  2  0  0  0
 19 31  1  0  0  0
 20 21  1  0  0  0
 20 32  1  0  0  0
 21 22  2  0  0  0
 21 33  1  0  0  0
 22 34  1  0  0  0
 23 24  2  0  0  0
 23 25  1  0  0  0
 25 26  1  0  0  0
 26 35  1  0  0  0
 26 36  1  0  0  0
 26 37  1  0  0  0
M  END
> <s_m_entry_id>
25857

> <s_m_entry_name>
dock_pv.509

> <s_m_Source_Path>
/home/csk/Desktop/cluster/DUD-E-result/pyrd

> <s_m_Source_File>
dock_pv.maegz

> <i_m_Source_File_Index>
509

> <chembl_id>
CHEMBL3980064

> <chembl_pref_name>
None

> <i_lp_mmshare_version>
53161

> <r_lp_tautomer_probability>
1

> <s_lp_Force_Field>
OPLS_2005

> <r_lp_Energy>
28.111918

> <b_lp_Chiralities_Consistent>
1

> <s_lp_Variant>
CHEMBL1966_lig412-1

> <s_i_glide_gridfile>
glide-grid_1d3g

> <i_i_glide_lignum>
462

> <i_i_glide_rotatable_bonds>
6

> <r_i_docking_score>
-8.02587896754835

> <r_i_glide_ligand_efficiency>
-0.308687652598014

> <r_i_glide_ligand_efficiency_sa>
-0.914485956194355

> <r_i_glide_ligand_efficiency_ln>
-1.88485134047185

> <r_i_glide_gscore>
-8.02587896754835

> <r_i_glide_lipo>
-3.42435970551307

> <r_i_glide_hbond>
-0.16

> <r_i_glide_metal>
0

> <r_i_glide_rewards>
-2.72069715495077

> <r_i_glide_evdw>
-32.0342407226562

> <r_i_glide_ecoul>
-4.79304313659668

> <r_i_glide_erotb>
0.599846399537796

> <r_i_glide_esite>
0

> <r_i_glide_emodel>
-40.5639493977438

> <r_i_glide_energy>
-36.8272838592529

> <r_i_glide_einternal>
13.348295211792

> <i_i_glide_confnum>
60

> <i_i_glide_posenum>
267

> <r_i_glide_eff_state_penalty>
0

> <s_user_duplicate_titles>
CHEMBL1966_lig412

> <i_f3d_flags>
0

> <s_m_subgroup_title>
dock_pv

> <s_m_subgroupid>
dock_pv

> <b_m_subgroup_collapsed>
1

$$$$
CHEMBL1966_lig339
                    3D
 Schrodinger Suite 2021-1.
 31 32  0  0  1  0            999 V2000
   50.1508   42.3348   -3.4870 C   0  0  0  0  0  0
   50.0801   42.8100   -4.8742 C   0  0  0  0  0  0
   49.1150   42.2252   -5.6195 N   0  0  0  0  0  0
   48.2681   41.2158   -5.2986 C   0  0  0  0  0  0
   48.4426   40.7502   -4.0309 N   0  0  0  0  0  0
   49.3129   41.3172   -3.1145 C   0  0  0  0  0  0
   49.2082   40.8100   -1.7441 C   0  0  0  0  0  0
   48.2167   39.8827   -1.5822 O   0  0  0  0  0  0
   49.8378   41.2106   -0.7700 O   0  0  0  0  0  0
   47.4168   40.8100   -6.0795 O   0  0  0  0  0  0
   50.8230   43.6290   -5.4007 O   0  0  0  0  0  0
   51.2090   43.0251   -2.6088 C   0  0  0  0  0  0
   50.6733   44.2569   -1.8433 C   0  0  0  0  0  0
   51.7318   45.2084   -1.2778 C   0  0  0  0  0  0
   51.6364   45.6100    0.0580 C   0  0  0  0  0  0
   52.6266   46.4100    0.6225 C   0  0  0  0  0  0
   53.7129   46.8100   -0.1523 C   0  0  0  0  0  0
   53.8057   46.4388   -1.4917 C   0  0  0  0  0  0
   52.8145   45.6412   -2.0568 C   0  0  0  0  0  0
   49.0194   42.6006   -6.5493 H   0  0  0  0  0  0
   47.8446   39.9849   -3.7500 H   0  0  0  0  0  0
   48.1634   39.6114   -0.6625 H   0  0  0  0  0  0
   51.6230   42.3066   -1.9078 H   0  0  0  0  0  0
   52.0664   43.2900   -3.2285 H   0  0  0  0  0  0
   50.0230   44.8166   -2.4990 H   0  0  0  0  0  0
   50.0227   43.9093   -1.0393 H   0  0  0  0  0  0
   50.8230   45.2620    0.6766 H   0  0  0  0  0  0
   52.5613   46.7031    1.6603 H   0  0  0  0  0  0
   54.4864   47.4225    0.2876 H   0  0  0  0  0  0
   54.6454   46.7638   -2.0884 H   0  0  0  0  0  0
   52.8967   45.3557   -3.0953 H   0  0  0  0  0  0
  1  2  1  0  0  0
  1  6  2  0  0  0
  1 12  1  0  0  0
  2  3  1  0  0  0
  2 11  2  0  0  0
  3  4  1  0  0  0
  3 20  1  0  0  0
  4  5  1  0  0  0
  4 10  2  0  0  0
  5  6  1  0  0  0
  5 21  1  0  0  0
  6  7  1  0  0  0
  7  8  1  0  0  0
  7  9  2  0  0  0
  8 22  1  0  0  0
 12 13  1  0  0  0
 12 23  1  0  0  0
 12 24  1  0  0  0
 13 14  1  0  0  0
 13 25  1  0  0  0
 13 26  1  0  0  0
 14 15  2  0  0  0
 14 19  1  0  0  0
 15 16  1  0  0  0
 15 27  1  0  0  0
 16 17  2  0  0  0
 16 28  1  0  0  0
 17 18  1  0  0  0
 17 29  1  0  0  0
 18 19  2  0  0  0
 18 30  1  0  0  0
 19 31  1  0  0  0
M  END
> <s_m_entry_id>
25858

> <s_m_entry_name>
dock_pv.510

> <s_m_Source_Path>
/home/csk/Desktop/cluster/DUD-E-result/pyrd

> <s_m_Source_File>
dock_pv.maegz

> <i_m_Source_File_Index>
510

> <chembl_id>
CHEMBL3934806

> <chembl_pref_name>
None

> <i_lp_mmshare_version>
53161

> <r_lp_tautomer_probability>
1

> <s_lp_Force_Field>
OPLS_2005

> <r_lp_Energy>
12.227409

> <b_lp_Chiralities_Consistent>
1

> <s_lp_Variant>
CHEMBL1966_lig339-1

> <s_i_glide_gridfile>
glide-grid_1d3g

> <i_i_glide_lignum>
389

> <i_i_glide_rotatable_bonds>
5

> <r_i_docking_score>
-8.01270055337183

> <r_i_glide_ligand_efficiency>
-0.421721081756412

> <r_i_glide_ligand_efficiency_sa>
-1.12532122875513

> <r_i_glide_ligand_efficiency_ln>
-2.03139168730786

> <r_i_glide_gscore>
-8.01270055337183

> <r_i_glide_lipo>
-3.52381365209562

> <r_i_glide_hbond>
-0.227198437875222

> <r_i_glide_metal>
0

> <r_i_glide_rewards>
-2.83821612837316

> <r_i_glide_evdw>
-35.6456832885742

> <r_i_glide_ecoul>
-4.57664680480957

> <r_i_glide_erotb>
1.04530885012233

> <r_i_glide_esite>
0

> <r_i_glide_emodel>
-58.2261848999447

> <r_i_glide_energy>
-40.2223300933838

> <r_i_glide_einternal>
1.31358528137207

> <i_i_glide_confnum>
1

> <i_i_glide_posenum>
120

> <r_i_glide_eff_state_penalty>
0

> <s_user_duplicate_titles>
CHEMBL1966_lig339

> <i_f3d_flags>
0

> <s_m_subgroup_title>
dock_pv

> <s_m_subgroupid>
dock_pv

> <b_m_subgroup_collapsed>
1

$$$$
CHEMBL1966_lig325
                    3D
 Schrodinger Suite 2021-1.
 30 31  0  0  1  0            999 V2000
   49.9834   42.0627   -2.9205 C   0  0  0  0  0  0
   50.0093   41.7992   -1.5865 N   0  0  0  0  0  0
   49.2230   40.8100   -1.1026 C   0  0  0  0  0  0
   48.4227   40.0167   -1.9209 C   0  0  0  0  0  0
   48.3849   40.3001   -3.2836 C   0  0  0  0  0  0
   49.1392   41.3591   -3.8107 C   0  0  0  0  0  0
   50.8727   43.0393   -3.3885 N   0  0  0  0  0  0
   51.6230   44.0100   -2.7189 C   0  0  0  0  0  0
   52.8230   44.4100   -3.2990 C   0  0  0  0  0  0
   53.5916   45.4150   -2.7216 C   0  0  0  0  0  0
   53.1599   46.0395   -1.5418 C   0  0  0  0  0  0
   51.9436   45.6533   -0.9732 C   0  0  0  0  0  0
   51.1762   44.6439   -1.5538 C   0  0  0  0  0  0
   49.0107   41.6698   -5.2856 C   0  0  0  0  0  0
   49.2230   42.9652   -5.6478 O   0  0  0  0  0  0
   48.6952   40.8100   -6.0990 O   0  0  0  0  0  0
   53.8702   47.0210   -0.8752 O   0  0  0  0  0  0
   55.1576   47.4256   -1.3432 C   0  0  0  0  0  0
   55.6234   48.3417   -0.4990 F   0  0  0  0  0  0
   56.0230   46.4100   -1.3463 F   0  0  0  0  0  0
   55.0838   47.9911   -2.5497 F   0  0  0  0  0  0
   49.2730   40.6284   -0.0383 H   0  0  0  0  0  0
   47.8330   39.2117   -1.5068 H   0  0  0  0  0  0
   47.7477   39.7006   -3.9196 H   0  0  0  0  0  0
   51.0189   43.0163   -4.3871 H   0  0  0  0  0  0
   53.1932   43.8819   -4.1548 H   0  0  0  0  0  0
   54.5273   45.6725   -3.1929 H   0  0  0  0  0  0
   51.5966   46.1359   -0.0711 H   0  0  0  0  0  0
   50.2312   44.3751   -1.1059 H   0  0  0  0  0  0
   49.0852   43.5892   -4.9288 H   0  0  0  0  0  0
  1  2  2  0  0  0
  1  6  1  0  0  0
  1  7  1  0  0  0
  2  3  1  0  0  0
  3  4  2  0  0  0
  3 22  1  0  0  0
  4  5  1  0  0  0
  4 23  1  0  0  0
  5  6  2  0  0  0
  5 24  1  0  0  0
  6 14  1  0  0  0
  7  8  1  0  0  0
  7 25  1  0  0  0
  8  9  2  0  0  0
  8 13  1  0  0  0
  9 10  1  0  0  0
  9 26  1  0  0  0
 10 11  2  0  0  0
 10 27  1  0  0  0
 11 12  1  0  0  0
 11 17  1  0  0  0
 12 13  2  0  0  0
 12 28  1  0  0  0
 13 29  1  0  0  0
 14 15  1  0  0  0
 14 16  2  0  0  0
 15 30  1  0  0  0
 17 18  1  0  0  0
 18 19  1  0  0  0
 18 20  1  0  0  0
 18 21  1  0  0  0
M  END
> <s_m_entry_id>
25859

> <s_m_entry_name>
dock_pv.511

> <s_m_Source_Path>
/home/csk/Desktop/cluster/DUD-E-result/pyrd

> <s_m_Source_File>
dock_pv.maegz

> <i_m_Source_File_Index>
511

> <chembl_id>
CHEMBL3914938

> <chembl_pref_name>
None

> <i_lp_mmshare_version>
53161

> <r_lp_tautomer_probability>
1

> <s_lp_Force_Field>
OPLS_2005

> <r_lp_Energy>
18.713069

> <b_lp_Chiralities_Consistent>
1

> <s_lp_Variant>
CHEMBL1966_lig325-1

> <s_i_glide_gridfile>
glide-grid_1d3g

> <i_i_glide_lignum>
375

> <i_i_glide_rotatable_bonds>
6

> <r_i_docking_score>
-8.00336653349288

> <r_i_glide_ligand_efficiency>
-0.381112692071089

> <r_i_glide_ligand_efficiency_sa>
-1.05146101901356

> <r_i_glide_ligand_efficiency_ln>
-1.97881620308127

> <r_i_glide_gscore>
-8.00336653349288

> <r_i_glide_lipo>
-3.4339687986531

> <r_i_glide_hbond>
-0.16

> <r_i_glide_metal>
0

> <r_i_glide_rewards>
-2.86945490565051

> <r_i_glide_evdw>
-31.2645435333252

> <r_i_glide_ecoul>
-5.34627819061279

> <r_i_glide_erotb>
0.825226076068915

> <r_i_glide_esite>
0

> <r_i_glide_emodel>
-50.1434703419625

> <r_i_glide_energy>
-36.610821723938

> <r_i_glide_einternal>
9.20255374908447

> <i_i_glide_confnum>
33

> <i_i_glide_posenum>
389

> <r_i_glide_eff_state_penalty>
0

> <s_user_duplicate_titles>
CHEMBL1966_lig325

> <i_f3d_flags>
0

> <s_m_subgroup_title>
dock_pv

> <s_m_subgroupid>
dock_pv

> <b_m_subgroup_collapsed>
1

$$$$
CHEMBL1966_lig355
                    3D
 Schrodinger Suite 2021-1.
 35 36  0  0  1  0            999 V2000
   50.1522   42.4530   -3.2996 C   0  0  0  0  0  0
   50.1163   42.9603   -4.6773 C   0  0  0  0  0  0
   49.2226   42.3414   -5.4846 N   0  0  0  0  0  0
   48.4243   41.2723   -5.2374 C   0  0  0  0  0  0
   48.5527   40.7949   -3.9676 N   0  0  0  0  0  0
   49.3551   41.3766   -2.9971 C   0  0  0  0  0  0
   49.2228   40.8101   -1.6510 C   0  0  0  0  0  0
   48.2423   39.8623   -1.5500 O   0  0  0  0  0  0
   49.8013   41.2100   -0.6440 O   0  0  0  0  0  0
   47.6786   40.8100   -6.0971 O   0  0  0  0  0  0
   50.8233   43.8388   -5.1515 O   0  0  0  0  0  0
   51.1503   43.1694   -2.3633 C   0  0  0  0  0  0
   50.5814   44.3843   -1.5777 C   0  0  0  0  0  0
   51.6229   45.2100   -0.8013 C   0  0  0  0  0  0
   52.7058   45.8658   -1.4220 C   0  0  0  0  0  0
   53.6412   46.5592   -0.6294 C   0  0  0  0  0  0
   53.5044   46.6195    0.7503 C   0  0  0  0  0  0
   52.4234   45.9969    1.3539 C   0  0  0  0  0  0
   51.5012   45.2902    0.5882 C   0  0  0  0  0  0
   52.8253   45.7776   -2.7902 O   0  0  0  0  0  0
   53.8609   46.5036   -3.4370 C   0  0  0  0  0  0
   49.1592   42.7281   -6.4127 H   0  0  0  0  0  0
   47.9758   39.9995   -3.7300 H   0  0  0  0  0  0
   48.1597   39.5677   -0.6400 H   0  0  0  0  0  0
   51.5760   42.4468   -1.6713 H   0  0  0  0  0  0
   52.0200   43.4743   -2.9447 H   0  0  0  0  0  0
   50.0234   45.0558   -2.2225 H   0  0  0  0  0  0
   49.8271   44.0100   -0.8844 H   0  0  0  0  0  0
   54.4935   47.0574   -1.0628 H   0  0  0  0  0  0
   54.2336   47.1458    1.3502 H   0  0  0  0  0  0
   52.3176   46.0101    2.4236 H   0  0  0  0  0  0
   50.6811   44.8021    1.0923 H   0  0  0  0  0  0
   53.7204   46.4100   -4.5024 H   0  0  0  0  0  0
   53.8212   47.5688   -3.2054 H   0  0  0  0  0  0
   54.8472   46.1085   -3.1900 H   0  0  0  0  0  0
  1  2  1  0  0  0
  1  6  2  0  0  0
  1 12  1  0  0  0
  2  3  1  0  0  0
  2 11  2  0  0  0
  3  4  1  0  0  0
  3 22  1  0  0  0
  4  5  1  0  0  0
  4 10  2  0  0  0
  5  6  1  0  0  0
  5 23  1  0  0  0
  6  7  1  0  0  0
  7  8  1  0  0  0
  7  9  2  0  0  0
  8 24  1  0  0  0
 12 13  1  0  0  0
 12 25  1  0  0  0
 12 26  1  0  0  0
 13 14  1  0  0  0
 13 27  1  0  0  0
 13 28  1  0  0  0
 14 15  2  0  0  0
 14 19  1  0  0  0
 15 16  1  0  0  0
 15 20  1  0  0  0
 16 17  2  0  0  0
 16 29  1  0  0  0
 17 18  1  0  0  0
 17 30  1  0  0  0
 18 19  2  0  0  0
 18 31  1  0  0  0
 19 32  1  0  0  0
 20 21  1  0  0  0
 21 33  1  0  0  0
 21 34  1  0  0  0
 21 35  1  0  0  0
M  END
> <s_m_entry_id>
25860

> <s_m_entry_name>
dock_pv.512

> <s_m_Source_Path>
/home/csk/Desktop/cluster/DUD-E-result/pyrd

> <s_m_Source_File>
dock_pv.maegz

> <i_m_Source_File_Index>
512

> <chembl_id>
CHEMBL3908568

> <chembl_pref_name>
None

> <i_lp_mmshare_version>
53161

> <r_lp_tautomer_probability>
1

> <s_lp_Force_Field>
OPLS_2005

> <r_lp_Energy>
14.467018

> <b_lp_Chiralities_Consistent>
1

> <s_lp_Variant>
CHEMBL1966_lig355-1

> <s_i_glide_gridfile>
glide-grid_1d3g

> <i_i_glide_lignum>
405

> <i_i_glide_rotatable_bonds>
6

> <r_i_docking_score>
-8.00210645521222

> <r_i_glide_ligand_efficiency>
-0.381052688343439

> <r_i_glide_ligand_efficiency_sa>
-1.05129547327884

> <r_i_glide_ligand_efficiency_ln>
-1.97850465127261

> <r_i_glide_gscore>
-8.00210645521222

> <r_i_glide_lipo>
-3.66219646036361

> <r_i_glide_hbond>
-0.281286793796558

> <r_i_glide_metal>
0

> <r_i_glide_rewards>
-2.511874539789

> <r_i_glide_evdw>
-32.7404251098633

> <r_i_glide_ecoul>
-5.16536855697632

> <r_i_glide_erotb>
0.865077877776554

> <r_i_glide_esite>
0

> <r_i_glide_emodel>
-53.0760659066625

> <r_i_glide_energy>
-37.9057936668396

> <r_i_glide_einternal>
1.7055401802063

> <i_i_glide_confnum>
5

> <i_i_glide_posenum>
12

> <r_i_glide_eff_state_penalty>
0

> <s_user_duplicate_titles>
CHEMBL1966_lig355

> <i_f3d_flags>
0

> <s_m_subgroup_title>
dock_pv

> <s_m_subgroupid>
dock_pv

> <b_m_subgroup_collapsed>
1

$$$$
CHEMBL1966_lig215
                    3D
 Schrodinger Suite 2021-1.
 34 36  0  0  1  0            999 V2000
   50.7840   42.8101   -7.1057 C   0  0  0  0  0  0
   50.0230   42.5748   -5.8110 C   0  0  0  0  0  0
   50.4991   43.2501   -4.6981 C   0  0  0  0  0  0
   50.1931   42.7894   -3.4252 C   0  0  0  0  0  0
   50.6755   43.4198   -2.2621 N   0  0  0  0  0  0
   51.6228   44.4443   -2.0512 C   0  0  0  0  0  0
   52.7149   44.6793   -2.8991 C   0  0  0  0  0  0
   53.7011   45.6056   -2.5714 C   0  0  0  0  0  0
   54.7522   45.7603   -3.4078 F   0  0  0  0  0  0
   53.6401   46.3139   -1.3679 C   0  0  0  0  0  0
   52.5202   46.1302   -0.5407 C   0  0  0  0  0  0
   52.3938   46.8096    0.6218 F   0  0  0  0  0  0
   51.5258   45.2102   -0.8871 C   0  0  0  0  0  0
   54.8161   47.2206   -0.9836 C   0  0  0  0  0  0
   54.7909   48.3227   -1.7328 F   0  0  0  0  0  0
   54.8219   47.5771    0.3000 F   0  0  0  0  0  0
   55.9702   46.5890   -1.2055 F   0  0  0  0  0  0
   49.3760   41.6820   -3.3701 N   0  0  0  0  0  0
   48.9555   40.9784   -2.2970 N   0  0  0  0  0  0
   48.1081   40.1026   -2.8244 C   0  0  0  0  0  0
   48.0247   40.0761   -4.1489 N   0  0  0  0  0  0
   48.8414   41.0925   -4.5196 C   0  0  0  0  0  0
   49.1712   41.5140   -5.7504 N   0  0  0  0  0  0
   47.2372   39.2045   -1.9399 C   0  0  0  0  0  0
   47.2628   39.5819   -0.6592 F   0  0  0  0  0  0
   47.6233   37.9395   -1.9720 F   0  0  0  0  0  0
   45.9666   39.2100   -2.3385 F   0  0  0  0  0  0
   51.8146   42.5046   -6.9669 H   0  0  0  0  0  0
   50.4230   42.2247   -7.9391 H   0  0  0  0  0  0
   50.8230   43.8663   -7.3731 H   0  0  0  0  0  0
   51.1601   44.0763   -4.8615 H   0  0  0  0  0  0
   50.1555   43.1519   -1.4396 H   0  0  0  0  0  0
   52.8795   44.0614   -3.7625 H   0  0  0  0  0  0
   50.6990   45.0615   -0.2098 H   0  0  0  0  0  0
  1  2  1  0  0  0
  1 28  1  0  0  0
  1 29  1  0  0  0
  1 30  1  0  0  0
  2  3  1  0  0  0
  2 23  2  0  0  0
  3  4  2  0  0  0
  3 31  1  0  0  0
  4  5  1  0  0  0
  4 18  1  0  0  0
  5  6  1  0  0  0
  5 32  1  0  0  0
  6  7  2  0  0  0
  6 13  1  0  0  0
  7  8  1  0  0  0
  7 33  1  0  0  0
  8  9  1  0  0  0
  8 10  2  0  0  0
 10 11  1  0  0  0
 10 14  1  0  0  0
 11 12  1  0  0  0
 11 13  2  0  0  0
 13 34  1  0  0  0
 14 15  1  0  0  0
 14 16  1  0  0  0
 14 17  1  0  0  0
 18 19  1  0  0  0
 18 22  1  0  0  0
 19 20  2  0  0  0
 20 21  1  0  0  0
 20 24  1  0  0  0
 21 22  2  0  0  0
 22 23  1  0  0  0
 24 25  1  0  0  0
 24 26  1  0  0  0
 24 27  1  0  0  0
M  END
> <s_m_entry_id>
25861

> <s_m_entry_name>
dock_pv.513

> <s_m_Source_Path>
/home/csk/Desktop/cluster/DUD-E-result/pyrd

> <s_m_Source_File>
dock_pv.maegz

> <i_m_Source_File_Index>
513

> <chembl_id>
CHEMBL3289672

> <chembl_pref_name>
None

> <i_lp_mmshare_version>
53161

> <r_lp_tautomer_probability>
1

> <s_lp_Force_Field>
OPLS_2005

> <r_lp_Energy>
21.375359

> <b_lp_Chiralities_Consistent>
1

> <s_lp_Variant>
CHEMBL1966_lig215-1

> <s_i_glide_gridfile>
glide-grid_1d3g

> <i_i_glide_lignum>
260

> <i_i_glide_rotatable_bonds>
4

> <r_i_docking_score>
-7.99966613634684

> <r_i_glide_ligand_efficiency>
-0.296283930975809

> <r_i_glide_ligand_efficiency_sa>
-0.888851791950923

> <r_i_glide_ligand_efficiency_ln>
-1.86219039173793

> <r_i_glide_gscore>
-7.99966613634684

> <r_i_glide_lipo>
-3.41320611573595

> <r_i_glide_hbond>
0

> <r_i_glide_metal>
0

> <r_i_glide_rewards>
-3.12093361372947

> <r_i_glide_evdw>
-33.2192039489746

> <r_i_glide_ecoul>
-0.351022809743881

> <r_i_glide_erotb>
0.248087212028894

> <r_i_glide_esite>
0

> <r_i_glide_emodel>
-37.5587005689615

> <r_i_glide_energy>
-33.5702267587185

> <r_i_glide_einternal>
2.44903540611267

> <i_i_glide_confnum>
5

> <i_i_glide_posenum>
32

> <r_i_glide_eff_state_penalty>
0

> <s_user_duplicate_titles>
CHEMBL1966_lig215

> <i_f3d_flags>
0

> <s_m_subgroup_title>
dock_pv

> <s_m_subgroupid>
dock_pv

> <b_m_subgroup_collapsed>
1

$$$$
CHEMBL1966_lig250
                    3D
 Schrodinger Suite 2021-1.
 39 41  0  0  1  0            999 V2000
   55.1306   46.2992   -1.9231 C   0  0  0  0  0  0
   54.4984   46.7179   -0.7491 C   0  0  0  0  0  0
   55.2802   47.4850    0.3010 C   0  0  0  0  0  0
   56.4333   46.5920   -2.1411 F   0  0  0  0  0  0
   54.4283   45.5585   -2.8711 C   0  0  0  0  0  0
   52.4526   44.4100   -3.6209 N   0  0  0  0  0  0
   53.0941   45.2100   -2.6540 C   0  0  0  0  0  0
   49.9166   42.2237   -2.5668 C   0  0  0  0  0  0
   50.4230   43.2100   -4.8877 S   0  0  0  0  0  0
   46.4790   38.7052   -2.8214 C   0  0  0  0  0  0
   49.5365   42.0489   -3.9167 C   0  0  0  0  0  0
   47.9292   40.4101   -3.6459 O   0  0  0  0  0  0
   48.3226   41.1446   -5.7732 O   0  0  0  0  0  0
   53.1505   46.4100   -0.5445 C   0  0  0  0  0  0
   50.9089   43.0748   -2.3843 N   0  0  0  0  0  0
   48.5546   41.1702   -4.5612 C   0  0  0  0  0  0
   52.4509   45.6621   -1.4933 C   0  0  0  0  0  0
   46.7273   39.7200   -3.9379 C   0  0  0  0  0  0
   51.3452   43.6100   -3.4866 C   0  0  0  0  0  0
   49.3570   41.6099   -1.2775 C   0  0  0  0  0  0
   50.2198   41.3259   -0.0990 C   0  0  0  0  0  0
   49.2470   42.4761   -0.0112 C   0  0  0  0  0  0
   55.5685   48.4607   -0.0909 H   0  0  0  0  0  0
   54.7169   47.6106    1.2264 H   0  0  0  0  0  0
   56.1989   46.9515    0.5491 H   0  0  0  0  0  0
   54.9472   45.2307   -3.7583 H   0  0  0  0  0  0
   53.0109   44.3077   -4.4546 H   0  0  0  0  0  0
   45.6230   38.0781   -3.0591 H   0  0  0  0  0  0
   46.2845   39.2026   -1.8707 H   0  0  0  0  0  0
   47.3396   38.0488   -2.6864 H   0  0  0  0  0  0
   52.6445   46.7343    0.3538 H   0  0  0  0  0  0
   51.4119   45.4293   -1.3129 H   0  0  0  0  0  0
   46.7815   39.2174   -4.8990 H   0  0  0  0  0  0
   45.9013   40.4304   -3.9952 H   0  0  0  0  0  0
   48.6143   40.8258   -1.4297 H   0  0  0  0  0  0
   50.0230   40.4153    0.4649 H   0  0  0  0  0  0
   51.2615   41.6100   -0.1211 H   0  0  0  0  0  0
   49.6273   43.4979   -0.0513 H   0  0  0  0  0  0
   48.4231   42.4100    0.7010 H   0  0  0  0  0  0
  1  2  2  0  0  0
  1  4  1  0  0  0
  1  5  1  0  0  0
  2 14  1  0  0  0
  2  3  1  0  0  0
  3 23  1  0  0  0
  3 24  1  0  0  0
  3 25  1  0  0  0
  5  7  2  0  0  0
  5 26  1  0  0  0
  6 19  1  0  0  0
  6  7  1  0  0  0
  6 27  1  0  0  0
  7 17  1  0  0  0
  8 11  2  0  0  0
  8 15  1  0  0  0
  8 20  1  0  0  0
  9 19  1  0  0  0
  9 11  1  0  0  0
 10 18  1  0  0  0
 10 28  1  0  0  0
 10 29  1  0  0  0
 10 30  1  0  0  0
 11 16  1  0  0  0
 12 16  1  0  0  0
 12 18  1  0  0  0
 13 16  2  0  0  0
 14 17  2  0  0  0
 14 31  1  0  0  0
 15 19  2  0  0  0
 17 32  1  0  0  0
 18 33  1  0  0  0
 18 34  1  0  0  0
 20 21  1  0  0  0
 20 22  1  0  0  0
 20 35  1  0  0  0
 21 22  1  0  0  0
 21 36  1  0  0  0
 21 37  1  0  0  0
 22 38  1  0  0  0
 22 39  1  0  0  0
M  END
> <s_m_entry_id>
25862

> <s_m_entry_name>
dock_pv.514

> <s_m_Source_Path>
/home/csk/Desktop/cluster/DUD-E-result/pyrd

> <s_m_Source_File>
dock_pv.maegz

> <i_m_Source_File_Index>
514

> <chembl_id>
CHEMBL3410589

> <chembl_pref_name>
None

> <i_lp_mmshare_version>
53161

> <r_lp_tautomer_probability>
1

> <s_lp_Force_Field>
OPLS_2005

> <r_lp_Energy>
10.519897

> <b_lp_Chiralities_Consistent>
1

> <s_lp_Variant>
CHEMBL1966_lig250-1

> <s_i_glide_gridfile>
glide-grid_1d3g

> <i_i_glide_lignum>
296

> <i_i_glide_rotatable_bonds>
6

> <r_i_docking_score>
-7.98176237826711

> <r_i_glide_ligand_efficiency>
-0.362807380830323

> <r_i_glide_ligand_efficiency_sa>
-1.01660054949118

> <r_i_glide_ligand_efficiency_ln>
-1.95103386710517

> <r_i_glide_gscore>
-7.98176237826711

> <r_i_glide_lipo>
-4.58468280174687

> <r_i_glide_hbond>
-0.0490574070259554

> <r_i_glide_metal>
0

> <r_i_glide_rewards>
-2.54807286841432

> <r_i_glide_evdw>
-31.7303333282471

> <r_i_glide_ecoul>
-0.819820284843445

> <r_i_glide_erotb>
0.909540408058902

> <r_i_glide_esite>
0

> <r_i_glide_emodel>
-38.2032350394039

> <r_i_glide_energy>
-32.5501536130905

> <r_i_glide_einternal>
9.87763690948486

> <i_i_glide_confnum>
95

> <i_i_glide_posenum>
131

> <r_i_glide_eff_state_penalty>
0

> <s_user_duplicate_titles>
CHEMBL1966_lig250

> <i_f3d_flags>
0

> <s_m_subgroup_title>
dock_pv

> <s_m_subgroupid>
dock_pv

> <b_m_subgroup_collapsed>
1

$$$$
CHEMBL1966_lig665
                    3D
 Schrodinger Suite 2021-1.
 32 33  0  0  1  0            999 V2000
   50.3192   42.4671   -3.3928 C   0  0  0  0  0  0
   49.7122   42.2243   -4.5858 C   0  0  0  0  0  0
   49.9535   41.7479   -2.1439 C   0  0  0  0  0  0
   48.6626   41.2100   -4.8258 C   0  0  0  0  0  0
   48.8688   40.7218   -2.3246 C   0  0  0  0  0  0
   48.2418   40.4923   -3.5716 C   0  0  0  0  0  0
   51.4233   43.5292   -3.2333 C   0  0  0  0  0  0
   51.2428   44.5328   -2.0984 C   0  0  0  0  0  0
   50.4231   41.9791   -1.0267 O   0  0  0  0  0  0
   48.1518   40.9691   -5.9262 O   0  0  0  0  0  0
   52.1176   45.4744   -1.6974 C   0  0  0  0  0  0
   50.0230   42.9238   -5.7147 O   0  0  0  0  0  0
   47.1541   39.6100   -3.6254 C   0  0  0  0  0  0
   48.4230   40.0100   -1.1947 C   0  0  0  0  0  0
   53.4636   45.7251   -2.3588 C   0  0  0  0  0  0
   51.8020   46.3536   -0.5000 C   0  0  0  0  0  0
   47.3743   39.1000   -1.2824 C   0  0  0  0  0  0
   46.7332   38.9070   -2.4990 C   0  0  0  0  0  0
   51.5464   44.0986   -4.1543 H   0  0  0  0  0  0
   52.3716   43.0081   -3.1094 H   0  0  0  0  0  0
   50.3058   44.4706   -1.5630 H   0  0  0  0  0  0
   49.3970   42.6981   -6.4079 H   0  0  0  0  0  0
   46.6172   39.4542   -4.5493 H   0  0  0  0  0  0
   48.8808   40.1569   -0.2258 H   0  0  0  0  0  0
   53.5152   46.7514   -2.7237 H   0  0  0  0  0  0
   53.6420   45.0665   -3.2086 H   0  0  0  0  0  0
   54.2724   45.5682   -1.6447 H   0  0  0  0  0  0
   51.2059   47.2100   -0.8117 H   0  0  0  0  0  0
   51.2230   45.8060    0.2445 H   0  0  0  0  0  0
   52.7090   46.7159   -0.0147 H   0  0  0  0  0  0
   47.0513   38.5630   -0.4018 H   0  0  0  0  0  0
   45.9061   38.2176   -2.5704 H   0  0  0  0  0  0
  1  2  2  0  0  0
  1  3  1  0  0  0
  1  7  1  0  0  0
  2  4  1  0  0  0
  2 12  1  0  0  0
  3  5  1  0  0  0
  3  9  2  0  0  0
  4  6  1  0  0  0
  4 10  2  0  0  0
  5 14  1  0  0  0
  5  6  2  0  0  0
  6 13  1  0  0  0
  7  8  1  0  0  0
  7 19  1  0  0  0
  7 20  1  0  0  0
  8 11  2  0  0  0
  8 21  1  0  0  0
 11 15  1  0  0  0
 11 16  1  0  0  0
 12 22  1  0  0  0
 13 18  2  0  0  0
 13 23  1  0  0  0
 14 17  2  0  0  0
 14 24  1  0  0  0
 15 25  1  0  0  0
 15 26  1  0  0  0
 15 27  1  0  0  0
 16 28  1  0  0  0
 16 29  1  0  0  0
 16 30  1  0  0  0
 17 18  1  0  0  0
 17 31  1  0  0  0
 18 32  1  0  0  0
M  END
> <s_m_entry_id>
25863

> <s_m_entry_name>
dock_pv.515

> <s_m_Source_Path>
/home/csk/Desktop/cluster/DUD-E-result/pyrd

> <s_m_Source_File>
dock_pv.maegz

> <i_m_Source_File_Index>
515

> <chembl_id>
CHEMBL15193

> <chembl_pref_name>
LAPACHOL

> <i_lp_mmshare_version>
53161

> <r_lp_tautomer_probability>
0.0909090909090909

> <s_lp_Force_Field>
OPLS_2005

> <r_lp_Energy>
6.019619

> <b_lp_Chiralities_Consistent>
1

> <s_lp_Variant>
CHEMBL1966_lig665-3

> <s_i_glide_gridfile>
glide-grid_1d3g

> <i_i_glide_lignum>
733

> <i_i_glide_rotatable_bonds>
3

> <r_i_docking_score>
-7.96284528164415

> <r_i_glide_ligand_efficiency>
-0.442380293424675

> <r_i_glide_ligand_efficiency_sa>
-1.15936434584333

> <r_i_glide_ligand_efficiency_ln>
-2.04680831992012

> <r_i_glide_gscore>
-7.96284528164415

> <r_i_glide_lipo>
-3.70740374576585

> <r_i_glide_hbond>
-0.123021120063261

> <r_i_glide_metal>
0

> <r_i_glide_rewards>
-2.82131810502798

> <r_i_glide_evdw>
-31.4060916900635

> <r_i_glide_ecoul>
-2.21144556999207

> <r_i_glide_erotb>
0.590919109214927

> <r_i_glide_esite>
0

> <r_i_glide_emodel>
-47.0546513805715

> <r_i_glide_energy>
-33.6175372600555

> <r_i_glide_einternal>
6.1409158706665

> <i_i_glide_confnum>
1

> <i_i_glide_posenum>
152

> <r_i_glide_eff_state_penalty>
0

> <s_user_duplicate_titles>
CHEMBL1966_lig665,CHEMBL1966_lig666,CHEMBL1966_lig665

> <i_f3d_flags>
0

> <s_m_subgroup_title>
dock_pv

> <s_m_subgroupid>
dock_pv

> <b_m_subgroup_collapsed>
1

$$$$
CHEMBL1966_lig112
                    3D
 Schrodinger Suite 2021-1.
 35 36  0  0  1  0            999 V2000
   50.2146   42.6133   -4.5066 C   0  0  0  0  0  0
   49.6229   41.9860   -3.3897 C   0  0  0  0  0  0
   50.0150   42.4659   -2.1246 C   0  0  0  0  0  0
   50.9757   43.4593   -1.9680 C   0  0  0  0  0  0
   51.6416   43.9775   -3.0827 C   0  0  0  0  0  0
   51.2052   43.5790   -4.3433 C   0  0  0  0  0  0
   48.5862   40.8911   -3.4661 C   0  0  0  0  0  0
   52.7856   44.8100   -3.0127 N   0  0  0  0  0  0
   53.1535   45.6284   -2.0036 C   0  0  0  0  0  0
   54.5908   46.1711   -2.0520 C   0  0  2  0  0  0
   52.4220   45.9272   -1.0592 O   0  0  0  0  0  0
   55.1680   46.4763   -0.7337 C   0  0  0  0  0  0
   54.7800   47.4002   -2.9472 C   0  0  0  0  0  0
   55.9943   47.4121   -3.8680 C   0  0  0  0  0  0
   54.0230   48.3679   -2.8989 O   0  0  0  0  0  0
   55.6271   46.7125    0.3014 N   0  0  0  0  0  0
   48.4231   40.0099   -2.3882 C   0  0  0  0  0  0
   47.3343   39.1470   -2.3047 C   0  0  0  0  0  0
   46.3637   39.1719   -3.2988 C   0  0  0  0  0  0
   46.5085   40.0099   -4.3979 C   0  0  0  0  0  0
   47.6372   40.8100   -4.5032 C   0  0  0  0  0  0
   47.1856   38.0715   -0.9631 Cl  0  0  0  0  0  0
   49.8613   42.2003   -6.1491 Cl  0  0  0  0  0  0
   49.5739   42.0772   -1.2203 H   0  0  0  0  0  0
   51.2445   43.7528   -0.9647 H   0  0  0  0  0  0
   51.6230   44.0030   -5.2366 H   0  0  0  0  0  0
   53.3898   44.7699   -3.8189 H   0  0  0  0  0  0
   55.8900   46.6571   -4.6462 H   0  0  0  0  0  0
   56.9058   47.2210   -3.3014 H   0  0  0  0  0  0
   56.0909   48.3857   -4.3494 H   0  0  0  0  0  0
   55.2237   45.3715   -2.4379 H   0  0  0  0  0  0
   49.1289   40.0102   -1.5726 H   0  0  0  0  0  0
   45.5128   38.5157   -3.2402 H   0  0  0  0  0  0
   45.7495   40.0320   -5.1659 H   0  0  0  0  0  0
   47.6396   41.5029   -5.3255 H   0  0  0  0  0  0
  1  6  1  0  0  0
  1  2  2  0  0  0
  1 23  1  0  0  0
  2  7  1  0  0  0
  2  3  1  0  0  0
  3  4  2  0  0  0
  3 24  1  0  0  0
  4  5  1  0  0  0
  4 25  1  0  0  0
  5  6  2  0  0  0
  5  8  1  0  0  0
  6 26  1  0  0  0
  7 17  2  0  0  0
  7 21  1  0  0  0
  8  9  1  0  0  0
  8 27  1  0  0  0
  9 11  2  0  0  0
  9 10  1  0  0  0
 10 12  1  0  0  0
 10 31  1  0  0  0
 10 13  1  0  0  0
 12 16  3  0  0  0
 13 15  2  0  0  0
 13 14  1  0  0  0
 14 28  1  0  0  0
 14 29  1  0  0  0
 14 30  1  0  0  0
 17 18  1  0  0  0
 17 32  1  0  0  0
 18 19  2  0  0  0
 18 22  1  0  0  0
 19 20  1  0  0  0
 19 33  1  0  0  0
 20 21  2  0  0  0
 20 34  1  0  0  0
 21 35  1  0  0  0
M  END
> <s_m_entry_id>
25864

> <s_m_entry_name>
dock_pv.516

> <s_m_Source_Path>
/home/csk/Desktop/cluster/DUD-E-result/pyrd

> <s_m_Source_File>
dock_pv.maegz

> <i_m_Source_File_Index>
516

> <chembl_id>
CHEMBL520008

> <chembl_pref_name>
None

> <i_lp_mmshare_version>
53161

> <r_lp_tautomer_probability>
0.995394628248396

> <s_lp_Force_Field>
OPLS_2005

> <r_lp_Energy>
23.617054

> <b_lp_Chiralities_Consistent>
1

> <s_lp_Variant>
CHEMBL1966_lig112-1

> <s_i_glide_gridfile>
glide-grid_1d3g

> <i_i_glide_lignum>
125

> <i_i_glide_rotatable_bonds>
5

> <r_i_docking_score>
-7.95903666044087

> <r_i_glide_ligand_efficiency>
-0.346045072193081

> <r_i_glide_ligand_efficiency_sa>
-0.984106153321702

> <r_i_glide_ligand_efficiency_ln>
-1.92456723304899

> <r_i_glide_gscore>
-7.95903666044087

> <r_i_glide_lipo>
-4.42179257959014

> <r_i_glide_hbond>
0

> <r_i_glide_metal>
0

> <r_i_glide_rewards>
-2.44936782803318

> <r_i_glide_evdw>
-33.8489036560059

> <r_i_glide_ecoul>
-0.17743556201458

> <r_i_glide_erotb>
0.631184264284931

> <r_i_glide_esite>
0

> <r_i_glide_emodel>
-41.5760137001703

> <r_i_glide_energy>
-34.0263392180204

> <r_i_glide_einternal>
10.079288482666

> <i_i_glide_confnum>
16

> <i_i_glide_posenum>
201

> <r_i_glide_eff_state_penalty>
0

> <s_user_duplicate_titles>
CHEMBL1966_lig112,520681

> <i_f3d_flags>
0

> <s_m_subgroup_title>
dock_pv

> <s_m_subgroupid>
dock_pv

> <b_m_subgroup_collapsed>
1

$$$$
CHEMBL1966_lig249
                    3D
 Schrodinger Suite 2021-1.
 39 41  0  0  1  0            999 V2000
   53.4625   46.3645   -0.5942 C   0  0  0  0  0  0
   54.8131   46.6765   -0.8146 C   0  0  0  0  0  0
   55.6349   47.4165    0.2262 C   0  0  0  0  0  0
   52.6542   46.8099    0.8698 Cl  0  0  0  0  0  0
   52.7495   45.6450   -1.5553 C   0  0  0  0  0  0
   52.7119   44.4351   -3.6990 N   0  0  0  0  0  0
   53.3736   45.2100   -2.7301 C   0  0  0  0  0  0
   50.1842   42.2690   -2.6034 C   0  0  0  0  0  0
   50.6582   43.2100   -4.9319 S   0  0  0  0  0  0
   46.5459   38.8250   -2.8992 C   0  0  0  0  0  0
   49.7636   42.0868   -3.9364 C   0  0  0  0  0  0
   48.0784   40.5237   -3.6266 O   0  0  0  0  0  0
   48.4976   41.2090   -5.7647 O   0  0  0  0  0  0
   55.4220   46.2849   -2.0093 C   0  0  0  0  0  0
   51.2220   43.0691   -2.4508 N   0  0  0  0  0  0
   48.7398   41.2393   -4.5544 C   0  0  0  0  0  0
   54.7054   45.5604   -2.9595 C   0  0  0  0  0  0
   46.8075   39.9568   -3.8992 C   0  0  0  0  0  0
   51.6231   43.6100   -3.5579 C   0  0  0  0  0  0
   49.6076   41.7178   -1.3070 C   0  0  0  0  0  0
   50.4230   41.4134   -0.0990 C   0  0  0  0  0  0
   49.5211   42.6197   -0.0835 C   0  0  0  0  0  0
   55.6013   46.8884    1.1790 H   0  0  0  0  0  0
   56.6816   47.5245   -0.0617 H   0  0  0  0  0  0
   55.2230   48.4100    0.3838 H   0  0  0  0  0  0
   51.7129   45.4079   -1.3688 H   0  0  0  0  0  0
   53.2445   44.3683   -4.5525 H   0  0  0  0  0  0
   45.6230   38.3030   -3.1456 H   0  0  0  0  0  0
   46.4534   39.2102   -1.8837 H   0  0  0  0  0  0
   47.3545   38.0938   -2.8991 H   0  0  0  0  0  0
   56.4590   46.5229   -2.1989 H   0  0  0  0  0  0
   55.2067   45.2497   -3.8644 H   0  0  0  0  0  0
   46.7484   39.6065   -4.9267 H   0  0  0  0  0  0
   46.0396   40.7251   -3.7960 H   0  0  0  0  0  0
   48.8219   40.9858   -1.4459 H   0  0  0  0  0  0
   50.1405   40.5407    0.4863 H   0  0  0  0  0  0
   51.4839   41.6100   -0.1188 H   0  0  0  0  0  0
   49.9599   43.6176   -0.1298 H   0  0  0  0  0  0
   48.6879   42.5870    0.6192 H   0  0  0  0  0  0
  1  2  2  0  0  0
  1  4  1  0  0  0
  1  5  1  0  0  0
  2 14  1  0  0  0
  2  3  1  0  0  0
  3 23  1  0  0  0
  3 24  1  0  0  0
  3 25  1  0  0  0
  5  7  2  0  0  0
  5 26  1  0  0  0
  6 19  1  0  0  0
  6  7  1  0  0  0
  6 27  1  0  0  0
  7 17  1  0  0  0
  8 11  2  0  0  0
  8 15  1  0  0  0
  8 20  1  0  0  0
  9 19  1  0  0  0
  9 11  1  0  0  0
 10 18  1  0  0  0
 10 28  1  0  0  0
 10 29  1  0  0  0
 10 30  1  0  0  0
 11 16  1  0  0  0
 12 16  1  0  0  0
 12 18  1  0  0  0
 13 16  2  0  0  0
 14 17  2  0  0  0
 14 31  1  0  0  0
 15 19  2  0  0  0
 17 32  1  0  0  0
 18 33  1  0  0  0
 18 34  1  0  0  0
 20 21  1  0  0  0
 20 22  1  0  0  0
 20 35  1  0  0  0
 21 22  1  0  0  0
 21 36  1  0  0  0
 21 37  1  0  0  0
 22 38  1  0  0  0
 22 39  1  0  0  0
M  END
> <s_m_entry_id>
25865

> <s_m_entry_name>
dock_pv.517

> <s_m_Source_Path>
/home/csk/Desktop/cluster/DUD-E-result/pyrd

> <s_m_Source_File>
dock_pv.maegz

> <i_m_Source_File_Index>
517

> <chembl_id>
CHEMBL3410590

> <chembl_pref_name>
None

> <i_lp_mmshare_version>
53161

> <r_lp_tautomer_probability>
1

> <s_lp_Force_Field>
OPLS_2005

> <r_lp_Energy>
10.685164

> <b_lp_Chiralities_Consistent>
1

> <s_lp_Variant>
CHEMBL1966_lig249-1

> <s_i_glide_gridfile>
glide-grid_1d3g

> <i_i_glide_lignum>
295

> <i_i_glide_rotatable_bonds>
6

> <r_i_docking_score>
-7.94367908209254

> <r_i_glide_ligand_efficiency>
-0.361076321913297

> <r_i_glide_ligand_efficiency_sa>
-1.01175005432699

> <r_i_glide_ligand_efficiency_ln>
-1.94172492039813

> <r_i_glide_gscore>
-7.94367908209254

> <r_i_glide_lipo>
-4.9974215226286

> <r_i_glide_hbond>
-0.0398419429706215

> <r_i_glide_metal>
0

> <r_i_glide_rewards>
-1.98664885386842

> <r_i_glide_evdw>
-32.2229766845703

> <r_i_glide_ecoul>
-0.940945386886597

> <r_i_glide_erotb>
0.83252387963661

> <r_i_glide_esite>
0

> <r_i_glide_emodel>
-40.3549107089016

> <r_i_glide_energy>
-33.1639220714569

> <r_i_glide_einternal>
9.9044713973999

> <i_i_glide_confnum>
99

> <i_i_glide_posenum>
44

> <r_i_glide_eff_state_penalty>
0

> <s_user_duplicate_titles>
CHEMBL1966_lig249

> <i_f3d_flags>
0

> <s_m_subgroup_title>
dock_pv

> <s_m_subgroupid>
dock_pv

> <b_m_subgroup_collapsed>
1

$$$$
CHEMBL1966_lig116
                    3D
 Schrodinger Suite 2021-1.
 39 40  0  0  1  0            999 V2000
   48.2762   42.3564   -5.2574 C   0  0  0  0  0  0
   48.7770   41.0633   -4.9400 O   0  0  0  0  0  0
   48.4228   40.5607   -3.7069 C   0  0  0  0  0  0
   47.3979   39.6104   -3.6990 C   0  0  0  0  0  0
   46.9931   38.9841   -2.5251 C   0  0  0  0  0  0
   47.6230   39.3029   -1.3322 C   0  0  0  0  0  0
   48.6191   40.2788   -1.3206 C   0  0  0  0  0  0
   49.0276   40.9528   -2.4874 C   0  0  0  0  0  0
   49.9862   42.1051   -2.3529 C   0  0  0  0  0  0
   50.0230   42.8602   -1.1703 C   0  0  0  0  0  0
   50.8176   43.9913   -1.0382 C   0  0  0  0  0  0
   50.8230   44.8100    0.4829 Cl  0  0  0  0  0  0
   50.8230   42.5186   -3.3935 C   0  0  0  0  0  0
   51.6331   43.6465   -3.2793 C   0  0  0  0  0  0
   51.6230   44.4100   -2.0990 C   0  0  0  0  0  0
   52.4332   45.5390   -1.8680 N   0  0  0  0  0  0
   53.6318   45.8535   -2.4019 C   0  0  0  0  0  0
   54.1792   45.2152   -3.2990 O   0  0  0  0  0  0
   54.3364   47.0737   -1.7861 C   0  0  2  0  0  0
   55.4279   47.6206   -2.6138 C   0  0  0  0  0  0
   56.2803   48.0562   -3.2647 N   0  0  0  0  0  0
   54.8358   46.8100   -0.3510 C   0  0  0  0  0  0
   53.8105   46.7332    0.7766 C   0  0  0  0  0  0
   56.0230   46.6354   -0.0943 O   0  0  0  0  0  0
   48.8259   42.7590   -6.1019 H   0  0  0  0  0  0
   47.2169   42.3227   -5.5144 H   0  0  0  0  0  0
   48.4230   43.0667   -4.4462 H   0  0  0  0  0  0
   46.9040   39.3643   -4.6230 H   0  0  0  0  0  0
   46.2030   38.2480   -2.5444 H   0  0  0  0  0  0
   47.3334   38.8128   -0.4130 H   0  0  0  0  0  0
   49.0710   40.4992   -0.3655 H   0  0  0  0  0  0
   49.4004   42.6021   -0.3279 H   0  0  0  0  0  0
   50.8230   41.9850   -4.3253 H   0  0  0  0  0  0
   52.2517   43.9274   -4.1172 H   0  0  0  0  0  0
   52.1151   46.1088   -1.0991 H   0  0  0  0  0  0
   53.6023   45.6898    1.0125 H   0  0  0  0  0  0
   52.8717   47.2100    0.5013 H   0  0  0  0  0  0
   54.2032   47.2100    1.6748 H   0  0  0  0  0  0
   53.6230   47.8932   -1.7405 H   0  0  0  0  0  0
  1  2  1  0  0  0
  1 25  1  0  0  0
  1 26  1  0  0  0
  1 27  1  0  0  0
  2  3  1  0  0  0
  3  4  2  0  0  0
  3  8  1  0  0  0
  4  5  1  0  0  0
  4 28  1  0  0  0
  5  6  2  0  0  0
  5 29  1  0  0  0
  6  7  1  0  0  0
  6 30  1  0  0  0
  7  8  2  0  0  0
  7 31  1  0  0  0
  8  9  1  0  0  0
  9 10  2  0  0  0
  9 13  1  0  0  0
 10 11  1  0  0  0
 10 32  1  0  0  0
 11 12  1  0  0  0
 11 15  2  0  0  0
 13 14  2  0  0  0
 13 33  1  0  0  0
 14 15  1  0  0  0
 14 34  1  0  0  0
 15 16  1  0  0  0
 16 17  1  0  0  0
 16 35  1  0  0  0
 17 18  2  0  0  0
 17 19  1  0  0  0
 19 20  1  0  0  0
 19 39  1  0  0  0
 19 22  1  0  0  0
 20 21  3  0  0  0
 22 24  2  0  0  0
 22 23  1  0  0  0
 23 36  1  0  0  0
 23 37  1  0  0  0
 23 38  1  0  0  0
M  END
> <s_m_entry_id>
25866

> <s_m_entry_name>
dock_pv.518

> <s_m_Source_Path>
/home/csk/Desktop/cluster/DUD-E-result/pyrd

> <s_m_Source_File>
dock_pv.maegz

> <i_m_Source_File_Index>
518

> <chembl_id>
CHEMBL483161

> <chembl_pref_name>
None

> <i_lp_mmshare_version>
53161

> <r_lp_tautomer_probability>
0.995394628248396

> <s_lp_Force_Field>
OPLS_2005

> <r_lp_Energy>
27.112328

> <b_lp_Chiralities_Consistent>
1

> <s_lp_Variant>
CHEMBL1966_lig116-1

> <s_i_glide_gridfile>
glide-grid_1d3g

> <i_i_glide_lignum>
133

> <i_i_glide_rotatable_bonds>
6

> <r_i_docking_score>
-7.94048899803979

> <r_i_glide_ligand_efficiency>
-0.330853708251658

> <r_i_glide_ligand_efficiency_sa>
-0.954347236110143

> <r_i_glide_ligand_efficiency_ln>
-1.90052338252868

> <r_i_glide_gscore>
-7.94048899803979

> <r_i_glide_lipo>
-4.11014521540416

> <r_i_glide_hbond>
0

> <r_i_glide_metal>
0

> <r_i_glide_rewards>
-2.60139615955147

> <r_i_glide_evdw>
-37.2383842468262

> <r_i_glide_ecoul>
-0.0848641023039818

> <r_i_glide_erotb>
0.645701204602751

> <r_i_glide_esite>
0

> <r_i_glide_emodel>
-45.8131236726353

> <r_i_glide_energy>
-37.3232483491302

> <r_i_glide_einternal>
10.1685485839844

> <i_i_glide_confnum>
8

> <i_i_glide_posenum>
86

> <r_i_glide_eff_state_penalty>
0

> <s_user_duplicate_titles>
CHEMBL1966_lig116,520609

> <i_f3d_flags>
0

> <s_m_subgroup_title>
dock_pv

> <s_m_subgroupid>
dock_pv

> <b_m_subgroup_collapsed>
1

$$$$
CHEMBL1966_lig259
                    3D
 Schrodinger Suite 2021-1.
 35 36  0  0  1  0            999 V2000
   48.6061   40.5651   -3.4389 C   0  0  0  0  0  0
   48.0240   39.8775   -2.4359 O   0  0  0  0  0  0
   50.2274   42.7358   -4.0029 S   0  0  0  0  0  0
   51.0748   43.4224   -2.6711 C   0  0  0  0  0  0
   50.7931   42.8876   -1.5056 N   0  0  0  0  0  0
   49.9585   41.8659   -1.6047 C   0  0  0  0  0  0
   49.5145   41.5824   -2.9096 C   0  0  0  0  0  0
   49.6237   41.1379   -0.3059 C   0  0  0  0  0  0
   52.0233   44.3733   -2.9583 N   0  0  0  0  0  0
   52.7383   45.2165   -2.0991 C   0  0  0  0  0  0
   54.0158   45.6084   -2.4960 C   0  0  0  0  0  0
   54.8274   46.3474   -1.6379 C   0  0  0  0  0  0
   54.3397   46.7357   -0.3830 C   0  0  0  0  0  0
   53.0294   46.4098   -0.0187 C   0  0  0  0  0  0
   52.2263   45.6589   -0.8762 C   0  0  0  0  0  0
   48.3756   40.4062   -4.6413 O   0  0  0  0  0  0
   47.0662   38.8653   -2.6938 C   0  0  0  0  0  0
   46.4897   38.3882   -1.3570 C   0  0  0  0  0  0
   56.4382   46.7294   -2.1426 Cl  0  0  0  0  0  0
   55.2214   47.4983    0.5856 C   0  0  0  0  0  0
   50.0217   40.1276   -0.3077 H   0  0  0  0  0  0
   50.0229   41.6102    0.5806 H   0  0  0  0  0  0
   48.5611   41.0349   -0.1010 H   0  0  0  0  0  0
   52.4576   44.3268   -3.8674 H   0  0  0  0  0  0
   54.4133   45.2881   -3.4475 H   0  0  0  0  0  0
   52.6365   46.7159    0.9409 H   0  0  0  0  0  0
   51.2270   45.3902   -0.5693 H   0  0  0  0  0  0
   47.5396   38.0343   -3.2135 H   0  0  0  0  0  0
   46.2637   39.2493   -3.3282 H   0  0  0  0  0  0
   45.7428   37.6111   -1.5137 H   0  0  0  0  0  0
   46.0135   39.2085   -0.8193 H   0  0  0  0  0  0
   47.2695   37.9777   -0.7150 H   0  0  0  0  0  0
   55.5795   48.4125    0.1151 H   0  0  0  0  0  0
   54.6950   47.7571    1.5011 H   0  0  0  0  0  0
   56.0975   46.9044    0.8520 H   0  0  0  0  0  0
  1  2  1  0  0  0
  1  7  1  0  0  0
  1 16  2  0  0  0
  2 17  1  0  0  0
  3  4  1  0  0  0
  3  7  1  0  0  0
  4  5  2  0  0  0
  4  9  1  0  0  0
  5  6  1  0  0  0
  6  7  2  0  0  0
  6  8  1  0  0  0
  8 21  1  0  0  0
  8 22  1  0  0  0
  8 23  1  0  0  0
  9 10  1  0  0  0
  9 24  1  0  0  0
 10 11  2  0  0  0
 10 15  1  0  0  0
 11 12  1  0  0  0
 11 25  1  0  0  0
 12 13  2  0  0  0
 12 19  1  0  0  0
 13 14  1  0  0  0
 13 20  1  0  0  0
 14 15  2  0  0  0
 14 26  1  0  0  0
 15 27  1  0  0  0
 17 18  1  0  0  0
 17 28  1  0  0  0
 17 29  1  0  0  0
 18 30  1  0  0  0
 18 31  1  0  0  0
 18 32  1  0  0  0
 20 33  1  0  0  0
 20 34  1  0  0  0
 20 35  1  0  0  0
M  END
> <s_m_entry_id>
25867

> <s_m_entry_name>
dock_pv.519

> <s_m_Source_Path>
/home/csk/Desktop/cluster/DUD-E-result/pyrd

> <s_m_Source_File>
dock_pv.maegz

> <i_m_Source_File_Index>
519

> <chembl_id>
CHEMBL3410580

> <chembl_pref_name>
None

> <i_lp_mmshare_version>
53161

> <r_lp_tautomer_probability>
1

> <s_lp_Force_Field>
OPLS_2005

> <r_lp_Energy>
7.786437

> <b_lp_Chiralities_Consistent>
1

> <s_lp_Variant>
CHEMBL1966_lig259-1

> <s_i_glide_gridfile>
glide-grid_1d3g

> <i_i_glide_lignum>
305

> <i_i_glide_rotatable_bonds>
5

> <r_i_docking_score>
-7.93308329909848

> <r_i_glide_ligand_efficiency>
-0.396654164954924

> <r_i_glide_ligand_efficiency_sa>
-1.07668505197423

> <r_i_glide_ligand_efficiency_ln>
-1.98538909916565

> <r_i_glide_gscore>
-7.93308329909848

> <r_i_glide_lipo>
-4.67743222906221

> <r_i_glide_hbond>
0

> <r_i_glide_metal>
0

> <r_i_glide_rewards>
-2.21357430878861

> <r_i_glide_evdw>
-34.7260551452637

> <r_i_glide_ecoul>
-0.488926202058792

> <r_i_glide_erotb>
0.767564926324341

> <r_i_glide_esite>
0

> <r_i_glide_emodel>
-47.7573271038144

> <r_i_glide_energy>
-35.2149813473225

> <r_i_glide_einternal>
5.57235622406006

> <i_i_glide_confnum>
12

> <i_i_glide_posenum>
398

> <r_i_glide_eff_state_penalty>
0

> <s_user_duplicate_titles>
CHEMBL1966_lig259

> <i_f3d_flags>
0

> <s_m_subgroup_title>
dock_pv

> <s_m_subgroupid>
dock_pv

> <b_m_subgroup_collapsed>
1

$$$$
CHEMBL1966_lig284
                    3D
 Schrodinger Suite 2021-1.
 48 51  0  0  1  0            999 V2000
   48.3352   40.2274   -3.2783 C   0  0  0  0  0  0
   48.4229   40.0100   -1.9005 C   0  0  0  0  0  0
   49.2230   40.8100   -1.0793 C   0  0  0  0  0  0
   49.8491   41.8914   -1.6937 C   0  0  0  0  0  0
   49.7674   42.1264   -3.0888 C   0  0  0  0  0  0
   49.0032   41.2804   -3.9213 C   0  0  0  0  0  0
   48.8230   41.4727   -5.4067 C   0  0  0  0  0  0
   49.6230   42.4307   -5.9514 O   0  0  0  0  0  0
   48.0337   40.8100   -6.0777 O   0  0  0  0  0  0
   50.5024   43.2332   -3.4218 N   0  0  0  0  0  0
   50.9995   43.6836   -2.2951 C   0  0  0  0  0  0
   50.6031   42.9349   -1.2163 N   0  0  0  0  0  0
   52.0230   44.7683   -2.2122 C   0  0  0  0  0  0
   52.9476   44.8100   -3.2592 C   0  0  0  0  0  0
   53.9962   45.7142   -3.2320 C   0  0  0  0  0  0
   54.1504   46.6095   -2.1686 C   0  0  0  0  0  0
   53.2226   46.5470   -1.1148 C   0  0  0  0  0  0
   52.1579   45.6448   -1.1369 C   0  0  0  0  0  0
   55.2820   47.5925   -2.1776 C   0  0  0  0  0  0
   55.8970   47.9786   -3.3824 C   0  0  0  0  0  0
   56.9854   48.8586   -3.3984 C   0  0  0  0  0  0
   57.4267   49.4312   -2.2111 C   0  0  0  0  0  0
   56.8230   49.0718   -1.0129 C   0  0  0  0  0  0
   55.7776   48.1501   -0.9900 C   0  0  0  0  0  0
   57.6375   49.2099   -4.5826 N   0  0  0  0  0  0
   58.1646   48.3679   -5.4928 C   0  0  0  0  0  0
   58.1756   46.8540   -5.2567 C   0  0  0  0  0  0
   58.6720   48.8099   -6.5189 O   0  0  0  0  0  0
   47.6230   38.8739   -1.2828 C   0  0  0  0  0  0
   47.7133   39.5581   -3.8577 H   0  0  0  0  0  0
   49.2878   40.6383   -0.0148 H   0  0  0  0  0  0
   50.0934   42.9136   -5.2643 H   0  0  0  0  0  0
   50.9003   43.1253   -0.2722 H   0  0  0  0  0  0
   52.8722   44.1252   -4.0933 H   0  0  0  0  0  0
   54.6969   45.6881   -4.0517 H   0  0  0  0  0  0
   53.3004   47.2121   -0.2691 H   0  0  0  0  0  0
   51.4569   45.6179   -0.3153 H   0  0  0  0  0  0
   55.5369   47.6015   -4.3268 H   0  0  0  0  0  0
   58.2530   50.1276   -2.2037 H   0  0  0  0  0  0
   57.2022   49.4954   -0.0990 H   0  0  0  0  0  0
   55.3634   47.8762   -0.0315 H   0  0  0  0  0  0
   57.8276   50.1907   -4.7164 H   0  0  0  0  0  0
   58.2865   46.6081   -4.2003 H   0  0  0  0  0  0
   59.0135   46.4000   -5.7857 H   0  0  0  0  0  0
   57.2565   46.4043   -5.6311 H   0  0  0  0  0  0
   47.6607   37.9908   -1.9220 H   0  0  0  0  0  0
   48.0225   38.5774   -0.3115 H   0  0  0  0  0  0
   46.5783   39.1619   -1.1637 H   0  0  0  0  0  0
  1  2  2  0  0  0
  1  6  1  0  0  0
  1 30  1  0  0  0
  2  3  1  0  0  0
  2 29  1  0  0  0
  3  4  2  0  0  0
  3 31  1  0  0  0
  4  5  1  0  0  0
  4 12  1  0  0  0
  5  6  2  0  0  0
  5 10  1  0  0  0
  6  7  1  0  0  0
  7  8  1  0  0  0
  7  9  2  0  0  0
  8 32  1  0  0  0
 10 11  2  0  0  0
 11 12  1  0  0  0
 11 13  1  0  0  0
 12 33  1  0  0  0
 13 14  2  0  0  0
 13 18  1  0  0  0
 14 15  1  0  0  0
 14 34  1  0  0  0
 15 16  2  0  0  0
 15 35  1  0  0  0
 16 17  1  0  0  0
 16 19  1  0  0  0
 17 18  2  0  0  0
 17 36  1  0  0  0
 18 37  1  0  0  0
 19 20  2  0  0  0
 19 24  1  0  0  0
 20 21  1  0  0  0
 20 38  1  0  0  0
 21 22  2  0  0  0
 21 25  1  0  0  0
 22 23  1  0  0  0
 22 39  1  0  0  0
 23 24  2  0  0  0
 23 40  1  0  0  0
 24 41  1  0  0  0
 25 26  1  0  0  0
 25 42  1  0  0  0
 26 27  1  0  0  0
 26 28  2  0  0  0
 27 43  1  0  0  0
 27 44  1  0  0  0
 27 45  1  0  0  0
 29 46  1  0  0  0
 29 47  1  0  0  0
 29 48  1  0  0  0
M  END
> <s_m_entry_id>
25868

> <s_m_entry_name>
dock_pv.520

> <s_m_Source_Path>
/home/csk/Desktop/cluster/DUD-E-result/pyrd

> <s_m_Source_File>
dock_pv.maegz

> <i_m_Source_File_Index>
520

> <chembl_id>
CHEMBL3593802

> <chembl_pref_name>
None

> <i_lp_mmshare_version>
53161

> <r_lp_tautomer_probability>
1

> <s_lp_Force_Field>
OPLS_2005

> <r_lp_Energy>
27.616075

> <b_lp_Chiralities_Consistent>
1

> <s_lp_Variant>
CHEMBL1966_lig284-1

> <s_i_glide_gridfile>
glide-grid_1d3g

> <i_i_glide_lignum>
330

> <i_i_glide_rotatable_bonds>
6

> <r_i_docking_score>
-7.92054563106891

> <r_i_glide_ligand_efficiency>
-0.273122263140307

> <r_i_glide_ligand_efficiency_sa>
-0.839118123573511

> <r_i_glide_ligand_efficiency_ln>
-1.81360410180719

> <r_i_glide_gscore>
-7.92054563106891

> <r_i_glide_lipo>
-5.26597971206497

> <r_i_glide_hbond>
-0.222957153255499

> <r_i_glide_metal>
0

> <r_i_glide_rewards>
-0.378343387619638

> <r_i_glide_evdw>
-43.456470489502

> <r_i_glide_ecoul>
-2.69509243965149

> <r_i_glide_erotb>
0.523822012294014

> <r_i_glide_esite>
0

> <r_i_glide_emodel>
-53.4719211048109

> <r_i_glide_energy>
-46.1515629291534

> <r_i_glide_einternal>
9.5521411895752

> <i_i_glide_confnum>
8

> <i_i_glide_posenum>
32

> <r_i_glide_eff_state_penalty>
0

> <s_user_duplicate_titles>
CHEMBL1966_lig284

> <i_f3d_flags>
0

> <s_m_subgroup_title>
dock_pv

> <s_m_subgroupid>
dock_pv

> <b_m_subgroup_collapsed>
1

$$$$
CHEMBL1966_lig252
                    3D
 Schrodinger Suite 2021-1.
 46 48  0  0  1  0            999 V2000
   54.8044   47.0219    0.4559 C   0  0  0  0  0  0
   49.4483   41.5830   -2.1443 N   0  0  0  0  0  0
   51.7896   45.4161   -0.8853 N   0  0  0  0  0  0
   48.1583   39.8043   -1.3767 C   0  0  0  0  0  0
   50.2188   42.6825   -2.2893 C   0  0  0  0  0  0
   51.3744   44.4040   -1.7197 C   0  0  0  0  0  0
   55.4970   47.3813   -0.6982 C   0  0  0  0  0  0
   50.4762   43.2279   -5.9409 O   0  0  0  0  0  0
   49.2230   40.8119   -1.0874 C   0  0  0  0  0  0
   48.9673   41.9432   -4.7631 O   0  0  0  0  0  0
   52.9959   46.1314   -0.8819 C   0  0  0  0  0  0
   53.5583   46.4101    0.3650 C   0  0  0  0  0  0
   52.0231   44.0100   -3.3062 S   0  0  0  0  0  0
   50.5226   43.5093   -1.3066 N   0  0  0  0  0  0
   49.7465   40.9433    0.0175 O   0  0  0  0  0  0
   48.1696   41.6422   -5.8813 C   0  0  0  0  0  0
   53.6715   46.5378   -2.0379 C   0  0  0  0  0  0
   50.0445   42.7703   -4.8814 C   0  0  0  0  0  0
   50.6084   43.0624   -3.5606 C   0  0  0  0  0  0
   54.9340   47.1446   -1.9644 C   0  0  0  0  0  0
   46.9187   40.8108   -5.5908 C   0  0  0  0  0  0
   55.6831   47.5161   -3.2490 C   0  0  0  0  0  0
   57.0444   48.1190   -0.5112 Cl  0  0  0  0  0  0
   48.0194   38.7532   -0.4989 C   0  0  0  0  0  0
   47.0989   37.7775   -0.7455 C   0  0  0  0  0  0
   46.1268   38.0056   -1.7015 C   0  0  0  0  0  0
   46.2552   39.0185   -2.6342 C   0  0  0  0  0  0
   47.3184   39.8892   -2.4988 C   0  0  0  0  0  0
   56.8403   46.8559   -3.3034 F   0  0  0  0  0  0
   54.9888   47.2116   -4.3462 F   0  0  0  0  0  0
   55.9363   48.8245   -3.2713 F   0  0  0  0  0  0
   55.2337   47.2106    1.4294 H   0  0  0  0  0  0
   49.1200   41.2163   -3.0253 H   0  0  0  0  0  0
   51.3359   45.4548    0.0156 H   0  0  0  0  0  0
   53.0545   46.1185    1.2760 H   0  0  0  0  0  0
   47.8421   42.5969   -6.2821 H   0  0  0  0  0  0
   48.7897   41.1581   -6.6328 H   0  0  0  0  0  0
   53.2220   46.3813   -3.0046 H   0  0  0  0  0  0
   46.3353   40.6251   -6.4885 H   0  0  0  0  0  0
   47.1857   39.8416   -5.1789 H   0  0  0  0  0  0
   46.2457   41.3224   -4.9033 H   0  0  0  0  0  0
   48.6540   38.6647    0.3659 H   0  0  0  0  0  0
   47.0648   36.9171   -0.0994 H   0  0  0  0  0  0
   45.3360   37.2765   -1.7794 H   0  0  0  0  0  0
   45.5465   39.1295   -3.4402 H   0  0  0  0  0  0
   47.3926   40.7190   -3.1703 H   0  0  0  0  0  0
  1  7  1  0  0  0
  1 12  2  0  0  0
  1 32  1  0  0  0
  2  9  1  0  0  0
  2  5  1  0  0  0
  2 33  1  0  0  0
  3 11  1  0  0  0
  3  6  1  0  0  0
  3 34  1  0  0  0
  4  9  1  0  0  0
  4 24  1  0  0  0
  4 28  2  0  0  0
  5 19  2  0  0  0
  5 14  1  0  0  0
  6 14  2  0  0  0
  6 13  1  0  0  0
  7 20  2  0  0  0
  7 23  1  0  0  0
  8 18  2  0  0  0
  9 15  2  0  0  0
 10 18  1  0  0  0
 10 16  1  0  0  0
 11 17  2  0  0  0
 11 12  1  0  0  0
 12 35  1  0  0  0
 13 19  1  0  0  0
 16 21  1  0  0  0
 16 36  1  0  0  0
 16 37  1  0  0  0
 17 20  1  0  0  0
 17 38  1  0  0  0
 18 19  1  0  0  0
 20 22  1  0  0  0
 21 39  1  0  0  0
 21 40  1  0  0  0
 21 41  1  0  0  0
 22 29  1  0  0  0
 22 30  1  0  0  0
 22 31  1  0  0  0
 24 25  2  0  0  0
 24 42  1  0  0  0
 25 26  1  0  0  0
 25 43  1  0  0  0
 26 27  2  0  0  0
 26 44  1  0  0  0
 27 28  1  0  0  0
 27 45  1  0  0  0
 28 46  1  0  0  0
M  END
> <s_m_entry_id>
25869

> <s_m_entry_name>
dock_pv.521

> <s_m_Source_Path>
/home/csk/Desktop/cluster/DUD-E-result/pyrd

> <s_m_Source_File>
dock_pv.maegz

> <i_m_Source_File_Index>
521

> <chembl_id>
CHEMBL3410587

> <chembl_pref_name>
None

> <i_lp_mmshare_version>
53161

> <r_lp_tautomer_probability>
1

> <s_lp_Force_Field>
OPLS_2005

> <r_lp_Energy>
21.340633

> <b_lp_Chiralities_Consistent>
1

> <s_lp_Variant>
CHEMBL1966_lig252-1

> <s_i_glide_gridfile>
glide-grid_1d3g

> <i_i_glide_lignum>
298

> <i_i_glide_rotatable_bonds>
9

> <r_i_docking_score>
-7.89437980022796

> <r_i_glide_ligand_efficiency>
-0.25465741291058

> <r_i_glide_ligand_efficiency_sa>
-0.799975868989638

> <r_i_glide_ligand_efficiency_ln>
-1.78042457863715

> <r_i_glide_gscore>
-7.89437980022796

> <r_i_glide_lipo>
-4.51146020815684

> <r_i_glide_hbond>
0

> <r_i_glide_metal>
0

> <r_i_glide_rewards>
-2.7679018349107

> <r_i_glide_evdw>
-25.3666362762451

> <r_i_glide_ecoul>
0.0854330509901047

> <r_i_glide_erotb>
0.640499099003319

> <r_i_glide_esite>
0

> <r_i_glide_emodel>
-64.9505874050758

> <r_i_glide_energy>
-25.281203225255

> <r_i_glide_einternal>
13.5299835205078

> <i_i_glide_confnum>
43

> <i_i_glide_posenum>
74

> <r_i_glide_eff_state_penalty>
0

> <s_user_duplicate_titles>
CHEMBL1966_lig252

> <i_f3d_flags>
0

> <s_m_subgroup_title>
dock_pv

> <s_m_subgroupid>
dock_pv

> <b_m_subgroup_collapsed>
1

$$$$
CHEMBL1966_lig119
                    3D
 Schrodinger Suite 2021-1.
 39 41  0  0  1  0            999 V2000
   56.7270   45.2330   -4.2664 C   0  0  0  0  0  0
   56.0630   44.0477   -3.6394 C   0  0  0  0  0  0
   55.3970   45.4174   -3.5371 C   0  0  0  0  0  0
   55.3972   46.0506   -2.1453 C   0  0  0  0  0  0
   56.4230   46.0100   -1.4743 O   0  0  0  0  0  0
   54.1255   46.7280   -1.5859 C   0  0  2  0  0  0
   54.5009   47.2362   -0.2587 C   0  0  0  0  0  0
   54.8230   47.6100    0.7820 N   0  0  0  0  0  0
   52.8153   45.9106   -1.5344 C   0  0  0  0  0  0
   52.0211   46.1329   -0.6203 O   0  0  0  0  0  0
   52.5859   44.9930   -2.4990 N   0  0  0  0  0  0
   51.5800   44.0100   -2.5729 C   0  0  0  0  0  0
   51.4037   43.4222   -3.8204 C   0  0  0  0  0  0
   50.4713   42.4106   -3.9837 C   0  0  0  0  0  0
   50.8230   43.5648   -1.4801 C   0  0  0  0  0  0
   49.9776   42.4789   -1.6334 C   0  0  0  0  0  0
   49.7655   41.9026   -2.8923 C   0  0  0  0  0  0
   48.7363   40.8444   -3.0820 C   0  0  0  0  0  0
   48.0224   40.7804   -4.2866 C   0  0  0  0  0  0
   46.8694   40.0100   -4.3741 C   0  0  0  0  0  0
   46.4876   39.2100   -3.2990 C   0  0  0  0  0  0
   47.2415   39.1844   -2.1328 C   0  0  0  0  0  0
   48.3549   40.0100   -2.0237 C   0  0  0  0  0  0
   57.6469   45.6189   -3.8216 H   0  0  0  0  0  0
   56.7367   45.3192   -5.3535 H   0  0  0  0  0  0
   55.6230   43.2724   -4.2662 H   0  0  0  0  0  0
   56.5315   43.6100   -2.7577 H   0  0  0  0  0  0
   54.5001   45.6333   -4.1099 H   0  0  0  0  0  0
   53.9320   47.6078   -2.1983 H   0  0  0  0  0  0
   53.2314   44.9761   -3.2719 H   0  0  0  0  0  0
   51.9739   43.7466   -4.6755 H   0  0  0  0  0  0
   50.3310   42.0100   -4.9733 H   0  0  0  0  0  0
   50.9412   43.9875   -0.4947 H   0  0  0  0  0  0
   49.4414   42.1333   -0.7632 H   0  0  0  0  0  0
   48.2615   41.4251   -5.1183 H   0  0  0  0  0  0
   46.2745   40.0206   -5.2752 H   0  0  0  0  0  0
   45.6104   38.5882   -3.3797 H   0  0  0  0  0  0
   46.9488   38.5537   -1.3061 H   0  0  0  0  0  0
   48.8925   40.0175   -1.0877 H   0  0  0  0  0  0
  1  2  1  0  0  0
  1 24  1  0  0  0
  1 25  1  0  0  0
  1  3  1  0  0  0
  2 26  1  0  0  0
  2 27  1  0  0  0
  2  3  1  0  0  0
  3  4  1  0  0  0
  3 28  1  0  0  0
  4  6  1  0  0  0
  4  5  2  0  0  0
  6  7  1  0  0  0
  6  9  1  0  0  0
  6 29  1  0  0  0
  7  8  3  0  0  0
  9 10  2  0  0  0
  9 11  1  0  0  0
 11 12  1  0  0  0
 11 30  1  0  0  0
 12 13  2  0  0  0
 12 15  1  0  0  0
 13 14  1  0  0  0
 13 31  1  0  0  0
 14 17  2  0  0  0
 14 32  1  0  0  0
 15 16  2  0  0  0
 15 33  1  0  0  0
 16 17  1  0  0  0
 16 34  1  0  0  0
 17 18  1  0  0  0
 18 19  2  0  0  0
 18 23  1  0  0  0
 19 20  1  0  0  0
 19 35  1  0  0  0
 20 21  2  0  0  0
 20 36  1  0  0  0
 21 22  1  0  0  0
 21 37  1  0  0  0
 22 23  2  0  0  0
 22 38  1  0  0  0
 23 39  1  0  0  0
M  END
> <s_m_entry_id>
25870

> <s_m_entry_name>
dock_pv.522

> <s_m_Source_Path>
/home/csk/Desktop/cluster/DUD-E-result/pyrd

> <s_m_Source_File>
dock_pv.maegz

> <i_m_Source_File_Index>
522

> <chembl_id>
CHEMBL142996

> <chembl_pref_name>
None

> <i_lp_mmshare_version>
53161

> <r_lp_tautomer_probability>
0.995394627300976

> <s_lp_Force_Field>
OPLS_2005

> <r_lp_Energy>
29.807132

> <b_lp_Chiralities_Consistent>
1

> <s_lp_Variant>
CHEMBL1966_lig119-1

> <s_i_glide_gridfile>
glide-grid_1d3g

> <i_i_glide_lignum>
139

> <i_i_glide_rotatable_bonds>
6

> <r_i_docking_score>
-7.89217978830198

> <r_i_glide_ligand_efficiency>
-0.343138251665303

> <r_i_glide_ligand_efficiency_sa>
-0.975839542415039

> <r_i_glide_ligand_efficiency_ln>
-1.90840063514121

> <r_i_glide_gscore>
-7.89217978830198

> <r_i_glide_lipo>
-4.71556612328984

> <r_i_glide_hbond>
0

> <r_i_glide_metal>
0

> <r_i_glide_rewards>
-2.77381012963436

> <r_i_glide_evdw>
-29.165885925293

> <r_i_glide_ecoul>
0.400202333927155

> <r_i_glide_erotb>
0.995460410797792

> <r_i_glide_esite>
0

> <r_i_glide_emodel>
-36.0359629323262

> <r_i_glide_energy>
-28.7656835913658

> <r_i_glide_einternal>
1.18637347221375

> <i_i_glide_confnum>
6

> <i_i_glide_posenum>
70

> <r_i_glide_eff_state_penalty>
0

> <s_user_duplicate_titles>
CHEMBL1966_lig119

> <i_f3d_flags>
0

> <s_m_subgroup_title>
dock_pv

> <s_m_subgroupid>
dock_pv

> <b_m_subgroup_collapsed>
1

$$$$
CHEMBL1966_lig40
                    3D
 Schrodinger Suite 2021-1.
 32 34  0  0  1  0            999 V2000
   49.0698   41.3776   -3.4088 C   0  0  0  0  0  0
   48.1422   40.3516   -3.1253 C   0  0  0  0  0  0
   49.9497   42.1553   -2.5516 C   0  0  0  0  0  0
   54.5521   46.9391   -1.5019 C   0  0  0  0  0  0
   47.6504   39.6100   -1.8732 C   0  0  0  0  0  0
   47.9735   40.7729   -5.3319 N   0  0  0  0  0  0
   47.5015   40.0100   -4.2745 O   0  0  0  0  0  0
   50.7108   43.0553   -3.2442 N   0  0  0  0  0  0
   46.2445   39.0543   -1.8000 C   0  0  0  0  0  0
   47.4337   38.1294   -1.8604 C   0  0  0  0  0  0
   48.8789   41.5446   -4.7962 C   0  0  0  0  0  0
   53.4941   45.9411   -1.9729 C   0  0  0  0  0  0
   50.0230   41.9694   -0.8990 S   0  0  0  0  0  0
   55.7829   46.4614   -1.6976 F   0  0  0  0  0  0
   54.4230   48.0734   -2.1891 F   0  0  0  0  0  0
   54.4230   47.2100   -0.2018 F   0  0  0  0  0  0
   52.2738   45.8229   -1.2990 C   0  0  0  0  0  0
   53.7549   45.1119   -3.0678 C   0  0  0  0  0  0
   51.6230   44.0100   -2.7759 C   0  0  0  0  0  0
   51.3424   44.8671   -1.6989 C   0  0  0  0  0  0
   52.8223   44.1538   -3.4658 C   0  0  0  0  0  0
   48.0202   40.0174   -0.9375 H   0  0  0  0  0  0
   50.6961   42.9635   -4.2473 H   0  0  0  0  0  0
   45.6030   39.1557   -2.6748 H   0  0  0  0  0  0
   45.6944   39.1623   -0.8642 H   0  0  0  0  0  0
   47.7328   37.5620   -0.9780 H   0  0  0  0  0  0
   47.6230   37.6100   -2.7925 H   0  0  0  0  0  0
   49.3830   42.2673   -5.4212 H   0  0  0  0  0  0
   52.0428   46.4633   -0.4597 H   0  0  0  0  0  0
   54.6907   45.1915   -3.6026 H   0  0  0  0  0  0
   50.3955   44.8230   -1.1809 H   0  0  0  0  0  0
   53.0442   43.4901   -4.2872 H   0  0  0  0  0  0
  1  2  2  0  0  0
  1  3  1  0  0  0
  1 11  1  0  0  0
  2  5  1  0  0  0
  2  7  1  0  0  0
  3  8  1  0  0  0
  3 13  2  0  0  0
  4 12  1  0  0  0
  4 14  1  0  0  0
  4 15  1  0  0  0
  4 16  1  0  0  0
  5  9  1  0  0  0
  5 10  1  0  0  0
  5 22  1  0  0  0
  6 11  2  0  0  0
  6  7  1  0  0  0
  8 19  1  0  0  0
  8 23  1  0  0  0
  9 10  1  0  0  0
  9 24  1  0  0  0
  9 25  1  0  0  0
 10 26  1  0  0  0
 10 27  1  0  0  0
 11 28  1  0  0  0
 12 18  2  0  0  0
 12 17  1  0  0  0
 17 20  2  0  0  0
 17 29  1  0  0  0
 18 21  1  0  0  0
 18 30  1  0  0  0
 19 20  1  0  0  0
 19 21  2  0  0  0
 20 31  1  0  0  0
 21 32  1  0  0  0
M  END
> <s_m_entry_id>
25871

> <s_m_entry_name>
dock_pv.523

> <s_m_Source_Path>
/home/csk/Desktop/cluster/DUD-E-result/pyrd

> <s_m_Source_File>
dock_pv.maegz

> <i_m_Source_File_Index>
523

> <chembl_id>
CHEMBL70708

> <chembl_pref_name>
None

> <i_lp_mmshare_version>
53161

> <r_lp_tautomer_probability>
1

> <s_lp_Force_Field>
OPLS_2005

> <r_lp_Energy>
27.636769

> <b_lp_Chiralities_Consistent>
1

> <s_lp_Variant>
CHEMBL1966_lig40-1

> <s_i_glide_gridfile>
glide-grid_1d3g

> <i_i_glide_lignum>
44

> <i_i_glide_rotatable_bonds>
5

> <r_i_docking_score>
-7.89164520866579

> <r_i_glide_ligand_efficiency>
-0.375792628984085

> <r_i_glide_ligand_efficiency_sa>
-1.03678336835784

> <r_i_glide_ligand_efficiency_ln>
-1.95119333127197

> <r_i_glide_gscore>
-7.89164520866579

> <r_i_glide_lipo>
-3.65592061313714

> <r_i_glide_hbond>
0

> <r_i_glide_metal>
0

> <r_i_glide_rewards>
-3.32099253344031

> <r_i_glide_evdw>
-27.1529197692871

> <r_i_glide_ecoul>
-2.12091088294983

> <r_i_glide_erotb>
0.761050558818485

> <r_i_glide_esite>
0

> <r_i_glide_emodel>
-41.3635787413635

> <r_i_glide_energy>
-29.2738306522369

> <r_i_glide_einternal>
0.796515166759491

> <i_i_glide_confnum>
5

> <i_i_glide_posenum>
201

> <r_i_glide_eff_state_penalty>
0

> <s_user_duplicate_titles>
CHEMBL1966_lig40

> <i_f3d_flags>
0

> <s_m_subgroup_title>
dock_pv

> <s_m_subgroupid>
dock_pv

> <b_m_subgroup_collapsed>
1

$$$$
CHEMBL1966_lig352
                    3D
 Schrodinger Suite 2021-1.
 35 36  0  0  1  0            999 V2000
   49.9675   42.1402   -3.0818 C   0  0  0  0  0  0
   50.0525   42.7334   -4.4290 C   0  0  0  0  0  0
   49.1954   42.2042   -5.3308 N   0  0  0  0  0  0
   48.3501   41.1532   -5.2022 C   0  0  0  0  0  0
   48.4030   40.5646   -3.9789 N   0  0  0  0  0  0
   49.1181   41.0678   -2.9099 C   0  0  0  0  0  0
   48.8230   40.4100   -1.6298 C   0  0  0  0  0  0
   47.9312   39.3765   -1.7124 O   0  0  0  0  0  0
   49.2553   40.7738   -0.5395 O   0  0  0  0  0  0
   47.5913   40.8100   -6.0990 O   0  0  0  0  0  0
   50.8229   43.6100   -4.8046 O   0  0  0  0  0  0
   50.9034   42.8028   -2.0424 C   0  0  0  0  0  0
   50.5333   44.2593   -1.6414 C   0  0  0  0  0  0
   51.6230   45.0928   -0.9355 C   0  0  0  0  0  0
   52.7615   45.6556   -1.5724 C   0  0  0  0  0  0
   53.6731   46.4098   -0.8157 C   0  0  0  0  0  0
   53.5061   46.5807    0.5524 C   0  0  0  0  0  0
   52.4109   46.0100    1.1820 C   0  0  0  0  0  0
   51.4846   45.2725    0.4454 C   0  0  0  0  0  0
   53.0887   45.4657   -3.0510 C   0  0  0  0  0  0
   54.4601   45.2099   -3.2987 O   0  0  0  0  0  0
   49.1945   42.6603   -6.2295 H   0  0  0  0  0  0
   47.8174   39.7507   -3.8502 H   0  0  0  0  0  0
   47.7704   39.0199   -0.8349 H   0  0  0  0  0  0
   51.0366   42.2031   -1.1466 H   0  0  0  0  0  0
   51.8909   42.7828   -2.4992 H   0  0  0  0  0  0
   50.1790   44.8100   -2.4990 H   0  0  0  0  0  0
   49.6477   44.2177   -1.0041 H   0  0  0  0  0  0
   54.5393   46.8495   -1.2893 H   0  0  0  0  0  0
   54.2275   47.1463    1.1245 H   0  0  0  0  0  0
   52.2863   46.1222    2.2481 H   0  0  0  0  0  0
   50.6527   44.8209    0.9667 H   0  0  0  0  0  0
   52.5377   44.6353   -3.4695 H   0  0  0  0  0  0
   52.8230   46.3728   -3.5905 H   0  0  0  0  0  0
   54.5952   45.1676   -4.2483 H   0  0  0  0  0  0
  1  2  1  0  0  0
  1  6  2  0  0  0
  1 12  1  0  0  0
  2  3  1  0  0  0
  2 11  2  0  0  0
  3  4  1  0  0  0
  3 22  1  0  0  0
  4  5  1  0  0  0
  4 10  2  0  0  0
  5  6  1  0  0  0
  5 23  1  0  0  0
  6  7  1  0  0  0
  7  8  1  0  0  0
  7  9  2  0  0  0
  8 24  1  0  0  0
 12 13  1  0  0  0
 12 25  1  0  0  0
 12 26  1  0  0  0
 13 14  1  0  0  0
 13 27  1  0  0  0
 13 28  1  0  0  0
 14 15  2  0  0  0
 14 19  1  0  0  0
 15 16  1  0  0  0
 15 20  1  0  0  0
 16 17  2  0  0  0
 16 29  1  0  0  0
 17 18  1  0  0  0
 17 30  1  0  0  0
 18 19  2  0  0  0
 18 31  1  0  0  0
 19 32  1  0  0  0
 20 21  1  0  0  0
 20 33  1  0  0  0
 20 34  1  0  0  0
 21 35  1  0  0  0
M  END
> <s_m_entry_id>
25872

> <s_m_entry_name>
dock_pv.524

> <s_m_Source_Path>
/home/csk/Desktop/cluster/DUD-E-result/pyrd

> <s_m_Source_File>
dock_pv.maegz

> <i_m_Source_File_Index>
524

> <chembl_id>
CHEMBL3924053

> <chembl_pref_name>
None

> <i_lp_mmshare_version>
53161

> <r_lp_tautomer_probability>
1

> <s_lp_Force_Field>
OPLS_2005

> <r_lp_Energy>
14.983878

> <b_lp_Chiralities_Consistent>
1

> <s_lp_Variant>
CHEMBL1966_lig352-1

> <s_i_glide_gridfile>
glide-grid_1d3g

> <i_i_glide_lignum>
402

> <i_i_glide_rotatable_bonds>
7

> <r_i_docking_score>
-7.88867644146035

> <r_i_glide_ligand_efficiency>
-0.37565125911716

> <r_i_glide_ligand_efficiency_sa>
-1.03639333961457

> <r_i_glide_ligand_efficiency_ln>
-1.95045930957938

> <r_i_glide_gscore>
-7.88867644146035

> <r_i_glide_lipo>
-3.61600073844948

> <r_i_glide_hbond>
-0.266290491540554

> <r_i_glide_metal>
0

> <r_i_glide_rewards>
-2.61001706644247

> <r_i_glide_evdw>
-35.3779067993164

> <r_i_glide_ecoul>
-4.72546768188477

> <r_i_glide_erotb>
1.08134734722069

> <r_i_glide_esite>
0

> <r_i_glide_emodel>
-55.2207456469245

> <r_i_glide_energy>
-40.1033744812012

> <r_i_glide_einternal>
2.52820229530334

> <i_i_glide_confnum>
29

> <i_i_glide_posenum>
71

> <r_i_glide_eff_state_penalty>
0

> <s_user_duplicate_titles>
CHEMBL1966_lig352

> <i_f3d_flags>
0

> <s_m_subgroup_title>
dock_pv

> <s_m_subgroupid>
dock_pv

> <b_m_subgroup_collapsed>
1

$$$$
CHEMBL1966_lig212
                    3D
 Schrodinger Suite 2021-1.
 39 41  0  0  1  0            999 V2000
   48.4230   40.5355   -5.4752 O   0  0  0  0  0  0
   50.4491   43.3349   -2.0857 N   0  0  0  0  0  0
   53.3424   45.7487   -2.0267 C   0  0  0  0  0  0
   49.2230   40.8100   -1.3354 O   0  0  0  0  0  0
   51.0994   45.0503   -0.5119 C   0  0  0  0  0  0
   47.8450   39.9015   -2.8793 N   0  0  0  0  0  0
   51.3053   44.4100   -1.7385 C   0  0  0  0  0  0
   52.0051   46.0025   -0.0303 C   0  0  0  0  0  0
   50.0884   42.7771   -3.3125 C   0  0  0  0  0  0
   49.0261   41.4953   -4.9916 C   0  0  0  0  0  0
   48.8230   40.7544   -2.4990 C   0  0  0  0  0  0
   53.1533   46.3209   -0.7615 C   0  0  0  0  0  0
   49.4844   42.6600   -5.8271 C   0  0  0  0  0  0
   50.5798   43.6099   -4.8127 S   0  0  0  0  0  0
   49.3277   41.6633   -3.5462 C   0  0  0  0  0  0
   52.4230   44.8100   -2.4990 C   0  0  0  0  0  0
   54.5602   46.0850   -2.8765 C   0  0  0  0  0  0
   54.2215   47.2100   -0.1426 C   0  0  0  0  0  0
   46.9950   38.9352   -2.1607 C   0  0  0  0  0  0
   47.4669   38.1122   -0.9766 C   0  0  0  0  0  0
   46.4684   39.2100   -0.7642 C   0  0  0  0  0  0
   49.9972   42.9313   -1.2767 H   0  0  0  0  0  0
   50.2525   44.7815    0.1027 H   0  0  0  0  0  0
   47.6859   39.9081   -3.8787 H   0  0  0  0  0  0
   51.8385   46.4422    0.9428 H   0  0  0  0  0  0
   50.0116   42.3349   -6.7238 H   0  0  0  0  0  0
   48.6336   43.2851   -6.0990 H   0  0  0  0  0  0
   52.6554   44.3167   -3.4273 H   0  0  0  0  0  0
   55.4744   45.7561   -2.3817 H   0  0  0  0  0  0
   54.5172   45.6236   -3.8631 H   0  0  0  0  0  0
   54.6310   47.1632   -3.0220 H   0  0  0  0  0  0
   54.3544   48.1174   -0.7297 H   0  0  0  0  0  0
   54.0065   47.4683    0.8943 H   0  0  0  0  0  0
   55.1797   46.6894   -0.1424 H   0  0  0  0  0  0
   46.3089   38.4338   -2.8452 H   0  0  0  0  0  0
   48.4230   38.2738   -0.4990 H   0  0  0  0  0  0
   47.1426   37.0746   -0.8991 H   0  0  0  0  0  0
   45.4276   38.9669   -0.5524 H   0  0  0  0  0  0
   46.8230   40.0510   -0.1724 H   0  0  0  0  0  0
  1 10  2  0  0  0
  2  9  1  0  0  0
  2  7  1  0  0  0
  2 22  1  0  0  0
  3 16  1  0  0  0
  3 12  2  0  0  0
  3 17  1  0  0  0
  4 11  2  0  0  0
  5  8  2  0  0  0
  5  7  1  0  0  0
  5 23  1  0  0  0
  6 11  1  0  0  0
  6 19  1  0  0  0
  6 24  1  0  0  0
  7 16  2  0  0  0
  8 12  1  0  0  0
  8 25  1  0  0  0
  9 15  2  0  0  0
  9 14  1  0  0  0
 10 15  1  0  0  0
 10 13  1  0  0  0
 11 15  1  0  0  0
 12 18  1  0  0  0
 13 14  1  0  0  0
 13 26  1  0  0  0
 13 27  1  0  0  0
 16 28  1  0  0  0
 17 29  1  0  0  0
 17 30  1  0  0  0
 17 31  1  0  0  0
 18 32  1  0  0  0
 18 33  1  0  0  0
 18 34  1  0  0  0
 19 20  1  0  0  0
 19 21  1  0  0  0
 19 35  1  0  0  0
 20 21  1  0  0  0
 20 36  1  0  0  0
 20 37  1  0  0  0
 21 38  1  0  0  0
 21 39  1  0  0  0
M  END
> <s_m_entry_id>
25873

> <s_m_entry_name>
dock_pv.525

> <s_m_Source_Path>
/home/csk/Desktop/cluster/DUD-E-result/pyrd

> <s_m_Source_File>
dock_pv.maegz

> <i_m_Source_File_Index>
525

> <chembl_id>
CHEMBL2431486

> <chembl_pref_name>
None

> <i_lp_mmshare_version>
53161

> <r_lp_tautomer_probability>
0.9999999514288

> <s_lp_Force_Field>
OPLS_2005

> <r_lp_Energy>
39.879193

> <b_lp_Chiralities_Consistent>
1

> <s_lp_Variant>
CHEMBL1966_lig212-1

> <s_i_glide_gridfile>
glide-grid_1d3g

> <i_i_glide_lignum>
257

> <i_i_glide_rotatable_bonds>
5

> <r_i_docking_score>
-7.88714835308899

> <r_i_glide_ligand_efficiency>
-0.375578493004238

> <r_i_glide_ligand_efficiency_sa>
-1.03619258342661

> <r_i_glide_ligand_efficiency_ln>
-1.95008149281736

> <r_i_glide_gscore>
-7.88714835308899

> <r_i_glide_lipo>
-4.1939004418099

> <r_i_glide_hbond>
-0.029764740322972

> <r_i_glide_metal>
0

> <r_i_glide_rewards>
-2.53345005672552

> <r_i_glide_evdw>
-37.2417259216309

> <r_i_glide_ecoul>
-1.83121955394745

> <r_i_glide_erotb>
1.00673611494306

> <r_i_glide_esite>
0

> <r_i_glide_emodel>
-49.9618841902561

> <r_i_glide_energy>
-39.0729454755783

> <r_i_glide_einternal>
10.9167909622192

> <i_i_glide_confnum>
27

> <i_i_glide_posenum>
397

> <r_i_glide_eff_state_penalty>
0

> <s_user_duplicate_titles>
CHEMBL1966_lig212

> <i_f3d_flags>
0

> <s_m_subgroup_title>
dock_pv

> <s_m_subgroupid>
dock_pv

> <b_m_subgroup_collapsed>
1

$$$$
CHEMBL1966_lig22
                    3D
 Schrodinger Suite 2021-1.
 28 28  0  0  1  0            999 V2000
   48.8610   40.2327   -3.2553 C   0  0  2  0  0  0
   49.5719   41.3661   -2.4807 C   0  0  0  0  0  0
   53.7449   46.5086   -1.6780 C   0  0  0  0  0  0
   48.6125   40.5515   -4.6730 C   0  0  0  0  0  0
   50.1960   42.2973   -3.2361 N   0  0  0  0  0  0
   47.5793   39.6106   -2.6422 C   0  0  0  0  0  0
   48.4223   40.8108   -5.7834 N   0  0  0  0  0  0
   52.7153   45.4606   -2.0988 C   0  0  0  0  0  0
   49.6232   41.3461   -1.2504 O   0  0  0  0  0  0
   53.6056   46.8610   -0.3987 F   0  0  0  0  0  0
   54.9769   46.0195   -1.8325 F   0  0  0  0  0  0
   53.6223   47.5952   -2.4411 F   0  0  0  0  0  0
   52.8968   44.7696   -3.2989 C   0  0  0  0  0  0
   51.6198   45.1429   -1.2861 C   0  0  0  0  0  0
   50.9877   43.3743   -2.8149 C   0  0  0  0  0  0
   46.5144   39.6110   -3.2598 O   0  0  0  0  0  0
   52.0329   43.7382   -3.6627 C   0  0  0  0  0  0
   50.7693   44.0912   -1.6305 C   0  0  0  0  0  0
   47.6223   38.9407   -1.2700 C   0  0  0  0  0  0
   50.2029   42.1405   -4.2327 H   0  0  0  0  0  0
   53.7272   45.0276   -3.9369 H   0  0  0  0  0  0
   51.4457   45.6749   -0.3617 H   0  0  0  0  0  0
   49.6070   39.4488   -3.2941 H   0  0  0  0  0  0
   52.2082   43.2104   -4.5886 H   0  0  0  0  0  0
   49.9458   43.8467   -0.9758 H   0  0  0  0  0  0
   48.0250   37.9334   -1.3661 H   0  0  0  0  0  0
   46.6148   38.8489   -0.8643 H   0  0  0  0  0  0
   48.2263   39.4964   -0.5553 H   0  0  0  0  0  0
  1  4  1  0  0  0
  1  2  1  0  0  0
  1 23  1  0  0  0
  1  6  1  0  0  0
  2  5  1  0  0  0
  2  9  2  0  0  0
  3  8  1  0  0  0
  3 10  1  0  0  0
  3 11  1  0  0  0
  3 12  1  0  0  0
  4  7  3  0  0  0
  5 15  1  0  0  0
  5 20  1  0  0  0
  6 16  2  0  0  0
  6 19  1  0  0  0
  8 14  2  0  0  0
  8 13  1  0  0  0
 13 17  2  0  0  0
 13 21  1  0  0  0
 14 18  1  0  0  0
 14 22  1  0  0  0
 15 17  1  0  0  0
 15 18  2  0  0  0
 17 24  1  0  0  0
 18 25  1  0  0  0
 19 26  1  0  0  0
 19 27  1  0  0  0
 19 28  1  0  0  0
M  END
> <s_m_entry_id>
25874

> <s_m_entry_name>
dock_pv.526

> <s_m_Source_Path>
/home/csk/Desktop/cluster/DUD-E-result/pyrd

> <s_m_Source_File>
dock_pv.maegz

> <i_m_Source_File_Index>
526

> <chembl_id>
CHEMBL999

> <chembl_pref_name>
None

> <i_lp_mmshare_version>
53161

> <r_lp_tautomer_probability>
0.995394628248396

> <s_lp_Force_Field>
OPLS_2005

> <r_lp_Energy>
21.728816

> <b_lp_Chiralities_Consistent>
1

> <s_lp_Variant>
CHEMBL1966_lig22-1

> <s_i_glide_gridfile>
glide-grid_1d3g

> <i_i_glide_lignum>
25

> <i_i_glide_rotatable_bonds>
5

> <r_i_docking_score>
-7.88081108557162

> <r_i_glide_ligand_efficiency>
-0.414779530819559

> <r_i_glide_ligand_efficiency_sa>
-1.10679838280873

> <r_i_glide_ligand_efficiency_ln>
-1.99795487449448

> <r_i_glide_gscore>
-7.88081108557162

> <r_i_glide_lipo>
-2.69200098217824

> <r_i_glide_hbond>
-0.114452867764658

> <r_i_glide_metal>
0

> <r_i_glide_rewards>
-3.66459213273417

> <r_i_glide_evdw>
-31.2064838409424

> <r_i_glide_ecoul>
-3.89467120170593

> <r_i_glide_erotb>
0.734759769408459

> <r_i_glide_esite>
0

> <r_i_glide_emodel>
-49.4409923441083

> <r_i_glide_energy>
-35.1011550426483

> <r_i_glide_einternal>
2.57961082458496

> <i_i_glide_confnum>
2

> <i_i_glide_posenum>
246

> <r_i_glide_eff_state_penalty>
0

> <s_user_duplicate_titles>
CHEMBL1966_lig22,CHEMBL1966_lig73,110991

> <i_f3d_flags>
0

> <s_m_subgroup_title>
dock_pv

> <s_m_subgroupid>
dock_pv

> <b_m_subgroup_collapsed>
1

$$$$
CHEMBL1966_lig1
                    3D
 Schrodinger Suite 2021-1.
 28 29  0  0  1  0            999 V2000
   53.2328   44.8131   -3.1017 C   0  0  0  0  0  0
   54.1349   45.6594   -2.4695 C   0  0  0  0  0  0
   53.8157   46.2235   -1.2315 C   0  0  0  0  0  0
   52.5474   46.0101   -0.6752 C   0  0  0  0  0  0
   51.6488   45.1469   -1.2991 C   0  0  0  0  0  0
   52.0230   44.4992   -2.4904 C   0  0  0  0  0  0
   54.8894   46.9973   -0.4730 C   0  0  0  0  0  0
   54.5442   47.2101    0.7969 F   0  0  0  0  0  0
   56.0245   46.3029   -0.4646 F   0  0  0  0  0  0
   55.1176   48.1624   -1.0750 F   0  0  0  0  0  0
   51.2333   43.5470   -3.1369 N   0  0  0  0  0  0
   50.3107   42.7174   -2.6204 C   0  0  0  0  0  0
   49.6264   41.9448   -3.6201 C   0  0  0  0  0  0
   50.0354   42.6043   -1.4258 O   0  0  0  0  0  0
   48.8228   40.8223   -3.4064 C   0  0  0  0  0  0
   48.2425   40.3875   -4.4989 N   0  0  0  0  0  0
   48.6743   41.2349   -5.5167 O   0  0  0  0  0  0
   49.4935   42.1788   -4.9858 C   0  0  0  0  0  0
   50.0233   43.2072   -5.9606 C   0  0  0  0  0  0
   53.5058   44.3380   -4.0279 H   0  0  0  0  0  0
   55.1028   45.8345   -2.9184 H   0  0  0  0  0  0
   52.2729   46.4597    0.2685 H   0  0  0  0  0  0
   50.6901   44.9600   -0.8374 H   0  0  0  0  0  0
   51.4329   43.4222   -4.1144 H   0  0  0  0  0  0
   48.6470   40.3410   -2.4543 H   0  0  0  0  0  0
   50.9619   43.6693   -5.6670 H   0  0  0  0  0  0
   50.2119   42.7566   -6.9322 H   0  0  0  0  0  0
   49.2990   44.0097   -6.0991 H   0  0  0  0  0  0
  1  6  1  0  0  0
  1  2  2  0  0  0
  1 20  1  0  0  0
  2  3  1  0  0  0
  2 21  1  0  0  0
  3  7  1  0  0  0
  3  4  2  0  0  0
  4  5  1  0  0  0
  4 22  1  0  0  0
  5  6  2  0  0  0
  5 23  1  0  0  0
  6 11  1  0  0  0
  7 10  1  0  0  0
  7  8  1  0  0  0
  7  9  1  0  0  0
 11 12  1  0  0  0
 11 24  1  0  0  0
 12 13  1  0  0  0
 12 14  2  0  0  0
 13 15  1  0  0  0
 13 18  2  0  0  0
 15 16  2  0  0  0
 15 25  1  0  0  0
 16 17  1  0  0  0
 17 18  1  0  0  0
 18 19  1  0  0  0
 19 26  1  0  0  0
 19 27  1  0  0  0
 19 28  1  0  0  0
M  END
> <s_m_entry_id>
25875

> <s_m_entry_name>
dock_pv.527

> <s_m_Source_Path>
/home/csk/Desktop/cluster/DUD-E-result/pyrd

> <s_m_Source_File>
dock_pv.maegz

> <i_m_Source_File_Index>
527

> <chembl_id>
CHEMBL960

> <chembl_pref_name>
LEFLUNOMIDE

> <i_lp_mmshare_version>
53161

> <r_lp_tautomer_probability>
1

> <s_lp_Force_Field>
OPLS_2005

> <r_lp_Energy>
16.814299

> <b_lp_Chiralities_Consistent>
1

> <s_lp_Variant>
CHEMBL1966_lig1-1

> <s_i_glide_gridfile>
glide-grid_1d3g

> <i_i_glide_lignum>
1

> <i_i_glide_rotatable_bonds>
4

> <r_i_docking_score>
-7.88064886466538

> <r_i_glide_ligand_efficiency>
-0.414770992877125

> <r_i_glide_ligand_efficiency_sa>
-1.10677560014908

> <r_i_glide_ligand_efficiency_ln>
-1.99791374801056

> <r_i_glide_gscore>
-7.88064886466538

> <r_i_glide_lipo>
-3.04805844497973

> <r_i_glide_hbond>
0

> <r_i_glide_metal>
0

> <r_i_glide_rewards>
-3.71962712228731

> <r_i_glide_evdw>
-30.0500411987305

> <r_i_glide_ecoul>
-2.30147337913513

> <r_i_glide_erotb>
0.734759769408459

> <r_i_glide_esite>
0

> <r_i_glide_emodel>
-45.395815698748

> <r_i_glide_energy>
-32.3515145778656

> <r_i_glide_einternal>
3.09263753890991

> <i_i_glide_confnum>
2

> <i_i_glide_posenum>
309

> <r_i_glide_eff_state_penalty>
0

> <s_user_duplicate_titles>
CHEMBL1966_lig1,93895

> <i_f3d_flags>
0

> <s_m_subgroup_title>
dock_pv

> <s_m_subgroupid>
dock_pv

> <b_m_subgroup_collapsed>
1

$$$$
CHEMBL1966_lig363
                    3D
 Schrodinger Suite 2021-1.
 34 35  0  0  1  0            999 V2000
   49.6007   41.3786   -2.4868 C   0  0  0  0  0  0
   49.2230   40.8100   -1.1812 C   0  0  0  0  0  0
   48.2036   39.9114   -1.2337 N   0  0  0  0  0  0
   47.5164   39.4443   -2.3136 C   0  0  0  0  0  0
   47.9025   40.0100   -3.4862 N   0  0  0  0  0  0
   48.8892   40.9630   -3.5852 C   0  0  0  0  0  0
   49.0251   41.4806   -4.9381 C   0  0  0  0  0  0
   49.3074   42.8100   -4.9800 O   0  0  0  0  0  0
   48.8230   40.8183   -5.9582 O   0  0  0  0  0  0
   46.6096   38.6227   -2.2312 O   0  0  0  0  0  0
   49.7114   41.1250   -0.0990 O   0  0  0  0  0  0
   50.7912   42.3651   -2.4702 C   0  0  0  0  0  0
   50.4346   43.8336   -2.1216 C   0  0  0  0  0  0
   51.6230   44.7369   -1.8016 C   0  0  0  0  0  0
   51.6375   45.5065   -0.6368 C   0  0  0  0  0  0
   52.7463   46.2937   -0.3354 C   0  0  0  0  0  0
   53.8454   46.3384   -1.2051 C   0  0  0  0  0  0
   53.7980   45.6100   -2.4034 C   0  0  0  0  0  0
   52.6958   44.8120   -2.6996 C   0  0  0  0  0  0
   55.0763   47.1234   -0.8182 C   0  0  0  0  0  0
   55.2230   47.6100    0.2997 O   0  0  0  0  0  0
   56.0198   47.2492   -1.7915 O   0  0  0  0  0  0
   47.9238   39.5254   -0.3443 H   0  0  0  0  0  0
   47.4228   39.6722   -4.3073 H   0  0  0  0  0  0
   49.2754   43.1565   -5.8738 H   0  0  0  0  0  0
   51.3050   42.3279   -3.4306 H   0  0  0  0  0  0
   51.5390   42.0100   -1.7599 H   0  0  0  0  0  0
   49.7175   43.8617   -1.2990 H   0  0  0  0  0  0
   49.9608   44.2876   -2.9863 H   0  0  0  0  0  0
   50.8230   45.4602    0.0662 H   0  0  0  0  0  0
   52.7520   46.8451    0.5952 H   0  0  0  0  0  0
   54.6229   45.6270   -3.1023 H   0  0  0  0  0  0
   52.6862   44.2422   -3.6172 H   0  0  0  0  0  0
   56.7572   47.7592   -1.4520 H   0  0  0  0  0  0
  1  2  1  0  0  0
  1  6  2  0  0  0
  1 12  1  0  0  0
  2  3  1  0  0  0
  2 11  2  0  0  0
  3  4  1  0  0  0
  3 23  1  0  0  0
  4  5  1  0  0  0
  4 10  2  0  0  0
  5  6  1  0  0  0
  5 24  1  0  0  0
  6  7  1  0  0  0
  7  8  1  0  0  0
  7  9  2  0  0  0
  8 25  1  0  0  0
 12 13  1  0  0  0
 12 26  1  0  0  0
 12 27  1  0  0  0
 13 14  1  0  0  0
 13 28  1  0  0  0
 13 29  1  0  0  0
 14 15  2  0  0  0
 14 19  1  0  0  0
 15 16  1  0  0  0
 15 30  1  0  0  0
 16 17  2  0  0  0
 16 31  1  0  0  0
 17 18  1  0  0  0
 17 20  1  0  0  0
 18 19  2  0  0  0
 18 32  1  0  0  0
 19 33  1  0  0  0
 20 21  2  0  0  0
 20 22  1  0  0  0
 22 34  1  0  0  0
M  END
> <s_m_entry_id>
25876

> <s_m_entry_name>
dock_pv.528

> <s_m_Source_Path>
/home/csk/Desktop/cluster/DUD-E-result/pyrd

> <s_m_Source_File>
dock_pv.maegz

> <i_m_Source_File_Index>
528

> <chembl_id>
CHEMBL3944370

> <chembl_pref_name>
None

> <i_lp_mmshare_version>
53161

> <r_lp_tautomer_probability>
1

> <s_lp_Force_Field>
OPLS_2005

> <r_lp_Energy>
14.471577

> <b_lp_Chiralities_Consistent>
1

> <s_lp_Variant>
CHEMBL1966_lig363-1

> <s_i_glide_gridfile>
glide-grid_1d3g

> <i_i_glide_lignum>
413

> <i_i_glide_rotatable_bonds>
7

> <r_i_docking_score>
-7.87515645286504

> <r_i_glide_ligand_efficiency>
-0.357961656948411

> <r_i_glide_ligand_efficiency_sa>
-1.00302264060256

> <r_i_glide_ligand_efficiency_ln>
-1.9249754903913

> <r_i_glide_gscore>
-7.87515645286504

> <r_i_glide_lipo>
-3.09778752667423

> <r_i_glide_hbond>
-0.16

> <r_i_glide_metal>
0

> <r_i_glide_rewards>
-2.98097718459951

> <r_i_glide_evdw>
-35.6682510375977

> <r_i_glide_ecoul>
-5.6596155166626

> <r_i_glide_erotb>
0.995963137787971

> <r_i_glide_esite>
0

> <r_i_glide_emodel>
-59.5044019615839

> <r_i_glide_energy>
-41.3278665542603

> <r_i_glide_einternal>
1.57582569122314

> <i_i_glide_confnum>
12

> <i_i_glide_posenum>
23

> <r_i_glide_eff_state_penalty>
0

> <s_user_duplicate_titles>
CHEMBL1966_lig363

> <i_f3d_flags>
0

> <s_m_subgroup_title>
dock_pv

> <s_m_subgroupid>
dock_pv

> <b_m_subgroup_collapsed>
1

$$$$
CHEMBL1966_lig353
                    3D
 Schrodinger Suite 2021-1.
 35 36  0  0  1  0            999 V2000
   49.6640   41.4609   -2.5300 C   0  0  0  0  0  0
   49.2230   40.8100   -1.2808 C   0  0  0  0  0  0
   48.1889   39.9442   -1.4404 N   0  0  0  0  0  0
   47.5336   39.5736   -2.5730 C   0  0  0  0  0  0
   48.0110   40.1726   -3.6932 N   0  0  0  0  0  0
   49.0103   41.1179   -3.6892 C   0  0  0  0  0  0
   49.2226   41.6986   -5.0095 C   0  0  0  0  0  0
   49.6240   42.9961   -4.9810 O   0  0  0  0  0  0
   48.9907   41.1153   -6.0707 O   0  0  0  0  0  0
   46.5745   38.8090   -2.5784 O   0  0  0  0  0  0
   49.6537   41.0388   -0.1519 O   0  0  0  0  0  0
   50.8553   42.4375   -2.3935 C   0  0  0  0  0  0
   50.4699   43.8978   -2.0337 C   0  0  0  0  0  0
   51.6231   44.8109   -1.6183 C   0  0  0  0  0  0
   52.6806   45.0830   -2.4990 C   0  0  0  0  0  0
   53.7433   45.8877   -2.0958 C   0  0  0  0  0  0
   53.7550   46.4376   -0.8110 C   0  0  0  0  0  0
   52.6796   46.2148    0.0515 C   0  0  0  0  0  0
   51.6189   45.4072   -0.3533 C   0  0  0  0  0  0
   54.9560   47.2375   -0.3234 C   0  0  0  0  0  0
   55.4769   48.1855   -1.3223 C   0  0  0  0  0  0
   55.8880   48.9302   -2.1066 N   0  0  0  0  0  0
   47.8513   39.5189   -0.5903 H   0  0  0  0  0  0
   47.5640   39.8930   -4.5534 H   0  0  0  0  0  0
   49.6489   43.3706   -5.8638 H   0  0  0  0  0  0
   51.4447   42.4278   -3.3106 H   0  0  0  0  0  0
   51.5442   42.0436   -1.6446 H   0  0  0  0  0  0
   49.7064   43.8961   -1.2532 H   0  0  0  0  0  0
   50.0230   44.3751   -2.9000 H   0  0  0  0  0  0
   52.6899   44.6467   -3.4874 H   0  0  0  0  0  0
   54.5668   46.0585   -2.7746 H   0  0  0  0  0  0
   52.6777   46.6367    1.0464 H   0  0  0  0  0  0
   50.8139   45.2101    0.3387 H   0  0  0  0  0  0
   55.7612   46.5495   -0.0646 H   0  0  0  0  0  0
   54.7146   47.8010    0.5773 H   0  0  0  0  0  0
  1  2  1  0  0  0
  1  6  2  0  0  0
  1 12  1  0  0  0
  2  3  1  0  0  0
  2 11  2  0  0  0
  3  4  1  0  0  0
  3 23  1  0  0  0
  4  5  1  0  0  0
  4 10  2  0  0  0
  5  6  1  0  0  0
  5 24  1  0  0  0
  6  7  1  0  0  0
  7  8  1  0  0  0
  7  9  2  0  0  0
  8 25  1  0  0  0
 12 13  1  0  0  0
 12 26  1  0  0  0
 12 27  1  0  0  0
 13 14  1  0  0  0
 13 28  1  0  0  0
 13 29  1  0  0  0
 14 15  2  0  0  0
 14 19  1  0  0  0
 15 16  1  0  0  0
 15 30  1  0  0  0
 16 17  2  0  0  0
 16 31  1  0  0  0
 17 18  1  0  0  0
 17 20  1  0  0  0
 18 19  2  0  0  0
 18 32  1  0  0  0
 19 33  1  0  0  0
 20 21  1  0  0  0
 20 34  1  0  0  0
 20 35  1  0  0  0
 21 22  3  0  0  0
M  END
> <s_m_entry_id>
25877

> <s_m_entry_name>
dock_pv.529

> <s_m_Source_Path>
/home/csk/Desktop/cluster/DUD-E-result/pyrd

> <s_m_Source_File>
dock_pv.maegz

> <i_m_Source_File_Index>
529

> <chembl_id>
CHEMBL3915927

> <chembl_pref_name>
None

> <i_lp_mmshare_version>
53161

> <r_lp_tautomer_probability>
1

> <s_lp_Force_Field>
OPLS_2005

> <r_lp_Energy>
12.279447

> <b_lp_Chiralities_Consistent>
1

> <s_lp_Variant>
CHEMBL1966_lig353-1

> <s_i_glide_gridfile>
glide-grid_1d3g

> <i_i_glide_lignum>
403

> <i_i_glide_rotatable_bonds>
6

> <r_i_docking_score>
-7.87186449034154

> <r_i_glide_ligand_efficiency>
-0.357812022288252

> <r_i_glide_ligand_efficiency_sa>
-1.00260335839999

> <r_i_glide_ligand_efficiency_ln>
-1.9241708146733

> <r_i_glide_gscore>
-7.87186449034154

> <r_i_glide_lipo>
-3.47079179441326

> <r_i_glide_hbond>
-0.152924681702448

> <r_i_glide_metal>
0

> <r_i_glide_rewards>
-2.8512822919845

> <r_i_glide_evdw>
-35.7970848083496

> <r_i_glide_ecoul>
-4.21424961090088

> <r_i_glide_erotb>
1.02512595981128

> <r_i_glide_esite>
0

> <r_i_glide_emodel>
-55.8743423899289

> <r_i_glide_energy>
-40.0113344192505

> <r_i_glide_einternal>
1.94800925254822

> <i_i_glide_confnum>
124

> <i_i_glide_posenum>
55

> <r_i_glide_eff_state_penalty>
0

> <s_user_duplicate_titles>
CHEMBL1966_lig353

> <i_f3d_flags>
0

> <s_m_subgroup_title>
dock_pv

> <s_m_subgroupid>
dock_pv

> <b_m_subgroup_collapsed>
1

$$$$
CHEMBL1966_lig117
                    3D
 Schrodinger Suite 2021-1.
 38 39  0  0  1  0            999 V2000
   51.0544   43.7380   -1.3801 C   0  0  0  0  0  0
   51.7815   44.4100   -2.3826 C   0  0  0  0  0  0
   51.5787   43.9586   -3.6902 C   0  0  0  0  0  0
   50.6769   42.9489   -4.0012 C   0  0  0  0  0  0
   50.0232   42.2496   -2.9815 C   0  0  0  0  0  0
   50.2570   42.6072   -1.6450 C   0  0  0  0  0  0
   52.9142   45.3644   -2.0882 C   0  0  0  0  0  0
   49.1081   41.2192   -3.2126 N   0  0  0  0  0  0
   48.5078   40.8100   -4.3373 C   0  0  0  0  0  0
   47.3710   39.8064   -4.1292 C   0  0  1  0  0  0
   48.8215   41.1544   -5.4792 O   0  0  0  0  0  0
   47.0639   39.3149   -2.7735 C   0  0  0  0  0  0
   46.0518   40.0595   -4.8990 C   0  0  0  0  0  0
   45.7856   41.3945   -5.5987 C   0  0  0  0  0  0
   45.2230   39.1616   -5.0100 O   0  0  0  0  0  0
   46.8230   38.9138   -1.7152 N   0  0  0  0  0  0
   54.0776   45.2810   -2.8796 C   0  0  0  0  0  0
   55.2211   46.0269   -2.6044 C   0  0  0  0  0  0
   55.2440   46.8714   -1.5031 C   0  0  0  0  0  0
   54.1161   46.9725   -0.6978 C   0  0  0  0  0  0
   52.9554   46.2523   -0.9891 C   0  0  0  0  0  0
   51.6230   46.4989    0.0782 Cl  0  0  0  0  0  0
   49.6869   41.8103   -0.4487 C   0  0  0  0  0  0
   49.1837   42.6975    0.3993 F   0  0  0  0  0  0
   48.8230   40.8100   -0.6828 F   0  0  0  0  0  0
   50.6503   41.2100    0.1976 F   0  0  0  0  0  0
   51.2230   43.9894   -0.3454 H   0  0  0  0  0  0
   52.0916   44.4386   -4.4990 H   0  0  0  0  0  0
   50.5345   42.7145   -5.0430 H   0  0  0  0  0  0
   48.7883   40.7772   -2.3600 H   0  0  0  0  0  0
   45.7338   42.2211   -4.8990 H   0  0  0  0  0  0
   44.8230   41.3752   -6.0990 H   0  0  0  0  0  0
   46.5487   41.6204   -6.3394 H   0  0  0  0  0  0
   47.8844   38.9336   -4.4990 H   0  0  0  0  0  0
   54.1333   44.5839   -3.6990 H   0  0  0  0  0  0
   56.0978   45.9258   -3.2278 H   0  0  0  0  0  0
   56.1345   47.4365   -1.2676 H   0  0  0  0  0  0
   54.1447   47.6100    0.1714 H   0  0  0  0  0  0
  1  2  2  0  0  0
  1  6  1  0  0  0
  1 27  1  0  0  0
  2  7  1  0  0  0
  2  3  1  0  0  0
  3  4  2  0  0  0
  3 28  1  0  0  0
  4  5  1  0  0  0
  4 29  1  0  0  0
  5  8  1  0  0  0
  5  6  2  0  0  0
  6 23  1  0  0  0
  7 17  2  0  0  0
  7 21  1  0  0  0
  8  9  1  0  0  0
  8 30  1  0  0  0
  9 11  2  0  0  0
  9 10  1  0  0  0
 10 12  1  0  0  0
 10 34  1  0  0  0
 10 13  1  0  0  0
 12 16  3  0  0  0
 13 15  2  0  0  0
 13 14  1  0  0  0
 14 31  1  0  0  0
 14 32  1  0  0  0
 14 33  1  0  0  0
 17 18  1  0  0  0
 17 35  1  0  0  0
 18 19  2  0  0  0
 18 36  1  0  0  0
 19 20  1  0  0  0
 19 37  1  0  0  0
 20 21  2  0  0  0
 20 38  1  0  0  0
 21 22  1  0  0  0
 23 24  1  0  0  0
 23 25  1  0  0  0
 23 26  1  0  0  0
M  END
> <s_m_entry_id>
25878

> <s_m_entry_name>
dock_pv.530

> <s_m_Source_Path>
/home/csk/Desktop/cluster/DUD-E-result/pyrd

> <s_m_Source_File>
dock_pv.maegz

> <i_m_Source_File_Index>
530

> <chembl_id>
CHEMBL520306

> <chembl_pref_name>
None

> <i_lp_mmshare_version>
53161

> <r_lp_tautomer_probability>
0.995394628248396

> <s_lp_Force_Field>
OPLS_2005

> <r_lp_Energy>
26.961626

> <b_lp_Chiralities_Consistent>
1

> <s_lp_Variant>
CHEMBL1966_lig117-2

> <s_i_glide_gridfile>
glide-grid_1d3g

> <i_i_glide_lignum>
136

> <i_i_glide_rotatable_bonds>
6

> <r_i_docking_score>
-7.86385911522976

> <r_i_glide_ligand_efficiency>
-0.302456119816529

> <r_i_glide_ligand_efficiency_sa>
-0.896025064849104

> <r_i_glide_ligand_efficiency_ln>
-1.84680150978533

> <r_i_glide_gscore>
-7.86385911522976

> <r_i_glide_lipo>
-4.30058702588884

> <r_i_glide_hbond>
0

> <r_i_glide_metal>
0

> <r_i_glide_rewards>
-3.14235555536033

> <r_i_glide_evdw>
-13.1470422744751

> <r_i_glide_ecoul>
-1.99303543567657

> <r_i_glide_erotb>
0.53539089509465

> <r_i_glide_esite>
0

> <r_i_glide_emodel>
-9.40794990540941

> <r_i_glide_energy>
-15.1400777101517

> <r_i_glide_einternal>
15.4448366165161

> <i_i_glide_confnum>
46

> <i_i_glide_posenum>
191

> <r_i_glide_eff_state_penalty>
0

> <s_user_duplicate_titles>
CHEMBL1966_lig117

> <i_f3d_flags>
0

> <s_m_subgroup_title>
dock_pv

> <s_m_subgroupid>
dock_pv

> <b_m_subgroup_collapsed>
1

$$$$
CHEMBL1966_lig333
                    3D
 Schrodinger Suite 2021-1.
 46 48  0  0  1  0            999 V2000
   46.0227   38.0096   -1.7771 F   0  0  0  0  0  0
   50.0245   42.7385   -0.9032 O   0  0  0  0  0  0
   54.1920   44.7103   -2.8998 O   0  0  0  0  0  0
   52.8225   46.5092   -2.7746 N   0  0  0  0  0  0
   50.7621   42.1220   -2.9738 N   0  0  0  0  0  0
   54.6951   47.5765   -1.6825 C   0  0  0  0  0  0
   53.7494   47.5963   -2.8694 C   0  0  1  0  0  0
   56.0659   47.7760   -1.8677 C   0  0  0  0  0  0
   54.2117   47.2092   -0.4117 C   0  0  0  0  0  0
   54.4177   47.7353   -4.2536 C   0  0  0  0  0  0
   56.6596   48.0153   -3.2511 C   0  0  0  0  0  0
   49.0689   40.8058   -1.8721 C   0  0  0  0  0  0
   56.8755   47.6651   -0.7572 C   0  0  0  0  0  0
   55.8625   47.2148   -4.2931 C   0  0  0  0  0  0
   50.0219   41.9686   -1.8637 C   0  0  0  0  0  0
   53.0819   45.2106   -2.7449 C   0  0  0  0  0  0
   55.0620   47.0162    0.6592 C   0  0  0  0  0  0
   56.4192   47.2103    0.4764 C   0  0  0  0  0  0
   48.4364   40.4106   -3.0591 C   0  0  0  0  0  0
   48.6923   40.2124   -0.6568 C   0  0  0  0  0  0
   47.0404   38.8954   -1.8114 C   0  0  0  0  0  0
   51.8406   44.4105   -2.4125 C   0  0  0  0  0  0
   47.4120   39.4703   -3.0217 C   0  0  0  0  0  0
   47.6828   39.2510   -0.6319 C   0  0  0  0  0  0
   51.4154   43.3427   -3.4376 C   0  0  0  0  0  0
   51.8543   46.7822   -2.7025 H   0  0  0  0  0  0
   50.8207   41.3310   -3.5936 H   0  0  0  0  0  0
   53.1069   48.4680   -2.7659 H   0  0  0  0  0  0
   53.1528   47.0651   -0.2556 H   0  0  0  0  0  0
   54.4390   48.7970   -4.4953 H   0  0  0  0  0  0
   53.7743   47.2633   -5.0084 H   0  0  0  0  0  0
   56.6282   49.0793   -3.4821 H   0  0  0  0  0  0
   57.7079   47.7213   -3.2821 H   0  0  0  0  0  0
   57.9181   47.9174   -0.8749 H   0  0  0  0  0  0
   56.2990   47.3003   -5.2865 H   0  0  0  0  0  0
   55.8986   46.1493   -4.0685 H   0  0  0  0  0  0
   54.6575   46.7589    1.6222 H   0  0  0  0  0  0
   57.1003   47.1126    1.3103 H   0  0  0  0  0  0
   48.6808   40.8714   -4.0057 H   0  0  0  0  0  0
   49.1636   40.5062    0.2724 H   0  0  0  0  0  0
   52.0036   44.0096   -1.4240 H   0  0  0  0  0  0
   50.9679   44.9864   -2.0993 H   0  0  0  0  0  0
   46.8920   39.2006   -3.9270 H   0  0  0  0  0  0
   47.3827   38.7997    0.3006 H   0  0  0  0  0  0
   51.1829   43.7228   -4.4323 H   0  0  0  0  0  0
   52.3691   42.8965   -3.7375 H   0  0  0  0  0  0
  1 21  1  0  0  0
  2 15  2  0  0  0
  3 16  2  0  0  0
  4  7  1  0  0  0
  4 16  1  0  0  0
  4 26  1  0  0  0
  5 15  1  0  0  0
  5 25  1  0  0  0
  5 27  1  0  0  0
  6  7  1  0  0  0
  6  8  1  0  0  0
  6  9  2  0  0  0
  7 10  1  0  0  0
  7 28  1  0  0  0
  8 11  1  0  0  0
  8 13  2  0  0  0
  9 17  1  0  0  0
  9 29  1  0  0  0
 10 14  1  0  0  0
 10 30  1  0  0  0
 10 31  1  0  0  0
 11 14  1  0  0  0
 11 32  1  0  0  0
 11 33  1  0  0  0
 12 15  1  0  0  0
 12 19  2  0  0  0
 12 20  1  0  0  0
 13 18  1  0  0  0
 13 34  1  0  0  0
 14 35  1  0  0  0
 14 36  1  0  0  0
 16 22  1  0  0  0
 17 18  2  0  0  0
 17 37  1  0  0  0
 18 38  1  0  0  0
 19 23  1  0  0  0
 19 39  1  0  0  0
 20 24  2  0  0  0
 20 40  1  0  0  0
 21 23  2  0  0  0
 21 24  1  0  0  0
 22 25  1  0  0  0
 22 41  1  0  0  0
 22 42  1  0  0  0
 23 43  1  0  0  0
 24 44  1  0  0  0
 25 45  1  0  0  0
 25 46  1  0  0  0
M  END
> <s_m_entry_id>
25879

> <s_m_entry_name>
dock_pv.531

> <s_m_Source_Path>
/home/csk/Desktop/cluster/DUD-E-result/pyrd

> <s_m_Source_File>
dock_pv.maegz

> <i_m_Source_File_Index>
531

> <chembl_id>
CHEMBL3185911

> <chembl_pref_name>
None

> <i_lp_mmshare_version>
53161

> <r_lp_tautomer_probability>
1

> <s_lp_Force_Field>
OPLS_2005

> <r_lp_Energy>
8.986933

> <b_lp_Chiralities_Consistent>
1

> <s_lp_Variant>
CHEMBL1966_lig333-1

> <s_i_glide_gridfile>
glide-grid_1d3g

> <i_i_glide_lignum>
383

> <i_i_glide_rotatable_bonds>
7

> <r_i_docking_score>
-7.86311708894319

> <r_i_glide_ligand_efficiency>
-0.314524683557727

> <r_i_glide_ligand_efficiency_sa>
-0.919675752841809

> <r_i_glide_ligand_efficiency_ln>
-1.86379438868382

> <r_i_glide_gscore>
-7.86311708894319

> <r_i_glide_lipo>
-4.48185401376867

> <r_i_glide_hbond>
0

> <r_i_glide_metal>
0

> <r_i_glide_rewards>
-2.9213092108714

> <r_i_glide_evdw>
-20.2005615234375

> <r_i_glide_ecoul>
-1.78071880340576

> <r_i_glide_erotb>
0.817182032379625

> <r_i_glide_esite>
0

> <r_i_glide_emodel>
-41.774385289596

> <r_i_glide_energy>
-21.9812803268433

> <r_i_glide_einternal>
10.9792633056641

> <i_i_glide_confnum>
46

> <i_i_glide_posenum>
290

> <r_i_glide_eff_state_penalty>
0

> <s_user_duplicate_titles>
CHEMBL1966_lig333

> <i_f3d_flags>
0

> <s_m_subgroup_title>
dock_pv

> <s_m_subgroupid>
dock_pv

> <b_m_subgroup_collapsed>
1

$$$$
CHEMBL1966_lig361
                    3D
 Schrodinger Suite 2021-1.
 37 38  0  0  1  0            999 V2000
   49.2230   40.9317   -2.4591 C   0  0  0  0  0  0
   48.8757   40.4100   -1.1236 C   0  0  0  0  0  0
   47.8316   39.5449   -1.0997 N   0  0  0  0  0  0
   47.0465   39.1224   -2.1252 C   0  0  0  0  0  0
   47.4115   39.6277   -3.3325 N   0  0  0  0  0  0
   48.4432   40.5258   -3.5146 C   0  0  0  0  0  0
   48.5463   40.9832   -4.8990 C   0  0  0  0  0  0
   49.2230   42.1499   -5.0686 O   0  0  0  0  0  0
   48.0231   40.4100   -5.8504 O   0  0  0  0  0  0
   46.0647   38.4100   -1.9584 O   0  0  0  0  0  0
   49.4369   40.7561   -0.0878 O   0  0  0  0  0  0
   50.4445   41.8897   -2.5033 C   0  0  0  0  0  0
   50.0942   43.3803   -2.2815 C   0  0  0  0  0  0
   51.2561   44.3290   -2.0092 C   0  0  0  0  0  0
   52.3317   44.4100   -2.9009 C   0  0  0  0  0  0
   53.4003   45.2637   -2.6432 C   0  0  0  0  0  0
   53.4136   46.0481   -1.4805 C   0  0  0  0  0  0
   52.3073   46.0100   -0.6191 C   0  0  0  0  0  0
   51.2336   45.1610   -0.8864 C   0  0  0  0  0  0
   54.6108   46.8718   -1.1122 C   0  0  0  0  0  0
   54.8127   47.3035    0.0260 O   0  0  0  0  0  0
   55.4200   47.1365   -2.1684 O   0  0  0  0  0  0
   56.5930   47.9229   -2.0056 C   0  0  0  0  0  0
   47.5765   39.2018   -0.1853 H   0  0  0  0  0  0
   46.8679   39.3044   -4.1194 H   0  0  0  0  0  0
   49.5336   42.5081   -4.2364 H   0  0  0  0  0  0
   51.0088   41.7501   -3.4250 H   0  0  0  0  0  0
   51.1651   41.6100   -1.7357 H   0  0  0  0  0  0
   49.3915   43.4471   -1.4477 H   0  0  0  0  0  0
   49.6230   43.7779   -3.1754 H   0  0  0  0  0  0
   52.3532   43.7930   -3.7873 H   0  0  0  0  0  0
   54.2302   45.2715   -3.3361 H   0  0  0  0  0  0
   52.2824   46.6112    0.2800 H   0  0  0  0  0  0
   50.4019   45.1315   -0.1989 H   0  0  0  0  0  0
   57.1068   48.0248   -2.9615 H   0  0  0  0  0  0
   57.2816   47.4581   -1.2990 H   0  0  0  0  0  0
   56.3487   48.9227   -1.6430 H   0  0  0  0  0  0
  1  2  1  0  0  0
  1  6  2  0  0  0
  1 12  1  0  0  0
  2  3  1  0  0  0
  2 11  2  0  0  0
  3  4  1  0  0  0
  3 24  1  0  0  0
  4  5  1  0  0  0
  4 10  2  0  0  0
  5  6  1  0  0  0
  5 25  1  0  0  0
  6  7  1  0  0  0
  7  8  1  0  0  0
  7  9  2  0  0  0
  8 26  1  0  0  0
 12 13  1  0  0  0
 12 27  1  0  0  0
 12 28  1  0  0  0
 13 14  1  0  0  0
 13 29  1  0  0  0
 13 30  1  0  0  0
 14 15  2  0  0  0
 14 19  1  0  0  0
 15 16  1  0  0  0
 15 31  1  0  0  0
 16 17  2  0  0  0
 16 32  1  0  0  0
 17 18  1  0  0  0
 17 20  1  0  0  0
 18 19  2  0  0  0
 18 33  1  0  0  0
 19 34  1  0  0  0
 20 21  2  0  0  0
 20 22  1  0  0  0
 22 23  1  0  0  0
 23 35  1  0  0  0
 23 36  1  0  0  0
 23 37  1  0  0  0
M  END
> <s_m_entry_id>
25880

> <s_m_entry_name>
dock_pv.532

> <s_m_Source_Path>
/home/csk/Desktop/cluster/DUD-E-result/pyrd

> <s_m_Source_File>
dock_pv.maegz

> <i_m_Source_File_Index>
532

> <chembl_id>
CHEMBL3935411

> <chembl_pref_name>
None

> <i_lp_mmshare_version>
53161

> <r_lp_tautomer_probability>
1

> <s_lp_Force_Field>
OPLS_2005

> <r_lp_Energy>
14.870368

> <b_lp_Chiralities_Consistent>
1

> <s_lp_Variant>
CHEMBL1966_lig361-1

> <s_i_glide_gridfile>
glide-grid_1d3g

> <i_i_glide_lignum>
411

> <i_i_glide_rotatable_bonds>
7

> <r_i_docking_score>
-7.85501622841517

> <r_i_glide_ligand_efficiency>
-0.341522444713703

> <r_i_glide_ligand_efficiency_sa>
-0.971244402384371

> <r_i_glide_ligand_efficiency_ln>
-1.89941414938005

> <r_i_glide_gscore>
-7.85501622841517

> <r_i_glide_lipo>
-3.40416105829865

> <r_i_glide_hbond>
-0.15502466561827

> <r_i_glide_metal>
0

> <r_i_glide_rewards>
-2.77535712489492

> <r_i_glide_evdw>
-34.8351058959961

> <r_i_glide_ecoul>
-4.65908527374268

> <r_i_glide_erotb>
0.920144706257877

> <r_i_glide_esite>
0

> <r_i_glide_emodel>
-55.7840115523759

> <r_i_glide_energy>
-39.4941911697388

> <r_i_glide_einternal>
3.38726210594177

> <i_i_glide_confnum>
73

> <i_i_glide_posenum>
387

> <r_i_glide_eff_state_penalty>
0

> <s_user_duplicate_titles>
CHEMBL1966_lig361

> <i_f3d_flags>
0

> <s_m_subgroup_title>
dock_pv

> <s_m_subgroupid>
dock_pv

> <b_m_subgroup_collapsed>
1

$$$$
CHEMBL1966_lig182
                    3D
 Schrodinger Suite 2021-1.
 47 50  0  0  1  0            999 V2000
   49.6230   43.4560   -0.0990 O   0  0  0  0  0  0
   49.9768   42.2926   -0.7152 C   0  0  0  0  0  0
   50.0230   41.2100   -0.1348 O   0  0  0  0  0  0
   50.1069   42.4409   -2.1977 C   0  0  0  0  0  0
   49.3907   41.5593   -3.0133 C   0  0  0  0  0  0
   49.3435   41.7758   -4.3876 C   0  0  0  0  0  0
   50.1135   42.8100   -4.9179 C   0  0  0  0  0  0
   50.8964   43.6100   -4.1545 N   0  0  0  0  0  0
   50.8587   43.4725   -2.8022 C   0  0  0  0  0  0
   51.5726   44.3995   -2.0089 N   0  0  0  0  0  0
   52.6983   45.2100   -2.2434 C   0  0  0  0  0  0
   53.7350   44.8196   -3.0958 C   0  0  0  0  0  0
   53.6958   43.6100   -3.6990 F   0  0  0  0  0  0
   54.8438   45.6460   -3.2873 C   0  0  0  0  0  0
   54.9638   46.8703   -2.6132 C   0  0  0  0  0  0
   53.9531   47.2093   -1.7037 C   0  0  0  0  0  0
   52.8353   46.3932   -1.5160 C   0  0  0  0  0  0
   51.9027   46.7295   -0.5912 F   0  0  0  0  0  0
   56.1229   47.7885   -2.8534 C   0  0  0  0  0  0
   56.5796   48.6626   -1.8547 C   0  0  0  0  0  0
   57.6230   49.5522   -2.0990 C   0  0  0  0  0  0
   58.2406   49.5756   -3.3456 C   0  0  0  0  0  0
   57.8321   48.7064   -4.3555 C   0  0  0  0  0  0
   58.5028   48.7987   -5.5595 O   0  0  0  0  0  0
   58.4734   47.7085   -6.4809 C   0  0  0  0  0  0
   59.3727   47.9688   -7.4278 F   0  0  0  0  0  0
   58.8227   46.5583   -5.9006 F   0  0  0  0  0  0
   57.2835   47.5921   -7.0721 F   0  0  0  0  0  0
   56.7705   47.8231   -4.0990 C   0  0  0  0  0  0
   48.4034   40.9909   -5.2767 C   0  0  0  0  0  0
   47.0584   40.4481   -4.8104 C   0  0  0  0  0  0
   47.1261   41.6552   -5.6990 C   0  0  0  0  0  0
   49.4488   43.3055    0.8326 H   0  0  0  0  0  0
   48.7979   40.7672   -2.5754 H   0  0  0  0  0  0
   50.1046   43.0242   -5.9769 H   0  0  0  0  0  0
   51.2698   44.3910   -1.0445 H   0  0  0  0  0  0
   55.6216   45.3092   -3.9566 H   0  0  0  0  0  0
   54.0230   48.1237   -1.1369 H   0  0  0  0  0  0
   56.1348   48.6611   -0.8710 H   0  0  0  0  0  0
   57.9610   50.2153   -1.3155 H   0  0  0  0  0  0
   59.0509   50.2658   -3.5276 H   0  0  0  0  0  0
   56.4215   47.1721   -4.8839 H   0  0  0  0  0  0
   48.9257   40.4100   -6.0349 H   0  0  0  0  0  0
   46.5615   39.6100   -5.2724 H   0  0  0  0  0  0
   46.7638   40.5605   -3.7673 H   0  0  0  0  0  0
   46.8975   42.6433   -5.2990 H   0  0  0  0  0  0
   46.8349   41.6100   -6.7340 H   0  0  0  0  0  0
  1  2  1  0  0  0
  1 33  1  0  0  0
  2  3  2  0  0  0
  2  4  1  0  0  0
  4  5  2  0  0  0
  4  9  1  0  0  0
  5  6  1  0  0  0
  5 34  1  0  0  0
  6  7  2  0  0  0
  6 30  1  0  0  0
  7  8  1  0  0  0
  7 35  1  0  0  0
  8  9  2  0  0  0
  9 10  1  0  0  0
 10 11  1  0  0  0
 10 36  1  0  0  0
 11 12  2  0  0  0
 11 17  1  0  0  0
 12 13  1  0  0  0
 12 14  1  0  0  0
 14 15  2  0  0  0
 14 37  1  0  0  0
 15 16  1  0  0  0
 15 19  1  0  0  0
 16 17  2  0  0  0
 16 38  1  0  0  0
 17 18  1  0  0  0
 19 20  2  0  0  0
 19 29  1  0  0  0
 20 21  1  0  0  0
 20 39  1  0  0  0
 21 22  2  0  0  0
 21 40  1  0  0  0
 22 23  1  0  0  0
 22 41  1  0  0  0
 23 24  1  0  0  0
 23 29  2  0  0  0
 24 25  1  0  0  0
 25 26  1  0  0  0
 25 27  1  0  0  0
 25 28  1  0  0  0
 29 42  1  0  0  0
 30 31  1  0  0  0
 30 32  1  0  0  0
 30 43  1  0  0  0
 31 32  1  0  0  0
 31 44  1  0  0  0
 31 45  1  0  0  0
 32 46  1  0  0  0
 32 47  1  0  0  0
M  END
> <s_m_entry_id>
25881

> <s_m_entry_name>
dock_pv.533

> <s_m_Source_Path>
/home/csk/Desktop/cluster/DUD-E-result/pyrd

> <s_m_Source_File>
dock_pv.maegz

> <i_m_Source_File_Index>
533

> <chembl_id>
CHEMBL2263646

> <chembl_pref_name>
None

> <i_lp_mmshare_version>
53161

> <r_lp_tautomer_probability>
1

> <s_lp_Force_Field>
OPLS_2005

> <r_lp_Energy>
33.814495

> <b_lp_Chiralities_Consistent>
1

> <s_lp_Variant>
CHEMBL1966_lig182-1

> <s_i_glide_gridfile>
glide-grid_1d3g

> <i_i_glide_lignum>
227

> <i_i_glide_rotatable_bonds>
8

> <r_i_docking_score>
-7.85002996055976

> <r_i_glide_ligand_efficiency>
-0.245313436267493

> <r_i_glide_ligand_efficiency_sa>
-0.778821612686173

> <r_i_glide_ligand_efficiency_ln>
-1.75783569190428

> <r_i_glide_gscore>
-7.85002996055976

> <r_i_glide_lipo>
-4.65737632632002

> <r_i_glide_hbond>
0

> <r_i_glide_metal>
0

> <r_i_glide_rewards>
-2.08708736169614

> <r_i_glide_evdw>
-37.646297454834

> <r_i_glide_ecoul>
1.22445106506348

> <r_i_glide_erotb>
0.593080940438574

> <r_i_glide_esite>
0

> <r_i_glide_emodel>
-38.9012468150777

> <r_i_glide_energy>
-36.4218463897705

> <r_i_glide_einternal>
10.2654590606689

> <i_i_glide_confnum>
69

> <i_i_glide_posenum>
167

> <r_i_glide_eff_state_penalty>
0

> <s_user_duplicate_titles>
CHEMBL1966_lig182

> <i_f3d_flags>
0

> <s_m_subgroup_title>
dock_pv

> <s_m_subgroupid>
dock_pv

> <b_m_subgroup_collapsed>
1

$$$$
CHEMBL1966_lig648
                    3D
 Schrodinger Suite 2021-1.
 23 24  0  0  1  0            999 V2000
   49.7454   41.6350   -2.1039 C   0  0  0  0  0  0
   48.8371   40.6027   -2.7386 C   0  0  0  0  0  0
   48.7236   40.9130   -4.4919 S   0  0  0  0  0  0
   49.7313   42.3432   -4.3095 C   0  0  0  0  0  0
   50.1689   42.5422   -3.0172 N   0  0  0  0  0  0
   50.0230   41.6100   -0.9021 O   0  0  0  0  0  0
   50.0230   43.2100   -5.6990 S   0  0  0  0  0  0
   51.0405   43.6100   -2.6214 C   0  0  0  0  0  0
   52.2431   43.8389   -3.3071 C   0  0  0  0  0  0
   53.1231   44.8350   -2.8990 C   0  0  0  0  0  0
   52.8326   45.6125   -1.7784 C   0  0  0  0  0  0
   51.6230   45.4197   -1.1004 C   0  0  0  0  0  0
   50.7371   44.4261   -1.5161 C   0  0  0  0  0  0
   53.8814   46.6056   -1.2810 C   0  0  0  0  0  0
   53.6229   47.0273   -0.0436 F   0  0  0  0  0  0
   53.9228   47.6561   -2.0990 F   0  0  0  0  0  0
   55.0871   46.0348   -1.2694 F   0  0  0  0  0  0
   47.8520   40.6298   -2.2775 H   0  0  0  0  0  0
   49.2355   39.6100   -2.5745 H   0  0  0  0  0  0
   52.5309   43.2100   -4.1359 H   0  0  0  0  0  0
   54.0595   44.9681   -3.4203 H   0  0  0  0  0  0
   51.3774   46.0133   -0.2317 H   0  0  0  0  0  0
   49.8256   44.2830   -0.9529 H   0  0  0  0  0  0
  1  2  1  0  0  0
  1  5  1  0  0  0
  1  6  2  0  0  0
  2  3  1  0  0  0
  2 18  1  0  0  0
  2 19  1  0  0  0
  3  4  1  0  0  0
  4  5  1  0  0  0
  4  7  2  0  0  0
  5  8  1  0  0  0
  8  9  2  0  0  0
  8 13  1  0  0  0
  9 10  1  0  0  0
  9 20  1  0  0  0
 10 11  2  0  0  0
 10 21  1  0  0  0
 11 12  1  0  0  0
 11 14  1  0  0  0
 12 13  2  0  0  0
 12 22  1  0  0  0
 13 23  1  0  0  0
 14 15  1  0  0  0
 14 16  1  0  0  0
 14 17  1  0  0  0
M  END
> <s_m_entry_id>
25883

> <s_m_entry_name>
dock_pv.535

> <s_m_Source_Path>
/home/csk/Desktop/cluster/DUD-E-result/pyrd

> <s_m_Source_File>
dock_pv.maegz

> <i_m_Source_File_Index>
535

> <chembl_id>
CHEMBL4280280

> <chembl_pref_name>
None

> <i_lp_mmshare_version>
53161

> <r_lp_tautomer_probability>
1

> <s_lp_Force_Field>
OPLS_2005

> <r_lp_Energy>
23.459627

> <b_lp_Chiralities_Consistent>
1

> <s_lp_Variant>
CHEMBL1966_lig648-1

> <s_i_glide_gridfile>
glide-grid_1d3g

> <i_i_glide_lignum>
702

> <i_i_glide_rotatable_bonds>
2

> <r_i_docking_score>
-7.8419752518866

> <r_i_glide_ligand_efficiency>
-0.461292661875682

> <r_i_glide_ligand_efficiency_sa>
-1.18611332826651

> <r_i_glide_ligand_efficiency_ln>
-2.04579671101437

> <r_i_glide_gscore>
-7.8419752518866

> <r_i_glide_lipo>
-2.62212892989852

> <r_i_glide_hbond>
0

> <r_i_glide_metal>
0

> <r_i_glide_rewards>
-3.75243141854379

> <r_i_glide_evdw>
-31.6301803588867

> <r_i_glide_ecoul>
-0.800616979598999

> <r_i_glide_erotb>
0.234186661439895

> <r_i_glide_esite>
0

> <r_i_glide_emodel>
-46.295055252267

> <r_i_glide_energy>
-32.4307973384857

> <r_i_glide_einternal>
1.54474699497223

> <i_i_glide_confnum>
1

> <i_i_glide_posenum>
82

> <r_i_glide_eff_state_penalty>
0

> <s_user_duplicate_titles>
CHEMBL1966_lig648

> <i_f3d_flags>
0

> <s_m_subgroup_title>
dock_pv

> <s_m_subgroupid>
dock_pv

> <b_m_subgroup_collapsed>
1

$$$$
CHEMBL1966_lig9
                    3D
 Schrodinger Suite 2021-1.
 40 42  0  0  1  0            999 V2000
   48.4282   40.7419   -3.4385 C   0  0  0  0  0  0
   49.5273   41.4775   -2.7776 C   0  0  0  0  0  0
   47.5813   39.8307   -2.8514 C   0  0  0  0  0  0
   47.6223   39.2783   -1.5063 C   0  0  0  0  0  0
   49.9715   42.5611   -3.4419 N   0  0  0  0  0  0
   49.9804   41.2096   -1.6700 O   0  0  0  0  0  0
   52.7563   45.4186   -2.0966 C   0  0  0  0  0  0
   47.9673   39.8873   -0.4990 O   0  0  0  0  0  0
   50.8987   43.4894   -2.9416 C   0  0  0  0  0  0
   53.7978   46.3848   -1.6361 C   0  0  0  0  0  0
   51.6244   45.1318   -1.3142 C   0  0  0  0  0  0
   52.9321   44.7252   -3.2975 C   0  0  0  0  0  0
   47.2159   37.9818   -1.4765 O   0  0  0  0  0  0
   48.0156   40.9808   -4.8954 C   0  0  0  0  0  0
   46.3525   39.6098   -3.7046 C   0  0  0  0  0  0
   52.0175   43.7583   -3.7152 C   0  0  0  0  0  0
   50.7024   44.1633   -1.7270 C   0  0  0  0  0  0
   46.5867   40.4494   -4.9468 C   0  0  0  0  0  0
   54.1992   46.4105   -0.2923 C   0  0  0  0  0  0
   54.4505   47.2238   -2.5485 C   0  0  0  0  0  0
   55.5031   48.0385   -2.1402 C   0  0  0  0  0  0
   55.2595   47.2115    0.1155 C   0  0  0  0  0  0
   55.9124   48.0209   -0.8106 C   0  0  0  0  0  0
   49.6697   42.6968   -4.3951 H   0  0  0  0  0  0
   51.4554   45.6525   -0.3803 H   0  0  0  0  0  0
   53.8105   44.9174   -3.8931 H   0  0  0  0  0  0
   47.0700   37.6446   -2.3571 H   0  0  0  0  0  0
   48.6790   40.4286   -5.5627 H   0  0  0  0  0  0
   48.0287   42.0275   -5.2126 H   0  0  0  0  0  0
   45.5636   40.0590   -3.1122 H   0  0  0  0  0  0
   46.0234   38.5911   -3.9005 H   0  0  0  0  0  0
   52.1930   43.2117   -4.6346 H   0  0  0  0  0  0
   49.8410   43.9542   -1.1091 H   0  0  0  0  0  0
   46.3477   40.0096   -5.9020 H   0  0  0  0  0  0
   45.9078   41.3032   -4.8980 H   0  0  0  0  0  0
   53.7188   45.7746    0.4380 H   0  0  0  0  0  0
   54.1517   47.2341   -3.5902 H   0  0  0  0  0  0
   56.0114   48.6687   -2.8557 H   0  0  0  0  0  0
   55.5804   47.2065    1.1470 H   0  0  0  0  0  0
   56.7348   48.6426   -0.4900 H   0  0  0  0  0  0
  1  2  1  0  0  0
  1  3  2  0  0  0
  1 14  1  0  0  0
  2  5  1  0  0  0
  2  6  2  0  0  0
  3  4  1  0  0  0
  3 15  1  0  0  0
  4  8  2  0  0  0
  4 13  1  0  0  0
  5  9  1  0  0  0
  5 24  1  0  0  0
  7 11  2  0  0  0
  7 10  1  0  0  0
  7 12  1  0  0  0
  9 16  1  0  0  0
  9 17  2  0  0  0
 10 19  1  0  0  0
 10 20  2  0  0  0
 11 17  1  0  0  0
 11 25  1  0  0  0
 12 16  2  0  0  0
 12 26  1  0  0  0
 13 27  1  0  0  0
 14 18  1  0  0  0
 14 28  1  0  0  0
 14 29  1  0  0  0
 15 18  1  0  0  0
 15 30  1  0  0  0
 15 31  1  0  0  0
 16 32  1  0  0  0
 17 33  1  0  0  0
 18 34  1  0  0  0
 18 35  1  0  0  0
 19 22  2  0  0  0
 19 36  1  0  0  0
 20 21  1  0  0  0
 20 37  1  0  0  0
 21 23  2  0  0  0
 21 38  1  0  0  0
 22 23  1  0  0  0
 22 39  1  0  0  0
 23 40  1  0  0  0
M  END
> <s_m_entry_id>
25884

> <s_m_entry_name>
dock_pv.536

> <s_m_Source_Path>
/home/csk/Desktop/cluster/DUD-E-result/pyrd

> <s_m_Source_File>
dock_pv.maegz

> <i_m_Source_File_Index>
536

> <chembl_id>
CHEMBL348270

> <chembl_pref_name>
None

> <i_lp_mmshare_version>
53161

> <r_lp_tautomer_probability>
1

> <s_lp_Force_Field>
OPLS_2005

> <r_lp_Energy>
43.339207

> <b_lp_Chiralities_Consistent>
1

> <s_lp_Variant>
CHEMBL1966_lig9-1

> <s_i_glide_gridfile>
glide-grid_1d3g

> <i_i_glide_lignum>
12

> <i_i_glide_rotatable_bonds>
6

> <r_i_docking_score>
-7.83699042995575

> <r_i_glide_ligand_efficiency>
-0.340738714345902

> <r_i_glide_ligand_efficiency_sa>
-0.969015577472605

> <r_i_glide_ligand_efficiency_ln>
-1.89505534786365

> <r_i_glide_gscore>
-7.83699042995575

> <r_i_glide_lipo>
-4.5999607802552

> <r_i_glide_hbond>
0

> <r_i_glide_metal>
0

> <r_i_glide_rewards>
-2.02926689587518

> <r_i_glide_evdw>
-40.6732788085938

> <r_i_glide_ecoul>
-1.0171936750412

> <r_i_glide_erotb>
0.978480237860498

> <r_i_glide_esite>
0

> <r_i_glide_emodel>
-54.5960934128184

> <r_i_glide_energy>
-41.6904724836349

> <r_i_glide_einternal>
6.62318658828735

> <i_i_glide_confnum>
153

> <i_i_glide_posenum>
276

> <r_i_glide_eff_state_penalty>
0

> <s_user_duplicate_titles>
CHEMBL1966_lig9,257065

> <i_f3d_flags>
0

> <s_m_subgroup_title>
dock_pv

> <s_m_subgroupid>
dock_pv

> <b_m_subgroup_collapsed>
1

$$$$
CHEMBL1966_lig622
                    3D
 Schrodinger Suite 2021-1.
 29 30  0  0  1  0            999 V2000
   56.5334   48.3708   -2.8356 C   0  0  0  0  0  0
   56.8231   47.7010   -1.6518 C   0  0  0  0  0  0
   55.8148   47.0544   -0.9391 C   0  0  0  0  0  0
   54.4816   47.1187   -1.3877 C   0  0  0  0  0  0
   54.1980   47.8198   -2.5669 C   0  0  0  0  0  0
   55.2226   48.4103   -3.2978 C   0  0  0  0  0  0
   53.4288   46.4098   -0.7539 N   0  0  0  0  0  0
   53.1764   46.6094    0.5641 C   0  0  0  0  0  0
   51.8655   45.9964    0.9728 C   0  0  0  0  0  0
   51.1031   45.3945   -0.5167 S   0  0  0  0  0  0
   52.6087   45.5246   -1.4397 C   0  0  0  0  0  0
   52.9155   44.8080   -2.5639 C   0  0  0  0  0  0
   56.1449   46.3601    0.1723 F   0  0  0  0  0  0
   52.0285   43.8371   -3.2990 C   0  0  0  0  0  0
   54.2622   44.8076   -3.0506 C   0  0  0  0  0  0
   55.3922   44.7461   -3.2990 N   0  0  0  0  0  0
   50.8061   43.6107   -2.7653 O   0  0  0  0  0  0
   52.4229   43.2101   -4.2825 O   0  0  0  0  0  0
   49.9134   42.6677   -3.3466 C   0  0  0  0  0  0
   53.8859   47.2059    1.3713 O   0  0  0  0  0  0
   57.3232   48.8506   -3.3949 H   0  0  0  0  0  0
   57.8407   47.6654   -1.2992 H   0  0  0  0  0  0
   53.1874   47.8720   -2.9437 H   0  0  0  0  0  0
   54.9943   48.9232   -4.2171 H   0  0  0  0  0  0
   51.2424   46.7668    1.4272 H   0  0  0  0  0  0
   52.0241   45.2103    1.7073 H   0  0  0  0  0  0
   49.0535   42.5176   -2.6950 H   0  0  0  0  0  0
   50.3957   41.6988   -3.4867 H   0  0  0  0  0  0
   49.5546   43.0201   -4.3148 H   0  0  0  0  0  0
  1  2  2  0  0  0
  1  6  1  0  0  0
  1 21  1  0  0  0
  2  3  1  0  0  0
  2 22  1  0  0  0
  3  4  2  0  0  0
  3 13  1  0  0  0
  4  5  1  0  0  0
  4  7  1  0  0  0
  5  6  2  0  0  0
  5 23  1  0  0  0
  6 24  1  0  0  0
  7  8  1  0  0  0
  7 11  1  0  0  0
  8  9  1  0  0  0
  8 20  2  0  0  0
  9 10  1  0  0  0
  9 25  1  0  0  0
  9 26  1  0  0  0
 10 11  1  0  0  0
 11 12  2  0  0  0
 12 14  1  0  0  0
 12 15  1  0  0  0
 14 17  1  0  0  0
 14 18  2  0  0  0
 15 16  3  0  0  0
 17 19  1  0  0  0
 19 27  1  0  0  0
 19 28  1  0  0  0
 19 29  1  0  0  0
M  END
> <s_m_entry_id>
25885

> <s_m_entry_name>
dock_pv.537

> <s_m_Source_Path>
/home/csk/Desktop/cluster/DUD-E-result/pyrd

> <s_m_Source_File>
dock_pv.maegz

> <i_m_Source_File_Index>
537

> <chembl_id>
CHEMBL4290037

> <chembl_pref_name>
None

> <i_lp_mmshare_version>
53161

> <r_lp_tautomer_probability>
1

> <s_lp_Force_Field>
OPLS_2005

> <r_lp_Energy>
34.948415

> <b_lp_Chiralities_Consistent>
1

> <s_lp_Variant>
CHEMBL1966_lig622-1

> <s_i_glide_gridfile>
glide-grid_1d3g

> <i_i_glide_lignum>
676

> <i_i_glide_rotatable_bonds>
3

> <r_i_docking_score>
-7.83271259256084

> <r_i_glide_ligand_efficiency>
-0.391635629628042

> <r_i_glide_ligand_efficiency_sa>
-1.06306265128704

> <r_i_glide_ligand_efficiency_ln>
-1.96026962176674

> <r_i_glide_gscore>
-7.83271259256084

> <r_i_glide_lipo>
-3.10620153622462

> <r_i_glide_hbond>
0

> <r_i_glide_metal>
0

> <r_i_glide_rewards>
-3.88878027751829

> <r_i_glide_evdw>
-27.3282241821289

> <r_i_glide_ecoul>
0.675535619258881

> <r_i_glide_erotb>
0.427350087399683

> <r_i_glide_esite>
0

> <r_i_glide_emodel>
-32.83472551712

> <r_i_glide_energy>
-26.65268856287

> <r_i_glide_einternal>
1.72115123271942

> <i_i_glide_confnum>
1

> <i_i_glide_posenum>
247

> <r_i_glide_eff_state_penalty>
0

> <s_user_duplicate_titles>
CHEMBL1966_lig622

> <i_f3d_flags>
0

> <s_m_subgroup_title>
dock_pv

> <s_m_subgroupid>
dock_pv

> <b_m_subgroup_collapsed>
1

$$$$
CHEMBL1966_lig125
                    3D
 Schrodinger Suite 2021-1.
 43 45  0  0  1  0            999 V2000
   49.6342   41.7166   -2.6545 C   0  0  0  0  0  0
   50.0770   42.5330   -3.7323 C   0  0  0  0  0  0
   50.0229   42.0678   -1.3495 C   0  0  0  0  0  0
   48.7991   40.5932   -2.8987 N   0  0  0  0  0  0
   50.9441   43.6100   -3.4417 C   0  0  0  0  0  0
   49.6230   42.3341   -5.1733 C   0  0  0  0  0  0
   50.7265   43.2319   -1.1023 C   0  0  0  0  0  0
   51.2231   44.0101   -2.1290 C   0  0  0  0  0  0
   50.1603   43.2100   -6.0688 O   0  0  0  0  0  0
   48.8442   41.4480   -5.5306 O   0  0  0  0  0  0
   54.2054   46.4141   -1.9905 C   0  0  0  0  0  0
   54.5548   46.3089   -0.6351 C   0  0  0  0  0  0
   54.9181   47.3341   -2.7693 C   0  0  0  0  0  0
   53.1428   45.5276   -2.6527 C   0  0  0  0  0  0
   55.5657   47.1144   -0.1073 C   0  0  0  0  0  0
   55.9012   48.1303   -2.2742 N   0  0  0  0  0  0
   52.0230   45.1355   -1.7774 N   0  0  0  0  0  0
   56.2132   48.0100   -0.9588 C   0  0  0  0  0  0
   51.3014   46.1728   -1.0348 C   0  0  0  0  0  0
   47.1432   38.8058   -2.6456 C   0  0  0  0  0  0
   48.0409   39.8783   -2.0348 C   0  0  0  0  0  0
   45.9217   38.4887   -1.7964 C   0  0  0  0  0  0
   45.7795   39.2710   -3.0783 C   0  0  0  0  0  0
   48.0550   40.0100   -0.8110 O   0  0  0  0  0  0
   49.7521   41.4928   -0.4813 H   0  0  0  0  0  0
   48.6782   40.3757   -3.8781 H   0  0  0  0  0  0
   51.3468   44.2140   -4.2407 H   0  0  0  0  0  0
   50.9531   43.5230   -0.0990 H   0  0  0  0  0  0
   49.8042   43.0513   -6.9427 H   0  0  0  0  0  0
   54.0455   45.6100    0.0103 H   0  0  0  0  0  0
   54.7067   47.4507   -3.8228 H   0  0  0  0  0  0
   53.6502   44.6195   -2.9836 H   0  0  0  0  0  0
   52.8049   46.0053   -3.5709 H   0  0  0  0  0  0
   55.8407   47.0440    0.9353 H   0  0  0  0  0  0
   57.0056   48.6468   -0.5904 H   0  0  0  0  0  0
   50.6067   45.7289   -0.3253 H   0  0  0  0  0  0
   51.9716   46.8100   -0.4599 H   0  0  0  0  0  0
   50.7198   46.8081   -1.6990 H   0  0  0  0  0  0
   47.6230   38.0100   -3.1970 H   0  0  0  0  0  0
   45.7342   39.0090   -0.8548 H   0  0  0  0  0  0
   45.6230   37.4444   -1.7296 H   0  0  0  0  0  0
   45.3205   38.7945   -3.9453 H   0  0  0  0  0  0
   45.6230   40.3505   -3.0742 H   0  0  0  0  0  0
  1  2  2  0  0  0
  1  4  1  0  0  0
  1  3  1  0  0  0
  2  6  1  0  0  0
  2  5  1  0  0  0
  3  7  2  0  0  0
  3 25  1  0  0  0
  4 21  1  0  0  0
  4 26  1  0  0  0
  5  8  2  0  0  0
  5 27  1  0  0  0
  6 10  2  0  0  0
  6  9  1  0  0  0
  7  8  1  0  0  0
  7 28  1  0  0  0
  8 17  1  0  0  0
  9 29  1  0  0  0
 11 14  1  0  0  0
 11 13  2  0  0  0
 11 12  1  0  0  0
 12 15  2  0  0  0
 12 30  1  0  0  0
 13 16  1  0  0  0
 13 31  1  0  0  0
 14 17  1  0  0  0
 14 32  1  0  0  0
 14 33  1  0  0  0
 15 18  1  0  0  0
 15 34  1  0  0  0
 16 18  2  0  0  0
 17 19  1  0  0  0
 18 35  1  0  0  0
 19 36  1  0  0  0
 19 37  1  0  0  0
 19 38  1  0  0  0
 20 21  1  0  0  0
 20 23  1  0  0  0
 20 22  1  0  0  0
 20 39  1  0  0  0
 21 24  2  0  0  0
 22 23  1  0  0  0
 22 40  1  0  0  0
 22 41  1  0  0  0
 23 42  1  0  0  0
 23 43  1  0  0  0
M  END
> <s_m_entry_id>
25886

> <s_m_entry_name>
dock_pv.538

> <s_m_Source_Path>
/home/csk/Desktop/cluster/DUD-E-result/pyrd

> <s_m_Source_File>
dock_pv.maegz

> <i_m_Source_File_Index>
538

> <chembl_id>
CHEMBL1084928

> <chembl_pref_name>
None

> <i_lp_mmshare_version>
53161

> <r_lp_tautomer_probability>
1

> <s_lp_Force_Field>
OPLS_2005

> <r_lp_Energy>
25.667759

> <b_lp_Chiralities_Consistent>
1

> <s_lp_Variant>
CHEMBL1966_lig125-1

> <s_i_glide_gridfile>
glide-grid_1d3g

> <i_i_glide_lignum>
148

> <i_i_glide_rotatable_bonds>
8

> <r_i_docking_score>
-7.82774606233504

> <r_i_glide_ligand_efficiency>
-0.326156085930627

> <r_i_glide_ligand_efficiency_sa>
-0.940796948576551

> <r_i_glide_ligand_efficiency_ln>
-1.87353882457832

> <r_i_glide_gscore>
-7.82774606233504

> <r_i_glide_lipo>
-4.61469010078654

> <r_i_glide_hbond>
0

> <r_i_glide_metal>
0

> <r_i_glide_rewards>
-2.13542851465601

> <r_i_glide_evdw>
-41.2657890319824

> <r_i_glide_ecoul>
-1.69021081924438

> <r_i_glide_erotb>
1.23919362759328

> <r_i_glide_esite>
0

> <r_i_glide_emodel>
-51.6350324711086

> <r_i_glide_energy>
-42.9559998512268

> <r_i_glide_einternal>
17.2467632293701

> <i_i_glide_confnum>
110

> <i_i_glide_posenum>
83

> <r_i_glide_eff_state_penalty>
0

> <s_user_duplicate_titles>
CHEMBL1966_lig125,616099

> <i_f3d_flags>
0

> <s_m_subgroup_title>
dock_pv

> <s_m_subgroupid>
dock_pv

> <b_m_subgroup_collapsed>
1

$$$$
CHEMBL1966_lig788
                    3D
 Schrodinger Suite 2021-1.
 45 48  0  0  1  0            999 V2000
   52.1065   44.4100   -2.6391 C   0  0  0  0  0  0
   53.2792   44.5861   -3.2990 N   0  0  0  0  0  0
   52.8150   45.9504   -0.8952 C   0  0  0  0  0  0
   54.0440   46.1550   -1.5972 C   0  0  0  0  0  0
   51.8023   45.1611   -1.4847 C   0  0  0  0  0  0
   54.2271   45.4401   -2.8173 C   0  0  0  0  0  0
   52.6696   46.4652    0.5128 C   0  0  0  0  0  0
   51.2902   43.4159   -3.2068 N   0  0  0  0  0  0
   55.0908   47.0227   -1.1551 C   0  0  0  0  0  0
   48.7120   40.7597   -2.9584 C   0  0  0  0  0  0
   50.4536   42.4435   -2.6288 C   0  0  0  0  0  0
   53.6230   46.0101    1.3681 O   0  0  0  0  0  0
   49.5960   41.7304   -3.4640 C   0  0  0  0  0  0
   51.7656   47.2100    0.8543 O   0  0  0  0  0  0
   55.4495   45.5905   -3.5266 C   0  0  0  0  0  0
   47.5749   40.2283   -3.7838 C   0  0  0  0  0  0
   56.2605   47.1648   -1.8895 C   0  0  0  0  0  0
   56.4434   46.4461   -3.0616 C   0  0  0  0  0  0
   57.2230   48.0092   -1.4581 F   0  0  0  0  0  0
   50.3989   45.1761   -0.8990 C   0  0  0  0  0  0
   48.8206   40.4261   -1.5969 C   0  0  0  0  0  0
   49.6253   41.1635   -0.7427 C   0  0  0  0  0  0
   50.4552   42.1501   -1.2625 C   0  0  0  0  0  0
   46.7450   39.2100   -3.2990 C   0  0  0  0  0  0
   47.2039   40.8420   -4.9927 C   0  0  0  0  0  0
   45.6230   38.8100   -4.0156 C   0  0  0  0  0  0
   46.0230   40.5143   -5.6471 C   0  0  0  0  0  0
   45.2643   39.4469   -5.2011 C   0  0  0  0  0  0
   51.5934   43.1715   -4.1368 H   0  0  0  0  0  0
   54.9829   47.5956   -0.2463 H   0  0  0  0  0  0
   49.5881   41.9934   -4.5093 H   0  0  0  0  0  0
   55.6230   45.0388   -4.4367 H   0  0  0  0  0  0
   57.3656   46.5558   -3.6138 H   0  0  0  0  0  0
   50.1017   46.2161   -0.8990 H   0  0  0  0  0  0
   49.6453   44.6727   -1.4946 H   0  0  0  0  0  0
   50.3684   44.8051    0.1258 H   0  0  0  0  0  0
   48.1864   39.6900   -1.1310 H   0  0  0  0  0  0
   49.6440   40.9367    0.3130 H   0  0  0  0  0  0
   51.1289   42.6613   -0.5942 H   0  0  0  0  0  0
   46.9754   38.6600   -2.4014 H   0  0  0  0  0  0
   47.7478   41.6868   -5.3843 H   0  0  0  0  0  0
   45.1155   37.9237   -3.6990 H   0  0  0  0  0  0
   45.6973   41.0846   -6.4990 H   0  0  0  0  0  0
   44.4230   39.0962   -5.7776 H   0  0  0  0  0  0
   53.5038   46.3617    2.2535 H   0  0  0  0  0  0
  1  2  2  0  0  0
  1  5  1  0  0  0
  1  8  1  0  0  0
  2  6  1  0  0  0
  3  5  2  0  0  0
  3  4  1  0  0  0
  3  7  1  0  0  0
  4  9  2  0  0  0
  4  6  1  0  0  0
  5 20  1  0  0  0
  6 15  2  0  0  0
  7 12  1  0  0  0
  7 14  2  0  0  0
  8 11  1  0  0  0
  8 29  1  0  0  0
  9 17  1  0  0  0
  9 30  1  0  0  0
 10 13  2  0  0  0
 10 16  1  0  0  0
 10 21  1  0  0  0
 11 13  1  0  0  0
 11 23  2  0  0  0
 12 45  1  0  0  0
 13 31  1  0  0  0
 15 18  1  0  0  0
 15 32  1  0  0  0
 16 24  2  0  0  0
 16 25  1  0  0  0
 17 19  1  0  0  0
 17 18  2  0  0  0
 18 33  1  0  0  0
 20 34  1  0  0  0
 20 35  1  0  0  0
 20 36  1  0  0  0
 21 22  2  0  0  0
 21 37  1  0  0  0
 22 23  1  0  0  0
 22 38  1  0  0  0
 23 39  1  0  0  0
 24 26  1  0  0  0
 24 40  1  0  0  0
 25 27  2  0  0  0
 25 41  1  0  0  0
 26 28  2  0  0  0
 26 42  1  0  0  0
 27 28  1  0  0  0
 27 43  1  0  0  0
 28 44  1  0  0  0
M  END
> <s_m_entry_id>
25887

> <s_m_entry_name>
dock_pv.539

> <s_m_Source_Path>
/home/csk/Desktop/cluster/DUD-E-result/pyrd

> <s_m_Source_File>
dock_pv.maegz

> <i_m_Source_File_Index>
539

> <chembl_id>
CHEMBL50441

> <chembl_pref_name>
None

> <i_lp_mmshare_version>
53161

> <r_lp_tautomer_probability>
1

> <s_lp_Force_Field>
OPLS_2005

> <r_lp_Energy>
29.732064

> <b_lp_Chiralities_Consistent>
1

> <s_lp_Variant>
CHEMBL1966_lig788-1

> <s_i_glide_gridfile>
glide-grid_1d3g

> <i_i_glide_lignum>
859

> <i_i_glide_rotatable_bonds>
5

> <r_i_docking_score>
-7.82043189376265

> <r_i_glide_ligand_efficiency>
-0.279301139062952

> <r_i_glide_ligand_efficiency_sa>
-0.84812275776883

> <r_i_glide_ligand_efficiency_ln>
-1.80518529893834

> <r_i_glide_gscore>
-7.82043189376265

> <r_i_glide_lipo>
-5.43118203188544

> <r_i_glide_hbond>
0

> <r_i_glide_metal>
0

> <r_i_glide_rewards>
-2.02703225211169

> <r_i_glide_evdw>
-16.9227676391602

> <r_i_glide_ecoul>
-0.487782001495361

> <r_i_glide_erotb>
0.557088072416798

> <r_i_glide_esite>
0

> <r_i_glide_emodel>
-16.5303535224615

> <r_i_glide_energy>
-17.4105496406555

> <r_i_glide_einternal>
12.1718702316284

> <i_i_glide_confnum>
64

> <i_i_glide_posenum>
250

> <r_i_glide_eff_state_penalty>
0

> <s_user_duplicate_titles>
CHEMBL1966_lig788,74099

> <i_f3d_flags>
0

> <s_m_subgroup_title>
dock_pv

> <s_m_subgroupid>
dock_pv

> <b_m_subgroup_collapsed>
1

$$$$
CHEMBL1966_lig257
                    3D
 Schrodinger Suite 2021-1.
 37 38  0  0  1  0            999 V2000
   48.5989   41.1333   -4.6780 C   0  0  0  0  0  0
   47.8502   40.4100   -3.8123 O   0  0  0  0  0  0
   50.4385   43.2100   -4.8503 S   0  0  0  0  0  0
   51.3429   43.5636   -3.4119 C   0  0  0  0  0  0
   50.9506   42.9088   -2.3520 N   0  0  0  0  0  0
   50.0316   42.0185   -2.6480 C   0  0  0  0  0  0
   49.5849   41.9617   -3.9768 C   0  0  0  0  0  0
   49.6230   41.2100   -1.6363 N   0  0  0  0  0  0
   52.4230   44.4100   -3.4979 N   0  0  0  0  0  0
   53.0070   45.2100   -2.4990 C   0  0  0  0  0  0
   54.3182   45.6459   -2.6964 C   0  0  0  0  0  0
   54.9758   46.4106   -1.7283 C   0  0  0  0  0  0
   54.3077   46.7425   -0.5376 C   0  0  0  0  0  0
   52.9738   46.3626   -0.3655 C   0  0  0  0  0  0
   52.3239   45.6100   -1.3428 C   0  0  0  0  0  0
   48.4427   41.1343   -5.9030 O   0  0  0  0  0  0
   46.5609   39.9614   -4.2046 C   0  0  0  0  0  0
   46.0847   38.8554   -3.2634 C   0  0  0  0  0  0
   56.4004   46.8749   -1.9967 C   0  0  0  0  0  0
   55.0118   47.4894    0.5828 C   0  0  0  0  0  0
   48.9415   40.4825   -1.8034 H   0  0  0  0  0  0
   49.9826   41.3103   -0.6998 H   0  0  0  0  0  0
   53.0108   44.3417   -4.3145 H   0  0  0  0  0  0
   54.8408   45.3747   -3.6024 H   0  0  0  0  0  0
   52.4404   46.6296    0.5356 H   0  0  0  0  0  0
   51.2960   45.3188   -1.1846 H   0  0  0  0  0  0
   46.5655   39.6100   -5.2350 H   0  0  0  0  0  0
   45.8618   40.7990   -4.1735 H   0  0  0  0  0  0
   45.2231   38.3498   -3.6990 H   0  0  0  0  0  0
   45.7937   39.2599   -2.2939 H   0  0  0  0  0  0
   46.8653   38.1143   -3.0891 H   0  0  0  0  0  0
   56.4769   47.9543   -1.8626 H   0  0  0  0  0  0
   57.0927   46.4100   -1.2990 H   0  0  0  0  0  0
   56.7274   46.6474   -3.0120 H   0  0  0  0  0  0
   55.9621   47.0110    0.8224 H   0  0  0  0  0  0
   55.2230   48.5105    0.2745 H   0  0  0  0  0  0
   54.4231   47.5101    1.5009 H   0  0  0  0  0  0
  1  2  1  0  0  0
  1  7  1  0  0  0
  1 16  2  0  0  0
  2 17  1  0  0  0
  3  4  1  0  0  0
  3  7  1  0  0  0
  4  5  2  0  0  0
  4  9  1  0  0  0
  5  6  1  0  0  0
  6  7  2  0  0  0
  6  8  1  0  0  0
  8 21  1  0  0  0
  8 22  1  0  0  0
  9 10  1  0  0  0
  9 23  1  0  0  0
 10 11  2  0  0  0
 10 15  1  0  0  0
 11 12  1  0  0  0
 11 24  1  0  0  0
 12 13  2  0  0  0
 12 19  1  0  0  0
 13 14  1  0  0  0
 13 20  1  0  0  0
 14 15  2  0  0  0
 14 25  1  0  0  0
 15 26  1  0  0  0
 17 18  1  0  0  0
 17 27  1  0  0  0
 17 28  1  0  0  0
 18 29  1  0  0  0
 18 30  1  0  0  0
 18 31  1  0  0  0
 19 32  1  0  0  0
 19 33  1  0  0  0
 19 34  1  0  0  0
 20 35  1  0  0  0
 20 36  1  0  0  0
 20 37  1  0  0  0
M  END
> <s_m_entry_id>
25888

> <s_m_entry_name>
dock_pv.540

> <s_m_Source_Path>
/home/csk/Desktop/cluster/DUD-E-result/pyrd

> <s_m_Source_File>
dock_pv.maegz

> <i_m_Source_File_Index>
540

> <chembl_id>
CHEMBL3410582

> <chembl_pref_name>
None

> <i_lp_mmshare_version>
53161

> <r_lp_tautomer_probability>
1

> <s_lp_Force_Field>
OPLS_2005

> <r_lp_Energy>
12.196794

> <b_lp_Chiralities_Consistent>
1

> <s_lp_Variant>
CHEMBL1966_lig257-1

> <s_i_glide_gridfile>
glide-grid_1d3g

> <i_i_glide_lignum>
303

> <i_i_glide_rotatable_bonds>
5

> <r_i_docking_score>
-7.8184575387437

> <r_i_glide_ligand_efficiency>
-0.390922876937185

> <r_i_glide_ligand_efficiency_sa>
-1.06112794282864

> <r_i_glide_ligand_efficiency_ln>
-1.95670205195945

> <r_i_glide_gscore>
-7.8184575387437

> <r_i_glide_lipo>
-4.28695678450689

> <r_i_glide_hbond>
-0.10100651478848

> <r_i_glide_metal>
0

> <r_i_glide_rewards>
-2.14421360808592

> <r_i_glide_evdw>
-37.6003456115723

> <r_i_glide_ecoul>
-1.77107834815979

> <r_i_glide_erotb>
0.85939840144017

> <r_i_glide_esite>
0

> <r_i_glide_emodel>
-52.4394816180391

> <r_i_glide_energy>
-39.3714239597321

> <r_i_glide_einternal>
5.0657205581665

> <i_i_glide_confnum>
4

> <i_i_glide_posenum>
113

> <r_i_glide_eff_state_penalty>
0

> <s_user_duplicate_titles>
CHEMBL1966_lig257

> <i_f3d_flags>
0

> <s_m_subgroup_title>
dock_pv

> <s_m_subgroupid>
dock_pv

> <b_m_subgroup_collapsed>
1

$$$$
CHEMBL1966_lig106
                    3D
 Schrodinger Suite 2021-1.
 35 37  0  0  1  0            999 V2000
   48.0230   39.5769   -1.3430 C   0  0  0  0  0  0
   48.7118   40.0100   -0.2302 C   0  0  0  0  0  0
   49.6230   41.0440   -0.2984 C   0  0  0  0  0  0
   48.2840   40.1478   -2.5904 C   0  0  0  0  0  0
   49.2230   41.2148   -2.7172 C   0  0  0  0  0  0
   49.8824   41.6621   -1.5340 C   0  0  0  0  0  0
   50.7569   42.6845   -1.5341 N   0  0  0  0  0  0
   51.0465   43.3143   -2.6929 C   0  0  0  0  0  0
   50.4689   42.9429   -3.9167 C   0  0  0  0  0  0
   49.5311   41.8944   -3.9398 C   0  0  0  0  0  0
   52.0230   44.4219   -2.4990 C   0  0  0  0  0  0
   53.1589   44.5419   -3.2990 C   0  0  0  0  0  0
   54.0929   45.5519   -3.0723 C   0  0  0  0  0  0
   53.9012   46.4481   -2.0247 C   0  0  0  0  0  0
   52.7855   46.3368   -1.2021 C   0  0  0  0  0  0
   51.8493   45.3361   -1.4431 C   0  0  0  0  0  0
   50.8055   43.6100   -5.0687 O   0  0  0  0  0  0
   48.7983   41.5269   -5.2014 C   0  0  0  0  0  0
   48.0230   42.5104   -5.6990 O   0  0  0  0  0  0
   48.8230   40.4100   -5.6968 O   0  0  0  0  0  0
   55.0544   47.6994   -1.7362 Cl  0  0  0  0  0  0
   47.3034   38.4418   -1.1522 O   0  0  0  0  0  0
   46.0230   38.3888   -1.6990 C   0  0  0  0  0  0
   45.6057   37.2100   -1.2990 F   0  0  0  0  0  0
   45.2004   39.2843   -1.1705 F   0  0  0  0  0  0
   46.0230   38.4184   -3.0297 F   0  0  0  0  0  0
   48.5505   39.5003    0.7010 H   0  0  0  0  0  0
   50.1187   41.3490    0.6026 H   0  0  0  0  0  0
   47.8112   39.7533   -3.4735 H   0  0  0  0  0  0
   53.3234   43.8202   -4.0853 H   0  0  0  0  0  0
   54.9688   45.6301   -3.6995 H   0  0  0  0  0  0
   52.6484   47.0163   -0.3741 H   0  0  0  0  0  0
   50.9862   45.2644   -0.7962 H   0  0  0  0  0  0
   51.3992   44.3459   -4.9018 H   0  0  0  0  0  0
   48.1052   43.3850   -5.2990 H   0  0  0  0  0  0
  1  2  2  0  0  0
  1  4  1  0  0  0
  1 22  1  0  0  0
  2  3  1  0  0  0
  2 27  1  0  0  0
  3  6  2  0  0  0
  3 28  1  0  0  0
  4  5  2  0  0  0
  4 29  1  0  0  0
  5  6  1  0  0  0
  5 10  1  0  0  0
  6  7  1  0  0  0
  7  8  2  0  0  0
  8  9  1  0  0  0
  8 11  1  0  0  0
  9 17  1  0  0  0
  9 10  2  0  0  0
 10 18  1  0  0  0
 11 16  1  0  0  0
 11 12  2  0  0  0
 12 13  1  0  0  0
 12 30  1  0  0  0
 13 14  2  0  0  0
 13 31  1  0  0  0
 14 15  1  0  0  0
 14 21  1  0  0  0
 15 16  2  0  0  0
 15 32  1  0  0  0
 16 33  1  0  0  0
 17 34  1  0  0  0
 18 19  1  0  0  0
 18 20  2  0  0  0
 19 35  1  0  0  0
 22 23  1  0  0  0
 23 24  1  0  0  0
 23 25  1  0  0  0
 23 26  1  0  0  0
M  END
> <s_m_entry_id>
25889

> <s_m_entry_name>
dock_pv.541

> <s_m_Source_Path>
/home/csk/Desktop/cluster/DUD-E-result/pyrd

> <s_m_Source_File>
dock_pv.maegz

> <i_m_Source_File_Index>
541

> <chembl_id>
CHEMBL218052

> <chembl_pref_name>
None

> <i_lp_mmshare_version>
53161

> <r_lp_tautomer_probability>
1

> <s_lp_Force_Field>
OPLS_2005

> <r_lp_Energy>
25.374358

> <b_lp_Chiralities_Consistent>
1

> <s_lp_Variant>
CHEMBL1966_lig106-1

> <s_i_glide_gridfile>
glide-grid_1d3g

> <i_i_glide_lignum>
115

> <i_i_glide_rotatable_bonds>
6

> <r_i_docking_score>
-7.81603053958687

> <r_i_glide_ligand_efficiency>
-0.30061655921488

> <r_i_glide_ligand_efficiency_sa>
-0.890575373805039

> <r_i_glide_ligand_efficiency_ln>
-1.83556912573396

> <r_i_glide_gscore>
-7.81603053958687

> <r_i_glide_lipo>
-5.09808778795484

> <r_i_glide_hbond>
-0.127071295234861

> <r_i_glide_metal>
0

> <r_i_glide_rewards>
-1.16239108440643

> <r_i_glide_evdw>
-18.2440719604492

> <r_i_glide_ecoul>
-6.0819239616394

> <r_i_glide_erotb>
0.396011820277627

> <r_i_glide_esite>
0

> <r_i_glide_emodel>
-25.828246218867

> <r_i_glide_energy>
-24.3259959220886

> <r_i_glide_einternal>
4.35356283187866

> <i_i_glide_confnum>
6

> <i_i_glide_posenum>
287

> <r_i_glide_eff_state_penalty>
0

> <s_user_duplicate_titles>
CHEMBL1966_lig106

> <i_f3d_flags>
0

> <s_m_subgroup_title>
dock_pv

> <s_m_subgroupid>
dock_pv

> <b_m_subgroup_collapsed>
1

$$$$
CHEMBL1966_lig389
                    3D
 Schrodinger Suite 2021-1.
 40 42  0  0  1  0            999 V2000
   48.2870   40.3328   -2.9613 C   0  0  0  0  0  0
   48.4230   40.0100   -1.5320 C   0  0  0  0  0  0
   47.4223   39.2410   -1.0309 N   0  0  0  0  0  0
   46.2122   38.9851   -1.5903 C   0  0  0  0  0  0
   46.1475   39.2746   -2.9140 N   0  0  0  0  0  0
   47.1022   40.0100   -3.5790 C   0  0  0  0  0  0
   46.6678   40.4022   -4.9238 C   0  0  0  0  0  0
   47.5212   41.2100   -5.6074 O   0  0  0  0  0  0
   45.6230   40.0100   -5.4412 O   0  0  0  0  0  0
   45.2230   38.8100   -0.8990 O   0  0  0  0  0  0
   49.2691   40.4616   -0.7662 O   0  0  0  0  0  0
   49.5344   40.9283   -3.6285 C   0  0  0  0  0  0
   49.5236   42.4424   -3.9230 C   0  0  0  0  0  0
   50.6040   43.2584   -3.2405 C   0  0  0  0  0  0
   51.7427   43.5967   -3.9641 C   0  0  0  0  0  0
   52.6812   44.4725   -3.4405 C   0  0  0  0  0  0
   50.4230   43.7615   -1.9486 C   0  0  0  0  0  0
   51.3436   44.6934   -1.4063 C   0  0  0  0  0  0
   52.4742   45.0771   -2.1862 C   0  0  0  0  0  0
   53.4313   45.9640   -1.6629 C   0  0  0  0  0  0
   53.3359   46.3963   -0.3438 C   0  0  0  0  0  0
   52.2147   46.0411    0.4206 C   0  0  0  0  0  0
   51.2230   45.2100   -0.0990 C   0  0  0  0  0  0
   54.4957   47.1039    0.2896 C   0  0  0  0  0  0
   54.5826   47.2100    1.5010 O   0  0  0  0  0  0
   55.4342   47.6039   -0.5616 O   0  0  0  0  0  0
   47.4742   39.0765   -0.0352 H   0  0  0  0  0  0
   45.2859   39.0199   -3.3765 H   0  0  0  0  0  0
   48.2345   41.5087   -5.0399 H   0  0  0  0  0  0
   49.6230   40.3913   -4.5676 H   0  0  0  0  0  0
   50.4363   40.6487   -3.0835 H   0  0  0  0  0  0
   48.5661   42.8916   -3.6990 H   0  0  0  0  0  0
   49.6270   42.6106   -4.9973 H   0  0  0  0  0  0
   51.8939   43.2100   -4.9605 H   0  0  0  0  0  0
   53.5553   44.7425   -4.0110 H   0  0  0  0  0  0
   49.5651   43.4723   -1.3599 H   0  0  0  0  0  0
   54.2955   46.2001   -2.2693 H   0  0  0  0  0  0
   52.1292   46.3613    1.4507 H   0  0  0  0  0  0
   50.4019   44.8872    0.5219 H   0  0  0  0  0  0
   56.1374   48.0146   -0.0555 H   0  0  0  0  0  0
  1  2  1  0  0  0
  1  6  2  0  0  0
  1 12  1  0  0  0
  2  3  1  0  0  0
  2 11  2  0  0  0
  3  4  1  0  0  0
  3 27  1  0  0  0
  4  5  1  0  0  0
  4 10  2  0  0  0
  5  6  1  0  0  0
  5 28  1  0  0  0
  6  7  1  0  0  0
  7  8  1  0  0  0
  7  9  2  0  0  0
  8 29  1  0  0  0
 12 13  1  0  0  0
 12 30  1  0  0  0
 12 31  1  0  0  0
 13 14  1  0  0  0
 13 32  1  0  0  0
 13 33  1  0  0  0
 14 15  2  0  0  0
 14 17  1  0  0  0
 15 16  1  0  0  0
 15 34  1  0  0  0
 16 19  2  0  0  0
 16 35  1  0  0  0
 17 18  2  0  0  0
 17 36  1  0  0  0
 18 19  1  0  0  0
 18 23  1  0  0  0
 19 20  1  0  0  0
 20 21  2  0  0  0
 20 37  1  0  0  0
 21 22  1  0  0  0
 21 24  1  0  0  0
 22 23  2  0  0  0
 22 38  1  0  0  0
 23 39  1  0  0  0
 24 25  2  0  0  0
 24 26  1  0  0  0
 26 40  1  0  0  0
M  END
> <s_m_entry_id>
25890

> <s_m_entry_name>
dock_pv.542

> <s_m_Source_Path>
/home/csk/Desktop/cluster/DUD-E-result/pyrd

> <s_m_Source_File>
dock_pv.maegz

> <i_m_Source_File_Index>
542

> <chembl_id>
CHEMBL3890631

> <chembl_pref_name>
None

> <i_lp_mmshare_version>
53161

> <r_lp_tautomer_probability>
1

> <s_lp_Force_Field>
OPLS_2005

> <r_lp_Energy>
17.873346

> <b_lp_Chiralities_Consistent>
1

> <s_lp_Variant>
CHEMBL1966_lig389-1

> <s_i_glide_gridfile>
glide-grid_1d3g

> <i_i_glide_lignum>
439

> <i_i_glide_rotatable_bonds>
7

> <r_i_docking_score>
-7.81010188323339

> <r_i_glide_ligand_efficiency>
-0.300388533970515

> <r_i_glide_ligand_efficiency_sa>
-0.889899849915845

> <r_i_glide_ligand_efficiency_ln>
-1.83417680024285

> <r_i_glide_gscore>
-7.81010188323339

> <r_i_glide_lipo>
-4.2876394419623

> <r_i_glide_hbond>
-0.0365132913536112

> <r_i_glide_metal>
0

> <r_i_glide_rewards>
-2.3776275995992

> <r_i_glide_evdw>
-29.4169120788574

> <r_i_glide_ecoul>
-2.65659928321838

> <r_i_glide_erotb>
0.761013946107347

> <r_i_glide_esite>
0

> <r_i_glide_emodel>
-29.8316510229327

> <r_i_glide_energy>
-32.0735113620758

> <r_i_glide_einternal>
6.50610399246216

> <i_i_glide_confnum>
23

> <i_i_glide_posenum>
80

> <r_i_glide_eff_state_penalty>
0

> <s_user_duplicate_titles>
CHEMBL1966_lig389

> <i_f3d_flags>
0

> <s_m_subgroup_title>
dock_pv

> <s_m_subgroupid>
dock_pv

> <b_m_subgroup_collapsed>
1

$$$$
CHEMBL1966_lig384
                    3D
 Schrodinger Suite 2021-1.
 45 47  0  0  1  0            999 V2000
   48.2993   40.5295   -2.6400 C   0  0  0  0  0  0
   48.4232   40.0100   -1.2641 C   0  0  0  0  0  0
   47.5651   39.0177   -0.9571 N   0  0  0  0  0  0
   46.6087   38.4618   -1.7330 C   0  0  0  0  0  0
   46.5503   38.9492   -3.0001 N   0  0  0  0  0  0
   47.3560   39.9650   -3.4558 C   0  0  0  0  0  0
   47.0207   40.4096   -4.8058 C   0  0  0  0  0  0
   48.1081   40.7388   -5.5539 O   0  0  0  0  0  0
   45.8807   40.4143   -5.2726 O   0  0  0  0  0  0
   45.8622   37.6095   -1.2993 O   0  0  0  0  0  0
   49.1919   40.4320   -0.4019 O   0  0  0  0  0  0
   49.0480   41.8441   -2.9239 C   0  0  0  0  0  0
   50.5504   41.8016   -2.8418 C   0  0  0  0  0  0
   51.1506   43.1867   -2.6294 C   0  0  0  0  0  0
   51.9935   43.7205   -3.5976 C   0  0  0  0  0  0
   52.8236   44.8058   -3.2983 C   0  0  0  0  0  0
   50.9070   43.8895   -1.4482 C   0  0  0  0  0  0
   51.6979   45.0138   -1.1242 C   0  0  0  0  0  0
   52.7294   45.4284   -2.0298 C   0  0  0  0  0  0
   53.6643   46.4017   -1.6096 C   0  0  0  0  0  0
   53.6178   46.8913   -0.3076 C   0  0  0  0  0  0
   52.5941   46.5205    0.5589 C   0  0  0  0  0  0
   51.6218   45.6113    0.1557 C   0  0  0  0  0  0
   51.9192   43.2101   -4.8649 O   0  0  0  0  0  0
   50.7642   43.5840   -5.5836 C   0  0  0  0  0  0
   50.1479   42.4904   -6.1699 O   0  0  0  0  0  0
   50.8106   42.0697   -7.3508 C   0  0  0  0  0  0
   47.6124   38.6768   -0.0076 H   0  0  0  0  0  0
   45.8062   38.5810   -3.5750 H   0  0  0  0  0  0
   48.9184   40.7773   -5.0359 H   0  0  0  0  0  0
   48.7349   42.3496   -3.8374 H   0  0  0  0  0  0
   48.8188   42.5373   -2.1212 H   0  0  0  0  0  0
   50.8234   41.2115   -1.9833 H   0  0  0  0  0  0
   50.9668   41.2821   -3.6998 H   0  0  0  0  0  0
   53.5277   45.1812   -4.0236 H   0  0  0  0  0  0
   50.2284   43.5007   -0.7023 H   0  0  0  0  0  0
   54.4492   46.7168   -2.2820 H   0  0  0  0  0  0
   54.3647   47.5973    0.0246 H   0  0  0  0  0  0
   52.5678   46.9263    1.5601 H   0  0  0  0  0  0
   50.8679   45.2751    0.8544 H   0  0  0  0  0  0
   49.9959   44.0100   -4.9334 H   0  0  0  0  0  0
   50.9996   44.3450   -6.3295 H   0  0  0  0  0  0
   50.4215   41.1148   -7.6985 H   0  0  0  0  0  0
   50.6140   42.8102   -8.0990 H   0  0  0  0  0  0
   51.8967   42.0106   -7.2992 H   0  0  0  0  0  0
  1  2  1  0  0  0
  1  6  2  0  0  0
  1 12  1  0  0  0
  2  3  1  0  0  0
  2 11  2  0  0  0
  3  4  1  0  0  0
  3 28  1  0  0  0
  4  5  1  0  0  0
  4 10  2  0  0  0
  5  6  1  0  0  0
  5 29  1  0  0  0
  6  7  1  0  0  0
  7  8  1  0  0  0
  7  9  2  0  0  0
  8 30  1  0  0  0
 12 13  1  0  0  0
 12 31  1  0  0  0
 12 32  1  0  0  0
 13 14  1  0  0  0
 13 33  1  0  0  0
 13 34  1  0  0  0
 14 15  2  0  0  0
 14 17  1  0  0  0
 15 16  1  0  0  0
 15 24  1  0  0  0
 16 19  2  0  0  0
 16 35  1  0  0  0
 17 18  2  0  0  0
 17 36  1  0  0  0
 18 19  1  0  0  0
 18 23  1  0  0  0
 19 20  1  0  0  0
 20 21  2  0  0  0
 20 37  1  0  0  0
 21 22  1  0  0  0
 21 38  1  0  0  0
 22 23  2  0  0  0
 22 39  1  0  0  0
 23 40  1  0  0  0
 24 25  1  0  0  0
 25 26  1  0  0  0
 25 41  1  0  0  0
 25 42  1  0  0  0
 26 27  1  0  0  0
 27 43  1  0  0  0
 27 44  1  0  0  0
 27 45  1  0  0  0
M  END
> <s_m_entry_id>
25891

> <s_m_entry_name>
dock_pv.543

> <s_m_Source_Path>
/home/csk/Desktop/cluster/DUD-E-result/pyrd

> <s_m_Source_File>
dock_pv.maegz

> <i_m_Source_File_Index>
543

> <chembl_id>
CHEMBL3905364

> <chembl_pref_name>
None

> <i_lp_mmshare_version>
53161

> <r_lp_tautomer_probability>
1

> <s_lp_Force_Field>
OPLS_2005

> <r_lp_Energy>
17.665066

> <b_lp_Chiralities_Consistent>
1

> <s_lp_Variant>
CHEMBL1966_lig384-1

> <s_i_glide_gridfile>
glide-grid_1d3g

> <i_i_glide_lignum>
434

> <i_i_glide_rotatable_bonds>
8

> <r_i_docking_score>
-7.80255949743452

> <r_i_glide_ligand_efficiency>
-0.288983685090167

> <r_i_glide_ligand_efficiency_sa>
-0.866951054318059

> <r_i_glide_ligand_efficiency_ln>
-1.81630721575605

> <r_i_glide_gscore>
-7.80255949743452

> <r_i_glide_lipo>
-4.44622633910235

> <r_i_glide_hbond>
-0.0937935347035624

> <r_i_glide_metal>
0

> <r_i_glide_rewards>
-2.37001350778317

> <r_i_glide_evdw>
-24.561450958252

> <r_i_glide_ecoul>
-3.3887677192688

> <r_i_glide_erotb>
0.843861589957475

> <r_i_glide_esite>
0

> <r_i_glide_emodel>
-44.2929341808637

> <r_i_glide_energy>
-27.9502186775208

> <r_i_glide_einternal>
13.9918251037598

> <i_i_glide_confnum>
52

> <i_i_glide_posenum>
75

> <r_i_glide_eff_state_penalty>
0

> <s_user_duplicate_titles>
CHEMBL1966_lig384

> <i_f3d_flags>
0

> <s_m_subgroup_title>
dock_pv

> <s_m_subgroupid>
dock_pv

> <b_m_subgroup_collapsed>
1

$$$$
CHEMBL1966_lig5
                    3D
 Schrodinger Suite 2021-1.
 34 35  0  0  1  0            999 V2000
   50.0799   42.3968   -2.6028 C   0  0  0  0  0  0
   49.7313   42.3077   -3.9157 C   0  0  0  0  0  0
   49.6230   41.4156   -1.5881 C   0  0  0  0  0  0
   48.8230   41.2865   -4.4966 C   0  0  0  0  0  0
   48.6030   40.4332   -2.0963 C   0  0  0  0  0  0
   48.1873   40.4106   -3.4471 C   0  0  0  0  0  0
   51.0334   43.4791   -2.0545 C   0  0  0  0  0  0
   49.9701   41.4214   -0.4045 O   0  0  0  0  0  0
   48.5477   41.1833   -5.6990 O   0  0  0  0  0  0
   50.1658   43.2100   -4.8420 O   0  0  0  0  0  0
   50.3715   44.7574   -1.4864 C   0  0  0  0  0  0
   47.0950   39.6100   -3.7975 C   0  0  0  0  0  0
   47.9651   39.5991   -1.1640 C   0  0  0  0  0  0
   51.3184   45.8660   -0.9256 C   0  0  0  0  0  0
   46.4548   38.8100   -2.8584 C   0  0  0  0  0  0
   46.9049   38.7850   -1.5452 C   0  0  0  0  0  0
   52.6184   46.0838   -1.7265 C   0  0  0  0  0  0
   51.6230   45.7336    0.5797 C   0  0  0  0  0  0
   51.7398   43.7457   -2.8419 H   0  0  0  0  0  0
   51.6230   43.0503   -1.2533 H   0  0  0  0  0  0
   49.7193   43.0456   -5.6781 H   0  0  0  0  0  0
   49.6554   44.4699   -0.7150 H   0  0  0  0  0  0
   49.7517   45.2100   -2.2561 H   0  0  0  0  0  0
   46.7186   39.6102   -4.8105 H   0  0  0  0  0  0
   48.2611   39.5890   -0.1230 H   0  0  0  0  0  0
   50.7550   46.7958   -1.0227 H   0  0  0  0  0  0
   45.6230   38.1928   -3.1597 H   0  0  0  0  0  0
   46.4230   38.1518   -0.8171 H   0  0  0  0  0  0
   53.2721   45.2124   -1.6765 H   0  0  0  0  0  0
   53.1831   46.9317   -1.3370 H   0  0  0  0  0  0
   52.4230   46.2886   -2.7773 H   0  0  0  0  0  0
   52.5496   45.2100    0.7864 H   0  0  0  0  0  0
   51.7235   46.7171    1.0410 H   0  0  0  0  0  0
   50.8237   45.2100    1.1010 H   0  0  0  0  0  0
  1  2  2  0  0  0
  1  3  1  0  0  0
  1  7  1  0  0  0
  2  4  1  0  0  0
  2 10  1  0  0  0
  3  5  1  0  0  0
  3  8  2  0  0  0
  4  9  2  0  0  0
  4  6  1  0  0  0
  5  6  2  0  0  0
  5 13  1  0  0  0
  6 12  1  0  0  0
  7 11  1  0  0  0
  7 19  1  0  0  0
  7 20  1  0  0  0
 10 21  1  0  0  0
 11 14  1  0  0  0
 11 22  1  0  0  0
 11 23  1  0  0  0
 12 15  2  0  0  0
 12 24  1  0  0  0
 13 16  2  0  0  0
 13 25  1  0  0  0
 14 17  1  0  0  0
 14 18  1  0  0  0
 14 26  1  0  0  0
 15 16  1  0  0  0
 15 27  1  0  0  0
 16 28  1  0  0  0
 17 29  1  0  0  0
 17 30  1  0  0  0
 17 31  1  0  0  0
 18 32  1  0  0  0
 18 33  1  0  0  0
 18 34  1  0  0  0
M  END
> <s_m_entry_id>
25892

> <s_m_entry_name>
dock_pv.544

> <s_m_Source_Path>
/home/csk/Desktop/cluster/DUD-E-result/pyrd

> <s_m_Source_File>
dock_pv.maegz

> <i_m_Source_File_Index>
544

> <chembl_id>
CHEMBL155771

> <chembl_pref_name>
None

> <i_lp_mmshare_version>
53161

> <r_lp_tautomer_probability>
0.0909090909090909

> <s_lp_Force_Field>
OPLS_2005

> <r_lp_Energy>
7.106448

> <b_lp_Chiralities_Consistent>
1

> <s_lp_Variant>
CHEMBL1966_lig5-3

> <s_i_glide_gridfile>
glide-grid_1d3g

> <i_i_glide_lignum>
7

> <i_i_glide_rotatable_bonds>
4

> <r_i_docking_score>
-7.79687406929253

> <r_i_glide_ligand_efficiency>
-0.433159670516251

> <r_i_glide_ligand_efficiency_sa>
-1.13519947773011

> <r_i_glide_ligand_efficiency_ln>
-2.00414627560141

> <r_i_glide_gscore>
-7.79687406929253

> <r_i_glide_lipo>
-3.76655849766298

> <r_i_glide_hbond>
-0.0230596137821302

> <r_i_glide_metal>
0

> <r_i_glide_rewards>
-2.78517298484848

> <r_i_glide_evdw>
-31.0441856384277

> <r_i_glide_ecoul>
-1.68323349952698

> <r_i_glide_erotb>
0.5826113338515

> <r_i_glide_esite>
0

> <r_i_glide_emodel>
-44.9995875719135

> <r_i_glide_energy>
-32.7274191379547

> <r_i_glide_einternal>
3.2933874130249

> <i_i_glide_confnum>
6

> <i_i_glide_posenum>
69

> <r_i_glide_eff_state_penalty>
0

> <s_user_duplicate_titles>
CHEMBL1966_lig5,CHEMBL1966_lig5

> <i_f3d_flags>
0

> <s_m_subgroup_title>
dock_pv

> <s_m_subgroupid>
dock_pv

> <b_m_subgroup_collapsed>
1

$$$$
CHEMBL1966_lig633
                    3D
 Schrodinger Suite 2021-1.
 29 30  0  0  1  0            999 V2000
   52.8923   46.2790    0.5365 C   0  0  0  0  0  0
   51.6775   45.5921    1.0445 C   0  0  0  0  0  0
   50.8230   44.8282   -0.3356 S   0  0  0  0  0  0
   52.2244   45.1307   -1.4059 C   0  0  0  0  0  0
   53.0918   46.0339   -0.7780 N   0  0  0  0  0  0
   53.5722   46.9671    1.2925 O   0  0  0  0  0  0
   52.4258   44.4584   -2.5786 C   0  0  0  0  0  0
   51.4240   43.5765   -3.2175 C   0  0  0  0  0  0
   53.7375   44.4778   -3.1536 C   0  0  0  0  0  0
   54.8861   44.4309   -3.2990 N   0  0  0  0  0  0
   51.4698   43.6101   -4.5580 O   0  0  0  0  0  0
   50.6121   42.8912   -2.5910 O   0  0  0  0  0  0
   50.4231   43.0380   -5.3355 C   0  0  0  0  0  0
   54.0879   46.7964   -1.4596 C   0  0  0  0  0  0
   53.6854   47.5249   -2.5837 C   0  0  0  0  0  0
   54.6005   48.2644   -3.3251 C   0  0  0  0  0  0
   55.9382   48.3087   -2.9504 C   0  0  0  0  0  0
   56.3616   47.5994   -1.8318 C   0  0  0  0  0  0
   55.4556   46.8412   -1.0886 C   0  0  0  0  0  0
   56.0906   46.0100    0.2833 Cl  0  0  0  0  0  0
   51.2006   46.4440    1.5009 H   0  0  0  0  0  0
   51.9305   44.8838    1.8205 H   0  0  0  0  0  0
   50.6977   43.0444   -6.3903 H   0  0  0  0  0  0
   49.5023   43.6111   -5.2222 H   0  0  0  0  0  0
   50.2171   42.0081   -5.0410 H   0  0  0  0  0  0
   52.6533   47.5105   -2.8984 H   0  0  0  0  0  0
   54.2624   48.8101   -4.1910 H   0  0  0  0  0  0
   56.6443   48.8909   -3.5237 H   0  0  0  0  0  0
   57.4009   47.6368   -1.5393 H   0  0  0  0  0  0
  1  2  1  0  0  0
  1  5  1  0  0  0
  1  6  2  0  0  0
  2  3  1  0  0  0
  2 21  1  0  0  0
  2 22  1  0  0  0
  3  4  1  0  0  0
  4  5  1  0  0  0
  4  7  2  0  0  0
  5 14  1  0  0  0
  7  8  1  0  0  0
  7  9  1  0  0  0
  8 11  1  0  0  0
  8 12  2  0  0  0
  9 10  3  0  0  0
 11 13  1  0  0  0
 13 23  1  0  0  0
 13 24  1  0  0  0
 13 25  1  0  0  0
 14 15  2  0  0  0
 14 19  1  0  0  0
 15 16  1  0  0  0
 15 26  1  0  0  0
 16 17  2  0  0  0
 16 27  1  0  0  0
 17 18  1  0  0  0
 17 28  1  0  0  0
 18 19  2  0  0  0
 18 29  1  0  0  0
 19 20  1  0  0  0
M  END
> <s_m_entry_id>
25894

> <s_m_entry_name>
dock_pv.546

> <s_m_Source_Path>
/home/csk/Desktop/cluster/DUD-E-result/pyrd

> <s_m_Source_File>
dock_pv.maegz

> <i_m_Source_File_Index>
546

> <chembl_id>
CHEMBL4291129

> <chembl_pref_name>
None

> <i_lp_mmshare_version>
53161

> <r_lp_tautomer_probability>
1

> <s_lp_Force_Field>
OPLS_2005

> <r_lp_Energy>
34.649575

> <b_lp_Chiralities_Consistent>
1

> <s_lp_Variant>
CHEMBL1966_lig633-1

> <s_i_glide_gridfile>
glide-grid_1d3g

> <i_i_glide_lignum>
687

> <i_i_glide_rotatable_bonds>
3

> <r_i_docking_score>
-7.77825486103551

> <r_i_glide_ligand_efficiency>
-0.388912743051775

> <r_i_glide_ligand_efficiency_sa>
-1.05567160000382

> <r_i_glide_ligand_efficiency_ln>
-1.94664064770215

> <r_i_glide_gscore>
-7.77825486103551

> <r_i_glide_lipo>
-3.22578639020502

> <r_i_glide_hbond>
0

> <r_i_glide_metal>
0

> <r_i_glide_rewards>
-3.60344609452912

> <r_i_glide_evdw>
-24.8633918762207

> <r_i_glide_ecoul>
-0.627604901790619

> <r_i_glide_erotb>
0.388287952778259

> <r_i_glide_esite>
0

> <r_i_glide_emodel>
-49.6698018092017

> <r_i_glide_energy>
-25.4909967780113

> <r_i_glide_einternal>
5.51804542541504

> <i_i_glide_confnum>
2

> <i_i_glide_posenum>
273

> <r_i_glide_eff_state_penalty>
0

> <s_user_duplicate_titles>
CHEMBL1966_lig633

> <i_f3d_flags>
0

> <s_m_subgroup_title>
dock_pv

> <s_m_subgroupid>
dock_pv

> <b_m_subgroup_collapsed>
1

$$$$
CHEMBL1966_lig401
                    3D
 Schrodinger Suite 2021-1.
 40 41  0  0  1  0            999 V2000
   49.7486   41.8012   -3.3625 C   0  0  0  0  0  0
   49.6217   42.2502   -4.7630 C   0  0  0  0  0  0
   48.5552   41.7234   -5.4099 N   0  0  0  0  0  0
   47.6527   40.8007   -4.9878 C   0  0  0  0  0  0
   47.9146   40.3231   -3.7403 N   0  0  0  0  0  0
   48.8728   40.8546   -2.8969 C   0  0  0  0  0  0
   48.8025   40.4100   -1.4993 C   0  0  0  0  0  0
   47.8352   39.4688   -1.2737 O   0  0  0  0  0  0
   49.4792   40.8099   -0.5583 O   0  0  0  0  0  0
   46.6674   40.4971   -5.6530 O   0  0  0  0  0  0
   50.3626   43.0334   -5.3593 O   0  0  0  0  0  0
   50.8853   42.4673   -2.5755 C   0  0  0  0  0  0
   50.9298   44.0108   -2.6344 C   0  0  0  0  0  0
   51.0191   44.7568   -1.2874 C   0  0  0  0  0  0
   51.5766   46.2011   -1.3833 C   0  0  0  0  0  0
   53.0870   46.2609   -1.6752 C   0  0  0  0  0  0
   54.0482   46.3609   -0.6498 C   0  0  0  0  0  0
   55.4153   46.4098   -0.9864 C   0  0  0  0  0  0
   55.8291   46.3816   -2.3133 C   0  0  0  0  0  0
   54.8823   46.3036   -3.3251 C   0  0  0  0  0  0
   53.5293   46.2412   -3.0049 C   0  0  0  0  0  0
   53.6578   46.4100    0.7996 C   0  0  0  0  0  0
   54.4756   47.2100    1.5000 O   0  0  0  0  0  0
   52.6973   45.8278    1.2967 O   0  0  0  0  0  0
   48.3883   42.1142   -6.3232 H   0  0  0  0  0  0
   47.2970   39.5971   -3.4047 H   0  0  0  0  0  0
   47.8303   39.2188   -0.3452 H   0  0  0  0  0  0
   51.7651   42.0243   -3.0327 H   0  0  0  0  0  0
   50.9934   42.1593   -1.5453 H   0  0  0  0  0  0
   50.0367   44.3957   -3.1320 H   0  0  0  0  0  0
   51.7688   44.2740   -3.2752 H   0  0  0  0  0  0
   51.6219   44.1903   -0.5832 H   0  0  0  0  0  0
   50.0226   44.7890   -0.8435 H   0  0  0  0  0  0
   51.3363   46.7360   -0.4667 H   0  0  0  0  0  0
   51.0360   46.8099   -2.0988 H   0  0  0  0  0  0
   56.1837   46.4532   -0.2266 H   0  0  0  0  0  0
   56.8818   46.4182   -2.5554 H   0  0  0  0  0  0
   55.1970   46.2873   -4.3579 H   0  0  0  0  0  0
   52.8226   46.1805   -3.8161 H   0  0  0  0  0  0
   55.1206   47.6140    0.9197 H   0  0  0  0  0  0
  1  2  1  0  0  0
  1  6  2  0  0  0
  1 12  1  0  0  0
  2  3  1  0  0  0
  2 11  2  0  0  0
  3  4  1  0  0  0
  3 25  1  0  0  0
  4  5  1  0  0  0
  4 10  2  0  0  0
  5  6  1  0  0  0
  5 26  1  0  0  0
  6  7  1  0  0  0
  7  8  1  0  0  0
  7  9  2  0  0  0
  8 27  1  0  0  0
 12 13  1  0  0  0
 12 28  1  0  0  0
 12 29  1  0  0  0
 13 14  1  0  0  0
 13 30  1  0  0  0
 13 31  1  0  0  0
 14 15  1  0  0  0
 14 32  1  0  0  0
 14 33  1  0  0  0
 15 16  1  0  0  0
 15 34  1  0  0  0
 15 35  1  0  0  0
 16 17  2  0  0  0
 16 21  1  0  0  0
 17 18  1  0  0  0
 17 22  1  0  0  0
 18 19  2  0  0  0
 18 36  1  0  0  0
 19 20  1  0  0  0
 19 37  1  0  0  0
 20 21  2  0  0  0
 20 38  1  0  0  0
 21 39  1  0  0  0
 22 23  1  0  0  0
 22 24  2  0  0  0
 23 40  1  0  0  0
M  END
> <s_m_entry_id>
25895

> <s_m_entry_name>
dock_pv.547

> <s_m_Source_Path>
/home/csk/Desktop/cluster/DUD-E-result/pyrd

> <s_m_Source_File>
dock_pv.maegz

> <i_m_Source_File_Index>
547

> <chembl_id>
CHEMBL3910672

> <chembl_pref_name>
None

> <i_lp_mmshare_version>
53161

> <r_lp_tautomer_probability>
1

> <s_lp_Force_Field>
OPLS_2005

> <r_lp_Energy>
19.851562

> <b_lp_Chiralities_Consistent>
1

> <s_lp_Variant>
CHEMBL1966_lig401-1

> <s_i_glide_gridfile>
glide-grid_1d3g

> <i_i_glide_lignum>
451

> <i_i_glide_rotatable_bonds>
9

> <r_i_docking_score>
-7.77018225590457

> <r_i_glide_ligand_efficiency>
-0.323757593996024

> <r_i_glide_ligand_efficiency_sa>
-0.933878500659746

> <r_i_glide_ligand_efficiency_ln>
-1.85976116426855

> <r_i_glide_gscore>
-7.77018225590457

> <r_i_glide_lipo>
-3.96297571003836

> <r_i_glide_hbond>
-0.104540573517212

> <r_i_glide_metal>
0

> <r_i_glide_rewards>
-2.55346830665734

> <r_i_glide_evdw>
-39.4729766845703

> <r_i_glide_ecoul>
-2.46229600906372

> <r_i_glide_erotb>
1.19379556989642

> <r_i_glide_esite>
0

> <r_i_glide_emodel>
-54.7470675142093

> <r_i_glide_energy>
-41.935272693634

> <r_i_glide_einternal>
6.68874931335449

> <i_i_glide_confnum>
214

> <i_i_glide_posenum>
273

> <r_i_glide_eff_state_penalty>
0

> <s_user_duplicate_titles>
CHEMBL1966_lig401

> <i_f3d_flags>
0

> <s_m_subgroup_title>
dock_pv

> <s_m_subgroupid>
dock_pv

> <b_m_subgroup_collapsed>
1

$$$$
CHEMBL1966_lig654
                    3D
 Schrodinger Suite 2021-1.
 37 39  0  0  1  0            999 V2000
   50.3306   44.0126   -0.6818 C   0  0  0  0  0  0
   50.1143   42.7211   -1.3528 C   0  0  0  0  0  0
   50.4695   42.4282   -2.6298 C   0  0  0  0  0  0
   51.4501   43.3179   -3.3419 C   0  0  0  0  0  0
   52.0230   44.4206   -2.4998 C   0  0  0  0  0  0
   53.1463   45.1402   -2.9582 C   0  0  0  0  0  0
   53.7039   46.1750   -2.2155 C   0  0  0  0  0  0
   53.1307   46.5369   -1.0049 C   0  0  0  0  0  0
   51.9920   45.8792   -0.5497 C   0  0  0  0  0  0
   51.4536   44.7980   -1.2677 C   0  0  0  0  0  0
   51.8419   43.2100   -4.4990 O   0  0  0  0  0  0
   49.6996   44.4079    0.2900 O   0  0  0  0  0  0
   50.0549   41.2412   -3.2548 N   0  0  0  0  0  0
   48.7727   40.9711   -3.8031 C   0  0  0  0  0  0
   47.8399   40.0654   -3.2130 C   0  0  0  0  0  0
   46.6125   39.8102   -3.8309 C   0  0  0  0  0  0
   46.2746   40.4101   -5.0301 C   0  0  0  0  0  0
   47.1633   41.2946   -5.6172 C   0  0  0  0  0  0
   48.3915   41.5938   -5.0201 C   0  0  0  0  0  0
   49.6230   41.7809   -0.5057 O   0  0  0  0  0  0
   47.9954   39.3447   -1.8839 C   0  0  0  0  0  0
   49.1987   42.6932   -5.6893 C   0  0  0  0  0  0
   53.6128   44.8912   -3.8980 H   0  0  0  0  0  0
   54.5763   46.6965   -2.5818 H   0  0  0  0  0  0
   53.5632   47.3369   -0.4224 H   0  0  0  0  0  0
   51.5684   46.1781    0.3998 H   0  0  0  0  0  0
   50.7267   40.9410   -3.9471 H   0  0  0  0  0  0
   45.8995   39.1386   -3.3728 H   0  0  0  0  0  0
   45.3113   40.2186   -5.4803 H   0  0  0  0  0  0
   46.8497   41.8272   -6.4990 H   0  0  0  0  0  0
   49.5221   40.9616   -0.9964 H   0  0  0  0  0  0
   48.8230   39.6560   -1.2783 H   0  0  0  0  0  0
   47.1130   39.5298   -1.2687 H   0  0  0  0  0  0
   48.0255   38.2654   -2.0393 H   0  0  0  0  0  0
   49.3796   43.4986   -4.9836 H   0  0  0  0  0  0
   50.1399   42.3140   -6.0816 H   0  0  0  0  0  0
   48.6657   43.1844   -6.4978 H   0  0  0  0  0  0
  1  2  1  0  0  0
  1 10  1  0  0  0
  1 12  2  0  0  0
  2  3  2  0  0  0
  2 20  1  0  0  0
  3  4  1  0  0  0
  3 13  1  0  0  0
  4  5  1  0  0  0
  4 11  2  0  0  0
  5  6  1  0  0  0
  5 10  2  0  0  0
  6  7  2  0  0  0
  6 23  1  0  0  0
  7  8  1  0  0  0
  7 24  1  0  0  0
  8  9  2  0  0  0
  8 25  1  0  0  0
  9 10  1  0  0  0
  9 26  1  0  0  0
 13 14  1  0  0  0
 13 27  1  0  0  0
 14 15  1  0  0  0
 14 19  2  0  0  0
 15 16  2  0  0  0
 15 21  1  0  0  0
 16 17  1  0  0  0
 16 28  1  0  0  0
 17 18  2  0  0  0
 17 29  1  0  0  0
 18 19  1  0  0  0
 18 30  1  0  0  0
 19 22  1  0  0  0
 20 31  1  0  0  0
 21 32  1  0  0  0
 21 33  1  0  0  0
 21 34  1  0  0  0
 22 35  1  0  0  0
 22 36  1  0  0  0
 22 37  1  0  0  0
M  END
> <s_m_entry_id>
25896

> <s_m_entry_name>
dock_pv.548

> <s_m_Source_Path>
/home/csk/Desktop/cluster/DUD-E-result/pyrd

> <s_m_Source_File>
dock_pv.maegz

> <i_m_Source_File_Index>
548

> <chembl_id>
CHEMBL2408379

> <chembl_pref_name>
None

> <i_lp_mmshare_version>
53161

> <r_lp_tautomer_probability>
1

> <s_lp_Force_Field>
OPLS_2005

> <r_lp_Energy>
23.22491

> <b_lp_Chiralities_Consistent>
1

> <s_lp_Variant>
CHEMBL1966_lig654-1

> <s_i_glide_gridfile>
glide-grid_1d3g

> <i_i_glide_lignum>
711

> <i_i_glide_rotatable_bonds>
3

> <r_i_docking_score>
-7.76475850655803

> <r_i_glide_ligand_efficiency>
-0.35294356847991

> <r_i_glide_ligand_efficiency_sa>
-0.988961759363598

> <r_i_glide_ligand_efficiency_ln>
-1.89799020545093

> <r_i_glide_gscore>
-7.76475850655803

> <r_i_glide_lipo>
-3.84999584968343

> <r_i_glide_hbond>
0

> <r_i_glide_metal>
0

> <r_i_glide_rewards>
-2.65087166666667

> <r_i_glide_evdw>
-30.6515026092529

> <r_i_glide_ecoul>
-1.04033327102661

> <r_i_glide_erotb>
0.424734130908704

> <r_i_glide_esite>
0

> <r_i_glide_emodel>
-26.0767352379146

> <r_i_glide_energy>
-31.6918358802795

> <r_i_glide_einternal>
11.6897230148315

> <i_i_glide_confnum>
4

> <i_i_glide_posenum>
347

> <r_i_glide_eff_state_penalty>
0

> <s_user_duplicate_titles>
CHEMBL1966_lig654

> <i_f3d_flags>
0

> <s_m_subgroup_title>
dock_pv

> <s_m_subgroupid>
dock_pv

> <b_m_subgroup_collapsed>
1

$$$$
CHEMBL1966_lig112
                    3D
 Schrodinger Suite 2021-1.
 35 36  0  0  1  0            999 V2000
   50.2166   42.5848   -4.5348 C   0  0  0  0  0  0
   49.6272   41.9834   -3.4024 C   0  0  0  0  0  0
   50.0230   42.4888   -2.1491 C   0  0  0  0  0  0
   51.0029   43.4722   -2.0193 C   0  0  0  0  0  0
   51.6661   43.9644   -3.1491 C   0  0  0  0  0  0
   51.2120   43.5470   -4.3955 C   0  0  0  0  0  0
   48.5915   40.8892   -3.4605 C   0  0  0  0  0  0
   52.8045   44.8100   -3.1239 N   0  0  0  0  0  0
   53.2230   45.6319   -2.1364 C   0  0  0  0  0  0
   54.5864   46.3415   -2.3076 C   0  0  1  0  0  0
   52.5550   45.8721   -1.1305 O   0  0  0  0  0  0
   55.1668   46.8290   -1.0457 C   0  0  0  0  0  0
   55.6957   45.6259   -3.1083 C   0  0  0  0  0  0
   56.8242   46.4914   -3.6584 C   0  0  0  0  0  0
   55.7053   44.4100   -3.2990 O   0  0  0  0  0  0
   55.6258   47.2100   -0.0546 N   0  0  0  0  0  0
   47.6479   40.8100   -4.4990 C   0  0  0  0  0  0
   46.5231   40.0091   -4.4069 C   0  0  0  0  0  0
   46.3582   39.1863   -3.2990 C   0  0  0  0  0  0
   47.3189   39.1645   -2.2941 C   0  0  0  0  0  0
   48.4230   40.0100   -2.3796 C   0  0  0  0  0  0
   45.3617   40.0100   -5.6817 Cl  0  0  0  0  0  0
   49.8666   42.1400   -6.1715 Cl  0  0  0  0  0  0
   49.5827   42.1166   -1.2373 H   0  0  0  0  0  0
   51.2823   43.7832   -1.0245 H   0  0  0  0  0  0
   51.6230   43.9514   -5.2990 H   0  0  0  0  0  0
   53.3821   44.7657   -3.9499 H   0  0  0  0  0  0
   56.4323   47.2461   -4.3397 H   0  0  0  0  0  0
   57.5390   45.8764   -4.2060 H   0  0  0  0  0  0
   57.3591   46.9828   -2.8455 H   0  0  0  0  0  0
   54.3480   47.2459   -2.8670 H   0  0  0  0  0  0
   47.6558   41.5008   -5.3224 H   0  0  0  0  0  0
   45.5038   38.5342   -3.2428 H   0  0  0  0  0  0
   47.2018   38.5097   -1.4427 H   0  0  0  0  0  0
   49.1236   40.0100   -1.5592 H   0  0  0  0  0  0
  1  6  1  0  0  0
  1  2  2  0  0  0
  1 23  1  0  0  0
  2  7  1  0  0  0
  2  3  1  0  0  0
  3  4  2  0  0  0
  3 24  1  0  0  0
  4  5  1  0  0  0
  4 25  1  0  0  0
  5  6  2  0  0  0
  5  8  1  0  0  0
  6 26  1  0  0  0
  7 17  2  0  0  0
  7 21  1  0  0  0
  8  9  1  0  0  0
  8 27  1  0  0  0
  9 11  2  0  0  0
  9 10  1  0  0  0
 10 12  1  0  0  0
 10 31  1  0  0  0
 10 13  1  0  0  0
 12 16  3  0  0  0
 13 15  2  0  0  0
 13 14  1  0  0  0
 14 28  1  0  0  0
 14 29  1  0  0  0
 14 30  1  0  0  0
 17 18  1  0  0  0
 17 32  1  0  0  0
 18 19  2  0  0  0
 18 22  1  0  0  0
 19 20  1  0  0  0
 19 33  1  0  0  0
 20 21  2  0  0  0
 20 34  1  0  0  0
 21 35  1  0  0  0
M  END
> <s_m_entry_id>
25897

> <s_m_entry_name>
dock_pv.549

> <s_m_Source_Path>
/home/csk/Desktop/cluster/DUD-E-result/pyrd

> <s_m_Source_File>
dock_pv.maegz

> <i_m_Source_File_Index>
549

> <chembl_id>
CHEMBL520008

> <chembl_pref_name>
None

> <i_lp_mmshare_version>
53161

> <r_lp_tautomer_probability>
0.995394628248396

> <s_lp_Force_Field>
OPLS_2005

> <r_lp_Energy>
23.617054

> <b_lp_Chiralities_Consistent>
1

> <s_lp_Variant>
CHEMBL1966_lig112-2

> <s_i_glide_gridfile>
glide-grid_1d3g

> <i_i_glide_lignum>
126

> <i_i_glide_rotatable_bonds>
5

> <r_i_docking_score>
-7.75893812077346

> <r_i_glide_ligand_efficiency>
-0.337345135685803

> <r_i_glide_ligand_efficiency_sa>
-0.959364691187706

> <r_i_glide_ligand_efficiency_ln>
-1.87618159176417

> <r_i_glide_gscore>
-7.75893812077346

> <r_i_glide_lipo>
-4.19193850534768

> <r_i_glide_hbond>
0

> <r_i_glide_metal>
0

> <r_i_glide_rewards>
-2.56103682190922

> <r_i_glide_evdw>
-32.9343910217285

> <r_i_glide_ecoul>
0.0638166218996048

> <r_i_glide_erotb>
0.631184264284931

> <r_i_glide_esite>
0

> <r_i_glide_emodel>
-40.6196133353691

> <r_i_glide_energy>
-32.8705743998289

> <r_i_glide_einternal>
7.65088653564453

> <i_i_glide_confnum>
15

> <i_i_glide_posenum>
378

> <r_i_glide_eff_state_penalty>
0

> <s_user_duplicate_titles>
CHEMBL1966_lig112

> <i_f3d_flags>
0

> <s_m_subgroup_title>
dock_pv

> <s_m_subgroupid>
dock_pv

> <b_m_subgroup_collapsed>
1

$$$$
CHEMBL1966_lig719
                    3D
 Schrodinger Suite 2021-1.
 52 54  0  0  1  0            999 V2000
   50.1048   42.5686   -4.5887 C   0  0  0  0  0  0
   50.3375   42.1113   -3.2983 N   0  0  0  0  0  0
   51.2546   42.8949   -2.6965 N   0  0  0  0  0  0
   51.7915   43.6771   -3.6066 C   0  0  0  0  0  0
   51.0548   43.5621   -4.7931 C   0  0  0  0  0  0
   49.2069   42.0098   -5.5540 C   0  0  0  0  0  0
   52.9310   44.5580   -3.3960 C   0  0  0  0  0  0
   49.6105   41.1739   -2.5042 C   0  0  0  0  0  0
   47.9035   42.0941   -5.2994 N   0  0  0  0  0  0
   54.1515   44.0012   -3.2990 N   0  0  0  0  0  0
   49.6230   41.3599   -6.5000 O   0  0  0  0  0  0
   52.8233   45.7739   -3.3767 O   0  0  0  0  0  0
   49.6229   41.2627   -1.1064 C   0  0  0  0  0  0
   48.8836   40.1280   -3.0947 C   0  0  0  0  0  0
   55.4086   44.7649   -3.1243 C   0  0  0  0  0  0
   47.9641   39.5190   -0.9816 C   0  0  0  0  0  0
   46.9277   41.3561   -6.0988 C   0  0  0  0  0  0
   48.0236   39.3328   -2.3378 C   0  0  0  0  0  0
   48.8227   40.4100   -0.3613 C   0  0  0  0  0  0
   46.8507   38.5778   -0.0991 Cl  0  0  0  0  0  0
   55.4351   45.8921   -2.0699 C   0  0  0  0  0  0
   45.6197   40.9110   -5.4503 C   0  0  0  0  0  0
   56.3840   46.9159   -2.1673 C   0  0  0  0  0  0
   54.4765   45.9536   -1.0472 C   0  0  0  0  0  0
   44.6222   42.0729   -5.3386 C   0  0  0  0  0  0
   45.9049   40.1122   -4.2054 C   0  0  0  0  0  0
   54.4387   46.9934   -0.1510 C   0  0  0  0  0  0
   56.3467   47.9837   -1.2700 C   0  0  0  0  0  0
   55.3607   48.0073   -0.2840 C   0  0  0  0  0  0
   51.2198   44.0986   -5.7161 H   0  0  0  0  0  0
   47.5832   42.9675   -4.8990 H   0  0  0  0  0  0
   54.2166   42.9929   -3.3418 H   0  0  0  0  0  0
   50.2243   41.9934   -0.5837 H   0  0  0  0  0  0
   48.9629   39.9045   -4.1444 H   0  0  0  0  0  0
   56.2128   44.0644   -2.8967 H   0  0  0  0  0  0
   55.6691   45.1916   -4.0955 H   0  0  0  0  0  0
   46.6819   42.0099   -6.9060 H   0  0  0  0  0  0
   47.3824   40.4491   -6.4988 H   0  0  0  0  0  0
   47.4645   38.5220   -2.7793 H   0  0  0  0  0  0
   48.8643   40.4313    0.7011 H   0  0  0  0  0  0
   45.1772   40.1632   -6.0988 H   0  0  0  0  0  0
   57.1315   46.8991   -2.9479 H   0  0  0  0  0  0
   53.7100   45.2103   -0.9439 H   0  0  0  0  0  0
   45.1247   43.0406   -5.2986 H   0  0  0  0  0  0
   44.0231   42.1247   -6.2372 H   0  0  0  0  0  0
   43.9326   42.0086   -4.5014 H   0  0  0  0  0  0
   46.0531   40.7495   -3.3329 H   0  0  0  0  0  0
   45.2231   39.3111   -3.9740 H   0  0  0  0  0  0
   46.7908   39.5431   -4.4485 H   0  0  0  0  0  0
   53.6777   47.0326    0.6140 H   0  0  0  0  0  0
   57.0596   48.7916   -1.3470 H   0  0  0  0  0  0
   55.2269   48.8132    0.4073 H   0  0  0  0  0  0
  1  2  1  0  0  0
  1  5  2  0  0  0
  1  6  1  0  0  0
  2  3  1  0  0  0
  2  8  1  0  0  0
  3  4  2  0  0  0
  4  5  1  0  0  0
  4  7  1  0  0  0
  5 30  1  0  0  0
  6  9  1  0  0  0
  6 11  2  0  0  0
  7 10  1  0  0  0
  7 12  2  0  0  0
  8 13  2  0  0  0
  8 14  1  0  0  0
  9 17  1  0  0  0
  9 31  1  0  0  0
 10 15  1  0  0  0
 10 32  1  0  0  0
 13 19  1  0  0  0
 13 33  1  0  0  0
 14 18  2  0  0  0
 14 34  1  0  0  0
 15 21  1  0  0  0
 15 35  1  0  0  0
 15 36  1  0  0  0
 16 18  1  0  0  0
 16 20  1  0  0  0
 16 19  2  0  0  0
 17 22  1  0  0  0
 17 37  1  0  0  0
 17 38  1  0  0  0
 18 39  1  0  0  0
 19 40  1  0  0  0
 21 23  1  0  0  0
 21 24  2  0  0  0
 22 25  1  0  0  0
 22 26  1  0  0  0
 22 41  1  0  0  0
 23 28  2  0  0  0
 23 42  1  0  0  0
 24 27  1  0  0  0
 24 43  1  0  0  0
 25 44  1  0  0  0
 25 45  1  0  0  0
 25 46  1  0  0  0
 26 47  1  0  0  0
 26 48  1  0  0  0
 26 49  1  0  0  0
 27 29  2  0  0  0
 27 50  1  0  0  0
 28 29  1  0  0  0
 28 51  1  0  0  0
 29 52  1  0  0  0
M  END
> <s_m_entry_id>
25898

> <s_m_entry_name>
dock_pv.550

> <s_m_Source_Path>
/home/csk/Desktop/cluster/DUD-E-result/pyrd

> <s_m_Source_File>
dock_pv.maegz

> <i_m_Source_File_Index>
550

> <chembl_id>
CHEMBL141304

> <chembl_pref_name>
None

> <i_lp_mmshare_version>
53161

> <r_lp_tautomer_probability>
1

> <s_lp_Force_Field>
OPLS_2005

> <r_lp_Energy>
21.174411

> <b_lp_Chiralities_Consistent>
1

> <s_lp_Variant>
CHEMBL1966_lig719-1

> <s_i_glide_gridfile>
glide-grid_1d3g

> <i_i_glide_lignum>
790

> <i_i_glide_rotatable_bonds>
9

> <r_i_docking_score>
-7.75551528499104

> <r_i_glide_ligand_efficiency>
-0.267431561551415

> <r_i_glide_ligand_efficiency_sa>
-0.821634485351624

> <r_i_glide_ligand_efficiency_ln>
-1.77581633736386

> <r_i_glide_gscore>
-7.75551528499104

> <r_i_glide_lipo>
-4.86586424083093

> <r_i_glide_hbond>
-0.578323806265655

> <r_i_glide_metal>
0

> <r_i_glide_rewards>
-1.9946797809753

> <r_i_glide_evdw>
-11.9255113601685

> <r_i_glide_ecoul>
-3.23942279815674

> <r_i_glide_erotb>
0.816956811642193

> <r_i_glide_esite>
-0.0514152808294152

> <r_i_glide_emodel>
-36.8297111390027

> <r_i_glide_energy>
-15.1649341583252

> <r_i_glide_einternal>
16.2846431732178

> <i_i_glide_confnum>
7

> <i_i_glide_posenum>
14

> <r_i_glide_eff_state_penalty>
0

> <s_user_duplicate_titles>
CHEMBL1966_lig719,236272

> <i_f3d_flags>
0

> <s_m_subgroup_title>
dock_pv

> <s_m_subgroupid>
dock_pv

> <b_m_subgroup_collapsed>
1

$$$$
CHEMBL1966_lig70
                    3D
 Schrodinger Suite 2021-1.
 44 46  0  0  1  0            999 V2000
   47.8737   39.9156   -3.0588 C   0  0  0  0  0  0
   49.1428   40.4101   -2.7247 C   0  0  0  0  0  0
   47.2287   40.2276   -4.2219 C   0  0  0  0  0  0
   54.6264   46.8379   -1.8347 C   0  0  0  0  0  0
   51.5222   44.7671   -1.6988 C   0  0  0  0  0  0
   51.2675   43.9671   -2.8194 C   0  0  0  0  0  0
   50.8788   44.3669   -0.5213 C   0  0  0  0  0  0
   47.6394   41.1356   -5.2990 C   0  0  0  0  0  0
   49.2230   41.2100   -1.6419 N   0  0  0  0  0  0
   49.9211   42.4237   -1.6308 C   0  0  0  0  0  0
   52.3518   45.8787   -1.7432 O   0  0  0  0  0  0
   53.7468   45.6100   -1.6098 C   0  0  0  0  0  0
   50.0544   43.2224   -0.4990 C   0  0  0  0  0  0
   50.4295   42.9109   -2.8053 C   0  0  0  0  0  0
   55.4154   47.3964   -0.8106 C   0  0  0  0  0  0
   54.7389   47.3545   -3.1277 C   0  0  0  0  0  0
   50.0230   40.2092   -3.5212 O   0  0  0  0  0  0
   48.7561   41.2084   -5.8037 O   0  0  0  0  0  0
   52.0230   44.0100   -4.4990 Br  0  0  0  0  0  0
   51.3694   45.2106    1.1004 Br  0  0  0  0  0  0
   46.5984   41.9225   -5.6990 O   0  0  0  0  0  0
   54.0230   46.8103   -4.1325 F   0  0  0  0  0  0
   55.3681   46.8097    0.8128 Cl  0  0  0  0  0  0
   47.1631   38.9473   -2.1617 C   0  0  0  0  0  0
   45.8811   39.6096   -4.1907 C   0  0  0  0  0  0
   45.8637   38.8134   -2.8858 C   0  0  0  0  0  0
   56.3914   48.9538   -2.3854 C   0  0  0  0  0  0
   55.6118   48.4065   -3.4002 C   0  0  0  0  0  0
   56.2948   48.4433   -1.0951 C   0  0  0  0  0  0
   48.5496   41.0727   -0.9047 H   0  0  0  0  0  0
   53.9348   45.2101   -0.6199 H   0  0  0  0  0  0
   54.0559   44.8389   -2.3184 H   0  0  0  0  0  0
   49.6131   42.9062    0.4333 H   0  0  0  0  0  0
   50.2448   42.4381   -3.7557 H   0  0  0  0  0  0
   46.8240   42.6653   -6.2791 H   0  0  0  0  0  0
   47.0287   39.3288   -1.1472 H   0  0  0  0  0  0
   47.7068   38.0028   -2.1010 H   0  0  0  0  0  0
   45.6231   39.0061   -5.0618 H   0  0  0  0  0  0
   45.2230   40.4688   -4.1672 H   0  0  0  0  0  0
   45.0918   39.2100   -2.2268 H   0  0  0  0  0  0
   45.6231   37.7697   -3.0705 H   0  0  0  0  0  0
   57.0743   49.7635   -2.5994 H   0  0  0  0  0  0
   55.7010   48.7877   -4.4045 H   0  0  0  0  0  0
   56.9210   48.8548   -0.3177 H   0  0  0  0  0  0
  1  2  1  0  0  0
  1  3  2  0  0  0
  1 24  1  0  0  0
  2  9  1  0  0  0
  2 17  2  0  0  0
  3  8  1  0  0  0
  3 25  1  0  0  0
  4 12  1  0  0  0
  4 15  2  0  0  0
  4 16  1  0  0  0
  5  6  1  0  0  0
  5 11  1  0  0  0
  5  7  2  0  0  0
  6 14  2  0  0  0
  6 19  1  0  0  0
  7 13  1  0  0  0
  7 20  1  0  0  0
  8 18  2  0  0  0
  8 21  1  0  0  0
  9 10  1  0  0  0
  9 30  1  0  0  0
 10 13  2  0  0  0
 10 14  1  0  0  0
 11 12  1  0  0  0
 12 31  1  0  0  0
 12 32  1  0  0  0
 13 33  1  0  0  0
 14 34  1  0  0  0
 15 23  1  0  0  0
 15 29  1  0  0  0
 16 22  1  0  0  0
 16 28  2  0  0  0
 21 35  1  0  0  0
 24 26  1  0  0  0
 24 36  1  0  0  0
 24 37  1  0  0  0
 25 26  1  0  0  0
 25 38  1  0  0  0
 25 39  1  0  0  0
 26 40  1  0  0  0
 26 41  1  0  0  0
 27 28  1  0  0  0
 27 29  2  0  0  0
 27 42  1  0  0  0
 28 43  1  0  0  0
 29 44  1  0  0  0
M  END
> <s_m_entry_id>
25899

> <s_m_entry_name>
dock_pv.551

> <s_m_Source_Path>
/home/csk/Desktop/cluster/DUD-E-result/pyrd

> <s_m_Source_File>
dock_pv.maegz

> <i_m_Source_File_Index>
551

> <chembl_id>
CHEMBL196181

> <chembl_pref_name>
None

> <i_lp_mmshare_version>
53161

> <r_lp_tautomer_probability>
1

> <s_lp_Force_Field>
OPLS_2005

> <r_lp_Energy>
49.687259

> <b_lp_Chiralities_Consistent>
1

> <s_lp_Variant>
CHEMBL1966_lig70-1

> <s_i_glide_gridfile>
glide-grid_1d3g

> <i_i_glide_lignum>
76

> <i_i_glide_rotatable_bonds>
8

> <r_i_docking_score>
-7.75036718058363

> <r_i_glide_ligand_efficiency>
-0.26725404070978

> <r_i_glide_ligand_efficiency_sa>
-0.821089085083572

> <r_i_glide_ligand_efficiency_ln>
-1.77463755199923

> <r_i_glide_gscore>
-7.75036718058363

> <r_i_glide_lipo>
-5.4685122444374

> <r_i_glide_hbond>
-0.053490546476297

> <r_i_glide_metal>
0

> <r_i_glide_rewards>
-0.76801587800679

> <r_i_glide_evdw>
-19.6218929290771

> <r_i_glide_ecoul>
-6.4191198348999

> <r_i_glide_erotb>
0.483614110025691

> <r_i_glide_esite>
0

> <r_i_glide_emodel>
-41.745918213234

> <r_i_glide_energy>
-26.0410127639771

> <r_i_glide_einternal>
21.6572666168213

> <i_i_glide_confnum>
58

> <i_i_glide_posenum>
338

> <r_i_glide_eff_state_penalty>
0

> <s_user_duplicate_titles>
CHEMBL1966_lig70,327242

> <i_f3d_flags>
0

> <s_m_subgroup_title>
dock_pv

> <s_m_subgroupid>
dock_pv

> <b_m_subgroup_collapsed>
1

$$$$
CHEMBL1966_lig337
                    3D
 Schrodinger Suite 2021-1.
 46 48  0  0  1  0            999 V2000
   46.7914   38.2595   -1.2790 Cl  0  0  0  0  0  0
   45.2236   38.4535   -4.0989 Cl  0  0  0  0  0  0
   50.4310   42.1738   -1.9046 O   0  0  0  0  0  0
   54.8621   44.4337   -2.9027 O   0  0  0  0  0  0
   53.2227   45.9025   -3.3742 N   0  0  0  0  0  0
   50.4342   42.6469   -4.1237 N   0  0  0  0  0  0
   54.5516   47.2418   -1.6736 C   0  0  0  0  0  0
   53.8022   47.1854   -3.0017 C   0  0  1  0  0  0
   55.8868   47.7001   -1.6034 C   0  0  0  0  0  0
   48.8618   41.0317   -3.3201 C   0  0  0  0  0  0
   47.2800   39.3598   -2.5193 C   0  0  0  0  0  0
   49.9974   41.9886   -3.0414 C   0  0  0  0  0  0
   48.4132   40.1531   -2.3224 C   0  0  0  0  0  0
   46.5634   39.4749   -3.7144 C   0  0  0  0  0  0
   53.9461   46.7180   -0.5262 C   0  0  0  0  0  0
   54.5545   47.8611   -4.1566 C   0  0  0  0  0  0
   48.1703   41.0652   -4.5458 C   0  0  0  0  0  0
   56.6077   48.2536   -2.8262 C   0  0  0  0  0  0
   56.5622   47.6098   -0.3933 C   0  0  0  0  0  0
   47.0045   40.3348   -4.7152 C   0  0  0  0  0  0
   53.7244   44.6685   -3.2990 C   0  0  0  0  0  0
   56.0654   47.6040   -4.1030 C   0  0  0  0  0  0
   54.6615   46.5612    0.6493 C   0  0  0  0  0  0
   55.9831   46.9809    0.7010 C   0  0  0  0  0  0
   52.8460   43.5045   -3.8119 C   0  0  0  0  0  0
   51.3866   43.7353   -4.2452 C   0  0  0  0  0  0
   52.3265   45.9862   -3.8253 H   0  0  0  0  0  0
   50.0477   42.3436   -5.0022 H   0  0  0  0  0  0
   52.9013   47.7798   -2.8422 H   0  0  0  0  0  0
   48.9271   40.1004   -1.3725 H   0  0  0  0  0  0
   52.9295   46.3559   -0.5712 H   0  0  0  0  0  0
   54.3836   48.9320   -4.0997 H   0  0  0  0  0  0
   54.1473   47.5333   -5.1120 H   0  0  0  0  0  0
   48.4506   41.7312   -5.3487 H   0  0  0  0  0  0
   56.4652   49.3349   -2.8663 H   0  0  0  0  0  0
   57.6835   48.0849   -2.7518 H   0  0  0  0  0  0
   57.5727   47.9973   -0.3184 H   0  0  0  0  0  0
   46.4546   40.4074   -5.6416 H   0  0  0  0  0  0
   56.5745   48.0166   -4.9714 H   0  0  0  0  0  0
   56.2723   46.5319   -4.1089 H   0  0  0  0  0  0
   54.1900   46.1024    1.5032 H   0  0  0  0  0  0
   56.5559   46.8544    1.6068 H   0  0  0  0  0  0
   53.3644   42.8438   -4.5056 H   0  0  0  0  0  0
   52.7303   42.8049   -3.0130 H   0  0  0  0  0  0
   51.0287   44.4100   -3.4752 H   0  0  0  0  0  0
   51.2252   44.3998   -5.0912 H   0  0  0  0  0  0
  1 11  1  0  0  0
  2 14  1  0  0  0
  3 12  2  0  0  0
  4 21  2  0  0  0
  5  8  1  0  0  0
  5 21  1  0  0  0
  5 27  1  0  0  0
  6 12  1  0  0  0
  6 26  1  0  0  0
  6 28  1  0  0  0
  7  8  1  0  0  0
  7  9  1  0  0  0
  7 15  2  0  0  0
  8 16  1  0  0  0
  8 29  1  0  0  0
  9 18  1  0  0  0
  9 19  2  0  0  0
 10 12  1  0  0  0
 10 13  1  0  0  0
 10 17  2  0  0  0
 11 13  2  0  0  0
 11 14  1  0  0  0
 13 30  1  0  0  0
 14 20  2  0  0  0
 15 23  1  0  0  0
 15 31  1  0  0  0
 16 22  1  0  0  0
 16 32  1  0  0  0
 16 33  1  0  0  0
 17 20  1  0  0  0
 17 34  1  0  0  0
 18 22  1  0  0  0
 18 35  1  0  0  0
 18 36  1  0  0  0
 19 24  1  0  0  0
 19 37  1  0  0  0
 20 38  1  0  0  0
 21 25  1  0  0  0
 22 39  1  0  0  0
 22 40  1  0  0  0
 23 24  2  0  0  0
 23 41  1  0  0  0
 24 42  1  0  0  0
 25 26  1  0  0  0
 25 43  1  0  0  0
 25 44  1  0  0  0
 26 45  1  0  0  0
 26 46  1  0  0  0
M  END
> <s_m_entry_id>
25900

> <s_m_entry_name>
dock_pv.552

> <s_m_Source_Path>
/home/csk/Desktop/cluster/DUD-E-result/pyrd

> <s_m_Source_File>
dock_pv.maegz

> <i_m_Source_File_Index>
552

> <chembl_id>
CHEMBL3188954

> <chembl_pref_name>
None

> <i_lp_mmshare_version>
53161

> <r_lp_tautomer_probability>
1

> <s_lp_Force_Field>
OPLS_2005

> <r_lp_Energy>
15.486872

> <b_lp_Chiralities_Consistent>
1

> <s_lp_Variant>
CHEMBL1966_lig337-1

> <s_i_glide_gridfile>
glide-grid_1d3g

> <i_i_glide_lignum>
387

> <i_i_glide_rotatable_bonds>
7

> <r_i_docking_score>
-7.73258629491783

> <r_i_glide_ligand_efficiency>
-0.297407165189147

> <r_i_glide_ligand_efficiency_sa>
-0.881067556632162

> <r_i_glide_ligand_efficiency_ln>
-1.81597251867633

> <r_i_glide_gscore>
-7.73258629491783

> <r_i_glide_lipo>
-4.60510967883865

> <r_i_glide_hbond>
0

> <r_i_glide_metal>
0

> <r_i_glide_rewards>
-2.26535398704406

> <r_i_glide_evdw>
-26.039083480835

> <r_i_glide_ecoul>
-1.31601321697235

> <r_i_glide_erotb>
0.637233527552488

> <r_i_glide_esite>
0

> <r_i_glide_emodel>
-23.8026061243268

> <r_i_glide_energy>
-27.3550966978073

> <r_i_glide_einternal>
9.19217586517334

> <i_i_glide_confnum>
56

> <i_i_glide_posenum>
305

> <r_i_glide_eff_state_penalty>
0

> <s_user_duplicate_titles>
CHEMBL1966_lig337

> <i_f3d_flags>
0

> <s_m_subgroup_title>
dock_pv

> <s_m_subgroupid>
dock_pv

> <b_m_subgroup_collapsed>
1

$$$$
CHEMBL1966_lig43
                    3D
 Schrodinger Suite 2021-1.
 32 33  0  0  1  0            999 V2000
   48.8248   40.8113   -2.8922 C   0  0  0  0  0  0
   49.7982   41.7218   -2.2806 C   0  0  0  0  0  0
   47.4235   40.0101   -4.4990 N   0  0  0  0  0  0
   54.8286   47.2537   -2.2979 C   0  0  0  0  0  0
   48.0189   39.8026   -2.3473 C   0  0  0  0  0  0
   50.3998   42.5481   -3.0549 N   0  0  0  0  0  0
   47.1688   39.3502   -3.3032 O   0  0  0  0  0  0
   48.4228   40.8075   -4.2343 C   0  0  0  0  0  0
   50.0230   41.6134   -0.5002 S   0  0  0  0  0  0
   53.6230   46.9156   -1.6135 O   0  0  0  0  0  0
   51.2227   43.6099   -2.6432 C   0  0  0  0  0  0
   55.3363   48.3301   -1.7007 F   0  0  0  0  0  0
   55.7331   46.2770   -2.2090 F   0  0  0  0  0  0
   54.5991   47.5736   -3.5724 F   0  0  0  0  0  0
   52.8669   45.8306   -2.0157 C   0  0  0  0  0  0
   50.8890   44.4950   -1.6033 C   0  0  0  0  0  0
   52.3497   43.9192   -3.4128 C   0  0  0  0  0  0
   53.1826   44.9926   -3.0940 C   0  0  0  0  0  0
   51.7050   45.5802   -1.2881 C   0  0  0  0  0  0
   47.8211   39.1716   -0.9706 C   0  0  0  0  0  0
   47.5321   37.6630   -1.0229 C   0  0  0  0  0  0
   48.8174   41.4588   -5.0016 H   0  0  0  0  0  0
   48.9972   40.7861   -0.2928 H   0  0  0  0  0  0
   49.9810   44.3568   -1.0363 H   0  0  0  0  0  0
   52.6053   43.2867   -4.2506 H   0  0  0  0  0  0
   54.0601   45.1582   -3.6988 H   0  0  0  0  0  0
   51.4307   46.2345   -0.4732 H   0  0  0  0  0  0
   48.6833   39.3024   -0.3237 H   0  0  0  0  0  0
   46.9951   39.6587   -0.4523 H   0  0  0  0  0  0
   47.5996   37.2179   -0.0296 H   0  0  0  0  0  0
   46.5298   37.4725   -1.4066 H   0  0  0  0  0  0
   48.2437   37.1366   -1.6612 H   0  0  0  0  0  0
  1  2  1  0  0  0
  1  5  2  0  0  0
  1  8  1  0  0  0
  2  6  2  0  0  0
  2  9  1  0  0  0
  3  8  2  0  0  0
  3  7  1  0  0  0
  4 10  1  0  0  0
  4 12  1  0  0  0
  4 13  1  0  0  0
  4 14  1  0  0  0
  5  7  1  0  0  0
  5 20  1  0  0  0
  6 11  1  0  0  0
  8 22  1  0  0  0
  9 23  1  0  0  0
 10 15  1  0  0  0
 11 16  2  0  0  0
 11 17  1  0  0  0
 15 18  1  0  0  0
 15 19  2  0  0  0
 16 19  1  0  0  0
 16 24  1  0  0  0
 17 18  2  0  0  0
 17 25  1  0  0  0
 18 26  1  0  0  0
 19 27  1  0  0  0
 20 21  1  0  0  0
 20 28  1  0  0  0
 20 29  1  0  0  0
 21 30  1  0  0  0
 21 31  1  0  0  0
 21 32  1  0  0  0
M  END
> <s_m_entry_id>
25901

> <s_m_entry_name>
dock_pv.553

> <s_m_Source_Path>
/home/csk/Desktop/cluster/DUD-E-result/pyrd

> <s_m_Source_File>
dock_pv.maegz

> <i_m_Source_File_Index>
553

> <chembl_id>
CHEMBL306784

> <chembl_pref_name>
None

> <i_lp_mmshare_version>
53161

> <r_lp_tautomer_probability>
1

> <s_lp_Force_Field>
OPLS_2005

> <r_lp_Energy>
13.836228

> <b_lp_Chiralities_Consistent>
1

> <s_lp_Variant>
CHEMBL1966_lig43-1

> <s_i_glide_gridfile>
glide-grid_1d3g

> <i_i_glide_lignum>
47

> <i_i_glide_rotatable_bonds>
6

> <r_i_docking_score>
-7.72987641920337

> <r_i_glide_ligand_efficiency>
-0.368089353295399

> <r_i_glide_ligand_efficiency_sa>
-1.01553061484457

> <r_i_glide_ligand_efficiency_ln>
-1.911196324962

> <r_i_glide_gscore>
-7.72987641920337

> <r_i_glide_lipo>
-3.4521198165786

> <r_i_glide_hbond>
0

> <r_i_glide_metal>
0

> <r_i_glide_rewards>
-3.22454976247512

> <r_i_glide_evdw>
-33.8416175842285

> <r_i_glide_ecoul>
-0.702529191970825

> <r_i_glide_erotb>
0.744253417857398

> <r_i_glide_esite>
0

> <r_i_glide_emodel>
-47.1823924560793

> <r_i_glide_energy>
-34.5441467761993

> <r_i_glide_einternal>
4.30089950561523

> <i_i_glide_confnum>
35

> <i_i_glide_posenum>
77

> <r_i_glide_eff_state_penalty>
0

> <s_user_duplicate_titles>
CHEMBL1966_lig43,111452

> <i_f3d_flags>
0

> <s_m_subgroup_title>
dock_pv

> <s_m_subgroupid>
dock_pv

> <b_m_subgroup_collapsed>
1

$$$$
CHEMBL1966_lig358
                    3D
 Schrodinger Suite 2021-1.
 39 40  0  0  1  0            999 V2000
   49.6006   41.3789   -2.6426 C   0  0  0  0  0  0
   49.2230   40.8100   -1.3368 C   0  0  0  0  0  0
   48.1915   39.9239   -1.3846 N   0  0  0  0  0  0
   47.4844   39.4709   -2.4568 C   0  0  0  0  0  0
   47.8885   40.0101   -3.6332 N   0  0  0  0  0  0
   48.8778   40.9614   -3.7329 C   0  0  0  0  0  0
   49.0065   41.4772   -5.0824 C   0  0  0  0  0  0
   49.2545   42.8100   -5.1227 O   0  0  0  0  0  0
   48.8230   40.8100   -6.0990 O   0  0  0  0  0  0
   46.5396   38.6948   -2.3639 O   0  0  0  0  0  0
   49.7075   41.1283   -0.2521 O   0  0  0  0  0  0
   50.8158   42.3450   -2.6512 C   0  0  0  0  0  0
   50.5336   43.8366   -2.3097 C   0  0  0  0  0  0
   51.7793   44.7093   -2.0990 C   0  0  0  0  0  0
   51.9054   45.5037   -0.9567 C   0  0  0  0  0  0
   53.0963   46.1811   -0.6985 C   0  0  0  0  0  0
   54.1359   46.1324   -1.6362 C   0  0  0  0  0  0
   54.0200   45.3799   -2.8013 C   0  0  0  0  0  0
   52.8230   44.7056   -3.0410 C   0  0  0  0  0  0
   53.2149   46.8100    0.5167 O   0  0  0  0  0  0
   54.5206   47.2100    0.9096 C   0  0  0  0  0  0
   55.0523   45.2120   -3.6990 O   0  0  0  0  0  0
   56.3267   45.7959   -3.4458 C   0  0  0  0  0  0
   47.9033   39.5532   -0.4914 H   0  0  0  0  0  0
   47.4072   39.6715   -4.4530 H   0  0  0  0  0  0
   49.1975   43.1614   -6.0134 H   0  0  0  0  0  0
   51.5681   41.9717   -1.9557 H   0  0  0  0  0  0
   51.3061   42.2832   -3.6224 H   0  0  0  0  0  0
   49.9787   44.2893   -3.1260 H   0  0  0  0  0  0
   49.9027   43.8895   -1.4208 H   0  0  0  0  0  0
   51.1163   45.5278   -0.2195 H   0  0  0  0  0  0
   55.0605   46.6485   -1.4451 H   0  0  0  0  0  0
   52.7396   44.1041   -3.9334 H   0  0  0  0  0  0
   54.4652   47.6100    1.9010 H   0  0  0  0  0  0
   55.2215   46.3735    0.9315 H   0  0  0  0  0  0
   54.9159   48.0052    0.2757 H   0  0  0  0  0  0
   57.0093   45.5299   -4.2528 H   0  0  0  0  0  0
   56.2688   46.8847   -3.4097 H   0  0  0  0  0  0
   56.7604   45.4260   -2.5150 H   0  0  0  0  0  0
  1  2  1  0  0  0
  1  6  2  0  0  0
  1 12  1  0  0  0
  2  3  1  0  0  0
  2 11  2  0  0  0
  3  4  1  0  0  0
  3 24  1  0  0  0
  4  5  1  0  0  0
  4 10  2  0  0  0
  5  6  1  0  0  0
  5 25  1  0  0  0
  6  7  1  0  0  0
  7  8  1  0  0  0
  7  9  2  0  0  0
  8 26  1  0  0  0
 12 13  1  0  0  0
 12 27  1  0  0  0
 12 28  1  0  0  0
 13 14  1  0  0  0
 13 29  1  0  0  0
 13 30  1  0  0  0
 14 15  2  0  0  0
 14 19  1  0  0  0
 15 16  1  0  0  0
 15 31  1  0  0  0
 16 17  2  0  0  0
 16 20  1  0  0  0
 17 18  1  0  0  0
 17 32  1  0  0  0
 18 19  2  0  0  0
 18 22  1  0  0  0
 19 33  1  0  0  0
 20 21  1  0  0  0
 21 34  1  0  0  0
 21 35  1  0  0  0
 21 36  1  0  0  0
 22 23  1  0  0  0
 23 37  1  0  0  0
 23 38  1  0  0  0
 23 39  1  0  0  0
M  END
> <s_m_entry_id>
25902

> <s_m_entry_name>
dock_pv.554

> <s_m_Source_Path>
/home/csk/Desktop/cluster/DUD-E-result/pyrd

> <s_m_Source_File>
dock_pv.maegz

> <i_m_Source_File_Index>
554

> <chembl_id>
CHEMBL3889490

> <chembl_pref_name>
None

> <i_lp_mmshare_version>
53161

> <r_lp_tautomer_probability>
1

> <s_lp_Force_Field>
OPLS_2005

> <r_lp_Energy>
18.890814

> <b_lp_Chiralities_Consistent>
1

> <s_lp_Variant>
CHEMBL1966_lig358-1

> <s_i_glide_gridfile>
glide-grid_1d3g

> <i_i_glide_lignum>
408

> <i_i_glide_rotatable_bonds>
7

> <r_i_docking_score>
-7.71295641752028

> <r_i_glide_ligand_efficiency>
-0.335345931196534

> <r_i_glide_ligand_efficiency_sa>
-0.953679219560646

> <r_i_glide_ligand_efficiency_ln>
-1.86506279897852

> <r_i_glide_gscore>
-7.71295641752028

> <r_i_glide_lipo>
-3.68172948411735

> <r_i_glide_hbond>
-0.16

> <r_i_glide_metal>
0

> <r_i_glide_rewards>
-2.11597419153294

> <r_i_glide_evdw>
-32.4623260498047

> <r_i_glide_ecoul>
-5.73407220840454

> <r_i_glide_erotb>
0.727974391880925

> <r_i_glide_esite>
0

> <r_i_glide_emodel>
-50.3884744968816

> <r_i_glide_energy>
-38.1963982582092

> <r_i_glide_einternal>
9.54562950134277

> <i_i_glide_confnum>
11

> <i_i_glide_posenum>
146

> <r_i_glide_eff_state_penalty>
0

> <s_user_duplicate_titles>
CHEMBL1966_lig358

> <i_f3d_flags>
0

> <s_m_subgroup_title>
dock_pv

> <s_m_subgroupid>
dock_pv

> <b_m_subgroup_collapsed>
1

$$$$
CHEMBL1966_lig624
                    3D
 Schrodinger Suite 2021-1.
 30 31  0  0  1  0            999 V2000
   56.9106   48.7278   -2.6831 C   0  0  0  0  0  0
   57.0517   48.1258   -1.4372 C   0  0  0  0  0  0
   56.0009   47.3994   -0.8797 C   0  0  0  0  0  0
   54.7694   47.2946   -1.5562 C   0  0  0  0  0  0
   54.6447   47.8995   -2.8152 C   0  0  0  0  0  0
   55.7100   48.6045   -3.3744 C   0  0  0  0  0  0
   53.6696   46.5947   -1.0090 N   0  0  0  0  0  0
   53.4506   46.4820    0.4269 C   0  0  0  0  0  0
   51.9603   46.5834    0.6520 C   0  0  0  0  0  0
   51.2230   46.0480   -0.8990 S   0  0  0  0  0  0
   52.7902   45.7620   -1.6990 C   0  0  0  0  0  0
   53.0416   44.8747   -2.7015 C   0  0  0  0  0  0
   56.2002   46.8100    0.3229 F   0  0  0  0  0  0
   52.0230   43.9689   -3.2990 C   0  0  0  0  0  0
   54.3908   44.6826   -3.1250 C   0  0  0  0  0  0
   55.5238   44.5162   -3.2990 N   0  0  0  0  0  0
   51.1132   43.5026   -2.4097 O   0  0  0  0  0  0
   52.0230   43.6100   -4.4743 O   0  0  0  0  0  0
   50.1055   42.5813   -2.8057 C   0  0  0  0  0  0
   57.7301   49.2863   -3.1115 H   0  0  0  0  0  0
   57.9833   48.2174   -0.8990 H   0  0  0  0  0  0
   53.7150   47.8314   -3.3623 H   0  0  0  0  0  0
   55.6016   49.0765   -4.3379 H   0  0  0  0  0  0
   53.9562   47.2547    1.0058 H   0  0  0  0  0  0
   53.8312   45.5309    0.7971 H   0  0  0  0  0  0
   51.6436   47.6100    0.8342 H   0  0  0  0  0  0
   51.6230   45.9512    1.4731 H   0  0  0  0  0  0
   49.4612   42.3496   -1.9580 H   0  0  0  0  0  0
   50.5486   41.6495   -3.1609 H   0  0  0  0  0  0
   49.4855   42.9956   -3.6025 H   0  0  0  0  0  0
  1  2  2  0  0  0
  1  6  1  0  0  0
  1 20  1  0  0  0
  2  3  1  0  0  0
  2 21  1  0  0  0
  3  4  2  0  0  0
  3 13  1  0  0  0
  4  5  1  0  0  0
  4  7  1  0  0  0
  5  6  2  0  0  0
  5 22  1  0  0  0
  6 23  1  0  0  0
  7  8  1  0  0  0
  7 11  1  0  0  0
  8  9  1  0  0  0
  8 24  1  0  0  0
  8 25  1  0  0  0
  9 10  1  0  0  0
  9 26  1  0  0  0
  9 27  1  0  0  0
 10 11  1  0  0  0
 11 12  2  0  0  0
 12 14  1  0  0  0
 12 15  1  0  0  0
 14 17  1  0  0  0
 14 18  2  0  0  0
 15 16  3  0  0  0
 17 19  1  0  0  0
 19 28  1  0  0  0
 19 29  1  0  0  0
 19 30  1  0  0  0
M  END
> <s_m_entry_id>
25903

> <s_m_entry_name>
dock_pv.555

> <s_m_Source_Path>
/home/csk/Desktop/cluster/DUD-E-result/pyrd

> <s_m_Source_File>
dock_pv.maegz

> <i_m_Source_File_Index>
555

> <chembl_id>
CHEMBL4293416

> <chembl_pref_name>
None

> <i_lp_mmshare_version>
53161

> <r_lp_tautomer_probability>
0.5

> <s_lp_Force_Field>
OPLS_2005

> <r_lp_Energy>
30.866333

> <b_lp_Chiralities_Consistent>
1

> <s_lp_Variant>
CHEMBL1966_lig624-1

> <s_i_glide_gridfile>
glide-grid_1d3g

> <i_i_glide_lignum>
678

> <i_i_glide_rotatable_bonds>
3

> <r_i_docking_score>
-7.6996808488132

> <r_i_glide_ligand_efficiency>
-0.405246360463853

> <r_i_glide_ligand_efficiency_sa>
-1.08136005533898

> <r_i_glide_ligand_efficiency_ln>
-1.95203446915544

> <r_i_glide_gscore>
-7.6996808488132

> <r_i_glide_lipo>
-3.25710668256157

> <r_i_glide_hbond>
0

> <r_i_glide_metal>
0

> <r_i_glide_rewards>
-3.53740931396466

> <r_i_glide_evdw>
-26.4942169189453

> <r_i_glide_ecoul>
-0.305778473615646

> <r_i_glide_erotb>
0.465412764702649

> <r_i_glide_esite>
0

> <r_i_glide_emodel>
-35.2630736259082

> <r_i_glide_energy>
-26.799995392561

> <r_i_glide_einternal>
0.949326813220978

> <i_i_glide_confnum>
1

> <i_i_glide_posenum>
334

> <r_i_glide_eff_state_penalty>
0

> <s_user_duplicate_titles>
CHEMBL1966_lig624

> <i_f3d_flags>
0

> <s_m_subgroup_title>
dock_pv

> <s_m_subgroupid>
dock_pv

> <b_m_subgroup_collapsed>
1

$$$$
CHEMBL1966_lig120
                    3D
 Schrodinger Suite 2021-1.
 35 36  0  0  1  0            999 V2000
   48.5541   40.6092   -3.3082 C   0  0  0  0  0  0
   47.5870   39.6096   -3.2850 C   0  0  0  0  0  0
   47.2414   39.0066   -2.0806 C   0  0  0  0  0  0
   47.8611   39.3998   -0.8992 C   0  0  0  0  0  0
   48.8225   40.4100   -0.9190 C   0  0  0  0  0  0
   49.1580   41.0483   -2.1203 C   0  0  0  0  0  0
   50.0234   42.2570   -2.1098 C   0  0  0  0  0  0
   50.0231   43.1267   -1.0078 C   0  0  0  0  0  0
   50.8229   44.2611   -0.9907 C   0  0  0  0  0  0
   50.8110   42.5723   -3.2177 C   0  0  0  0  0  0
   51.6236   43.6933   -3.2027 C   0  0  0  0  0  0
   51.6628   44.5218   -2.0774 C   0  0  0  0  0  0
   52.6488   45.5341   -2.0995 N   0  0  0  0  0  0
   53.1065   46.3515   -1.1237 C   0  0  0  0  0  0
   52.6342   46.4107    0.0120 O   0  0  0  0  0  0
   54.3103   47.2525   -1.4926 C   0  0  2  0  0  0
   54.7086   47.2292   -2.9105 C   0  0  0  0  0  0
   55.0194   47.2097   -4.0242 N   0  0  0  0  0  0
   55.5641   47.1101   -0.6102 C   0  0  0  0  0  0
   56.7196   48.0620   -0.8993 C   0  0  0  0  0  0
   55.6589   46.2882    0.3002 O   0  0  0  0  0  0
   48.7699   41.0921   -4.2489 H   0  0  0  0  0  0
   47.0971   39.3070   -4.1975 H   0  0  0  0  0  0
   46.4925   38.2288   -2.0619 H   0  0  0  0  0  0
   47.5975   38.9191    0.0308 H   0  0  0  0  0  0
   49.2759   40.7051    0.0153 H   0  0  0  0  0  0
   49.3969   42.9378   -0.1490 H   0  0  0  0  0  0
   50.8034   44.8893   -0.1148 H   0  0  0  0  0  0
   50.8247   41.9350   -4.0886 H   0  0  0  0  0  0
   52.2610   43.8883   -4.0538 H   0  0  0  0  0  0
   53.1264   45.6042   -2.9857 H   0  0  0  0  0  0
   56.3675   49.0905   -0.9732 H   0  0  0  0  0  0
   57.2165   47.7859   -1.8288 H   0  0  0  0  0  0
   57.4579   48.0101   -0.1006 H   0  0  0  0  0  0
   53.9936   48.2778   -1.3306 H   0  0  0  0  0  0
  1  2  2  0  0  0
  1  6  1  0  0  0
  1 22  1  0  0  0
  2  3  1  0  0  0
  2 23  1  0  0  0
  3  4  2  0  0  0
  3 24  1  0  0  0
  4  5  1  0  0  0
  4 25  1  0  0  0
  5  6  2  0  0  0
  5 26  1  0  0  0
  6  7  1  0  0  0
  7  8  2  0  0  0
  7 10  1  0  0  0
  8  9  1  0  0  0
  8 27  1  0  0  0
  9 12  2  0  0  0
  9 28  1  0  0  0
 10 11  2  0  0  0
 10 29  1  0  0  0
 11 12  1  0  0  0
 11 30  1  0  0  0
 12 13  1  0  0  0
 13 14  1  0  0  0
 13 31  1  0  0  0
 14 15  2  0  0  0
 14 16  1  0  0  0
 16 17  1  0  0  0
 16 35  1  0  0  0
 16 19  1  0  0  0
 17 18  3  0  0  0
 19 21  2  0  0  0
 19 20  1  0  0  0
 20 32  1  0  0  0
 20 33  1  0  0  0
 20 34  1  0  0  0
M  END
> <s_m_entry_id>
25904

> <s_m_entry_name>
dock_pv.556

> <s_m_Source_Path>
/home/csk/Desktop/cluster/DUD-E-result/pyrd

> <s_m_Source_File>
dock_pv.maegz

> <i_m_Source_File_Index>
556

> <chembl_id>
CHEMBL519160

> <chembl_pref_name>
None

> <i_lp_mmshare_version>
53161

> <r_lp_tautomer_probability>
0.995394628248396

> <s_lp_Force_Field>
OPLS_2005

> <r_lp_Energy>
22.681667

> <b_lp_Chiralities_Consistent>
1

> <s_lp_Variant>
CHEMBL1966_lig120-1

> <s_i_glide_gridfile>
glide-grid_1d3g

> <i_i_glide_lignum>
141

> <i_i_glide_rotatable_bonds>
5

> <r_i_docking_score>
-7.67883452574672

> <r_i_glide_ligand_efficiency>
-0.36565878694032

> <r_i_glide_ligand_efficiency_sa>
-1.00882486657205

> <r_i_glide_ligand_efficiency_ln>
-1.8985763199447

> <r_i_glide_gscore>
-7.67883452574672

> <r_i_glide_lipo>
-3.80229484442362

> <r_i_glide_hbond>
0

> <r_i_glide_metal>
0

> <r_i_glide_rewards>
-3.09690762516835

> <r_i_glide_evdw>
-33.3971214294434

> <r_i_glide_ecoul>
-0.270590960979462

> <r_i_glide_erotb>
0.93081265946433

> <r_i_glide_esite>
0

> <r_i_glide_emodel>
-44.6913971276515

> <r_i_glide_energy>
-33.6677123904228

> <r_i_glide_einternal>
4.92943859100342

> <i_i_glide_confnum>
22

> <i_i_glide_posenum>
138

> <r_i_glide_eff_state_penalty>
0

> <s_user_duplicate_titles>
CHEMBL1966_lig120

> <i_f3d_flags>
0

> <s_m_subgroup_title>
dock_pv

> <s_m_subgroupid>
dock_pv

> <b_m_subgroup_collapsed>
1

$$$$
CHEMBL1966_lig240
                    3D
 Schrodinger Suite 2021-1.
 39 41  0  0  1  0            999 V2000
   53.6247   46.8067   -0.4997 C   0  0  0  0  0  0
   54.5173   46.8581   -1.5637 C   0  0  0  0  0  0
   52.4849   46.0166   -0.5788 C   0  0  0  0  0  0
   51.2226   44.2701   -1.5946 N   0  0  0  0  0  0
   52.2693   45.2096   -1.6989 C   0  0  0  0  0  0
   49.3933   41.5416   -2.8541 C   0  0  0  0  0  0
   50.8868   43.2115   -4.1310 S   0  0  0  0  0  0
   45.4483   41.2121   -5.3002 C   0  0  0  0  0  0
   49.6814   41.9694   -4.1625 C   0  0  0  0  0  0
   47.7713   41.9610   -5.2997 O   0  0  0  0  0  0
   49.6166   41.2127   -6.4424 O   0  0  0  0  0  0
   54.2974   46.0830   -2.7030 C   0  0  0  0  0  0
   49.9763   42.3110   -1.9364 N   0  0  0  0  0  0
   49.0626   41.6563   -5.4335 C   0  0  0  0  0  0
   53.1824   45.2530   -2.7651 C   0  0  0  0  0  0
   46.7648   41.3636   -6.0776 C   0  0  0  0  0  0
   50.7151   43.2788   -2.4163 C   0  0  0  0  0  0
   48.4807   40.4098   -2.3990 C   0  0  0  0  0  0
   47.6124   39.7179   -3.2540 C   0  0  0  0  0  0
   46.7092   38.7789   -2.7790 C   0  0  0  0  0  0
   46.8043   38.3507   -1.4668 C   0  0  0  0  0  0
   47.7336   38.9365   -0.6258 C   0  0  0  0  0  0
   48.4869   40.0123   -1.0547 C   0  0  0  0  0  0
   55.9155   47.8659   -1.4671 Cl  0  0  0  0  0  0
   53.8165   47.3939    0.3881 H   0  0  0  0  0  0
   51.8152   45.9881    0.2667 H   0  0  0  0  0  0
   50.8348   44.2984   -0.6601 H   0  0  0  0  0  0
   44.9372   40.2873   -5.5832 H   0  0  0  0  0  0
   45.5879   41.2098   -4.2206 H   0  0  0  0  0  0
   44.7774   42.0467   -5.5088 H   0  0  0  0  0  0
   54.9988   46.1040   -3.5216 H   0  0  0  0  0  0
   53.0836   44.6187   -3.6286 H   0  0  0  0  0  0
   46.5631   42.0099   -6.9045 H   0  0  0  0  0  0
   47.0892   40.4105   -6.4991 H   0  0  0  0  0  0
   47.6024   39.8522   -4.3098 H   0  0  0  0  0  0
   46.0137   38.3065   -3.4491 H   0  0  0  0  0  0
   46.2071   37.5209   -1.1237 H   0  0  0  0  0  0
   48.0110   38.4909    0.3016 H   0  0  0  0  0  0
   49.1886   40.4532   -0.3604 H   0  0  0  0  0  0
  1  2  2  0  0  0
  1  3  1  0  0  0
  1 25  1  0  0  0
  2 12  1  0  0  0
  2 24  1  0  0  0
  3  5  2  0  0  0
  3 26  1  0  0  0
  4 17  1  0  0  0
  4  5  1  0  0  0
  4 27  1  0  0  0
  5 15  1  0  0  0
  6  9  2  0  0  0
  6 13  1  0  0  0
  6 18  1  0  0  0
  7 17  1  0  0  0
  7  9  1  0  0  0
  8 16  1  0  0  0
  8 28  1  0  0  0
  8 29  1  0  0  0
  8 30  1  0  0  0
  9 14  1  0  0  0
 10 14  1  0  0  0
 10 16  1  0  0  0
 11 14  2  0  0  0
 12 15  2  0  0  0
 12 31  1  0  0  0
 13 17  2  0  0  0
 15 32  1  0  0  0
 16 33  1  0  0  0
 16 34  1  0  0  0
 18 19  1  0  0  0
 18 23  2  0  0  0
 19 20  2  0  0  0
 19 35  1  0  0  0
 20 21  1  0  0  0
 20 36  1  0  0  0
 21 22  2  0  0  0
 21 37  1  0  0  0
 22 23  1  0  0  0
 22 38  1  0  0  0
 23 39  1  0  0  0
M  END
> <s_m_entry_id>
25905

> <s_m_entry_name>
dock_pv.557

> <s_m_Source_Path>
/home/csk/Desktop/cluster/DUD-E-result/pyrd

> <s_m_Source_File>
dock_pv.maegz

> <i_m_Source_File_Index>
557

> <chembl_id>
CHEMBL3410599

> <chembl_pref_name>
None

> <i_lp_mmshare_version>
53161

> <r_lp_tautomer_probability>
1

> <s_lp_Force_Field>
OPLS_2005

> <r_lp_Energy>
15.34506

> <b_lp_Chiralities_Consistent>
1

> <s_lp_Variant>
CHEMBL1966_lig240-1

> <s_i_glide_gridfile>
glide-grid_1d3g

> <i_i_glide_lignum>
286

> <i_i_glide_rotatable_bonds>
6

> <r_i_docking_score>
-7.65615740872645

> <r_i_glide_ligand_efficiency>
-0.319006558696935

> <r_i_glide_ligand_efficiency_sa>
-0.920174143437013

> <r_i_glide_ligand_efficiency_ln>
-1.83246978607953

> <r_i_glide_gscore>
-7.65615740872645

> <r_i_glide_lipo>
-4.99680333371299

> <r_i_glide_hbond>
-0.16

> <r_i_glide_metal>
0

> <r_i_glide_rewards>
-1.63314664252902

> <r_i_glide_evdw>
-31.0475444793701

> <r_i_glide_ecoul>
-0.385482490062714

> <r_i_glide_erotb>
0.743992164993479

> <r_i_glide_esite>
0

> <r_i_glide_emodel>
-36.0068685273871

> <r_i_glide_energy>
-31.4330269694328

> <r_i_glide_einternal>
7.604905128479

> <i_i_glide_confnum>
88

> <i_i_glide_posenum>
381

> <r_i_glide_eff_state_penalty>
0

> <s_user_duplicate_titles>
CHEMBL1966_lig240

> <i_f3d_flags>
0

> <s_m_subgroup_title>
dock_pv

> <s_m_subgroupid>
dock_pv

> <b_m_subgroup_collapsed>
1

$$$$
CHEMBL1966_lig398
                    3D
 Schrodinger Suite 2021-1.
 43 44  0  0  1  0            999 V2000
   49.9160   41.9228   -3.6838 C   0  0  0  0  0  0
   49.5503   42.3321   -5.0438 C   0  0  0  0  0  0
   48.4272   41.7251   -5.5038 N   0  0  0  0  0  0
   47.6190   40.8099   -4.9008 C   0  0  0  0  0  0
   48.0237   40.4585   -3.6499 N   0  0  0  0  0  0
   49.0996   41.0507   -3.0083 C   0  0  0  0  0  0
   49.2228   40.8102   -1.5657 C   0  0  0  0  0  0
   48.4226   39.8111   -1.0839 O   0  0  0  0  0  0
   49.8718   41.5223   -0.8002 O   0  0  0  0  0  0
   46.5820   40.4099   -5.4175 O   0  0  0  0  0  0
   50.1463   43.1537   -5.7387 O   0  0  0  0  0  0
   51.2880   42.4110   -3.2131 C   0  0  0  0  0  0
   51.4453   43.8643   -2.7442 C   0  0  0  0  0  0
   52.7787   44.4681   -3.2750 C   0  0  0  0  0  0
   53.1485   45.9339   -2.9660 C   0  0  0  0  0  0
   53.3972   46.1901   -1.4887 C   0  0  0  0  0  0
   54.6844   46.4093   -0.9494 C   0  0  0  0  0  0
   54.8043   46.6665    0.4208 C   0  0  0  0  0  0
   53.6811   46.6481    1.2420 C   0  0  0  0  0  0
   52.4183   46.4272    0.7147 C   0  0  0  0  0  0
   52.2764   46.2271   -0.6505 C   0  0  0  0  0  0
   55.9379   46.4134   -1.7581 C   0  0  0  0  0  0
   56.0495   45.3151   -2.5409 O   0  0  0  0  0  0
   56.8253   47.2534   -1.6079 O   0  0  0  0  0  0
   57.2184   45.0757   -3.3103 C   0  0  0  0  0  0
   48.1130   42.0638   -6.3992 H   0  0  0  0  0  0
   47.3611   39.8736   -3.1653 H   0  0  0  0  0  0
   48.1682   39.1625   -1.7392 H   0  0  0  0  0  0
   51.9704   42.2378   -4.0517 H   0  0  0  0  0  0
   51.6230   41.7477   -2.4256 H   0  0  0  0  0  0
   51.4010   43.8906   -1.6553 H   0  0  0  0  0  0
   50.5741   44.4099   -3.0875 H   0  0  0  0  0  0
   52.7499   44.3301   -4.3463 H   0  0  0  0  0  0
   53.6312   43.8851   -2.9317 H   0  0  0  0  0  0
   52.4230   46.6560   -3.2979 H   0  0  0  0  0  0
   54.0083   46.2068   -3.5740 H   0  0  0  0  0  0
   55.7708   46.8546    0.8695 H   0  0  0  0  0  0
   53.7946   46.8099    2.3006 H   0  0  0  0  0  0
   51.5534   46.4350    1.3599 H   0  0  0  0  0  0
   51.2841   46.0920   -1.0553 H   0  0  0  0  0  0
   57.0090   44.3262   -4.0748 H   0  0  0  0  0  0
   58.0159   44.6951   -2.6726 H   0  0  0  0  0  0
   57.5699   45.9779   -3.8128 H   0  0  0  0  0  0
  1  2  1  0  0  0
  1  6  2  0  0  0
  1 12  1  0  0  0
  2  3  1  0  0  0
  2 11  2  0  0  0
  3  4  1  0  0  0
  3 26  1  0  0  0
  4  5  1  0  0  0
  4 10  2  0  0  0
  5  6  1  0  0  0
  5 27  1  0  0  0
  6  7  1  0  0  0
  7  8  1  0  0  0
  7  9  2  0  0  0
  8 28  1  0  0  0
 12 13  1  0  0  0
 12 29  1  0  0  0
 12 30  1  0  0  0
 13 14  1  0  0  0
 13 31  1  0  0  0
 13 32  1  0  0  0
 14 15  1  0  0  0
 14 33  1  0  0  0
 14 34  1  0  0  0
 15 16  1  0  0  0
 15 35  1  0  0  0
 15 36  1  0  0  0
 16 17  2  0  0  0
 16 21  1  0  0  0
 17 18  1  0  0  0
 17 22  1  0  0  0
 18 19  2  0  0  0
 18 37  1  0  0  0
 19 20  1  0  0  0
 19 38  1  0  0  0
 20 21  2  0  0  0
 20 39  1  0  0  0
 21 40  1  0  0  0
 22 23  1  0  0  0
 22 24  2  0  0  0
 23 25  1  0  0  0
 25 41  1  0  0  0
 25 42  1  0  0  0
 25 43  1  0  0  0
M  END
> <s_m_entry_id>
25906

> <s_m_entry_name>
dock_pv.558

> <s_m_Source_Path>
/home/csk/Desktop/cluster/DUD-E-result/pyrd

> <s_m_Source_File>
dock_pv.maegz

> <i_m_Source_File_Index>
558

> <chembl_id>
CHEMBL3956130

> <chembl_pref_name>
None

> <i_lp_mmshare_version>
53161

> <r_lp_tautomer_probability>
1

> <s_lp_Force_Field>
OPLS_2005

> <r_lp_Energy>
17.939734

> <b_lp_Chiralities_Consistent>
1

> <s_lp_Variant>
CHEMBL1966_lig398-1

> <s_i_glide_gridfile>
glide-grid_1d3g

> <i_i_glide_lignum>
448

> <i_i_glide_rotatable_bonds>
9

> <r_i_docking_score>
-7.6541015731042

> <r_i_glide_ligand_efficiency>
-0.306164062924168

> <r_i_glide_ligand_efficiency_sa>
-0.895229149833043

> <r_i_glide_ligand_efficiency_ln>
-1.81425144774042

> <r_i_glide_gscore>
-7.6541015731042

> <r_i_glide_lipo>
-3.96258733976762

> <r_i_glide_hbond>
-0.0111915027314655

> <r_i_glide_metal>
0

> <r_i_glide_rewards>
-2.42787778418148

> <r_i_glide_evdw>
-37.9556465148926

> <r_i_glide_ecoul>
-3.09408259391785

> <r_i_glide_erotb>
1.10944976840868

> <r_i_glide_esite>
0

> <r_i_glide_emodel>
-40.4787594509045

> <r_i_glide_energy>
-41.0497291088104

> <r_i_glide_einternal>
5.32474994659424

> <i_i_glide_confnum>
97

> <i_i_glide_posenum>
47

> <r_i_glide_eff_state_penalty>
0

> <s_user_duplicate_titles>
CHEMBL1966_lig398

> <i_f3d_flags>
0

> <s_m_subgroup_title>
dock_pv

> <s_m_subgroupid>
dock_pv

> <b_m_subgroup_collapsed>
1

$$$$
CHEMBL1966_lig26
                    3D
 Schrodinger Suite 2021-1.
 44 46  0  0  1  0            999 V2000
   48.8393   41.0154   -3.0631 C   0  0  0  0  0  0
   49.7448   42.0867   -3.4995 C   0  0  0  0  0  0
   47.8468   40.4099   -3.7841 C   0  0  0  0  0  0
   50.2970   42.7323   -2.4573 N   0  0  0  0  0  0
   57.5207   48.7979   -4.1889 C   0  0  0  0  0  0
   47.4819   40.7084   -5.1618 C   0  0  0  0  0  0
   51.2166   43.7890   -2.4276 C   0  0  0  0  0  0
   53.1601   45.7960   -2.0912 C   0  0  0  0  0  0
   51.1828   44.6203   -1.2999 C   0  0  0  0  0  0
   52.1422   45.6165   -1.1458 C   0  0  0  0  0  0
   54.2739   46.7406   -1.8197 C   0  0  0  0  0  0
   56.3571   49.2643   -3.5155 O   0  0  0  0  0  0
   49.9801   42.3897   -4.6671 O   0  0  0  0  0  0
   54.7891   47.5822   -2.8161 C   0  0  0  0  0  0
   48.2684   40.8090   -6.0992 O   0  0  0  0  0  0
   55.8654   48.4313   -2.5436 C   0  0  0  0  0  0
   52.1842   44.0096   -3.4205 C   0  0  0  0  0  0
   53.1480   45.0087   -3.2492 C   0  0  0  0  0  0
   58.0151   49.8084   -4.8983 F   0  0  0  0  0  0
   58.4752   48.4253   -3.3428 F   0  0  0  0  0  0
   57.2241   47.7949   -5.0161 F   0  0  0  0  0  0
   49.9911   44.4053   -0.0595 Cl  0  0  0  0  0  0
   46.1320   40.8104   -5.3218 O   0  0  0  0  0  0
   48.8648   40.4599   -1.6401 C   0  0  0  0  0  0
   47.0765   39.4005   -2.9296 C   0  0  0  0  0  0
   47.7004   39.4842   -1.5481 C   0  0  0  0  0  0
   54.8619   46.7683   -0.5481 C   0  0  0  0  0  0
   55.9360   47.6078   -0.2761 C   0  0  0  0  0  0
   56.4268   48.4513   -1.2664 C   0  0  0  0  0  0
   49.9414   42.4786   -1.5494 H   0  0  0  0  0  0
   52.1189   46.2273   -0.2550 H   0  0  0  0  0  0
   54.3543   47.5837   -3.8054 H   0  0  0  0  0  0
   52.2369   43.3791   -4.2960 H   0  0  0  0  0  0
   53.9192   45.1446   -3.9907 H   0  0  0  0  0  0
   45.6625   40.7765   -4.4862 H   0  0  0  0  0  0
   48.8231   41.2105   -0.8534 H   0  0  0  0  0  0
   49.8325   40.0102   -1.4943 H   0  0  0  0  0  0
   47.1930   38.3864   -3.2992 H   0  0  0  0  0  0
   46.0073   39.6113   -2.8878 H   0  0  0  0  0  0
   46.9766   39.8192   -0.8043 H   0  0  0  0  0  0
   48.0226   38.5008   -1.2035 H   0  0  0  0  0  0
   54.5037   46.1147    0.2343 H   0  0  0  0  0  0
   56.3899   47.6072    0.7015 H   0  0  0  0  0  0
   57.2551   49.1096   -1.0463 H   0  0  0  0  0  0
  1  2  1  0  0  0
  1  3  2  0  0  0
  1 24  1  0  0  0
  2  4  1  0  0  0
  2 13  2  0  0  0
  3  6  1  0  0  0
  3 25  1  0  0  0
  4  7  1  0  0  0
  4 30  1  0  0  0
  5 12  1  0  0  0
  5 19  1  0  0  0
  5 20  1  0  0  0
  5 21  1  0  0  0
  6 15  2  0  0  0
  6 23  1  0  0  0
  7  9  2  0  0  0
  7 17  1  0  0  0
  8 18  1  0  0  0
  8 11  1  0  0  0
  8 10  2  0  0  0
  9 10  1  0  0  0
  9 22  1  0  0  0
 10 31  1  0  0  0
 11 14  1  0  0  0
 11 27  2  0  0  0
 12 16  1  0  0  0
 14 16  2  0  0  0
 14 32  1  0  0  0
 16 29  1  0  0  0
 17 18  2  0  0  0
 17 33  1  0  0  0
 18 34  1  0  0  0
 23 35  1  0  0  0
 24 26  1  0  0  0
 24 36  1  0  0  0
 24 37  1  0  0  0
 25 26  1  0  0  0
 25 38  1  0  0  0
 25 39  1  0  0  0
 26 40  1  0  0  0
 26 41  1  0  0  0
 27 28  1  0  0  0
 27 42  1  0  0  0
 28 29  2  0  0  0
 28 43  1  0  0  0
 29 44  1  0  0  0
M  END
> <s_m_entry_id>
25908

> <s_m_entry_name>
dock_pv.560

> <s_m_Source_Path>
/home/csk/Desktop/cluster/DUD-E-result/pyrd

> <s_m_Source_File>
dock_pv.maegz

> <i_m_Source_File_Index>
560

> <chembl_id>
CHEMBL155548

> <chembl_pref_name>
None

> <i_lp_mmshare_version>
53161

> <r_lp_tautomer_probability>
1

> <s_lp_Force_Field>
OPLS_2005

> <r_lp_Energy>
43.602013

> <b_lp_Chiralities_Consistent>
1

> <s_lp_Variant>
CHEMBL1966_lig26-1

> <s_i_glide_gridfile>
glide-grid_1d3g

> <i_i_glide_lignum>
30

> <i_i_glide_rotatable_bonds>
8

> <r_i_docking_score>
-7.63840229213833

> <r_i_glide_ligand_efficiency>
-0.263393182487529

> <r_i_glide_ligand_efficiency_sa>
-0.809227305419074

> <r_i_glide_ligand_efficiency_ln>
-1.74900043172985

> <r_i_glide_gscore>
-7.63840229213833

> <r_i_glide_lipo>
-5.57333677835232

> <r_i_glide_hbond>
-0.172121596988678

> <r_i_glide_metal>
0

> <r_i_glide_rewards>
0.0957671743182318

> <r_i_glide_evdw>
-42.6726989746094

> <r_i_glide_ecoul>
-3.41015887260437

> <r_i_glide_erotb>
0.656626210879613

> <r_i_glide_esite>
-0.00017852237404517

> <r_i_glide_emodel>
-55.5755249496609

> <r_i_glide_energy>
-46.0828578472137

> <r_i_glide_einternal>
8.34623718261719

> <i_i_glide_confnum>
7

> <i_i_glide_posenum>
334

> <r_i_glide_eff_state_penalty>
0

> <s_user_duplicate_titles>
CHEMBL1966_lig26,257571

> <i_f3d_flags>
0

> <s_m_subgroup_title>
dock_pv

> <s_m_subgroupid>
dock_pv

> <b_m_subgroup_collapsed>
1

$$$$
CHEMBL1966_lig61
                    3D
 Schrodinger Suite 2021-1.
 42 44  0  0  1  0            999 V2000
   48.5008   40.8100   -3.3657 C   0  0  0  0  0  0
   47.6385   39.8739   -2.8515 C   0  0  0  0  0  0
   49.5829   41.5234   -2.6705 C   0  0  0  0  0  0
   50.8992   43.5842   -2.7457 C   0  0  0  0  0  0
   49.9892   42.6571   -3.2721 N   0  0  0  0  0  0
   47.6230   39.2703   -1.5320 C   0  0  0  0  0  0
   57.1347   47.5743   -3.8811 C   0  0  0  0  0  0
   52.0230   43.8645   -3.5140 C   0  0  0  0  0  0
   50.7024   44.2659   -1.5314 C   0  0  0  0  0  0
   52.7650   45.5149   -1.8941 C   0  0  0  0  0  0
   51.6230   45.2356   -1.1248 C   0  0  0  0  0  0
   52.9444   44.8104   -3.0920 C   0  0  0  0  0  0
   53.8386   46.4332   -1.4339 C   0  0  0  0  0  0
   46.6446   40.4102   -5.2990 S   0  0  0  0  0  0
   56.5337   48.4611   -2.9318 O   0  0  0  0  0  0
   50.0230   41.2100   -1.5708 O   0  0  0  0  0  0
   54.5773   47.1720   -2.3666 C   0  0  0  0  0  0
   48.1800   41.1888   -4.8257 C   0  0  0  0  0  0
   47.9225   39.8477   -0.4990 O   0  0  0  0  0  0
   46.4028   39.6543   -3.7056 C   0  0  0  0  0  0
   55.7314   47.8604   -1.9924 C   0  0  0  0  0  0
   58.1480   48.2180   -4.4580 F   0  0  0  0  0  0
   57.6230   46.4778   -3.2990 F   0  0  0  0  0  0
   56.2757   47.2100   -4.8329 F   0  0  0  0  0  0
   49.6286   44.0101   -0.7467 F   0  0  0  0  0  0
   52.2240   43.2100   -4.6711 F   0  0  0  0  0  0
   47.2230   37.9738   -1.5594 O   0  0  0  0  0  0
   54.2201   46.4874   -0.0873 C   0  0  0  0  0  0
   55.3467   47.2100    0.3010 C   0  0  0  0  0  0
   56.1070   47.8880   -0.6510 C   0  0  0  0  0  0
   49.6982   42.8209   -4.2233 H   0  0  0  0  0  0
   51.4564   45.7499   -0.1897 H   0  0  0  0  0  0
   53.8232   44.9675   -3.6990 H   0  0  0  0  0  0
   54.2920   47.1618   -3.4079 H   0  0  0  0  0  0
   48.9674   40.8486   -5.4989 H   0  0  0  0  0  0
   48.0369   42.2619   -4.9668 H   0  0  0  0  0  0
   46.0264   38.6348   -3.7834 H   0  0  0  0  0  0
   45.6230   40.2459   -3.2387 H   0  0  0  0  0  0
   47.1330   37.6585   -2.4587 H   0  0  0  0  0  0
   53.6807   45.9251    0.6611 H   0  0  0  0  0  0
   55.6488   47.2100    1.3380 H   0  0  0  0  0  0
   57.0059   48.4102   -0.3553 H   0  0  0  0  0  0
  1  2  2  0  0  0
  1  3  1  0  0  0
  1 18  1  0  0  0
  2  6  1  0  0  0
  2 20  1  0  0  0
  3  5  1  0  0  0
  3 16  2  0  0  0
  4  5  1  0  0  0
  4  8  1  0  0  0
  4  9  2  0  0  0
  5 31  1  0  0  0
  6 19  2  0  0  0
  6 27  1  0  0  0
  7 15  1  0  0  0
  7 22  1  0  0  0
  7 23  1  0  0  0
  7 24  1  0  0  0
  8 12  2  0  0  0
  8 26  1  0  0  0
  9 11  1  0  0  0
  9 25  1  0  0  0
 10 11  2  0  0  0
 10 13  1  0  0  0
 10 12  1  0  0  0
 11 32  1  0  0  0
 12 33  1  0  0  0
 13 17  1  0  0  0
 13 28  2  0  0  0
 14 18  1  0  0  0
 14 20  1  0  0  0
 15 21  1  0  0  0
 17 21  2  0  0  0
 17 34  1  0  0  0
 18 35  1  0  0  0
 18 36  1  0  0  0
 20 37  1  0  0  0
 20 38  1  0  0  0
 21 30  1  0  0  0
 27 39  1  0  0  0
 28 29  1  0  0  0
 28 40  1  0  0  0
 29 30  2  0  0  0
 29 41  1  0  0  0
 30 42  1  0  0  0
M  END
> <s_m_entry_id>
25909

> <s_m_entry_name>
dock_pv.561

> <s_m_Source_Path>
/home/csk/Desktop/cluster/DUD-E-result/pyrd

> <s_m_Source_File>
dock_pv.maegz

> <i_m_Source_File_Index>
561

> <chembl_id>
CHEMBL194075

> <chembl_pref_name>
None

> <i_lp_mmshare_version>
53161

> <r_lp_tautomer_probability>
1

> <s_lp_Force_Field>
OPLS_2005

> <r_lp_Energy>
36.302217

> <b_lp_Chiralities_Consistent>
1

> <s_lp_Variant>
CHEMBL1966_lig61-1

> <s_i_glide_gridfile>
glide-grid_1d3g

> <i_i_glide_lignum>
67

> <i_i_glide_rotatable_bonds>
8

> <r_i_docking_score>
-7.63275436507109

> <r_i_glide_ligand_efficiency>
-0.25442514550237

> <r_i_glide_ligand_efficiency_sa>
-0.790558081540722

> <r_i_glide_ligand_efficiency_ln>
-1.73424495726399

> <r_i_glide_gscore>
-7.63275436507109

> <r_i_glide_lipo>
-4.7052819500735

> <r_i_glide_hbond>
0

> <r_i_glide_metal>
0

> <r_i_glide_rewards>
-1.07812991075

> <r_i_glide_evdw>
-43.7158241271973

> <r_i_glide_ecoul>
-1.79188287258148

> <r_i_glide_erotb>
0.605231132999497

> <r_i_glide_esite>
0

> <r_i_glide_emodel>
-50.0236538807124

> <r_i_glide_energy>
-45.5077069997787

> <r_i_glide_einternal>
4.93838834762573

> <i_i_glide_confnum>
70

> <i_i_glide_posenum>
152

> <r_i_glide_eff_state_penalty>
0

> <s_user_duplicate_titles>
CHEMBL1966_lig61,327334

> <i_f3d_flags>
0

> <s_m_subgroup_title>
dock_pv

> <s_m_subgroupid>
dock_pv

> <b_m_subgroup_collapsed>
1

$$$$
CHEMBL1966_lig267
                    3D
 Schrodinger Suite 2021-1.
 31 32  0  0  1  0            999 V2000
   55.0233   47.0641   -0.6760 C   0  0  0  0  0  0
   56.1887   47.4479   -1.5866 C   0  0  0  0  0  0
   53.9495   45.6111   -2.8117 S   0  0  0  0  0  0
   52.4235   44.8590   -2.4991 C   0  0  0  0  0  0
   51.8688   45.2103   -1.3613 N   0  0  0  0  0  0
   52.6429   46.0099   -0.6416 C   0  0  0  0  0  0
   53.8842   46.3249   -1.2193 C   0  0  0  0  0  0
   52.0969   46.3964    0.7201 C   0  0  0  0  0  0
   51.9241   44.0098   -3.4569 N   0  0  0  0  0  0
   50.8730   43.0864   -3.3454 C   0  0  0  0  0  0
   50.1704   42.7463   -4.5027 C   0  0  0  0  0  0
   49.2231   41.7223   -4.4843 C   0  0  0  0  0  0
   48.9478   41.0432   -3.2921 C   0  0  0  0  0  0
   49.6231   41.4062   -2.1236 C   0  0  0  0  0  0
   50.5764   42.4236   -2.1491 C   0  0  0  0  0  0
   55.0845   47.3810    0.5086 O   0  0  0  0  0  0
   48.5901   41.3775   -5.6313 F   0  0  0  0  0  0
   47.9245   39.9207   -3.2607 C   0  0  0  0  0  0
   56.6866   46.5544   -1.9640 H   0  0  0  0  0  0
   56.9203   48.0468   -1.0433 H   0  0  0  0  0  0
   55.8297   48.0293   -2.4357 H   0  0  0  0  0  0
   52.8798   46.4438    1.4773 H   0  0  0  0  0  0
   51.6205   47.3757    0.6993 H   0  0  0  0  0  0
   51.3581   45.6865    1.0969 H   0  0  0  0  0  0
   52.1714   44.1851   -4.4187 H   0  0  0  0  0  0
   50.3791   43.2443   -5.4378 H   0  0  0  0  0  0
   49.4231   40.8901   -1.1955 H   0  0  0  0  0  0
   51.1174   42.6587   -1.2453 H   0  0  0  0  0  0
   46.9137   40.3220   -3.3365 H   0  0  0  0  0  0
   48.0748   39.2425   -4.1005 H   0  0  0  0  0  0
   48.0045   39.3212   -2.3525 H   0  0  0  0  0  0
  1  2  1  0  0  0
  1  7  1  0  0  0
  1 16  2  0  0  0
  2 19  1  0  0  0
  2 20  1  0  0  0
  2 21  1  0  0  0
  3  4  1  0  0  0
  3  7  1  0  0  0
  4  5  2  0  0  0
  4  9  1  0  0  0
  5  6  1  0  0  0
  6  7  2  0  0  0
  6  8  1  0  0  0
  8 22  1  0  0  0
  8 23  1  0  0  0
  8 24  1  0  0  0
  9 10  1  0  0  0
  9 25  1  0  0  0
 10 11  1  0  0  0
 10 15  2  0  0  0
 11 12  2  0  0  0
 11 26  1  0  0  0
 12 13  1  0  0  0
 12 17  1  0  0  0
 13 14  2  0  0  0
 13 18  1  0  0  0
 14 15  1  0  0  0
 14 27  1  0  0  0
 15 28  1  0  0  0
 18 29  1  0  0  0
 18 30  1  0  0  0
 18 31  1  0  0  0
M  END
> <s_m_entry_id>
25910

> <s_m_entry_name>
dock_pv.562

> <s_m_Source_Path>
/home/csk/Desktop/cluster/DUD-E-result/pyrd

> <s_m_Source_File>
dock_pv.maegz

> <i_m_Source_File_Index>
562

> <chembl_id>
CHEMBL3410573

> <chembl_pref_name>
None

> <i_lp_mmshare_version>
53161

> <r_lp_tautomer_probability>
0.99995

> <s_lp_Force_Field>
OPLS_2005

> <r_lp_Energy>
6.835565

> <b_lp_Chiralities_Consistent>
1

> <s_lp_Variant>
CHEMBL1966_lig267-1

> <s_i_glide_gridfile>
glide-grid_1d3g

> <i_i_glide_lignum>
313

> <i_i_glide_rotatable_bonds>
3

> <r_i_docking_score>
-7.62875319557617

> <r_i_glide_ligand_efficiency>
-0.423819621976454

> <r_i_glide_ligand_efficiency_sa>
-1.11072162592153

> <r_i_glide_ligand_efficiency_ln>
-1.96093167191344

> <r_i_glide_gscore>
-7.62875319557617

> <r_i_glide_lipo>
-3.92557335300539

> <r_i_glide_hbond>
0

> <r_i_glide_metal>
0

> <r_i_glide_rewards>
-2.45949481460878

> <r_i_glide_evdw>
-33.5580940246582

> <r_i_glide_ecoul>
-0.49749344587326

> <r_i_glide_erotb>
0.508843690151907

> <r_i_glide_esite>
0

> <r_i_glide_emodel>
-46.3807081792674

> <r_i_glide_energy>
-34.0555874705315

> <r_i_glide_einternal>
3.844318151474

> <i_i_glide_confnum>
1

> <i_i_glide_posenum>
397

> <r_i_glide_eff_state_penalty>
0

> <s_user_duplicate_titles>
CHEMBL1966_lig267

> <i_f3d_flags>
0

> <s_m_subgroup_title>
dock_pv

> <s_m_subgroupid>
dock_pv

> <b_m_subgroup_collapsed>
1

$$$$
CHEMBL1966_lig124
                    3D
 Schrodinger Suite 2021-1.
 42 43  0  0  1  0            999 V2000
   50.1166   42.5866   -3.7279 C   0  0  0  0  0  0
   49.6424   41.8047   -2.6501 C   0  0  0  0  0  0
   51.0312   43.6130   -3.4298 C   0  0  0  0  0  0
   49.6364   42.4098   -5.1693 C   0  0  0  0  0  0
   49.9879   42.1645   -1.3412 C   0  0  0  0  0  0
   48.8229   40.7013   -2.9320 N   0  0  0  0  0  0
   51.2815   44.0723   -2.1194 C   0  0  0  0  0  0
   48.8244   41.5543   -5.5262 O   0  0  0  0  0  0
   50.2093   43.2584   -6.0677 O   0  0  0  0  0  0
   50.7107   43.3211   -1.0976 C   0  0  0  0  0  0
   48.0699   39.9198   -2.1374 C   0  0  0  0  0  0
   52.1098   45.2074   -1.7939 N   0  0  0  0  0  0
   47.2335   38.8939   -2.8885 C   0  0  0  0  0  0
   48.0228   39.9682   -0.9094 O   0  0  0  0  0  0
   52.8230   45.9828   -2.8256 C   0  0  0  0  0  0
   51.8583   45.9119   -0.5299 C   0  0  0  0  0  0
   45.7559   39.2823   -2.9696 C   0  0  0  0  0  0
   54.2541   46.3391   -2.4834 C   0  0  0  0  0  0
   55.2979   45.4455   -2.7352 C   0  0  0  0  0  0
   54.5692   47.6116   -1.9936 C   0  0  0  0  0  0
   56.6119   45.8495   -2.4996 C   0  0  0  0  0  0
   55.8368   48.0198   -1.7517 N   0  0  0  0  0  0
   56.8328   47.1407   -2.0141 C   0  0  0  0  0  0
   51.4557   44.1622   -4.2511 H   0  0  0  0  0  0
   49.6460   41.6083   -0.4842 H   0  0  0  0  0  0
   48.7165   40.5386   -3.9241 H   0  0  0  0  0  0
   49.8399   43.1144   -6.9390 H   0  0  0  0  0  0
   50.8677   43.6099   -0.0847 H   0  0  0  0  0  0
   47.3642   37.9255   -2.4098 H   0  0  0  0  0  0
   47.6253   38.8100   -3.8989 H   0  0  0  0  0  0
   52.8238   45.5399   -3.8175 H   0  0  0  0  0  0
   52.3026   46.9361   -2.8994 H   0  0  0  0  0  0
   52.0223   45.2759    0.3387 H   0  0  0  0  0  0
   52.4873   46.7937   -0.4093 H   0  0  0  0  0  0
   50.8221   46.2500   -0.4994 H   0  0  0  0  0  0
   45.2301   38.6130   -3.6520 H   0  0  0  0  0  0
   45.6274   40.2948   -3.3565 H   0  0  0  0  0  0
   45.2671   39.2102   -1.9967 H   0  0  0  0  0  0
   55.0946   44.4573   -3.1231 H   0  0  0  0  0  0
   53.8012   48.3459   -1.8116 H   0  0  0  0  0  0
   57.4394   45.1816   -2.6919 H   0  0  0  0  0  0
   57.8332   47.4965   -1.8250 H   0  0  0  0  0  0
  1  4  1  0  0  0
  1  3  2  0  0  0
  1  2  1  0  0  0
  2  6  1  0  0  0
  2  5  2  0  0  0
  3  7  1  0  0  0
  3 24  1  0  0  0
  4  8  2  0  0  0
  4  9  1  0  0  0
  5 10  1  0  0  0
  5 25  1  0  0  0
  6 11  1  0  0  0
  6 26  1  0  0  0
  7 12  1  0  0  0
  7 10  2  0  0  0
  9 27  1  0  0  0
 10 28  1  0  0  0
 11 13  1  0  0  0
 11 14  2  0  0  0
 12 16  1  0  0  0
 12 15  1  0  0  0
 13 17  1  0  0  0
 13 29  1  0  0  0
 13 30  1  0  0  0
 15 18  1  0  0  0
 15 31  1  0  0  0
 15 32  1  0  0  0
 16 33  1  0  0  0
 16 34  1  0  0  0
 16 35  1  0  0  0
 17 36  1  0  0  0
 17 37  1  0  0  0
 17 38  1  0  0  0
 18 19  2  0  0  0
 18 20  1  0  0  0
 19 21  1  0  0  0
 19 39  1  0  0  0
 20 22  2  0  0  0
 20 40  1  0  0  0
 21 23  2  0  0  0
 21 41  1  0  0  0
 22 23  1  0  0  0
 23 42  1  0  0  0
M  END
> <s_m_entry_id>
25911

> <s_m_entry_name>
dock_pv.563

> <s_m_Source_Path>
/home/csk/Desktop/cluster/DUD-E-result/pyrd

> <s_m_Source_File>
dock_pv.maegz

> <i_m_Source_File_Index>
563

> <chembl_id>
CHEMBL1084927

> <chembl_pref_name>
None

> <i_lp_mmshare_version>
53161

> <r_lp_tautomer_probability>
1

> <s_lp_Force_Field>
OPLS_2005

> <r_lp_Energy>
22.009172

> <b_lp_Chiralities_Consistent>
1

> <s_lp_Variant>
CHEMBL1966_lig124-1

> <s_i_glide_gridfile>
glide-grid_1d3g

> <i_i_glide_lignum>
147

> <i_i_glide_rotatable_bonds>
8

> <r_i_docking_score>
-7.62282170034831

> <r_i_glide_ligand_efficiency>
-0.331427030449927

> <r_i_glide_ligand_efficiency_sa>
-0.942534387141702

> <r_i_glide_ligand_efficiency_ln>
-1.8432674070699

> <r_i_glide_gscore>
-7.62282170034831

> <r_i_glide_lipo>
-4.33909909018079

> <r_i_glide_hbond>
0

> <r_i_glide_metal>
0

> <r_i_glide_rewards>
-2.43797548191171

> <r_i_glide_evdw>
-36.7353782653809

> <r_i_glide_ecoul>
-0.959353864192963

> <r_i_glide_erotb>
1.13492486464218

> <r_i_glide_esite>
0

> <r_i_glide_emodel>
-52.1946980427788

> <r_i_glide_energy>
-37.6947321295738

> <r_i_glide_einternal>
5.57930517196655

> <i_i_glide_confnum>
58

> <i_i_glide_posenum>
173

> <r_i_glide_eff_state_penalty>
0

> <s_user_duplicate_titles>
CHEMBL1966_lig124

> <i_f3d_flags>
0

> <s_m_subgroup_title>
dock_pv

> <s_m_subgroupid>
dock_pv

> <b_m_subgroup_collapsed>
1

$$$$
CHEMBL1966_lig126
                    3D
 Schrodinger Suite 2021-1.
 35 35  0  0  1  0            999 V2000
   55.2063   46.0102    0.3008 O   0  0  0  0  0  0
   55.0598   46.4208   -1.0998 S   0  0  0  0  0  0
   55.6181   45.6096   -2.1878 O   0  0  0  0  0  0
   52.6309   45.6255   -1.7398 C   0  0  0  0  0  0
   52.8355   44.9789   -2.9595 C   0  0  0  0  0  0
   52.0229   43.9147   -3.3403 C   0  0  0  0  0  0
   50.9831   43.4918   -2.5114 C   0  0  0  0  0  0
   50.7489   44.1612   -1.2989 C   0  0  0  0  0  0
   51.5728   45.2269   -0.9198 C   0  0  0  0  0  0
   53.4236   46.6877   -1.3740 O   0  0  0  0  0  0
   50.2155   42.4122   -2.9895 N   0  0  0  0  0  0
   49.6017   41.4417   -2.2782 C   0  0  0  0  0  0
   48.9155   40.3065   -3.0878 C   0  0  1  0  0  0
   49.6236   41.4034   -1.0476 O   0  0  0  0  0  0
   47.6496   39.6115   -2.4990 C   0  0  0  0  0  0
   47.6232   39.1320   -1.0369 C   0  0  0  0  0  0
   46.6603   39.4049   -3.2040 O   0  0  0  0  0  0
   48.6983   40.5992   -4.5214 C   0  0  0  0  0  0
   48.5312   40.8252   -5.6470 N   0  0  0  0  0  0
   47.4672   37.6103   -0.9004 C   0  0  0  0  0  0
   55.7125   48.1921   -1.3037 C   0  0  0  0  0  0
   56.9889   48.1230   -1.6868 F   0  0  0  0  0  0
   54.9773   48.8114   -2.2286 F   0  0  0  0  0  0
   55.6229   48.8098   -0.1286 F   0  0  0  0  0  0
   53.6215   45.3092   -3.6227 H   0  0  0  0  0  0
   52.2121   43.4164   -4.2797 H   0  0  0  0  0  0
   49.9351   43.8725   -0.6507 H   0  0  0  0  0  0
   51.3979   45.7401    0.0130 H   0  0  0  0  0  0
   50.2160   42.3092   -3.9930 H   0  0  0  0  0  0
   46.8173   39.6405   -0.5084 H   0  0  0  0  0  0
   48.5379   39.4163   -0.5259 H   0  0  0  0  0  0
   49.6843   39.5443   -3.1205 H   0  0  0  0  0  0
   47.6214   37.3010    0.1335 H   0  0  0  0  0  0
   48.1998   37.0718   -1.5044 H   0  0  0  0  0  0
   46.4741   37.2825   -1.2105 H   0  0  0  0  0  0
  1  2  2  0  0  0
  2  3  2  0  0  0
  2 10  1  0  0  0
  2 21  1  0  0  0
  4  5  2  0  0  0
  4  9  1  0  0  0
  4 10  1  0  0  0
  5  6  1  0  0  0
  5 25  1  0  0  0
  6  7  2  0  0  0
  6 26  1  0  0  0
  7  8  1  0  0  0
  7 11  1  0  0  0
  8  9  2  0  0  0
  8 27  1  0  0  0
  9 28  1  0  0  0
 11 12  1  0  0  0
 11 29  1  0  0  0
 12 14  2  0  0  0
 12 13  1  0  0  0
 13 18  1  0  0  0
 13 32  1  0  0  0
 13 15  1  0  0  0
 15 17  2  0  0  0
 15 16  1  0  0  0
 16 20  1  0  0  0
 16 30  1  0  0  0
 16 31  1  0  0  0
 18 19  3  0  0  0
 20 33  1  0  0  0
 20 34  1  0  0  0
 20 35  1  0  0  0
 21 22  1  0  0  0
 21 23  1  0  0  0
 21 24  1  0  0  0
M  END
> <s_m_entry_id>
25912

> <s_m_entry_name>
dock_pv.564

> <s_m_Source_Path>
/home/csk/Desktop/cluster/DUD-E-result/pyrd

> <s_m_Source_File>
dock_pv.maegz

> <i_m_Source_File_Index>
564

> <chembl_id>
CHEMBL1929432

> <chembl_pref_name>
None

> <i_lp_mmshare_version>
53161

> <r_lp_tautomer_probability>
0.995394627300976

> <s_lp_Force_Field>
OPLS_2005

> <r_lp_Energy>
14.089532

> <b_lp_Chiralities_Consistent>
1

> <s_lp_Variant>
CHEMBL1966_lig126-1

> <s_i_glide_gridfile>
glide-grid_1d3g

> <i_i_glide_lignum>
149

> <i_i_glide_rotatable_bonds>
8

> <r_i_docking_score>
-7.62112185750285

> <r_i_glide_ligand_efficiency>
-0.317546744062619

> <r_i_glide_ligand_efficiency_sa>
-0.91596330938333

> <r_i_glide_ligand_efficiency_ln>
-1.82408417099503

> <r_i_glide_gscore>
-7.62112185750285

> <r_i_glide_lipo>
-2.83647702237223

> <r_i_glide_hbond>
-0.0645970155776029

> <r_i_glide_metal>
0

> <r_i_glide_rewards>
-2.89771046492225

> <r_i_glide_evdw>
-42.6119232177734

> <r_i_glide_ecoul>
-3.7388596534729

> <r_i_glide_erotb>
0.869087754278834

> <r_i_glide_esite>
0

> <r_i_glide_emodel>
-62.5897867276478

> <r_i_glide_energy>
-46.3507828712463

> <r_i_glide_einternal>
9.28317737579346

> <i_i_glide_confnum>
85

> <i_i_glide_posenum>
79

> <r_i_glide_eff_state_penalty>
0

> <s_user_duplicate_titles>
CHEMBL1966_lig126

> <i_f3d_flags>
0

> <s_m_subgroup_title>
dock_pv

> <s_m_subgroupid>
dock_pv

> <b_m_subgroup_collapsed>
1

$$$$
CHEMBL1966_lig50
                    3D
 Schrodinger Suite 2021-1.
 37 38  0  0  1  0            999 V2000
   48.7403   40.8200   -3.5010 C   0  0  0  0  0  0
   49.6773   41.6720   -2.9479 C   0  0  0  0  0  0
   49.6747   41.3731   -1.6170 N   0  0  0  0  0  0
   48.8230   40.4100   -1.2874 N   0  0  0  0  0  0
   48.2578   40.0483   -2.4228 C   0  0  0  0  0  0
   48.3386   40.8069   -4.8962 C   0  0  0  0  0  0
   50.5203   42.5890   -3.5190 N   0  0  0  0  0  0
   48.0230   40.8100   -6.0067 N   0  0  0  0  0  0
   53.8134   46.6247   -1.0764 C   0  0  0  0  0  0
   52.8500   45.6100   -1.7387 C   0  0  0  0  0  0
   51.2457   43.6100   -2.8990 C   0  0  0  0  0  0
   51.6230   45.2372   -1.1550 C   0  0  0  0  0  0
   53.2199   45.0055   -2.9480 C   0  0  0  0  0  0
   50.8342   44.2364   -1.7175 C   0  0  0  0  0  0
   52.4230   44.0151   -3.5221 C   0  0  0  0  0  0
   47.2097   38.9576   -2.4040 C   0  0  0  0  0  0
   54.0066   47.8391   -2.0241 C   0  0  0  0  0  0
   55.2082   46.0100   -0.8198 C   0  0  0  0  0  0
   53.3258   47.0406    0.3352 C   0  0  0  0  0  0
   50.2729   41.8184   -0.9376 H   0  0  0  0  0  0
   50.7167   42.5218   -4.5063 H   0  0  0  0  0  0
   51.2659   45.6906   -0.2437 H   0  0  0  0  0  0
   54.1428   45.2779   -3.4380 H   0  0  0  0  0  0
   49.9015   43.9751   -1.2417 H   0  0  0  0  0  0
   52.7460   43.5389   -4.4359 H   0  0  0  0  0  0
   47.6358   38.0002   -2.1039 H   0  0  0  0  0  0
   46.4045   39.1847   -1.7048 H   0  0  0  0  0  0
   46.7468   38.8100   -3.3784 H   0  0  0  0  0  0
   54.4466   48.6936   -1.5114 H   0  0  0  0  0  0
   53.0770   48.1592   -2.4990 H   0  0  0  0  0  0
   54.6787   47.5943   -2.8478 H   0  0  0  0  0  0
   55.1507   45.2597   -0.0304 H   0  0  0  0  0  0
   55.6458   45.5579   -1.7093 H   0  0  0  0  0  0
   55.9191   46.7623   -0.4733 H   0  0  0  0  0  0
   53.1422   46.1687    0.9656 H   0  0  0  0  0  0
   54.0834   47.6100    0.8692 H   0  0  0  0  0  0
   52.3999   47.6100    0.3126 H   0  0  0  0  0  0
  1  2  2  0  0  0
  1  5  1  0  0  0
  1  6  1  0  0  0
  2  3  1  0  0  0
  2  7  1  0  0  0
  3  4  1  0  0  0
  3 20  1  0  0  0
  4  5  2  0  0  0
  5 16  1  0  0  0
  6  8  3  0  0  0
  7 11  1  0  0  0
  7 21  1  0  0  0
  9 10  1  0  0  0
  9 17  1  0  0  0
  9 18  1  0  0  0
  9 19  1  0  0  0
 10 13  2  0  0  0
 10 12  1  0  0  0
 11 14  1  0  0  0
 11 15  2  0  0  0
 12 14  2  0  0  0
 12 22  1  0  0  0
 13 15  1  0  0  0
 13 23  1  0  0  0
 14 24  1  0  0  0
 15 25  1  0  0  0
 16 26  1  0  0  0
 16 27  1  0  0  0
 16 28  1  0  0  0
 17 29  1  0  0  0
 17 30  1  0  0  0
 17 31  1  0  0  0
 18 32  1  0  0  0
 18 33  1  0  0  0
 18 34  1  0  0  0
 19 35  1  0  0  0
 19 36  1  0  0  0
 19 37  1  0  0  0
M  END
> <s_m_entry_id>
25913

> <s_m_entry_name>
dock_pv.565

> <s_m_Source_Path>
/home/csk/Desktop/cluster/DUD-E-result/pyrd

> <s_m_Source_File>
dock_pv.maegz

> <i_m_Source_File_Index>
565

> <chembl_id>
CHEMBL120640

> <chembl_pref_name>
None

> <i_lp_mmshare_version>
53161

> <r_lp_tautomer_probability>
1

> <s_lp_Force_Field>
OPLS_2005

> <r_lp_Energy>
14.421796

> <b_lp_Chiralities_Consistent>
1

> <s_lp_Variant>
CHEMBL1966_lig50-1

> <s_i_glide_gridfile>
glide-grid_1d3g

> <i_i_glide_lignum>
55

> <i_i_glide_rotatable_bonds>
3

> <r_i_docking_score>
-7.62070528166686

> <r_i_glide_ligand_efficiency>
-0.401089751666677

> <r_i_glide_ligand_efficiency_sa>
-1.07026855358239

> <r_i_glide_ligand_efficiency_ln>
-1.93201246664419

> <r_i_glide_gscore>
-7.62070528166686

> <r_i_glide_lipo>
-3.93909445224937

> <r_i_glide_hbond>
-0.207598966009243

> <r_i_glide_metal>
0

> <r_i_glide_rewards>
-2.32190160769624

> <r_i_glide_evdw>
-28.9173583984375

> <r_i_glide_ecoul>
-1.66653752326965

> <r_i_glide_erotb>
0.543738292700314

> <r_i_glide_esite>
0

> <r_i_glide_emodel>
-36.2962760449312

> <r_i_glide_energy>
-30.5838959217072

> <r_i_glide_einternal>
5.33543539047241

> <i_i_glide_confnum>
6

> <i_i_glide_posenum>
236

> <r_i_glide_eff_state_penalty>
0

> <s_user_duplicate_titles>
CHEMBL1966_lig50

> <i_f3d_flags>
0

> <s_m_subgroup_title>
dock_pv

> <s_m_subgroupid>
dock_pv

> <b_m_subgroup_collapsed>
1

$$$$
CHEMBL1966_lig116
                    3D
 Schrodinger Suite 2021-1.
 39 40  0  0  1  0            999 V2000
   48.1450   41.9140   -5.1247 C   0  0  0  0  0  0
   48.6096   40.6805   -4.5903 O   0  0  0  0  0  0
   48.1748   40.3021   -3.3346 C   0  0  0  0  0  0
   47.0908   39.4256   -3.2990 C   0  0  0  0  0  0
   46.6971   38.8100   -2.1167 C   0  0  0  0  0  0
   47.3836   39.0834   -0.9422 C   0  0  0  0  0  0
   48.4230   40.0100   -0.9460 C   0  0  0  0  0  0
   48.8230   40.6701   -2.1262 C   0  0  0  0  0  0
   49.8067   41.7995   -2.0621 C   0  0  0  0  0  0
   50.6735   42.0278   -3.1187 C   0  0  0  0  0  0
   51.4821   43.1487   -3.1719 C   0  0  0  0  0  0
   52.5617   43.2100   -4.4990 Cl  0  0  0  0  0  0
   49.8458   42.7166   -0.9962 C   0  0  0  0  0  0
   50.6312   43.8712   -1.0441 C   0  0  0  0  0  0
   51.4703   44.1031   -2.1431 C   0  0  0  0  0  0
   52.4230   45.1471   -2.2268 N   0  0  0  0  0  0
   52.8700   46.0100   -1.2912 C   0  0  0  0  0  0
   52.3907   46.1086   -0.1625 O   0  0  0  0  0  0
   54.0664   46.9147   -1.6632 C   0  0  1  0  0  0
   55.0257   47.0832   -0.5624 C   0  0  0  0  0  0
   55.7834   47.2100    0.3010 N   0  0  0  0  0  0
   54.8634   46.5497   -2.9290 C   0  0  0  0  0  0
   55.0035   47.6100   -4.0141 C   0  0  0  0  0  0
   55.3680   45.4369   -3.0726 O   0  0  0  0  0  0
   48.6207   42.0749   -6.0917 H   0  0  0  0  0  0
   47.0675   41.9102   -5.2990 H   0  0  0  0  0  0
   48.4230   42.7631   -4.4990 H   0  0  0  0  0  0
   46.5685   39.2100   -4.2170 H   0  0  0  0  0  0
   45.8745   38.1112   -2.1139 H   0  0  0  0  0  0
   47.0924   38.5964   -0.0254 H   0  0  0  0  0  0
   48.9082   40.2358   -0.0079 H   0  0  0  0  0  0
   50.7420   41.3134   -3.9219 H   0  0  0  0  0  0
   49.2230   42.5722   -0.1275 H   0  0  0  0  0  0
   50.5906   44.5487   -0.2056 H   0  0  0  0  0  0
   52.9202   45.1542   -3.1059 H   0  0  0  0  0  0
   54.0230   47.9132   -4.3812 H   0  0  0  0  0  0
   55.5724   47.2100   -4.8541 H   0  0  0  0  0  0
   55.5316   48.4823   -3.6296 H   0  0  0  0  0  0
   53.6428   47.9059   -1.8191 H   0  0  0  0  0  0
  1  2  1  0  0  0
  1 25  1  0  0  0
  1 26  1  0  0  0
  1 27  1  0  0  0
  2  3  1  0  0  0
  3  4  2  0  0  0
  3  8  1  0  0  0
  4  5  1  0  0  0
  4 28  1  0  0  0
  5  6  2  0  0  0
  5 29  1  0  0  0
  6  7  1  0  0  0
  6 30  1  0  0  0
  7  8  2  0  0  0
  7 31  1  0  0  0
  8  9  1  0  0  0
  9 10  2  0  0  0
  9 13  1  0  0  0
 10 11  1  0  0  0
 10 32  1  0  0  0
 11 12  1  0  0  0
 11 15  2  0  0  0
 13 14  2  0  0  0
 13 33  1  0  0  0
 14 15  1  0  0  0
 14 34  1  0  0  0
 15 16  1  0  0  0
 16 17  1  0  0  0
 16 35  1  0  0  0
 17 18  2  0  0  0
 17 19  1  0  0  0
 19 20  1  0  0  0
 19 39  1  0  0  0
 19 22  1  0  0  0
 20 21  3  0  0  0
 22 24  2  0  0  0
 22 23  1  0  0  0
 23 36  1  0  0  0
 23 37  1  0  0  0
 23 38  1  0  0  0
M  END
> <s_m_entry_id>
25914

> <s_m_entry_name>
dock_pv.566

> <s_m_Source_Path>
/home/csk/Desktop/cluster/DUD-E-result/pyrd

> <s_m_Source_File>
dock_pv.maegz

> <i_m_Source_File_Index>
566

> <chembl_id>
CHEMBL483161

> <chembl_pref_name>
None

> <i_lp_mmshare_version>
53161

> <r_lp_tautomer_probability>
0.995394628248396

> <s_lp_Force_Field>
OPLS_2005

> <r_lp_Energy>
27.11284

> <b_lp_Chiralities_Consistent>
1

> <s_lp_Variant>
CHEMBL1966_lig116-2

> <s_i_glide_gridfile>
glide-grid_1d3g

> <i_i_glide_lignum>
134

> <i_i_glide_rotatable_bonds>
6

> <r_i_docking_score>
-7.61843577993485

> <r_i_glide_ligand_efficiency>
-0.317434824163952

> <r_i_glide_ligand_efficiency_sa>
-0.91564047653215

> <r_i_glide_ligand_efficiency_ln>
-1.82344126937694

> <r_i_glide_gscore>
-7.61843577993485

> <r_i_glide_lipo>
-4.2201245544586

> <r_i_glide_hbond>
0

> <r_i_glide_metal>
0

> <r_i_glide_rewards>
-2.41859649582924

> <r_i_glide_evdw>
-32.3167953491211

> <r_i_glide_ecoul>
-0.0638411119580269

> <r_i_glide_erotb>
0.645701204602751

> <r_i_glide_esite>
0

> <r_i_glide_emodel>
-38.1721125162334

> <r_i_glide_energy>
-32.3806364610791

> <r_i_glide_einternal>
9.98131275177002

> <i_i_glide_confnum>
7

> <i_i_glide_posenum>
18

> <r_i_glide_eff_state_penalty>
0

> <s_user_duplicate_titles>
CHEMBL1966_lig116

> <i_f3d_flags>
0

> <s_m_subgroup_title>
dock_pv

> <s_m_subgroupid>
dock_pv

> <b_m_subgroup_collapsed>
1

$$$$
CHEMBL1966_lig268
                    3D
 Schrodinger Suite 2021-1.
 34 35  0  0  1  0            999 V2000
   55.0674   47.1415   -0.8329 C   0  0  0  0  0  0
   56.2501   47.3951   -1.7673 C   0  0  0  0  0  0
   53.9324   45.6102   -2.8776 S   0  0  0  0  0  0
   52.4252   44.8534   -2.4990 C   0  0  0  0  0  0
   51.9143   45.2100   -1.3441 N   0  0  0  0  0  0
   52.7178   46.0102   -0.6594 C   0  0  0  0  0  0
   53.9252   46.3500   -1.2969 C   0  0  0  0  0  0
   52.2215   46.3964    0.7211 C   0  0  0  0  0  0
   51.9080   43.9901   -3.4318 N   0  0  0  0  0  0
   50.8656   43.0648   -3.2846 C   0  0  0  0  0  0
   50.1373   42.7145   -4.4205 C   0  0  0  0  0  0
   49.1609   41.7167   -4.3691 C   0  0  0  0  0  0
   48.9011   41.0609   -3.1529 C   0  0  0  0  0  0
   49.6231   41.4235   -2.0125 C   0  0  0  0  0  0
   50.5927   42.4219   -2.0742 C   0  0  0  0  0  0
   55.1227   47.6077    0.3010 O   0  0  0  0  0  0
   48.4126   41.3783   -5.6484 C   0  0  0  0  0  0
   47.8188   39.9973   -3.0304 C   0  0  0  0  0  0
   56.7165   46.4527   -2.0532 H   0  0  0  0  0  0
   57.0014   48.0155   -1.2771 H   0  0  0  0  0  0
   55.9170   47.9064   -2.6699 H   0  0  0  0  0  0
   53.0360   46.6101    1.4120 H   0  0  0  0  0  0
   51.5957   47.2870    0.6894 H   0  0  0  0  0  0
   51.6302   45.6069    1.1874 H   0  0  0  0  0  0
   52.1323   44.1524   -4.4014 H   0  0  0  0  0  0
   50.3392   43.2098   -5.3596 H   0  0  0  0  0  0
   49.4352   40.9316   -1.0690 H   0  0  0  0  0  0
   51.1565   42.6620   -1.1856 H   0  0  0  0  0  0
   48.0417   40.3549   -5.6597 H   0  0  0  0  0  0
   47.5783   42.0667   -5.7891 H   0  0  0  0  0  0
   49.0873   41.4702   -6.4989 H   0  0  0  0  0  0
   46.8502   40.4098   -3.3138 H   0  0  0  0  0  0
   48.0232   39.1637   -3.6987 H   0  0  0  0  0  0
   47.7359   39.6032   -2.0167 H   0  0  0  0  0  0
  1  2  1  0  0  0
  1  7  1  0  0  0
  1 16  2  0  0  0
  2 19  1  0  0  0
  2 20  1  0  0  0
  2 21  1  0  0  0
  3  4  1  0  0  0
  3  7  1  0  0  0
  4  5  2  0  0  0
  4  9  1  0  0  0
  5  6  1  0  0  0
  6  7  2  0  0  0
  6  8  1  0  0  0
  8 22  1  0  0  0
  8 23  1  0  0  0
  8 24  1  0  0  0
  9 10  1  0  0  0
  9 25  1  0  0  0
 10 11  1  0  0  0
 10 15  2  0  0  0
 11 12  2  0  0  0
 11 26  1  0  0  0
 12 13  1  0  0  0
 12 17  1  0  0  0
 13 14  2  0  0  0
 13 18  1  0  0  0
 14 15  1  0  0  0
 14 27  1  0  0  0
 15 28  1  0  0  0
 17 29  1  0  0  0
 17 30  1  0  0  0
 17 31  1  0  0  0
 18 32  1  0  0  0
 18 33  1  0  0  0
 18 34  1  0  0  0
M  END
> <s_m_entry_id>
25915

> <s_m_entry_name>
dock_pv.567

> <s_m_Source_Path>
/home/csk/Desktop/cluster/DUD-E-result/pyrd

> <s_m_Source_File>
dock_pv.maegz

> <i_m_Source_File_Index>
567

> <chembl_id>
CHEMBL3410572

> <chembl_pref_name>
None

> <i_lp_mmshare_version>
53161

> <r_lp_tautomer_probability>
0.99995

> <s_lp_Force_Field>
OPLS_2005

> <r_lp_Energy>
7.094068

> <b_lp_Chiralities_Consistent>
1

> <s_lp_Variant>
CHEMBL1966_lig268-1

> <s_i_glide_gridfile>
glide-grid_1d3g

> <i_i_glide_lignum>
314

> <i_i_glide_rotatable_bonds>
3

> <r_i_docking_score>
-7.6025221755804

> <r_i_glide_ligand_efficiency>
-0.4223623430878

> <r_i_glide_ligand_efficiency_sa>
-1.1069024748188

> <r_i_glide_ligand_efficiency_ln>
-1.95418912348153

> <r_i_glide_gscore>
-7.6025221755804

> <r_i_glide_lipo>
-4.01077297682803

> <r_i_glide_hbond>
0

> <r_i_glide_metal>
0

> <r_i_glide_rewards>
-2.39227215151515

> <r_i_glide_evdw>
-34.1411170959473

> <r_i_glide_ecoul>
-0.0979628190398216

> <r_i_glide_erotb>
0.52227323041612

> <r_i_glide_esite>
0

> <r_i_glide_emodel>
-46.1629711256232

> <r_i_glide_energy>
-34.2390799149871

> <r_i_glide_einternal>
3.89309144020081

> <i_i_glide_confnum>
4

> <i_i_glide_posenum>
392

> <r_i_glide_eff_state_penalty>
0

> <s_user_duplicate_titles>
CHEMBL1966_lig268

> <i_f3d_flags>
0

> <s_m_subgroup_title>
dock_pv

> <s_m_subgroupid>
dock_pv

> <b_m_subgroup_collapsed>
1

$$$$
CHEMBL1966_lig260
                    3D
 Schrodinger Suite 2021-1.
 35 36  0  0  1  0            999 V2000
   55.1203   47.1990   -0.8534 C   0  0  0  0  0  0
   56.0344   47.4511   -1.8277 O   0  0  0  0  0  0
   54.0252   45.6126   -2.8989 S   0  0  0  0  0  0
   52.5197   44.8547   -2.5236 C   0  0  0  0  0  0
   52.0036   45.2101   -1.3726 N   0  0  0  0  0  0
   52.8007   46.0113   -0.6850 C   0  0  0  0  0  0
   54.0026   46.3718   -1.3230 C   0  0  0  0  0  0
   52.2847   46.4038    0.6869 C   0  0  0  0  0  0
   51.9889   44.0095   -3.4692 N   0  0  0  0  0  0
   50.9119   43.1174   -3.3547 C   0  0  0  0  0  0
   50.1972   42.7971   -4.5111 C   0  0  0  0  0  0
   49.2235   41.7974   -4.4912 C   0  0  0  0  0  0
   48.9408   41.1193   -3.3005 C   0  0  0  0  0  0
   49.6229   41.4680   -2.1319 C   0  0  0  0  0  0
   50.5987   42.4647   -2.1573 C   0  0  0  0  0  0
   55.2118   47.6097    0.3019 O   0  0  0  0  0  0
   57.1843   48.2558   -1.5786 C   0  0  0  0  0  0
   56.8585   49.7548   -1.6595 C   0  0  0  0  0  0
   48.5806   41.4683   -5.6372 F   0  0  0  0  0  0
   47.9090   40.0038   -3.2725 C   0  0  0  0  0  0
   51.5523   47.2074    0.6226 H   0  0  0  0  0  0
   51.8010   45.5709    1.2000 H   0  0  0  0  0  0
   53.0732   46.7508    1.3540 H   0  0  0  0  0  0
   52.2417   44.1665   -4.4325 H   0  0  0  0  0  0
   50.4166   43.2898   -5.4466 H   0  0  0  0  0  0
   49.4153   40.9527   -1.2050 H   0  0  0  0  0  0
   51.1471   42.6855   -1.2543 H   0  0  0  0  0  0
   57.9340   48.0104   -2.3312 H   0  0  0  0  0  0
   57.6226   48.0106   -0.6102 H   0  0  0  0  0  0
   57.7556   50.3531   -1.5017 H   0  0  0  0  0  0
   56.1331   50.0429   -0.8999 H   0  0  0  0  0  0
   56.4469   50.0172   -2.6347 H   0  0  0  0  0  0
   48.0283   39.3543   -4.1399 H   0  0  0  0  0  0
   48.0193   39.3704   -2.3911 H   0  0  0  0  0  0
   46.8971   40.4095   -3.2987 H   0  0  0  0  0  0
  1  2  1  0  0  0
  1  7  1  0  0  0
  1 16  2  0  0  0
  2 17  1  0  0  0
  3  4  1  0  0  0
  3  7  1  0  0  0
  4  5  2  0  0  0
  4  9  1  0  0  0
  5  6  1  0  0  0
  6  7  2  0  0  0
  6  8  1  0  0  0
  8 21  1  0  0  0
  8 22  1  0  0  0
  8 23  1  0  0  0
  9 10  1  0  0  0
  9 24  1  0  0  0
 10 11  2  0  0  0
 10 15  1  0  0  0
 11 12  1  0  0  0
 11 25  1  0  0  0
 12 13  2  0  0  0
 12 19  1  0  0  0
 13 14  1  0  0  0
 13 20  1  0  0  0
 14 15  2  0  0  0
 14 26  1  0  0  0
 15 27  1  0  0  0
 17 18  1  0  0  0
 17 28  1  0  0  0
 17 29  1  0  0  0
 18 30  1  0  0  0
 18 31  1  0  0  0
 18 32  1  0  0  0
 20 33  1  0  0  0
 20 34  1  0  0  0
 20 35  1  0  0  0
M  END
> <s_m_entry_id>
25916

> <s_m_entry_name>
dock_pv.568

> <s_m_Source_Path>
/home/csk/Desktop/cluster/DUD-E-result/pyrd

> <s_m_Source_File>
dock_pv.maegz

> <i_m_Source_File_Index>
568

> <chembl_id>
CHEMBL3410579

> <chembl_pref_name>
None

> <i_lp_mmshare_version>
53161

> <r_lp_tautomer_probability>
1

> <s_lp_Force_Field>
OPLS_2005

> <r_lp_Energy>
7.583864

> <b_lp_Chiralities_Consistent>
1

> <s_lp_Variant>
CHEMBL1966_lig260-1

> <s_i_glide_gridfile>
glide-grid_1d3g

> <i_i_glide_lignum>
306

> <i_i_glide_rotatable_bonds>
5

> <r_i_docking_score>
-7.58588269553051

> <r_i_glide_ligand_efficiency>
-0.379294134776526

> <r_i_glide_ligand_efficiency_sa>
-1.02956268028043

> <r_i_glide_ligand_efficiency_ln>
-1.89849623953491

> <r_i_glide_gscore>
-7.58588269553051

> <r_i_glide_lipo>
-4.20436325781985

> <r_i_glide_hbond>
0

> <r_i_glide_metal>
0

> <r_i_glide_rewards>
-2.24633927263407

> <r_i_glide_evdw>
-37.4281196594238

> <r_i_glide_ecoul>
-0.720429599285126

> <r_i_glide_erotb>
0.844290257787375

> <r_i_glide_esite>
0

> <r_i_glide_emodel>
-52.8088300696534

> <r_i_glide_energy>
-38.148549258709

> <r_i_glide_einternal>
3.74364852905273

> <i_i_glide_confnum>
1

> <i_i_glide_posenum>
28

> <r_i_glide_eff_state_penalty>
0

> <s_user_duplicate_titles>
CHEMBL1966_lig260

> <i_f3d_flags>
0

> <s_m_subgroup_title>
dock_pv

> <s_m_subgroupid>
dock_pv

> <b_m_subgroup_collapsed>
1

$$$$
CHEMBL1966_lig122
                    3D
 Schrodinger Suite 2021-1.
 31 32  0  0  1  0            999 V2000
   52.2201   45.3396   -1.2990 C   0  0  0  0  0  0
   53.4646   45.9292   -1.6427 C   0  0  0  0  0  0
   51.6230   44.4100   -2.1875 N   0  0  0  0  0  0
   51.6834   45.6100   -0.0257 C   0  0  0  0  0  0
   54.1729   46.6636   -0.6835 C   0  0  0  0  0  0
   54.1125   45.7598   -2.9863 C   0  0  0  0  0  0
   50.7120   43.4531   -1.9536 C   0  0  0  0  0  0
   52.4160   46.3226    0.9213 C   0  0  0  0  0  0
   53.6755   46.8100    0.6049 C   0  0  0  0  0  0
   54.4230   46.7156   -3.6923 O   0  0  0  0  0  0
   54.3731   44.4615   -3.2990 O   0  0  0  0  0  0
   50.5378   42.7142   -3.0626 N   0  0  0  0  0  0
   50.1242   43.2676   -0.8894 O   0  0  0  0  0  0
   49.5999   41.6927   -3.2281 C   0  0  0  0  0  0
   49.2230   40.8100   -2.2031 C   0  0  0  0  0  0
   48.9687   41.6229   -4.4689 C   0  0  0  0  0  0
   48.1580   39.9301   -2.3983 C   0  0  0  0  0  0
   47.9042   40.7470   -4.6492 C   0  0  0  0  0  0
   47.4967   39.9009   -3.6216 C   0  0  0  0  0  0
   47.6230   38.9097   -1.1119 Cl  0  0  0  0  0  0
   47.0005   40.8100   -6.0990 Cl  0  0  0  0  0  0
   52.0251   44.4139   -3.1114 H   0  0  0  0  0  0
   50.7317   45.2100    0.2830 H   0  0  0  0  0  0
   55.1373   47.0958   -0.9170 H   0  0  0  0  0  0
   52.0230   46.4756    1.9134 H   0  0  0  0  0  0
   54.2503   47.3420    1.3495 H   0  0  0  0  0  0
   54.1581   43.8812   -2.5672 H   0  0  0  0  0  0
   50.9880   43.0290   -3.9073 H   0  0  0  0  0  0
   49.7070   40.8377   -1.2382 H   0  0  0  0  0  0
   49.2320   42.3101   -5.2611 H   0  0  0  0  0  0
   46.6511   39.2431   -3.7594 H   0  0  0  0  0  0
  1  2  2  0  0  0
  1  3  1  0  0  0
  1  4  1  0  0  0
  2  6  1  0  0  0
  2  5  1  0  0  0
  3  7  1  0  0  0
  3 22  1  0  0  0
  4  8  2  0  0  0
  4 23  1  0  0  0
  5  9  2  0  0  0
  5 24  1  0  0  0
  6 10  2  0  0  0
  6 11  1  0  0  0
  7 12  1  0  0  0
  7 13  2  0  0  0
  8  9  1  0  0  0
  8 25  1  0  0  0
  9 26  1  0  0  0
 11 27  1  0  0  0
 12 14  1  0  0  0
 12 28  1  0  0  0
 14 15  2  0  0  0
 14 16  1  0  0  0
 15 17  1  0  0  0
 15 29  1  0  0  0
 16 18  2  0  0  0
 16 30  1  0  0  0
 17 20  1  0  0  0
 17 19  2  0  0  0
 18 19  1  0  0  0
 18 21  1  0  0  0
 19 31  1  0  0  0
M  END
> <s_m_entry_id>
25917

> <s_m_entry_name>
dock_pv.569

> <s_m_Source_Path>
/home/csk/Desktop/cluster/DUD-E-result/pyrd

> <s_m_Source_File>
dock_pv.maegz

> <i_m_Source_File_Index>
569

> <chembl_id>
CHEMBL1088742

> <chembl_pref_name>
None

> <i_lp_mmshare_version>
53161

> <r_lp_tautomer_probability>
1

> <s_lp_Force_Field>
OPLS_2005

> <r_lp_Energy>
26.769273

> <b_lp_Chiralities_Consistent>
1

> <s_lp_Variant>
CHEMBL1966_lig122-1

> <s_i_glide_gridfile>
glide-grid_1d3g

> <i_i_glide_lignum>
145

> <i_i_glide_rotatable_bonds>
6

> <r_i_docking_score>
-7.57149065468764

> <r_i_glide_ligand_efficiency>
-0.360547174032745

> <r_i_glide_ligand_efficiency_sa>
-0.994722314155346

> <r_i_glide_ligand_efficiency_ln>
-1.87203576473406

> <r_i_glide_gscore>
-7.57149065468764

> <r_i_glide_lipo>
-3.77058639172479

> <r_i_glide_hbond>
0

> <r_i_glide_metal>
0

> <r_i_glide_rewards>
-2.39880944817879

> <r_i_glide_evdw>
-37.52490234375

> <r_i_glide_ecoul>
-1.56526041030884

> <r_i_glide_erotb>
0.708939363949762

> <r_i_glide_esite>
0

> <r_i_glide_emodel>
-49.5122346972202

> <r_i_glide_energy>
-39.0901627540588

> <r_i_glide_einternal>
10.7478637695312

> <i_i_glide_confnum>
35

> <i_i_glide_posenum>
273

> <r_i_glide_eff_state_penalty>
0

> <s_user_duplicate_titles>
CHEMBL1966_lig122,616096

> <i_f3d_flags>
0

> <s_m_subgroup_title>
dock_pv

> <s_m_subgroupid>
dock_pv

> <b_m_subgroup_collapsed>
1

$$$$
CHEMBL1966_lig54
                    3D
 Schrodinger Suite 2021-1.
 38 40  0  0  1  0            999 V2000
   48.8229   40.8712   -2.6339 C   0  0  0  0  0  0
   47.8689   40.2181   -3.3733 C   0  0  0  0  0  0
   49.7158   41.9413   -3.0889 C   0  0  0  0  0  0
   47.5390   40.4100   -4.7774 C   0  0  0  0  0  0
   50.1476   42.7760   -2.1161 N   0  0  0  0  0  0
   47.6230   39.1592   -0.8991 S   0  0  0  0  0  0
   50.0232   42.0858   -4.2683 O   0  0  0  0  0  0
   53.0415   45.8282   -2.0356 C   0  0  0  0  0  0
   48.8691   40.4102   -1.1675 C   0  0  0  0  0  0
   48.3507   40.4108   -5.6990 O   0  0  0  0  0  0
   47.0672   39.1753   -2.5950 C   0  0  0  0  0  0
   51.0626   43.8445   -2.2051 C   0  0  0  0  0  0
   54.1731   46.7825   -1.9008 C   0  0  0  0  0  0
   52.0418   45.7388   -1.0602 C   0  0  0  0  0  0
   53.0046   44.9558   -3.1260 C   0  0  0  0  0  0
   46.1989   40.5697   -4.9788 O   0  0  0  0  0  0
   51.0593   44.7541   -1.1438 C   0  0  0  0  0  0
   52.0230   43.9743   -3.2245 C   0  0  0  0  0  0
   54.5716   47.5738   -2.9856 C   0  0  0  0  0  0
   54.8985   46.8492   -0.7050 C   0  0  0  0  0  0
   55.6798   48.4101   -2.8808 C   0  0  0  0  0  0
   56.0184   47.6700   -0.6058 C   0  0  0  0  0  0
   56.4016   48.4524   -1.6911 C   0  0  0  0  0  0
   49.7526   42.6409   -1.2000 H   0  0  0  0  0  0
   48.7363   41.2099   -0.4422 H   0  0  0  0  0  0
   49.8418   40.0100   -0.9191 H   0  0  0  0  0  0
   45.9968   39.3836   -2.5910 H   0  0  0  0  0  0
   47.2244   38.1748   -2.9973 H   0  0  0  0  0  0
   52.0466   46.4102   -0.2137 H   0  0  0  0  0  0
   53.7742   45.0120   -3.8783 H   0  0  0  0  0  0
   45.7092   40.6355   -4.1570 H   0  0  0  0  0  0
   50.3241   44.6810   -0.3551 H   0  0  0  0  0  0
   52.0788   43.2828   -4.0507 H   0  0  0  0  0  0
   54.0250   47.5358   -3.9175 H   0  0  0  0  0  0
   54.6197   46.2334    0.1382 H   0  0  0  0  0  0
   55.9844   49.0166   -3.7213 H   0  0  0  0  0  0
   56.5988   47.6919    0.3027 H   0  0  0  0  0  0
   57.2707   49.0895   -1.6093 H   0  0  0  0  0  0
  1  2  2  0  0  0
  1  3  1  0  0  0
  1  9  1  0  0  0
  2  4  1  0  0  0
  2 11  1  0  0  0
  3  5  1  0  0  0
  3  7  2  0  0  0
  4 10  2  0  0  0
  4 16  1  0  0  0
  5 12  1  0  0  0
  5 24  1  0  0  0
  6  9  1  0  0  0
  6 11  1  0  0  0
  8 15  1  0  0  0
  8 13  1  0  0  0
  8 14  2  0  0  0
  9 25  1  0  0  0
  9 26  1  0  0  0
 11 27  1  0  0  0
 11 28  1  0  0  0
 12 17  2  0  0  0
 12 18  1  0  0  0
 13 19  2  0  0  0
 13 20  1  0  0  0
 14 17  1  0  0  0
 14 29  1  0  0  0
 15 18  2  0  0  0
 15 30  1  0  0  0
 16 31  1  0  0  0
 17 32  1  0  0  0
 18 33  1  0  0  0
 19 21  1  0  0  0
 19 34  1  0  0  0
 20 22  2  0  0  0
 20 35  1  0  0  0
 21 23  2  0  0  0
 21 36  1  0  0  0
 22 23  1  0  0  0
 22 37  1  0  0  0
 23 38  1  0  0  0
M  END
> <s_m_entry_id>
25918

> <s_m_entry_name>
dock_pv.570

> <s_m_Source_Path>
/home/csk/Desktop/cluster/DUD-E-result/pyrd

> <s_m_Source_File>
dock_pv.maegz

> <i_m_Source_File_Index>
570

> <chembl_id>
CHEMBL372101

> <chembl_pref_name>
None

> <i_lp_mmshare_version>
53161

> <r_lp_tautomer_probability>
1

> <s_lp_Force_Field>
OPLS_2005

> <r_lp_Energy>
37.100612

> <b_lp_Chiralities_Consistent>
1

> <s_lp_Variant>
CHEMBL1966_lig54-1

> <s_i_glide_gridfile>
glide-grid_1d3g

> <i_i_glide_lignum>
60

> <i_i_glide_rotatable_bonds>
6

> <r_i_docking_score>
-7.56247905837153

> <r_i_glide_ligand_efficiency>
-0.328803437320501

> <r_i_glide_ligand_efficiency_sa>
-0.935073237280162

> <r_i_glide_ligand_efficiency_ln>
-1.82867600908309

> <r_i_glide_gscore>
-7.56247905837153

> <r_i_glide_lipo>
-5.06034067601205

> <r_i_glide_hbond>
-0.124124334930952

> <r_i_glide_metal>
0

> <r_i_glide_rewards>
-0.987647322798648

> <r_i_glide_evdw>
-40.0295524597168

> <r_i_glide_ecoul>
-1.82618236541748

> <r_i_glide_erotb>
0.885038253168586

> <r_i_glide_esite>
0

> <r_i_glide_emodel>
-57.8692138386155

> <r_i_glide_energy>
-41.8557348251343

> <r_i_glide_einternal>
2.34611344337463

> <i_i_glide_confnum>
230

> <i_i_glide_posenum>
338

> <r_i_glide_eff_state_penalty>
0

> <s_user_duplicate_titles>
CHEMBL1966_lig54,327298

> <i_f3d_flags>
0

> <s_m_subgroup_title>
dock_pv

> <s_m_subgroupid>
dock_pv

> <b_m_subgroup_collapsed>
1

$$$$
CHEMBL1966_lig115
                    3D
 Schrodinger Suite 2021-1.
 35 36  0  0  1  0            999 V2000
   51.0988   44.8020   -1.4678 C   0  0  0  0  0  0
   51.3567   44.0100   -2.5957 C   0  0  0  0  0  0
   52.5431   44.2412   -3.2990 C   0  0  0  0  0  0
   53.4556   45.2095   -2.8943 C   0  0  0  0  0  0
   53.2132   45.9898   -1.7558 C   0  0  0  0  0  0
   52.0129   45.7769   -1.0486 C   0  0  0  0  0  0
   50.4175   42.9689   -3.1085 C   0  0  0  0  0  0
   54.1155   46.9381   -1.2269 N   0  0  0  0  0  0
   55.2186   47.5583   -1.7012 C   0  0  0  0  0  0
   55.7679   47.3868   -3.1343 C   0  0  1  0  0  0
   55.8050   48.3295   -0.9457 O   0  0  0  0  0  0
   56.4099   48.6116   -3.6481 C   0  0  0  0  0  0
   56.7569   46.2074   -3.3056 C   0  0  0  0  0  0
   57.6171   46.1594   -4.5673 C   0  0  0  0  0  0
   56.8204   45.2796   -2.4996 O   0  0  0  0  0  0
   56.9135   49.5708   -4.0572 N   0  0  0  0  0  0
   49.8586   41.9501   -2.3076 C   0  0  0  0  0  0
   49.0336   40.9731   -2.8910 C   0  0  0  0  0  0
   48.7829   40.9912   -4.2593 C   0  0  0  0  0  0
   49.2847   42.0179   -5.0467 C   0  0  0  0  0  0
   50.0928   42.9926   -4.4736 C   0  0  0  0  0  0
   50.1656   41.8773   -0.6022 Cl  0  0  0  0  0  0
   48.2372   39.7654   -1.9434 Cl  0  0  0  0  0  0
   51.6258   46.6951    0.3690 Cl  0  0  0  0  0  0
   50.1780   44.6715   -0.9167 H   0  0  0  0  0  0
   52.7859   43.6311   -4.1570 H   0  0  0  0  0  0
   54.3559   45.2693   -3.4703 H   0  0  0  0  0  0
   53.8680   47.2369   -0.2956 H   0  0  0  0  0  0
   56.9982   46.2344   -5.4601 H   0  0  0  0  0  0
   58.1708   45.2218   -4.6091 H   0  0  0  0  0  0
   58.3447   46.9710   -4.5640 H   0  0  0  0  0  0
   54.9312   47.2593   -3.8173 H   0  0  0  0  0  0
   48.1454   40.2364   -4.6963 H   0  0  0  0  0  0
   49.0517   42.0644   -6.0987 H   0  0  0  0  0  0
   50.4786   43.7763   -5.1099 H   0  0  0  0  0  0
  1  6  1  0  0  0
  1  2  2  0  0  0
  1 25  1  0  0  0
  2  7  1  0  0  0
  2  3  1  0  0  0
  3  4  2  0  0  0
  3 26  1  0  0  0
  4  5  1  0  0  0
  4 27  1  0  0  0
  5  8  1  0  0  0
  5  6  2  0  0  0
  6 24  1  0  0  0
  7 17  2  0  0  0
  7 21  1  0  0  0
  8  9  1  0  0  0
  8 28  1  0  0  0
  9 11  2  0  0  0
  9 10  1  0  0  0
 10 12  1  0  0  0
 10 32  1  0  0  0
 10 13  1  0  0  0
 12 16  3  0  0  0
 13 15  2  0  0  0
 13 14  1  0  0  0
 14 29  1  0  0  0
 14 30  1  0  0  0
 14 31  1  0  0  0
 17 18  1  0  0  0
 17 22  1  0  0  0
 18 19  2  0  0  0
 18 23  1  0  0  0
 19 20  1  0  0  0
 19 33  1  0  0  0
 20 21  2  0  0  0
 20 34  1  0  0  0
 21 35  1  0  0  0
M  END
> <s_m_entry_id>
25919

> <s_m_entry_name>
dock_pv.571

> <s_m_Source_Path>
/home/csk/Desktop/cluster/DUD-E-result/pyrd

> <s_m_Source_File>
dock_pv.maegz

> <i_m_Source_File_Index>
571

> <chembl_id>
CHEMBL520999

> <chembl_pref_name>
None

> <i_lp_mmshare_version>
53161

> <r_lp_tautomer_probability>
0.995394628248396

> <s_lp_Force_Field>
OPLS_2005

> <r_lp_Energy>
25.03474

> <b_lp_Chiralities_Consistent>
1

> <s_lp_Variant>
CHEMBL1966_lig115-2

> <s_i_glide_gridfile>
glide-grid_1d3g

> <i_i_glide_lignum>
132

> <i_i_glide_rotatable_bonds>
5

> <r_i_docking_score>
-7.55471287865681

> <r_i_glide_ligand_efficiency>
-0.314779703277367

> <r_i_glide_ligand_efficiency_sa>
-0.907981782624681

> <r_i_glide_ligand_efficiency_ln>
-1.8081894550477

> <r_i_glide_gscore>
-7.55471287865681

> <r_i_glide_lipo>
-5.00177584075507

> <r_i_glide_hbond>
0

> <r_i_glide_metal>
0

> <r_i_glide_rewards>
-0.89291238542959

> <r_i_glide_evdw>
-43.1117362976074

> <r_i_glide_ecoul>
-0.25059512257576

> <r_i_glide_erotb>
0.533151430794578

> <r_i_glide_esite>
0

> <r_i_glide_emodel>
-54.8548106374623

> <r_i_glide_energy>
-43.3623314201832

> <r_i_glide_einternal>
4.57905387878418

> <i_i_glide_confnum>
23

> <i_i_glide_posenum>
19

> <r_i_glide_eff_state_penalty>
0

> <s_user_duplicate_titles>
CHEMBL1966_lig115

> <i_f3d_flags>
0

> <s_m_subgroup_title>
dock_pv

> <s_m_subgroupid>
dock_pv

> <b_m_subgroup_collapsed>
1

$$$$
CHEMBL1966_lig261
                    3D
 Schrodinger Suite 2021-1.
 38 39  0  0  1  0            999 V2000
   55.1288   47.2118   -0.8398 C   0  0  0  0  0  0
   56.0384   47.4734   -1.8153 O   0  0  0  0  0  0
   54.0182   45.6513   -2.8946 S   0  0  0  0  0  0
   52.5294   44.8715   -2.4993 C   0  0  0  0  0  0
   52.0228   45.2115   -1.3404 N   0  0  0  0  0  0
   52.8193   46.0177   -0.6592 C   0  0  0  0  0  0
   54.0099   46.3904   -1.3097 C   0  0  0  0  0  0
   52.3203   46.3898    0.7241 C   0  0  0  0  0  0
   52.0032   44.0090   -3.4288 N   0  0  0  0  0  0
   50.9328   43.1138   -3.2856 C   0  0  0  0  0  0
   50.2133   42.7712   -4.4292 C   0  0  0  0  0  0
   49.2229   41.7851   -4.3873 C   0  0  0  0  0  0
   48.9395   41.1338   -3.1745 C   0  0  0  0  0  0
   49.6302   41.5102   -2.0204 C   0  0  0  0  0  0
   50.6180   42.4925   -2.0730 C   0  0  0  0  0  0
   55.2231   47.6100    0.3190 O   0  0  0  0  0  0
   57.1914   48.2703   -1.5593 C   0  0  0  0  0  0
   56.8725   49.7715   -1.6262 C   0  0  0  0  0  0
   48.5013   41.4410   -5.6792 C   0  0  0  0  0  0
   47.8840   40.0403   -3.0751 C   0  0  0  0  0  0
   53.1219   46.6950    1.3956 H   0  0  0  0  0  0
   51.6139   47.2176    0.6818 H   0  0  0  0  0  0
   51.8134   45.5602    1.2191 H   0  0  0  0  0  0
   52.2505   44.1487   -4.3965 H   0  0  0  0  0  0
   50.4405   43.2528   -5.3695 H   0  0  0  0  0  0
   49.4217   41.0266   -1.0772 H   0  0  0  0  0  0
   51.1676   42.7288   -1.1747 H   0  0  0  0  0  0
   57.9416   48.0281   -2.3124 H   0  0  0  0  0  0
   57.6238   48.0131   -0.5914 H   0  0  0  0  0  0
   57.7728   50.3642   -1.4637 H   0  0  0  0  0  0
   56.1492   50.0561   -0.8635 H   0  0  0  0  0  0
   56.4612   50.0454   -2.5981 H   0  0  0  0  0  0
   48.0718   40.4409   -5.6766 H   0  0  0  0  0  0
   47.7168   42.1720   -5.8781 H   0  0  0  0  0  0
   49.2164   41.4683   -6.4990 H   0  0  0  0  0  0
   46.9107   40.4097   -3.3982 H   0  0  0  0  0  0
   48.1447   39.2102   -3.7281 H   0  0  0  0  0  0
   47.7806   39.6519   -2.0606 H   0  0  0  0  0  0
  1  2  1  0  0  0
  1  7  1  0  0  0
  1 16  2  0  0  0
  2 17  1  0  0  0
  3  4  1  0  0  0
  3  7  1  0  0  0
  4  5  2  0  0  0
  4  9  1  0  0  0
  5  6  1  0  0  0
  6  7  2  0  0  0
  6  8  1  0  0  0
  8 21  1  0  0  0
  8 22  1  0  0  0
  8 23  1  0  0  0
  9 10  1  0  0  0
  9 24  1  0  0  0
 10 11  2  0  0  0
 10 15  1  0  0  0
 11 12  1  0  0  0
 11 25  1  0  0  0
 12 13  2  0  0  0
 12 19  1  0  0  0
 13 14  1  0  0  0
 13 20  1  0  0  0
 14 15  2  0  0  0
 14 26  1  0  0  0
 15 27  1  0  0  0
 17 18  1  0  0  0
 17 28  1  0  0  0
 17 29  1  0  0  0
 18 30  1  0  0  0
 18 31  1  0  0  0
 18 32  1  0  0  0
 19 33  1  0  0  0
 19 34  1  0  0  0
 19 35  1  0  0  0
 20 36  1  0  0  0
 20 37  1  0  0  0
 20 38  1  0  0  0
M  END
> <s_m_entry_id>
25920

> <s_m_entry_name>
dock_pv.572

> <s_m_Source_Path>
/home/csk/Desktop/cluster/DUD-E-result/pyrd

> <s_m_Source_File>
dock_pv.maegz

> <i_m_Source_File_Index>
572

> <chembl_id>
CHEMBL3410578

> <chembl_pref_name>
None

> <i_lp_mmshare_version>
53161

> <r_lp_tautomer_probability>
1

> <s_lp_Force_Field>
OPLS_2005

> <r_lp_Energy>
8.800413

> <b_lp_Chiralities_Consistent>
1

> <s_lp_Variant>
CHEMBL1966_lig261-1

> <s_i_glide_gridfile>
glide-grid_1d3g

> <i_i_glide_lignum>
307

> <i_i_glide_rotatable_bonds>
5

> <r_i_docking_score>
-7.54988381093718

> <r_i_glide_ligand_efficiency>
-0.377494190546859

> <r_i_glide_ligand_efficiency_sa>
-1.02467687995941

> <r_i_glide_ligand_efficiency_ln>
-1.88948690604387

> <r_i_glide_gscore>
-7.54988381093718

> <r_i_glide_lipo>
-4.2517065950438

> <r_i_glide_hbond>
0

> <r_i_glide_metal>
0

> <r_i_glide_rewards>
-2.18754914637101

> <r_i_glide_evdw>
-38.4332160949707

> <r_i_glide_ecoul>
-0.356482833623886

> <r_i_glide_erotb>
0.864505160269751

> <r_i_glide_esite>
0

> <r_i_glide_emodel>
-53.3859623445095

> <r_i_glide_energy>
-38.7896989285946

> <r_i_glide_einternal>
2.19213366508484

> <i_i_glide_confnum>
5

> <i_i_glide_posenum>
85

> <r_i_glide_eff_state_penalty>
0

> <s_user_duplicate_titles>
CHEMBL1966_lig261

> <i_f3d_flags>
0

> <s_m_subgroup_title>
dock_pv

> <s_m_subgroupid>
dock_pv

> <b_m_subgroup_collapsed>
1

$$$$
CHEMBL1966_lig2
                    3D
 Schrodinger Suite 2021-1.
 31 32  0  0  1  0            999 V2000
   49.2206   41.6637   -4.4139 C   0  0  0  0  0  0
   48.9441   41.0149   -3.2015 C   0  0  0  0  0  0
   49.6232   41.4082   -2.0453 C   0  0  0  0  0  0
   50.5687   42.4312   -2.0933 C   0  0  0  0  0  0
   50.8597   43.0673   -3.3042 C   0  0  0  0  0  0
   50.1627   42.6921   -4.4542 C   0  0  0  0  0  0
   48.4187   41.2099   -5.8792 Cl  0  0  0  0  0  0
   47.9133   39.8989   -3.1179 C   0  0  0  0  0  0
   51.8996   43.9986   -3.4382 N   0  0  0  0  0  0
   52.4247   44.8524   -2.4990 C   0  0  0  0  0  0
   51.9145   45.2099   -1.3442 N   0  0  0  0  0  0
   52.7185   46.0100   -0.6603 C   0  0  0  0  0  0
   53.9252   46.3501   -1.2988 C   0  0  0  0  0  0
   53.9312   45.6100   -2.8801 S   0  0  0  0  0  0
   52.2224   46.3980    0.7198 C   0  0  0  0  0  0
   55.0660   47.1444   -0.8359 C   0  0  0  0  0  0
   56.2421   47.4112   -1.7761 C   0  0  0  0  0  0
   55.1249   47.6037    0.3008 O   0  0  0  0  0  0
   49.4252   40.9162   -1.1040 H   0  0  0  0  0  0
   51.1062   42.6905   -1.1941 H   0  0  0  0  0  0
   50.3738   43.1732   -5.3983 H   0  0  0  0  0  0
   46.9042   40.3080   -3.1627 H   0  0  0  0  0  0
   48.0259   39.2100   -3.9535 H   0  0  0  0  0  0
   48.0207   39.3085   -2.2073 H   0  0  0  0  0  0
   52.1374   44.1590   -4.4049 H   0  0  0  0  0  0
   53.0373   46.6041    1.4127 H   0  0  0  0  0  0
   51.6022   47.2925    0.6872 H   0  0  0  0  0  0
   51.6249   45.6124    1.1841 H   0  0  0  0  0  0
   56.7106   46.4732   -2.0740 H   0  0  0  0  0  0
   56.9945   48.0294   -1.2847 H   0  0  0  0  0  0
   55.9013   47.9302   -2.6719 H   0  0  0  0  0  0
  1  2  2  0  0  0
  1  6  1  0  0  0
  1  7  1  0  0  0
  2  3  1  0  0  0
  2  8  1  0  0  0
  3  4  2  0  0  0
  3 19  1  0  0  0
  4  5  1  0  0  0
  4 20  1  0  0  0
  5  6  2  0  0  0
  5  9  1  0  0  0
  6 21  1  0  0  0
  8 22  1  0  0  0
  8 23  1  0  0  0
  8 24  1  0  0  0
  9 10  1  0  0  0
  9 25  1  0  0  0
 10 11  2  0  0  0
 10 14  1  0  0  0
 11 12  1  0  0  0
 12 13  2  0  0  0
 12 15  1  0  0  0
 13 14  1  0  0  0
 13 16  1  0  0  0
 15 26  1  0  0  0
 15 27  1  0  0  0
 15 28  1  0  0  0
 16 17  1  0  0  0
 16 18  2  0  0  0
 17 29  1  0  0  0
 17 30  1  0  0  0
 17 31  1  0  0  0
M  END
> <s_m_entry_id>
25921

> <s_m_entry_name>
dock_pv.573

> <s_m_Source_Path>
/home/csk/Desktop/cluster/DUD-E-result/pyrd

> <s_m_Source_File>
dock_pv.maegz

> <i_m_Source_File_Index>
573

> <chembl_id>
CHEMBL2178108

> <chembl_pref_name>
None

> <i_lp_mmshare_version>
53161

> <r_lp_tautomer_probability>
0.99995

> <s_lp_Force_Field>
OPLS_2005

> <r_lp_Energy>
6.979299

> <b_lp_Chiralities_Consistent>
1

> <s_lp_Variant>
CHEMBL1966_lig2-1

> <s_i_glide_gridfile>
glide-grid_1d3g

> <i_i_glide_lignum>
2

> <i_i_glide_rotatable_bonds>
3

> <r_i_docking_score>
-7.53999538091978

> <r_i_glide_ligand_efficiency>
-0.418888632273321

> <r_i_glide_ligand_efficiency_sa>
-1.09779877710456

> <r_i_glide_ligand_efficiency_ln>
-1.93811693332805

> <r_i_glide_gscore>
-7.53999538091978

> <r_i_glide_lipo>
-3.92340683972168

> <r_i_glide_hbond>
0

> <r_i_glide_metal>
0

> <r_i_glide_rewards>
-2.24472395454545

> <r_i_glide_evdw>
-34.3143692016602

> <r_i_glide_ecoul>
-0.763132691383362

> <r_i_glide_erotb>
0.458323777137866

> <r_i_glide_esite>
0

> <r_i_glide_emodel>
-48.1366686262726

> <r_i_glide_energy>
-35.0775018930435

> <r_i_glide_einternal>
3.79140019416809

> <i_i_glide_confnum>
3

> <i_i_glide_posenum>
7

> <r_i_glide_eff_state_penalty>
0

> <s_user_duplicate_titles>
CHEMBL1966_lig2

> <i_f3d_flags>
0

> <s_m_subgroup_title>
dock_pv

> <s_m_subgroupid>
dock_pv

> <b_m_subgroup_collapsed>
1

$$$$
CHEMBL1966_lig810
                    3D
 Schrodinger Suite 2021-1.
 38 39  0  0  1  0            999 V2000
   55.1617   47.1086    0.4601 C   0  0  0  0  0  0
   53.9597   46.5026    0.1082 C   0  0  0  0  0  0
   53.6151   46.3589   -1.2409 C   0  0  0  0  0  0
   54.4930   46.8272   -2.2217 C   0  0  0  0  0  0
   52.4333   45.7285   -1.6560 N   0  0  0  0  0  0
   51.4256   45.2105   -0.8687 C   0  0  0  0  0  0
   50.5830   44.1809   -1.1059 C   0  0  0  0  0  0
   50.6213   43.3727   -2.3428 C   0  0  0  0  0  0
   49.7264   42.3552   -2.3488 O   0  0  0  0  0  0
   51.3850   43.6092   -3.2844 O   0  0  0  0  0  0
   49.6228   41.4936   -3.4744 C   0  0  0  0  0  0
   48.5865   40.4024   -3.2002 C   0  0  0  0  0  0
   56.0231   47.5819   -0.5256 C   0  0  0  0  0  0
   55.7048   47.4468   -1.8828 C   0  0  0  0  0  0
   49.6065   43.8470   -0.1185 C   0  0  0  0  0  0
   48.8230   43.6099    0.7009 N   0  0  0  0  0  0
   56.6351   47.9410   -2.9376 C   0  0  0  0  0  0
   56.8264   47.2097   -4.1175 C   0  0  0  0  0  0
   57.7019   47.6630   -5.1001 C   0  0  0  0  0  0
   58.3894   48.8573   -4.9110 C   0  0  0  0  0  0
   58.2088   49.6019   -3.7491 C   0  0  0  0  0  0
   57.3372   49.1418   -2.7655 C   0  0  0  0  0  0
   55.4268   47.2098    1.5012 H   0  0  0  0  0  0
   53.3190   46.1372    0.8965 H   0  0  0  0  0  0
   54.2265   46.7194   -3.2634 H   0  0  0  0  0  0
   52.3876   45.5541   -2.6514 H   0  0  0  0  0  0
   51.3310   45.7530    0.0623 H   0  0  0  0  0  0
   50.5918   41.0352   -3.6768 H   0  0  0  0  0  0
   49.3391   42.0654   -4.3602 H   0  0  0  0  0  0
   48.5516   39.6875   -4.0229 H   0  0  0  0  0  0
   47.5855   40.8098   -3.0765 H   0  0  0  0  0  0
   48.8235   39.8474   -2.2933 H   0  0  0  0  0  0
   56.9568   48.0380   -0.2271 H   0  0  0  0  0  0
   56.3089   46.2745   -4.2738 H   0  0  0  0  0  0
   57.8475   47.0887   -6.0033 H   0  0  0  0  0  0
   59.0675   49.2081   -5.6738 H   0  0  0  0  0  0
   58.7410   50.5308   -3.6087 H   0  0  0  0  0  0
   57.2041   49.7316   -1.8706 H   0  0  0  0  0  0
  1 13  1  0  0  0
  1  2  2  0  0  0
  1 23  1  0  0  0
  2  3  1  0  0  0
  2 24  1  0  0  0
  3  5  1  0  0  0
  3  4  2  0  0  0
  4 14  1  0  0  0
  4 25  1  0  0  0
  5  6  1  0  0  0
  5 26  1  0  0  0
  6  7  2  0  0  0
  6 27  1  0  0  0
  7 15  1  0  0  0
  7  8  1  0  0  0
  8  9  1  0  0  0
  8 10  2  0  0  0
  9 11  1  0  0  0
 11 12  1  0  0  0
 11 28  1  0  0  0
 11 29  1  0  0  0
 12 30  1  0  0  0
 12 31  1  0  0  0
 12 32  1  0  0  0
 13 14  2  0  0  0
 13 33  1  0  0  0
 14 17  1  0  0  0
 15 16  3  0  0  0
 17 18  2  0  0  0
 17 22  1  0  0  0
 18 19  1  0  0  0
 18 34  1  0  0  0
 19 20  2  0  0  0
 19 35  1  0  0  0
 20 21  1  0  0  0
 20 36  1  0  0  0
 21 22  2  0  0  0
 21 37  1  0  0  0
 22 38  1  0  0  0
M  END
> <s_m_entry_id>
25922

> <s_m_entry_name>
dock_pv.574

> <s_m_Source_Path>
/home/csk/Desktop/cluster/DUD-E-result/pyrd

> <s_m_Source_File>
dock_pv.maegz

> <i_m_Source_File_Index>
574

> <chembl_id>
CHEMBL387254

> <chembl_pref_name>
None

> <i_lp_mmshare_version>
53161

> <r_lp_tautomer_probability>
0.499999974950001

> <s_lp_Force_Field>
OPLS_2005

> <r_lp_Energy>
23.268757

> <b_lp_Chiralities_Consistent>
1

> <s_lp_Variant>
CHEMBL1966_lig810-1

> <s_i_glide_gridfile>
glide-grid_1d3g

> <i_i_glide_lignum>
881

> <i_i_glide_rotatable_bonds>
6

> <r_i_docking_score>
-7.5391729518658

> <r_i_glide_ligand_efficiency>
-0.342689679630264

> <r_i_glide_ligand_efficiency_sa>
-0.960229959544322

> <r_i_glide_ligand_efficiency_ln>
-1.84284886745111

> <r_i_glide_gscore>
-7.5391729518658

> <r_i_glide_lipo>
-4.05885440569939

> <r_i_glide_hbond>
0

> <r_i_glide_metal>
0

> <r_i_glide_rewards>
-2.3159192624648

> <r_i_glide_evdw>
-41.5324935913086

> <r_i_glide_ecoul>
-1.03907382488251

> <r_i_glide_erotb>
1.06808646959619

> <r_i_glide_esite>
0

> <r_i_glide_emodel>
-58.2673864154599

> <r_i_glide_energy>
-42.5715674161911

> <r_i_glide_einternal>
5.90716505050659

> <i_i_glide_confnum>
80

> <i_i_glide_posenum>
313

> <r_i_glide_eff_state_penalty>
0

> <s_user_duplicate_titles>
CHEMBL1966_lig810,365646

> <i_f3d_flags>
0

> <s_m_subgroup_title>
dock_pv

> <s_m_subgroupid>
dock_pv

> <b_m_subgroup_collapsed>
1

$$$$
CHEMBL1966_lig41
                    3D
 Schrodinger Suite 2021-1.
 33 35  0  0  1  0            999 V2000
   48.9035   41.2140   -3.3867 C   0  0  0  0  0  0
   48.0295   40.0952   -3.2597 C   0  0  0  0  0  0
   49.7761   41.9638   -2.4710 C   0  0  0  0  0  0
   47.6230   39.0128   -2.2495 C   0  0  0  0  0  0
   47.8330   40.8100   -5.3914 N   0  0  0  0  0  0
   55.0700   47.3396   -1.9265 C   0  0  0  0  0  0
   47.3720   39.9263   -4.4347 O   0  0  0  0  0  0
   50.3865   43.0279   -3.0817 N   0  0  0  0  0  0
   47.3185   39.2242   -0.7972 C   0  0  0  0  0  0
   46.2042   38.8610   -1.7636 C   0  0  0  0  0  0
   48.7221   41.5222   -4.7579 C   0  0  0  0  0  0
   50.0229   41.6100   -0.8632 S   0  0  0  0  0  0
   53.8520   47.0062   -1.2629 O   0  0  0  0  0  0
   51.2549   44.0100   -2.5769 C   0  0  0  0  0  0
   55.6341   48.3351   -1.2452 F   0  0  0  0  0  0
   55.9254   46.3152   -1.9280 F   0  0  0  0  0  0
   54.8489   47.7761   -3.1683 F   0  0  0  0  0  0
   53.0302   46.0100   -1.7562 C   0  0  0  0  0  0
   50.9551   44.7942   -1.4535 C   0  0  0  0  0  0
   52.4252   44.2351   -3.2990 C   0  0  0  0  0  0
   53.3127   45.2285   -2.8899 C   0  0  0  0  0  0
   51.8478   45.7841   -1.0491 C   0  0  0  0  0  0
   48.0230   38.0369   -2.4990 H   0  0  0  0  0  0
   50.2857   43.0673   -4.0833 H   0  0  0  0  0  0
   47.3499   40.2263   -0.3768 H   0  0  0  0  0  0
   47.6881   38.4744   -0.0990 H   0  0  0  0  0  0
   45.7710   37.8620   -1.7068 H   0  0  0  0  0  0
   45.4704   39.6100   -2.0606 H   0  0  0  0  0  0
   49.2080   42.3212   -5.2990 H   0  0  0  0  0  0
   50.0351   44.6521   -0.9045 H   0  0  0  0  0  0
   52.6661   43.6100   -4.1430 H   0  0  0  0  0  0
   54.2201   45.3679   -3.4557 H   0  0  0  0  0  0
   51.6223   46.3850   -0.1803 H   0  0  0  0  0  0
  1  2  2  0  0  0
  1  3  1  0  0  0
  1 11  1  0  0  0
  2  4  1  0  0  0
  2  7  1  0  0  0
  3  8  1  0  0  0
  3 12  2  0  0  0
  4  9  1  0  0  0
  4 10  1  0  0  0
  4 23  1  0  0  0
  5 11  2  0  0  0
  5  7  1  0  0  0
  6 13  1  0  0  0
  6 15  1  0  0  0
  6 16  1  0  0  0
  6 17  1  0  0  0
  8 14  1  0  0  0
  8 24  1  0  0  0
  9 10  1  0  0  0
  9 25  1  0  0  0
  9 26  1  0  0  0
 10 27  1  0  0  0
 10 28  1  0  0  0
 11 29  1  0  0  0
 13 18  1  0  0  0
 14 19  2  0  0  0
 14 20  1  0  0  0
 18 21  1  0  0  0
 18 22  2  0  0  0
 19 22  1  0  0  0
 19 30  1  0  0  0
 20 21  2  0  0  0
 20 31  1  0  0  0
 21 32  1  0  0  0
 22 33  1  0  0  0
M  END
> <s_m_entry_id>
25923

> <s_m_entry_name>
dock_pv.575

> <s_m_Source_Path>
/home/csk/Desktop/cluster/DUD-E-result/pyrd

> <s_m_Source_File>
dock_pv.maegz

> <i_m_Source_File_Index>
575

> <chembl_id>
CHEMBL308141

> <chembl_pref_name>
None

> <i_lp_mmshare_version>
53161

> <r_lp_tautomer_probability>
1

> <s_lp_Force_Field>
OPLS_2005

> <r_lp_Energy>
24.181439

> <b_lp_Chiralities_Consistent>
1

> <s_lp_Variant>
CHEMBL1966_lig41-1

> <s_i_glide_gridfile>
glide-grid_1d3g

> <i_i_glide_lignum>
45

> <i_i_glide_rotatable_bonds>
6

> <r_i_docking_score>
-7.53590232741239

> <r_i_glide_ligand_efficiency>
-0.342541014882381

> <r_i_glide_ligand_efficiency_sa>
-0.959813395074103

> <r_i_glide_ligand_efficiency_ln>
-1.84204940753577

> <r_i_glide_gscore>
-7.53590232741239

> <r_i_glide_lipo>
-3.90339496115631

> <r_i_glide_hbond>
0

> <r_i_glide_metal>
0

> <r_i_glide_rewards>
-2.53955591476263

> <r_i_glide_evdw>
-30.4287052154541

> <r_i_glide_ecoul>
-2.95110177993774

> <r_i_glide_erotb>
0.871149076269928

> <r_i_glide_esite>
0

> <r_i_glide_emodel>
-44.9821950281558

> <r_i_glide_energy>
-33.3798069953918

> <r_i_glide_einternal>
2.07219934463501

> <i_i_glide_confnum>
67

> <i_i_glide_posenum>
353

> <r_i_glide_eff_state_penalty>
0

> <s_user_duplicate_titles>
CHEMBL1966_lig41,112251

> <i_f3d_flags>
0

> <s_m_subgroup_title>
dock_pv

> <s_m_subgroupid>
dock_pv

> <b_m_subgroup_collapsed>
1

$$$$
CHEMBL1966_lig49
                    3D
 Schrodinger Suite 2021-1.
 29 30  0  0  1  0            999 V2000
   48.8065   40.8342   -3.3274 C   0  0  0  0  0  0
   49.7223   41.6989   -2.7460 C   0  0  0  0  0  0
   49.6750   41.3885   -1.4165 N   0  0  0  0  0  0
   48.8232   40.4078   -1.1188 N   0  0  0  0  0  0
   48.2913   40.0545   -2.2706 C   0  0  0  0  0  0
   54.7647   47.1404   -1.3085 C   0  0  0  0  0  0
   48.4228   40.8096   -4.7273 C   0  0  0  0  0  0
   50.5661   42.6397   -3.2918 N   0  0  0  0  0  0
   48.1165   40.8090   -5.8405 N   0  0  0  0  0  0
   53.4327   46.8101   -0.9120 O   0  0  0  0  0  0
   51.2558   43.6962   -2.6789 C   0  0  0  0  0  0
   55.5671   46.0741   -1.2929 F   0  0  0  0  0  0
   54.7824   47.7272   -2.5065 F   0  0  0  0  0  0
   55.2460   48.0089   -0.4223 F   0  0  0  0  0  0
   52.7386   45.8091   -1.5644 C   0  0  0  0  0  0
   50.8231   44.3203   -1.5030 C   0  0  0  0  0  0
   52.4228   44.1524   -3.3047 C   0  0  0  0  0  0
   53.1558   45.2082   -2.7620 C   0  0  0  0  0  0
   51.5608   45.3702   -0.9559 C   0  0  0  0  0  0
   47.2328   38.9699   -2.2916 C   0  0  0  0  0  0
   50.2452   41.8332   -0.7139 H   0  0  0  0  0  0
   50.7780   42.5743   -4.2766 H   0  0  0  0  0  0
   49.9089   44.0166   -1.0169 H   0  0  0  0  0  0
   52.7742   43.6744   -4.2058 H   0  0  0  0  0  0
   54.0539   45.5220   -3.2713 H   0  0  0  0  0  0
   51.2244   45.8404   -0.0432 H   0  0  0  0  0  0
   46.3977   39.2084   -1.6326 H   0  0  0  0  0  0
   46.8182   38.8155   -3.2876 H   0  0  0  0  0  0
   47.6383   38.0115   -1.9661 H   0  0  0  0  0  0
  1  2  2  0  0  0
  1  5  1  0  0  0
  1  7  1  0  0  0
  2  3  1  0  0  0
  2  8  1  0  0  0
  3  4  1  0  0  0
  3 21  1  0  0  0
  4  5  2  0  0  0
  5 20  1  0  0  0
  6 10  1  0  0  0
  6 12  1  0  0  0
  6 13  1  0  0  0
  6 14  1  0  0  0
  7  9  3  0  0  0
  8 11  1  0  0  0
  8 22  1  0  0  0
 10 15  1  0  0  0
 11 16  2  0  0  0
 11 17  1  0  0  0
 15 18  1  0  0  0
 15 19  2  0  0  0
 16 19  1  0  0  0
 16 23  1  0  0  0
 17 18  2  0  0  0
 17 24  1  0  0  0
 18 25  1  0  0  0
 19 26  1  0  0  0
 20 27  1  0  0  0
 20 28  1  0  0  0
 20 29  1  0  0  0
M  END
> <s_m_entry_id>
25925

> <s_m_entry_name>
dock_pv.577

> <s_m_Source_Path>
/home/csk/Desktop/cluster/DUD-E-result/pyrd

> <s_m_Source_File>
dock_pv.maegz

> <i_m_Source_File_Index>
577

> <chembl_id>
CHEMBL118395

> <chembl_pref_name>
None

> <i_lp_mmshare_version>
53161

> <r_lp_tautomer_probability>
1

> <s_lp_Force_Field>
OPLS_2005

> <r_lp_Energy>
11.266411

> <b_lp_Chiralities_Consistent>
1

> <s_lp_Variant>
CHEMBL1966_lig49-1

> <s_i_glide_gridfile>
glide-grid_1d3g

> <i_i_glide_lignum>
54

> <i_i_glide_rotatable_bonds>
4

> <r_i_docking_score>
-7.47272806751343

> <r_i_glide_ligand_efficiency>
-0.373636403375671

> <r_i_glide_ligand_efficiency_sa>
-1.01420523451132

> <r_i_glide_ligand_efficiency_ln>
-1.87017736823164

> <r_i_glide_gscore>
-7.47272806751343

> <r_i_glide_lipo>
-3.28078204956164

> <r_i_glide_hbond>
-0.115591872791413

> <r_i_glide_metal>
0

> <r_i_glide_rewards>
-2.8865437223651

> <r_i_glide_evdw>
-32.4803810119629

> <r_i_glide_ecoul>
-1.64773976802826

> <r_i_glide_erotb>
0.681369593007105

> <r_i_glide_esite>
0

> <r_i_glide_emodel>
-48.185466375351

> <r_i_glide_energy>
-34.1281207799911

> <r_i_glide_einternal>
3.3006546497345

> <i_i_glide_confnum>
8

> <i_i_glide_posenum>
308

> <r_i_glide_eff_state_penalty>
0

> <s_user_duplicate_titles>
CHEMBL1966_lig49,194601

> <i_f3d_flags>
0

> <s_m_subgroup_title>
dock_pv

> <s_m_subgroupid>
dock_pv

> <b_m_subgroup_collapsed>
1

$$$$
CHEMBL1966_lig114
                    3D
 Schrodinger Suite 2021-1.
 35 36  0  0  1  0            999 V2000
   50.8230   43.4287   -1.2263 C   0  0  0  0  0  0
   51.4467   44.0977   -2.2883 C   0  0  0  0  0  0
   51.2244   43.6099   -3.5843 C   0  0  0  0  0  0
   50.4260   42.4956   -3.8088 C   0  0  0  0  0  0
   49.8862   41.7922   -2.7263 C   0  0  0  0  0  0
   50.1082   42.2564   -1.4279 C   0  0  0  0  0  0
   52.4226   45.2100   -2.0154 C   0  0  0  0  0  0
   49.0424   40.6898   -2.8485 N   0  0  0  0  0  0
   48.2849   40.3627   -3.9022 C   0  0  0  0  0  0
   46.8768   39.9111   -3.5050 C   0  0  2  0  0  0
   48.6223   40.4876   -5.0830 O   0  0  0  0  0  0
   46.7903   38.8344   -2.5060 C   0  0  0  0  0  0
   45.8567   39.8398   -4.6397 C   0  0  0  0  0  0
   45.6229   41.1157   -5.4447 C   0  0  0  0  0  0
   45.2231   38.8140   -4.8974 O   0  0  0  0  0  0
   46.7273   38.0106   -1.6976 N   0  0  0  0  0  0
   53.4822   45.4767   -2.8977 C   0  0  0  0  0  0
   54.4809   46.3973   -2.5820 C   0  0  0  0  0  0
   54.4548   47.0550   -1.3555 C   0  0  0  0  0  0
   53.4138   46.8089   -0.4656 C   0  0  0  0  0  0
   52.3848   45.9372   -0.8132 C   0  0  0  0  0  0
   55.7683   46.6894   -3.6932 Cl  0  0  0  0  0  0
   49.5504   41.3801   -0.0426 Cl  0  0  0  0  0  0
   50.9838   43.7470   -0.2084 H   0  0  0  0  0  0
   51.6609   44.0969   -4.4425 H   0  0  0  0  0  0
   50.2745   42.1844   -4.8295 H   0  0  0  0  0  0
   48.7563   40.3115   -1.9574 H   0  0  0  0  0  0
   46.3982   41.8633   -5.2846 H   0  0  0  0  0  0
   44.6670   41.5662   -5.1747 H   0  0  0  0  0  0
   45.6228   40.8780   -6.4990 H   0  0  0  0  0  0
   46.4956   40.7255   -2.9046 H   0  0  0  0  0  0
   53.5693   44.9369   -3.8252 H   0  0  0  0  0  0
   55.2414   47.7470   -1.0919 H   0  0  0  0  0  0
   53.3941   47.2962    0.4961 H   0  0  0  0  0  0
   51.5885   45.7910   -0.0994 H   0  0  0  0  0  0
  1  6  1  0  0  0
  1  2  2  0  0  0
  1 24  1  0  0  0
  2  7  1  0  0  0
  2  3  1  0  0  0
  3  4  2  0  0  0
  3 25  1  0  0  0
  4  5  1  0  0  0
  4 26  1  0  0  0
  5  6  2  0  0  0
  5  8  1  0  0  0
  6 23  1  0  0  0
  7 17  2  0  0  0
  7 21  1  0  0  0
  8  9  1  0  0  0
  8 27  1  0  0  0
  9 11  2  0  0  0
  9 10  1  0  0  0
 10 12  1  0  0  0
 10 31  1  0  0  0
 10 13  1  0  0  0
 12 16  3  0  0  0
 13 15  2  0  0  0
 13 14  1  0  0  0
 14 28  1  0  0  0
 14 29  1  0  0  0
 14 30  1  0  0  0
 17 18  1  0  0  0
 17 32  1  0  0  0
 18 19  2  0  0  0
 18 22  1  0  0  0
 19 20  1  0  0  0
 19 33  1  0  0  0
 20 21  2  0  0  0
 20 34  1  0  0  0
 21 35  1  0  0  0
M  END
> <s_m_entry_id>
25926

> <s_m_entry_name>
dock_pv.578

> <s_m_Source_Path>
/home/csk/Desktop/cluster/DUD-E-result/pyrd

> <s_m_Source_File>
dock_pv.maegz

> <i_m_Source_File_Index>
578

> <chembl_id>
CHEMBL484595

> <chembl_pref_name>
None

> <i_lp_mmshare_version>
53161

> <r_lp_tautomer_probability>
0.995394628248396

> <s_lp_Force_Field>
OPLS_2005

> <r_lp_Energy>
21.832823

> <b_lp_Chiralities_Consistent>
1

> <s_lp_Variant>
CHEMBL1966_lig114-1

> <s_i_glide_gridfile>
glide-grid_1d3g

> <i_i_glide_lignum>
129

> <i_i_glide_rotatable_bonds>
5

> <r_i_docking_score>
-7.45735634612415

> <r_i_glide_ligand_efficiency>
-0.324232884614094

> <r_i_glide_ligand_efficiency_sa>
-0.922075193372323

> <r_i_glide_ligand_efficiency_ln>
-1.80325638406162

> <r_i_glide_gscore>
-7.45735634612415

> <r_i_glide_lipo>
-4.34323497171901

> <r_i_glide_hbond>
0

> <r_i_glide_metal>
0

> <r_i_glide_rewards>
-2.04911934651859

> <r_i_glide_evdw>
-28.9422950744629

> <r_i_glide_ecoul>
-1.66047692298889

> <r_i_glide_erotb>
0.631184264284931

> <r_i_glide_esite>
0

> <r_i_glide_emodel>
-30.1140121009739

> <r_i_glide_energy>
-30.6027719974518

> <r_i_glide_einternal>
12.5628213882446

> <i_i_glide_confnum>
2

> <i_i_glide_posenum>
319

> <r_i_glide_eff_state_penalty>
0

> <s_user_duplicate_titles>
CHEMBL1966_lig114

> <i_f3d_flags>
0

> <s_m_subgroup_title>
dock_pv

> <s_m_subgroupid>
dock_pv

> <b_m_subgroup_collapsed>
1

$$$$
CHEMBL1966_lig53
                    3D
 Schrodinger Suite 2021-1.
 31 32  0  0  1  0            999 V2000
   49.6230   41.6628   -2.9533 C   0  0  0  0  0  0
   48.7538   40.7903   -3.6429 C   0  0  0  0  0  0
   49.6230   41.4242   -1.6591 N   0  0  0  0  0  0
   48.7845   40.4100   -1.4905 N   0  0  0  0  0  0
   53.7993   46.5927   -1.1455 C   0  0  0  0  0  0
   48.1795   40.0100   -2.6453 C   0  0  0  0  0  0
   50.4280   42.6196   -3.5237 N   0  0  0  0  0  0
   52.8233   45.6100   -1.7869 C   0  0  0  0  0  0
   53.3858   46.9923    0.0565 F   0  0  0  0  0  0
   54.9878   46.0100   -0.9899 F   0  0  0  0  0  0
   53.9588   47.6549   -1.9335 F   0  0  0  0  0  0
   51.2024   43.6100   -2.8990 C   0  0  0  0  0  0
   51.6230   45.2430   -1.1585 C   0  0  0  0  0  0
   53.1818   45.0004   -2.9931 C   0  0  0  0  0  0
   48.5333   40.6609   -5.1352 C   0  0  0  0  0  0
   52.3714   44.0100   -3.5465 C   0  0  0  0  0  0
   50.8230   44.2392   -1.7042 C   0  0  0  0  0  0
   47.1556   38.9020   -2.6587 C   0  0  0  0  0  0
   47.3422   41.2921   -5.5485 O   0  0  0  0  0  0
   48.5922   40.0171   -0.5797 H   0  0  0  0  0  0
   50.6154   42.5603   -4.5118 H   0  0  0  0  0  0
   51.3216   45.7043   -0.2289 H   0  0  0  0  0  0
   54.1028   45.2718   -3.4895 H   0  0  0  0  0  0
   48.4230   39.6100   -5.3737 H   0  0  0  0  0  0
   49.3681   41.0503   -5.7180 H   0  0  0  0  0  0
   52.6708   43.5330   -4.4678 H   0  0  0  0  0  0
   49.9059   43.9683   -1.2037 H   0  0  0  0  0  0
   47.6230   37.9312   -2.4990 H   0  0  0  0  0  0
   46.4048   39.0329   -1.8790 H   0  0  0  0  0  0
   46.6183   38.8590   -3.6057 H   0  0  0  0  0  0
   47.3775   42.2233   -5.3030 H   0  0  0  0  0  0
  1  3  2  0  0  0
  1  7  1  0  0  0
  1  2  1  0  0  0
  2  6  2  0  0  0
  2 15  1  0  0  0
  3  4  1  0  0  0
  4  6  1  0  0  0
  4 20  1  0  0  0
  5  8  1  0  0  0
  5  9  1  0  0  0
  5 10  1  0  0  0
  5 11  1  0  0  0
  6 18  1  0  0  0
  7 12  1  0  0  0
  7 21  1  0  0  0
  8 13  2  0  0  0
  8 14  1  0  0  0
 12 16  1  0  0  0
 12 17  2  0  0  0
 13 17  1  0  0  0
 13 22  1  0  0  0
 14 16  2  0  0  0
 14 23  1  0  0  0
 15 19  1  0  0  0
 15 24  1  0  0  0
 15 25  1  0  0  0
 16 26  1  0  0  0
 17 27  1  0  0  0
 18 28  1  0  0  0
 18 29  1  0  0  0
 18 30  1  0  0  0
 19 31  1  0  0  0
M  END
> <s_m_entry_id>
25927

> <s_m_entry_name>
dock_pv.579

> <s_m_Source_Path>
/home/csk/Desktop/cluster/DUD-E-result/pyrd

> <s_m_Source_File>
dock_pv.maegz

> <i_m_Source_File_Index>
579

> <chembl_id>
CHEMBL118894

> <chembl_pref_name>
None

> <i_lp_mmshare_version>
53161

> <r_lp_tautomer_probability>
0.842599999161192

> <s_lp_Force_Field>
OPLS_2005

> <r_lp_Energy>
10.084681

> <b_lp_Chiralities_Consistent>
1

> <s_lp_Variant>
CHEMBL1966_lig53-1

> <s_i_glide_gridfile>
glide-grid_1d3g

> <i_i_glide_lignum>
58

> <i_i_glide_rotatable_bonds>
5

> <r_i_docking_score>
-7.41659761114141

> <r_i_glide_ligand_efficiency>
-0.390347242691653

> <r_i_glide_ligand_efficiency_sa>
-1.04160322495016

> <r_i_glide_ligand_efficiency_ln>
-1.88026678833519

> <r_i_glide_gscore>
-7.41659761114141

> <r_i_glide_lipo>
-3.21802484197368

> <r_i_glide_hbond>
-0.0164113640977839

> <r_i_glide_metal>
0

> <r_i_glide_rewards>
-3.04647485308285

> <r_i_glide_evdw>
-29.2953414916992

> <r_i_glide_ecoul>
-2.67235326766968

> <r_i_glide_erotb>
0.729933512748318

> <r_i_glide_esite>
0

> <r_i_glide_emodel>
-44.8835578200773

> <r_i_glide_energy>
-31.9676947593689

> <r_i_glide_einternal>
3.04196000099182

> <i_i_glide_confnum>
1

> <i_i_glide_posenum>
51

> <r_i_glide_eff_state_penalty>
0

> <s_user_duplicate_titles>
CHEMBL1966_lig53,CHEMBL1966_lig53

> <i_f3d_flags>
0

> <s_m_subgroup_title>
dock_pv

> <s_m_subgroupid>
dock_pv

> <b_m_subgroup_collapsed>
1

$$$$
CHEMBL1966_lig291
                    3D
 Schrodinger Suite 2021-1.
 37 40  0  0  1  0            999 V2000
   54.1710   45.8725   -3.6333 O   0  0  0  0  0  0
   53.5568   45.6972   -2.5807 C   0  0  0  0  0  0
   53.8987   46.2745   -1.4134 N   0  0  0  0  0  0
   55.0229   47.1784   -1.2320 C   0  0  0  0  0  0
   56.0231   46.8235   -0.1609 C   0  0  0  0  0  0
   56.4183   46.7315   -1.6185 C   0  0  0  0  0  0
   52.4222   44.8106   -2.4810 C   0  0  0  0  0  0
   51.4036   44.8079   -1.5182 C   0  0  0  0  0  0
   50.4223   43.8189   -1.7294 C   0  0  0  0  0  0
   50.6323   43.0432   -2.8721 C   0  0  0  0  0  0
   52.0664   43.6094   -3.6988 S   0  0  0  0  0  0
   49.8326   42.0495   -3.4237 N   0  0  0  0  0  0
   49.6110   42.0885   -4.8866 C   0  0  0  0  0  0
   48.1616   42.0076   -5.3206 C   0  0  0  0  0  0
   47.4927   40.4096   -4.8865 S   0  0  0  0  0  0
   48.0262   40.3268   -3.2005 C   0  0  0  0  0  0
   47.3238   39.4168   -2.3990 C   0  0  0  0  0  0
   47.6223   39.2689   -1.0521 C   0  0  0  0  0  0
   48.6494   40.0187   -0.4980 C   0  0  0  0  0  0
   49.4089   40.8667   -1.3100 C   0  0  0  0  0  0
   49.1449   41.0483   -2.6833 C   0  0  0  0  0  0
   53.2473   46.2151   -0.6467 H   0  0  0  0  0  0
   54.7640   48.2262   -1.3756 H   0  0  0  0  0  0
   55.8827   45.9009    0.4112 H   0  0  0  0  0  0
   56.4608   47.6088    0.4478 H   0  0  0  0  0  0
   57.0919   47.4763   -2.0383 H   0  0  0  0  0  0
   56.5462   45.7502   -2.0742 H   0  0  0  0  0  0
   51.3566   45.4968   -0.6884 H   0  0  0  0  0  0
   49.5810   43.6984   -1.0729 H   0  0  0  0  0  0
   50.0737   42.9526   -5.3625 H   0  0  0  0  0  0
   50.0243   41.2102   -5.3533 H   0  0  0  0  0  0
   47.5903   42.8114   -4.9061 H   0  0  0  0  0  0
   48.0461   42.0733   -6.3922 H   0  0  0  0  0  0
   46.5126   38.8374   -2.8177 H   0  0  0  0  0  0
   47.0581   38.5859   -0.4294 H   0  0  0  0  0  0
   48.8826   39.9256    0.5548 H   0  0  0  0  0  0
   50.2116   41.4009   -0.8315 H   0  0  0  0  0  0
  1  2  2  0  0  0
  2  3  1  0  0  0
  2  7  1  0  0  0
  3  4  1  0  0  0
  3 22  1  0  0  0
  4  5  1  0  0  0
  4  6  1  0  0  0
  4 23  1  0  0  0
  5  6  1  0  0  0
  5 24  1  0  0  0
  5 25  1  0  0  0
  6 26  1  0  0  0
  6 27  1  0  0  0
  7  8  2  0  0  0
  7 11  1  0  0  0
  8  9  1  0  0  0
  8 28  1  0  0  0
  9 10  2  0  0  0
  9 29  1  0  0  0
 10 11  1  0  0  0
 10 12  1  0  0  0
 12 13  1  0  0  0
 12 21  1  0  0  0
 13 14  1  0  0  0
 13 30  1  0  0  0
 13 31  1  0  0  0
 14 15  1  0  0  0
 14 32  1  0  0  0
 14 33  1  0  0  0
 15 16  1  0  0  0
 16 17  2  0  0  0
 16 21  1  0  0  0
 17 18  1  0  0  0
 17 34  1  0  0  0
 18 19  2  0  0  0
 18 35  1  0  0  0
 19 20  1  0  0  0
 19 36  1  0  0  0
 20 21  2  0  0  0
 20 37  1  0  0  0
M  END
> <s_m_entry_id>
25928

> <s_m_entry_name>
dock_pv.580

> <s_m_Source_Path>
/home/csk/Desktop/cluster/DUD-E-result/pyrd

> <s_m_Source_File>
dock_pv.maegz

> <i_m_Source_File_Index>
580

> <chembl_id>
CHEMBL3694254

> <chembl_pref_name>
None

> <i_lp_mmshare_version>
53161

> <r_lp_tautomer_probability>
1

> <s_lp_Force_Field>
OPLS_2005

> <r_lp_Energy>
27.566676

> <b_lp_Chiralities_Consistent>
1

> <s_lp_Variant>
CHEMBL1966_lig291-1

> <s_i_glide_gridfile>
glide-grid_1d3g

> <i_i_glide_lignum>
337

> <i_i_glide_rotatable_bonds>
4

> <r_i_docking_score>
-7.38792448728886

> <r_i_glide_ligand_efficiency>
-0.351805927966136

> <r_i_glide_ligand_efficiency_sa>
-0.970605879074957

> <r_i_glide_ligand_efficiency_ln>
-1.82664940077508

> <r_i_glide_gscore>
-7.38792448728886

> <r_i_glide_lipo>
-4.31514763640349

> <r_i_glide_hbond>
0

> <r_i_glide_metal>
0

> <r_i_glide_rewards>
-2.27545507671767

> <r_i_glide_evdw>
-30.1847743988037

> <r_i_glide_ecoul>
-0.211626037955284

> <r_i_glide_erotb>
0.743660851465778

> <r_i_glide_esite>
0

> <r_i_glide_emodel>
-37.9961120548533

> <r_i_glide_energy>
-30.396400436759

> <r_i_glide_einternal>
5.12656736373901

> <i_i_glide_confnum>
17

> <i_i_glide_posenum>
392

> <r_i_glide_eff_state_penalty>
0

> <s_user_duplicate_titles>
CHEMBL1966_lig291

> <i_f3d_flags>
0

> <s_m_subgroup_title>
dock_pv

> <s_m_subgroupid>
dock_pv

> <b_m_subgroup_collapsed>
1

$$$$
CHEMBL1966_lig319
                    3D
 Schrodinger Suite 2021-1.
 42 44  0  0  1  0            999 V2000
   55.3911   47.5179   -1.4156 C   0  0  0  0  0  0
   55.3916   47.0238   -2.7130 C   0  0  0  0  0  0
   54.3956   46.1526   -3.0999 C   0  0  0  0  0  0
   53.3752   45.7733   -2.2178 C   0  0  0  0  0  0
   53.3125   46.3454   -0.9116 C   0  0  0  0  0  0
   54.3488   47.2089   -0.5484 C   0  0  0  0  0  0
   52.2392   46.0525    0.1423 C   0  0  0  0  0  0
   52.3207   46.8102    1.2689 O   0  0  0  0  0  0
   51.3539   45.2114    0.0313 O   0  0  0  0  0  0
   52.4130   44.8193   -2.7305 C   0  0  0  0  0  0
   52.5444   44.0105   -3.6990 N   0  0  0  0  0  0
   51.4344   43.2100   -4.0525 N   0  0  0  0  0  0
   50.6731   42.4035   -3.1982 C   0  0  0  0  0  0
   49.7744   41.5606   -3.6094 N   0  0  0  0  0  0
   49.1415   40.9311   -2.6314 C   0  0  0  0  0  0
   49.6230   41.2102   -1.3597 C   0  0  0  0  0  0
   50.8230   42.4103   -1.4641 S   0  0  0  0  0  0
   47.9485   40.1063   -2.9536 C   0  0  0  0  0  0
   47.3118   40.4100   -4.1722 C   0  0  0  0  0  0
   46.1240   39.8053   -4.5232 C   0  0  0  0  0  0
   45.6230   38.8100   -3.7100 C   0  0  0  0  0  0
   46.2122   38.4951   -2.4930 C   0  0  0  0  0  0
   47.3655   39.1496   -2.0939 C   0  0  0  0  0  0
   47.9886   38.7038   -0.5408 Cl  0  0  0  0  0  0
   51.1707   43.2917   -5.4910 C   0  0  0  0  0  0
   56.5946   48.2258   -0.8623 C   0  0  0  0  0  0
   56.4068   49.5319   -0.6946 F   0  0  0  0  0  0
   57.6230   48.0678   -1.6770 F   0  0  0  0  0  0
   56.8230   47.6100    0.3005 F   0  0  0  0  0  0
   56.1920   47.2479   -3.4039 H   0  0  0  0  0  0
   54.4493   45.7494   -4.0990 H   0  0  0  0  0  0
   54.4034   47.6101    0.4547 H   0  0  0  0  0  0
   51.6136   46.5656    1.8685 H   0  0  0  0  0  0
   51.4539   44.8902   -2.2368 H   0  0  0  0  0  0
   49.2856   40.8810   -0.3906 H   0  0  0  0  0  0
   47.6939   41.1626   -4.8468 H   0  0  0  0  0  0
   45.6379   40.0470   -5.4566 H   0  0  0  0  0  0
   44.7968   38.2478   -4.0990 H   0  0  0  0  0  0
   45.7829   37.7273   -1.8661 H   0  0  0  0  0  0
   51.9439   42.8103   -6.0868 H   0  0  0  0  0  0
   50.2046   42.8704   -5.7702 H   0  0  0  0  0  0
   51.1703   44.3354   -5.8031 H   0  0  0  0  0  0
  1  2  2  0  0  0
  1  6  1  0  0  0
  1 26  1  0  0  0
  2  3  1  0  0  0
  2 30  1  0  0  0
  3  4  2  0  0  0
  3 31  1  0  0  0
  4  5  1  0  0  0
  4 10  1  0  0  0
  5  6  2  0  0  0
  5  7  1  0  0  0
  6 32  1  0  0  0
  7  8  1  0  0  0
  7  9  2  0  0  0
  8 33  1  0  0  0
 10 11  2  0  0  0
 10 34  1  0  0  0
 11 12  1  0  0  0
 12 13  1  0  0  0
 12 25  1  0  0  0
 13 14  2  0  0  0
 13 17  1  0  0  0
 14 15  1  0  0  0
 15 16  2  0  0  0
 15 18  1  0  0  0
 16 17  1  0  0  0
 16 35  1  0  0  0
 18 19  2  0  0  0
 18 23  1  0  0  0
 19 20  1  0  0  0
 19 36  1  0  0  0
 20 21  2  0  0  0
 20 37  1  0  0  0
 21 22  1  0  0  0
 21 38  1  0  0  0
 22 23  2  0  0  0
 22 39  1  0  0  0
 23 24  1  0  0  0
 25 40  1  0  0  0
 25 41  1  0  0  0
 25 42  1  0  0  0
 26 27  1  0  0  0
 26 28  1  0  0  0
 26 29  1  0  0  0
M  END
> <s_m_entry_id>
25929

> <s_m_entry_name>
dock_pv.581

> <s_m_Source_Path>
/home/csk/Desktop/cluster/DUD-E-result/pyrd

> <s_m_Source_File>
dock_pv.maegz

> <i_m_Source_File_Index>
581

> <chembl_id>
CHEMBL3950655

> <chembl_pref_name>
None

> <i_lp_mmshare_version>
53161

> <r_lp_tautomer_probability>
1

> <s_lp_Force_Field>
OPLS_2005

> <r_lp_Energy>
33.407966

> <b_lp_Chiralities_Consistent>
1

> <s_lp_Variant>
CHEMBL1966_lig319-1

> <s_i_glide_gridfile>
glide-grid_1d3g

> <i_i_glide_lignum>
369

> <i_i_glide_rotatable_bonds>
7

> <r_i_docking_score>
-7.38201861684378

> <r_i_glide_ligand_efficiency>
-0.254552366098061

> <r_i_glide_ligand_efficiency_sa>
-0.782065516503402

> <r_i_glide_ligand_efficiency_ln>
-1.69029507141646

> <r_i_glide_gscore>
-7.38201861684378

> <r_i_glide_lipo>
-5.33445544876686

> <r_i_glide_hbond>
0

> <r_i_glide_metal>
0

> <r_i_glide_rewards>
-1.1462940017826

> <r_i_glide_evdw>
-30.7788143157959

> <r_i_glide_ecoul>
0.886982142925262

> <r_i_glide_erotb>
0.515914231009632

> <r_i_glide_esite>
-0.0112900029529434

> <r_i_glide_emodel>
-33.6937380013176

> <r_i_glide_energy>
-29.8918321728706

> <r_i_glide_einternal>
6.48644065856934

> <i_i_glide_confnum>
20

> <i_i_glide_posenum>
243

> <r_i_glide_eff_state_penalty>
0

> <s_user_duplicate_titles>
CHEMBL1966_lig319

> <i_f3d_flags>
0

> <s_m_subgroup_title>
dock_pv

> <s_m_subgroupid>
dock_pv

> <b_m_subgroup_collapsed>
1

$$$$
CHEMBL1966_lig73
                    3D
 Schrodinger Suite 2021-1.
 28 28  0  0  1  0            999 V2000
   52.1071   43.7584   -3.6984 C   0  0  0  0  0  0
   51.0357   43.3796   -2.8913 C   0  0  0  0  0  0
   50.7841   44.0760   -1.6981 C   0  0  0  0  0  0
   51.6226   45.1176   -1.2993 C   0  0  0  0  0  0
   52.7303   45.4625   -2.0886 C   0  0  0  0  0  0
   52.9486   44.7949   -3.2981 C   0  0  0  0  0  0
   50.2506   42.3077   -3.3514 N   0  0  0  0  0  0
   49.5898   41.3913   -2.6094 C   0  0  0  0  0  0
   48.8271   40.2666   -3.3454 C   0  0  2  0  0  0
   49.6231   41.3719   -1.3793 O   0  0  0  0  0  0
   48.1333   40.6187   -4.6800 C   0  0  0  0  0  0
   46.6212   40.4126   -4.8120 C   0  0  0  0  0  0
   48.7791   41.0254   -5.6471 O   0  0  0  0  0  0
   47.9383   39.4472   -2.4941 C   0  0  0  0  0  0
   47.2321   38.8069   -1.8339 N   0  0  0  0  0  0
   53.7417   46.5084   -1.6223 C   0  0  0  0  0  0
   54.9830   46.0401   -1.7580 F   0  0  0  0  0  0
   53.6232   47.6095   -2.3642 F   0  0  0  0  0  0
   53.5688   46.8282   -0.3389 F   0  0  0  0  0  0
   52.3140   43.2338   -4.6204 H   0  0  0  0  0  0
   49.9429   43.8201   -1.0716 H   0  0  0  0  0  0
   51.4243   45.6273   -0.3679 H   0  0  0  0  0  0
   53.7964   45.0664   -3.9081 H   0  0  0  0  0  0
   50.2734   42.1513   -4.3490 H   0  0  0  0  0  0
   46.3795   39.3546   -4.8956 H   0  0  0  0  0  0
   46.2413   40.9190   -5.6984 H   0  0  0  0  0  0
   46.0953   40.8102   -3.9445 H   0  0  0  0  0  0
   49.6307   39.5951   -3.6281 H   0  0  0  0  0  0
  1  6  1  0  0  0
  1  2  2  0  0  0
  1 20  1  0  0  0
  2  3  1  0  0  0
  2  7  1  0  0  0
  3  4  2  0  0  0
  3 21  1  0  0  0
  4  5  1  0  0  0
  4 22  1  0  0  0
  5 16  1  0  0  0
  5  6  2  0  0  0
  6 23  1  0  0  0
  7  8  1  0  0  0
  7 24  1  0  0  0
  8 10  2  0  0  0
  8  9  1  0  0  0
  9 14  1  0  0  0
  9 28  1  0  0  0
  9 11  1  0  0  0
 11 13  2  0  0  0
 11 12  1  0  0  0
 12 25  1  0  0  0
 12 26  1  0  0  0
 12 27  1  0  0  0
 14 15  3  0  0  0
 16 17  1  0  0  0
 16 18  1  0  0  0
 16 19  1  0  0  0
M  END
> <s_m_entry_id>
25930

> <s_m_entry_name>
dock_pv.582

> <s_m_Source_Path>
/home/csk/Desktop/cluster/DUD-E-result/pyrd

> <s_m_Source_File>
dock_pv.maegz

> <i_m_Source_File_Index>
582

> <chembl_id>
CHEMBL973

> <chembl_pref_name>
TERIFLUNOMIDE

> <i_lp_mmshare_version>
53161

> <r_lp_tautomer_probability>
0.995394628248396

> <s_lp_Force_Field>
OPLS_2005

> <r_lp_Energy>
17.560409

> <b_lp_Chiralities_Consistent>
1

> <s_lp_Variant>
CHEMBL1966_lig73-2

> <s_i_glide_gridfile>
glide-grid_1d3g

> <i_i_glide_lignum>
82

> <i_i_glide_rotatable_bonds>
5

> <r_i_docking_score>
-7.37984319970032

> <r_i_glide_ligand_efficiency>
-0.388412799984227

> <r_i_glide_ligand_efficiency_sa>
-1.03644135484537

> <r_i_glide_ligand_efficiency_ln>
-1.8709487556225

> <r_i_glide_gscore>
-7.37984319970032

> <r_i_glide_lipo>
-2.4511948980922

> <r_i_glide_hbond>
-0.032245219476244

> <r_i_glide_metal>
0

> <r_i_glide_rewards>
-3.67334285327602

> <r_i_glide_evdw>
-32.863151550293

> <r_i_glide_ecoul>
-2.09774947166443

> <r_i_glide_erotb>
0.734759769408459

> <r_i_glide_esite>
0

> <r_i_glide_emodel>
-46.4410523226862

> <r_i_glide_energy>
-34.9609010219574

> <r_i_glide_einternal>
4.49049472808838

> <i_i_glide_confnum>
4

> <i_i_glide_posenum>
291

> <r_i_glide_eff_state_penalty>
0

> <s_user_duplicate_titles>
CHEMBL1966_lig73,CHEMBL1966_lig22,96107

> <i_f3d_flags>
0

> <s_m_subgroup_title>
dock_pv

> <s_m_subgroupid>
dock_pv

> <b_m_subgroup_collapsed>
1

$$$$
CHEMBL1966_lig255
                    3D
 Schrodinger Suite 2021-1.
 46 48  0  0  1  0            999 V2000
   54.4616   47.2798   -1.7494 C   0  0  0  0  0  0
   49.1003   40.8104   -2.0692 N   0  0  0  0  0  0
   51.6978   44.8100   -1.7618 N   0  0  0  0  0  0
   47.9116   39.1732   -0.6520 C   0  0  0  0  0  0
   56.2266   44.6202   -3.8532 C   0  0  0  0  0  0
   49.8184   41.9190   -2.5011 C   0  0  0  0  0  0
   51.0856   43.7158   -2.3622 C   0  0  0  0  0  0
   55.4439   46.6380   -2.5053 C   0  0  0  0  0  0
   49.5723   41.7134   -6.1758 O   0  0  0  0  0  0
   48.8238   40.4100   -0.8217 C   0  0  0  0  0  0
   48.0949   40.9310   -4.5996 O   0  0  0  0  0  0
   52.9195   45.4377   -2.1049 C   0  0  0  0  0  0
   53.2227   46.6789   -1.5396 C   0  0  0  0  0  0
   51.0314   43.5001   -4.0915 S   0  0  0  0  0  0
   50.4226   42.7954   -1.7004 N   0  0  0  0  0  0
   49.3220   40.9229    0.1763 O   0  0  0  0  0  0
   47.0391   40.5884   -5.4806 C   0  0  0  0  0  0
   53.8982   44.8147   -2.8990 C   0  0  0  0  0  0
   49.2008   41.6095   -5.0094 C   0  0  0  0  0  0
   49.8992   42.1984   -3.8666 C   0  0  0  0  0  0
   55.1627   45.3887   -3.0792 C   0  0  0  0  0  0
   45.8977   41.6091   -5.3809 C   0  0  0  0  0  0
   56.7974   47.3114   -2.6854 C   0  0  0  0  0  0
   46.5718   39.2084   -1.3986 C   0  0  0  0  0  0
   47.6230   38.2755   -1.8579 C   0  0  0  0  0  0
   54.6625   48.2417   -1.3014 H   0  0  0  0  0  0
   48.6870   40.2713   -2.8153 H   0  0  0  0  0  0
   51.2785   45.1988   -0.9300 H   0  0  0  0  0  0
   48.0094   38.6678    0.3010 H   0  0  0  0  0  0
   57.1615   44.5980   -3.2926 H   0  0  0  0  0  0
   55.9434   43.5813   -4.0274 H   0  0  0  0  0  0
   56.4250   45.1008   -4.8115 H   0  0  0  0  0  0
   52.5089   47.2058   -0.9249 H   0  0  0  0  0  0
   46.6544   39.6102   -5.1980 H   0  0  0  0  0  0
   47.4040   40.5109   -6.4992 H   0  0  0  0  0  0
   53.7115   43.8415   -3.3273 H   0  0  0  0  0  0
   45.2330   41.5652   -6.2405 H   0  0  0  0  0  0
   46.2685   42.6325   -5.3073 H   0  0  0  0  0  0
   45.2867   41.4186   -4.4994 H   0  0  0  0  0  0
   57.0657   47.3445   -3.7420 H   0  0  0  0  0  0
   56.8005   48.3383   -2.3163 H   0  0  0  0  0  0
   57.5750   46.7515   -2.1640 H   0  0  0  0  0  0
   45.6868   38.8198   -0.8947 H   0  0  0  0  0  0
   46.3291   39.9687   -2.1410 H   0  0  0  0  0  0
   48.0228   38.4723   -2.8491 H   0  0  0  0  0  0
   47.5380   37.2087   -1.6602 H   0  0  0  0  0  0
  1  8  1  0  0  0
  1 13  2  0  0  0
  1 26  1  0  0  0
  2 10  1  0  0  0
  2  6  1  0  0  0
  2 27  1  0  0  0
  3 12  1  0  0  0
  3  7  1  0  0  0
  3 28  1  0  0  0
  4 10  1  0  0  0
  4 24  1  0  0  0
  4 25  1  0  0  0
  4 29  1  0  0  0
  5 21  1  0  0  0
  5 30  1  0  0  0
  5 31  1  0  0  0
  5 32  1  0  0  0
  6 20  2  0  0  0
  6 15  1  0  0  0
  7 15  2  0  0  0
  7 14  1  0  0  0
  8 23  1  0  0  0
  8 21  2  0  0  0
  9 19  2  0  0  0
 10 16  2  0  0  0
 11 19  1  0  0  0
 11 17  1  0  0  0
 12 18  2  0  0  0
 12 13  1  0  0  0
 13 33  1  0  0  0
 14 20  1  0  0  0
 17 22  1  0  0  0
 17 34  1  0  0  0
 17 35  1  0  0  0
 18 21  1  0  0  0
 18 36  1  0  0  0
 19 20  1  0  0  0
 22 37  1  0  0  0
 22 38  1  0  0  0
 22 39  1  0  0  0
 23 40  1  0  0  0
 23 41  1  0  0  0
 23 42  1  0  0  0
 24 25  1  0  0  0
 24 43  1  0  0  0
 24 44  1  0  0  0
 25 45  1  0  0  0
 25 46  1  0  0  0
M  END
> <s_m_entry_id>
25931

> <s_m_entry_name>
dock_pv.583

> <s_m_Source_Path>
/home/csk/Desktop/cluster/DUD-E-result/pyrd

> <s_m_Source_File>
dock_pv.maegz

> <i_m_Source_File_Index>
583

> <chembl_id>
CHEMBL3410584

> <chembl_pref_name>
None

> <i_lp_mmshare_version>
53161

> <r_lp_tautomer_probability>
1

> <s_lp_Force_Field>
OPLS_2005

> <r_lp_Energy>
17.055901

> <b_lp_Chiralities_Consistent>
1

> <s_lp_Variant>
CHEMBL1966_lig255-1

> <s_i_glide_gridfile>
glide-grid_1d3g

> <i_i_glide_lignum>
301

> <i_i_glide_rotatable_bonds>
8

> <r_i_docking_score>
-7.37734611541788

> <r_i_glide_ligand_efficiency>
-0.295093844616715

> <r_i_glide_ligand_efficiency_sa>
-0.862859635170893

> <r_i_glide_ligand_efficiency_ln>
-1.74865211057696

> <r_i_glide_gscore>
-7.37734611541788

> <r_i_glide_lipo>
-4.25743313540129

> <r_i_glide_hbond>
0

> <r_i_glide_metal>
0

> <r_i_glide_rewards>
-2.04705504044423

> <r_i_glide_evdw>
-32.6678504943848

> <r_i_glide_ecoul>
-3.18634963035583

> <r_i_glide_erotb>
1.03848702970026

> <r_i_glide_esite>
0

> <r_i_glide_emodel>
-36.8072867448655

> <r_i_glide_energy>
-35.8542001247406

> <r_i_glide_einternal>
16.1842308044434

> <i_i_glide_confnum>
50

> <i_i_glide_posenum>
217

> <r_i_glide_eff_state_penalty>
0

> <s_user_duplicate_titles>
CHEMBL1966_lig255

> <i_f3d_flags>
0

> <s_m_subgroup_title>
dock_pv

> <s_m_subgroupid>
dock_pv

> <b_m_subgroup_collapsed>
1

$$$$
CHEMBL1966_lig4
                    3D
 Schrodinger Suite 2021-1.
 39 42  0  0  1  0            999 V2000
   47.8571   39.9699   -2.9338 C   0  0  0  0  0  0
   47.4592   39.3842   -1.7443 C   0  0  0  0  0  0
   48.1306   39.6444   -0.5629 C   0  0  0  0  0  0
   49.2230   40.5175   -0.4903 C   0  0  0  0  0  0
   49.6230   41.1175   -1.6879 C   0  0  0  0  0  0
   48.9454   40.8470   -2.9129 C   0  0  0  0  0  0
   50.6333   42.0100   -1.9779 N   0  0  0  0  0  0
   50.6222   42.3138   -3.3160 C   0  0  0  0  0  0
   49.5538   41.6413   -3.9135 C   0  0  0  0  0  0
   49.1071   41.8088   -5.3542 C   0  0  0  0  0  0
   50.0957   42.7147   -6.0944 C   0  0  0  0  0  0
   50.7257   43.7849   -5.2069 C   0  0  0  0  0  0
   51.5737   43.2828   -4.0184 C   0  0  1  0  0  0
   52.0230   44.3534   -3.1199 N   0  0  0  0  0  0
   53.2572   44.8102   -2.8392 C   0  0  0  0  0  0
   53.3454   45.7318   -1.6352 C   0  0  0  0  0  0
   54.2844   44.3255   -3.2990 O   0  0  0  0  0  0
   52.2344   46.0097   -0.8120 C   0  0  0  0  0  0
   52.4526   46.5314    0.4641 C   0  0  0  0  0  0
   53.7538   46.8100    0.8790 C   0  0  0  0  0  0
   54.7981   46.6140   -0.0202 C   0  0  0  0  0  0
   54.6078   46.0860   -1.2533 N   0  0  0  0  0  0
   46.0493   38.4100   -1.6990 Cl  0  0  0  0  0  0
   47.3159   39.7778   -3.8473 H   0  0  0  0  0  0
   47.7736   39.1319    0.3010 H   0  0  0  0  0  0
   49.7256   40.7074    0.4463 H   0  0  0  0  0  0
   51.3166   42.4014   -1.3464 H   0  0  0  0  0  0
   48.1133   42.2604   -5.3756 H   0  0  0  0  0  0
   49.0201   40.8456   -5.8568 H   0  0  0  0  0  0
   49.6230   43.2100   -6.8990 H   0  0  0  0  0  0
   50.8230   42.1320   -6.6406 H   0  0  0  0  0  0
   49.8876   44.3387   -4.7787 H   0  0  0  0  0  0
   51.2230   44.5153   -5.8275 H   0  0  0  0  0  0
   52.4521   42.7527   -4.3877 H   0  0  0  0  0  0
   51.2711   44.7986   -2.6192 H   0  0  0  0  0  0
   51.2255   45.7427   -1.0901 H   0  0  0  0  0  0
   51.6230   46.7010    1.1345 H   0  0  0  0  0  0
   53.9478   47.2001    1.8669 H   0  0  0  0  0  0
   55.8166   46.8511    0.2517 H   0  0  0  0  0  0
  1  2  1  0  0  0
  1  6  2  0  0  0
  1 24  1  0  0  0
  2  3  2  0  0  0
  2 23  1  0  0  0
  3  4  1  0  0  0
  3 25  1  0  0  0
  4  5  2  0  0  0
  4 26  1  0  0  0
  5  7  1  0  0  0
  5  6  1  0  0  0
  6  9  1  0  0  0
  7  8  1  0  0  0
  7 27  1  0  0  0
  8 13  1  0  0  0
  8  9  2  0  0  0
  9 10  1  0  0  0
 10 11  1  0  0  0
 10 28  1  0  0  0
 10 29  1  0  0  0
 11 12  1  0  0  0
 11 30  1  0  0  0
 11 31  1  0  0  0
 12 13  1  0  0  0
 12 32  1  0  0  0
 12 33  1  0  0  0
 13 14  1  0  0  0
 13 34  1  0  0  0
 14 15  1  0  0  0
 14 35  1  0  0  0
 15 16  1  0  0  0
 15 17  2  0  0  0
 16 18  1  0  0  0
 16 22  2  0  0  0
 18 19  2  0  0  0
 18 36  1  0  0  0
 19 20  1  0  0  0
 19 37  1  0  0  0
 20 21  2  0  0  0
 20 38  1  0  0  0
 21 22  1  0  0  0
 21 39  1  0  0  0
M  END
> <s_m_entry_id>
25932

> <s_m_entry_name>
dock_pv.584

> <s_m_Source_Path>
/home/csk/Desktop/cluster/DUD-E-result/pyrd

> <s_m_Source_File>
dock_pv.maegz

> <i_m_Source_File_Index>
584

> <chembl_id>
CHEMBL551051

> <chembl_pref_name>
None

> <i_lp_mmshare_version>
53161

> <r_lp_tautomer_probability>
1

> <s_lp_Force_Field>
OPLS_2005

> <r_lp_Energy>
13.203903

> <b_lp_Chiralities_Consistent>
1

> <s_lp_Variant>
CHEMBL1966_lig4-1

> <s_i_glide_gridfile>
glide-grid_1d3g

> <i_i_glide_lignum>
4

> <i_i_glide_rotatable_bonds>
3

> <r_i_docking_score>
-7.36293417049737

> <r_i_glide_ligand_efficiency>
-0.32012757263032

> <r_i_glide_ligand_efficiency_sa>
-0.910400232191884

> <r_i_glide_ligand_efficiency_ln>
-1.78042424582211

> <r_i_glide_gscore>
-7.36293417049737

> <r_i_glide_lipo>
-4.94792238890475

> <r_i_glide_hbond>
0

> <r_i_glide_metal>
0

> <r_i_glide_rewards>
-1.94285345401781

> <r_i_glide_evdw>
-17.951961517334

> <r_i_glide_ecoul>
-0.696042835712433

> <r_i_glide_erotb>
0.529846173648751

> <r_i_glide_esite>
0

> <r_i_glide_emodel>
-15.8815010222253

> <r_i_glide_energy>
-18.6480043530464

> <r_i_glide_einternal>
7.46762561798096

> <i_i_glide_confnum>
14

> <i_i_glide_posenum>
257

> <r_i_glide_eff_state_penalty>
0

> <s_user_duplicate_titles>
CHEMBL1966_lig4

> <i_f3d_flags>
0

> <s_m_subgroup_title>
dock_pv

> <s_m_subgroupid>
dock_pv

> <b_m_subgroup_collapsed>
1

$$$$
CHEMBL1966_lig649 
                    3D
 Schrodinger Suite 2021-1.
 39 41  0  0  1  0            999 V2000
   49.1768   41.3488   -5.8144 N   0  0  0  0  0  0
   50.0230   42.4100   -5.9607 C   0  0  0  0  0  0
   50.4573   43.1972   -4.9079 C   0  0  0  0  0  0
   50.1792   42.7979   -3.6040 C   0  0  0  0  0  0
   48.8572   41.0128   -4.5542 C   0  0  0  0  0  0
   49.3932   41.6805   -3.4572 N   0  0  0  0  0  0
   49.0436   41.0156   -2.3305 N   0  0  0  0  0  0
   48.2320   40.0639   -2.7793 C   0  0  0  0  0  0
   48.0716   40.0100   -4.0997 N   0  0  0  0  0  0
   47.4713   39.1257   -1.8105 C   0  0  0  0  0  0
   47.4621   39.6100   -0.5682 F   0  0  0  0  0  0
   46.0230   38.9145   -2.2605 C   0  0  0  0  0  0
   48.0229   37.9187   -1.7006 F   0  0  0  0  0  0
   50.7085   43.4666   -2.4920 N   0  0  0  0  0  0
   51.7422   44.4100   -2.4004 C   0  0  0  0  0  0
   51.7715   45.2657   -1.2990 C   0  0  0  0  0  0
   52.8901   46.0647   -1.0505 C   0  0  0  0  0  0
   53.9905   46.0382   -1.9246 C   0  0  0  0  0  0
   53.9316   45.2137   -3.0496 C   0  0  0  0  0  0
   52.8229   44.4099   -3.2960 C   0  0  0  0  0  0
   55.5092   46.9789   -1.6210 S   0  0  0  0  0  0
   55.5758   47.4460   -3.1705 F   0  0  0  0  0  0
   55.5287   46.5464   -0.0607 F   0  0  0  0  0  0
   56.8634   47.8203   -1.3573 F   0  0  0  0  0  0
   54.6735   48.3173   -1.2992 F   0  0  0  0  0  0
   56.4230   45.6900   -1.9715 F   0  0  0  0  0  0
   50.7208   42.5595   -7.2990 C   0  0  0  0  0  0
   52.9026   46.8100    0.0768 F   0  0  0  0  0  0
   51.0885   44.0336   -5.1254 H   0  0  0  0  0  0
   45.4518   38.4208   -1.4744 H   0  0  0  0  0  0
   45.9773   38.2952   -3.1564 H   0  0  0  0  0  0
   45.5364   39.8584   -2.4989 H   0  0  0  0  0  0
   50.2217   43.2635   -1.6312 H   0  0  0  0  0  0
   50.9549   45.2711   -0.5912 H   0  0  0  0  0  0
   54.7892   45.1493   -3.6990 H   0  0  0  0  0  0
   52.8673   43.6922   -4.0989 H   0  0  0  0  0  0
   50.8230   43.6051   -7.5890 H   0  0  0  0  0  0
   51.7235   42.1418   -7.2990 H   0  0  0  0  0  0
   50.2000   42.0100   -8.0676 H   0  0  0  0  0  0
  1  5  1  0  0  0
  1  2  2  0  0  0
  2  3  1  0  0  0
  2 27  1  0  0  0
  3  4  2  0  0  0
  3 29  1  0  0  0
  4  6  1  0  0  0
  4 14  1  0  0  0
  5  6  1  0  0  0
  5  9  2  0  0  0
  6  7  1  0  0  0
  7  8  2  0  0  0
  8  9  1  0  0  0
  8 10  1  0  0  0
 10 11  1  0  0  0
 10 12  1  0  0  0
 10 13  1  0  0  0
 12 30  1  0  0  0
 12 31  1  0  0  0
 12 32  1  0  0  0
 14 15  1  0  0  0
 14 33  1  0  0  0
 15 16  2  0  0  0
 15 20  1  0  0  0
 16 17  1  0  0  0
 16 34  1  0  0  0
 17 18  2  0  0  0
 17 28  1  0  0  0
 18 19  1  0  0  0
 18 21  1  0  0  0
 19 20  2  0  0  0
 19 35  1  0  0  0
 20 36  1  0  0  0
 21 22  1  0  0  0
 21 23  1  0  0  0
 21 24  1  0  0  0
 21 25  1  0  0  0
 21 26  1  0  0  0
 27 37  1  0  0  0
 27 38  1  0  0  0
 27 39  1  0  0  0
M  END
> <s_m_entry_id>
25933

> <s_m_entry_name>
dock_pv.585

> <s_m_Source_Path>
/home/csk/Desktop/cluster/DUD-E-result/pyrd

> <s_m_Source_File>
dock_pv.maegz

> <i_m_Source_File_Index>
585

> <chembl_id>
CHEMBL4545127

> <chembl_pref_name>
None

> <i_lp_mmshare_version>
53161

> <r_lp_tautomer_probability>
1

> <s_lp_Force_Field>
OPLS_2005

> <r_lp_Energy>
17.107569

> <b_lp_Chiralities_Consistent>
1

> <s_lp_Variant>
CHEMBL1966_lig649 -1

> <s_i_glide_gridfile>
glide-grid_1d3g

> <i_i_glide_lignum>
703

> <i_i_glide_rotatable_bonds>
4

> <r_i_docking_score>
-7.35574652055414

> <r_i_glide_ligand_efficiency>
-0.262705232876934

> <r_i_glide_ligand_efficiency_sa>
-0.79772781212206

> <r_i_glide_ligand_efficiency_ln>
-1.6979222710464

> <r_i_glide_gscore>
-7.35574652055414

> <r_i_glide_lipo>
-3.42179438945669

> <r_i_glide_hbond>
-0.00404933449919284

> <r_i_glide_metal>
0

> <r_i_glide_rewards>
-2.58048185851316

> <r_i_glide_evdw>
-30.589729309082

> <r_i_glide_ecoul>
-0.213080674409866

> <r_i_glide_erotb>
0.212027628530489

> <r_i_glide_esite>
0

> <r_i_glide_emodel>
-32.868395627832

> <r_i_glide_energy>
-30.8028099834919

> <r_i_glide_einternal>
6.31119203567505

> <i_i_glide_confnum>
5

> <i_i_glide_posenum>
374

> <r_i_glide_eff_state_penalty>
0

> <s_user_duplicate_titles>
CHEMBL1966_lig649 

> <i_f3d_flags>
0

> <s_m_subgroup_title>
dock_pv

> <s_m_subgroupid>
dock_pv

> <b_m_subgroup_collapsed>
1

$$$$
CHEMBL1966_lig109
                    3D
 Schrodinger Suite 2021-1.
 35 36  0  0  1  0            999 V2000
   50.4473   42.0244   -3.2022 C   0  0  0  0  0  0
   49.7897   41.7757   -2.0041 C   0  0  0  0  0  0
   50.0170   42.6785   -0.9517 C   0  0  0  0  0  0
   50.8230   43.8095   -1.1203 C   0  0  0  0  0  0
   51.5398   44.0100   -2.3082 C   0  0  0  0  0  0
   51.3055   43.1036   -3.3595 C   0  0  0  0  0  0
   48.8230   40.6330   -1.9181 C   0  0  0  0  0  0
   52.4230   45.1294   -2.3516 N   0  0  0  0  0  0
   53.6811   45.2100   -2.8426 C   0  0  0  0  0  0
   54.3621   46.5889   -2.7768 C   0  0  2  0  0  0
   54.3076   44.2559   -3.2990 O   0  0  0  0  0  0
   55.5138   46.7215   -3.6899 C   0  0  0  0  0  0
   54.7406   47.0404   -1.3481 C   0  0  0  0  0  0
   56.0230   47.8451   -1.1408 C   0  0  0  0  0  0
   54.0087   46.8100   -0.3849 O   0  0  0  0  0  0
   56.4177   46.8289   -4.4054 N   0  0  0  0  0  0
   48.5103   40.0100   -0.6981 C   0  0  0  0  0  0
   47.5425   39.0121   -0.6311 C   0  0  0  0  0  0
   46.8285   38.6530   -1.7642 C   0  0  0  0  0  0
   47.0973   39.2703   -2.9765 C   0  0  0  0  0  0
   48.0998   40.2322   -3.0568 C   0  0  0  0  0  0
   52.0230   43.2100   -4.8990 Cl  0  0  0  0  0  0
   50.3179   41.3546   -4.0385 H   0  0  0  0  0  0
   49.5079   42.5470   -0.0087 H   0  0  0  0  0  0
   50.9433   44.4920   -0.2908 H   0  0  0  0  0  0
   52.1453   45.9001   -1.7621 H   0  0  0  0  0  0
   56.0160   48.7445   -1.7564 H   0  0  0  0  0  0
   56.8967   47.2446   -1.3943 H   0  0  0  0  0  0
   56.1176   48.1480   -0.0990 H   0  0  0  0  0  0
   53.6459   47.3202   -3.1520 H   0  0  0  0  0  0
   49.0360   40.2820    0.2051 H   0  0  0  0  0  0
   47.3325   38.5196    0.3010 H   0  0  0  0  0  0
   46.0591   37.8979   -1.6989 H   0  0  0  0  0  0
   46.5180   39.0160   -3.8495 H   0  0  0  0  0  0
   48.2567   40.7089   -4.0121 H   0  0  0  0  0  0
  1  6  1  0  0  0
  1  2  2  0  0  0
  1 23  1  0  0  0
  2  7  1  0  0  0
  2  3  1  0  0  0
  3  4  2  0  0  0
  3 24  1  0  0  0
  4  5  1  0  0  0
  4 25  1  0  0  0
  5  6  2  0  0  0
  5  8  1  0  0  0
  6 22  1  0  0  0
  7 17  2  0  0  0
  7 21  1  0  0  0
  8  9  1  0  0  0
  8 26  1  0  0  0
  9 11  2  0  0  0
  9 10  1  0  0  0
 10 12  1  0  0  0
 10 30  1  0  0  0
 10 13  1  0  0  0
 12 16  3  0  0  0
 13 15  2  0  0  0
 13 14  1  0  0  0
 14 27  1  0  0  0
 14 28  1  0  0  0
 14 29  1  0  0  0
 17 18  1  0  0  0
 17 31  1  0  0  0
 18 19  2  0  0  0
 18 32  1  0  0  0
 19 20  1  0  0  0
 19 33  1  0  0  0
 20 21  2  0  0  0
 20 34  1  0  0  0
 21 35  1  0  0  0
M  END
> <s_m_entry_id>
25934

> <s_m_entry_name>
dock_pv.586

> <s_m_Source_Path>
/home/csk/Desktop/cluster/DUD-E-result/pyrd

> <s_m_Source_File>
dock_pv.maegz

> <i_m_Source_File_Index>
586

> <chembl_id>
CHEMBL483994

> <chembl_pref_name>
None

> <i_lp_mmshare_version>
53161

> <r_lp_tautomer_probability>
0.995394628248396

> <s_lp_Force_Field>
OPLS_2005

> <r_lp_Energy>
22.348688

> <b_lp_Chiralities_Consistent>
1

> <s_lp_Variant>
CHEMBL1966_lig109-1

> <s_i_glide_gridfile>
glide-grid_1d3g

> <i_i_glide_lignum>
119

> <i_i_glide_rotatable_bonds>
5

> <r_i_docking_score>
-7.35378563315548

> <r_i_glide_ligand_efficiency>
-0.334262983325249

> <r_i_glide_ligand_efficiency_sa>
-0.936618025094512

> <r_i_glide_ligand_efficiency_ln>
-1.79753344459156

> <r_i_glide_gscore>
-7.35378563315548

> <r_i_glide_lipo>
-4.320063372239

> <r_i_glide_hbond>
0

> <r_i_glide_metal>
0

> <r_i_glide_rewards>
-2.66330123235163

> <r_i_glide_evdw>
-24.2518157958984

> <r_i_glide_ecoul>
0.553301572799683

> <r_i_glide_erotb>
0.759174525310115

> <r_i_glide_esite>
0

> <r_i_glide_emodel>
-30.5086718622241

> <r_i_glide_energy>
-23.6985142230988

> <r_i_glide_einternal>
4.29208660125732

> <i_i_glide_confnum>
20

> <i_i_glide_posenum>
322

> <r_i_glide_eff_state_penalty>
0

> <s_user_duplicate_titles>
CHEMBL1966_lig109

> <i_f3d_flags>
0

> <s_m_subgroup_title>
dock_pv

> <s_m_subgroupid>
dock_pv

> <b_m_subgroup_collapsed>
1

$$$$
CHEMBL1966_lig214
                    3D
 Schrodinger Suite 2021-1.
 41 42  0  0  1  0            999 V2000
   55.0944   47.4200    0.5479 O   0  0  0  0  0  0
   52.4230   44.8100   -2.4990 N   0  0  0  0  0  0
   49.9687   42.0201   -1.7919 C   0  0  0  0  0  0
   56.2984   46.0100   -1.6990 O   0  0  0  0  0  0
   51.0347   43.4737   -3.9321 C   0  0  0  0  0  0
   54.8770   46.6201   -3.3413 N   0  0  0  0  0  0
   51.4039   43.8267   -2.6331 C   0  0  0  0  0  0
   50.1345   42.4371   -4.1673 C   0  0  0  0  0  0
   52.8025   45.6100   -1.4245 C   0  0  0  0  0  0
   54.1054   46.8100    0.1435 C   0  0  0  0  0  0
   55.1511   46.2357   -2.0826 C   0  0  0  0  0  0
   49.6230   41.6833   -3.1110 C   0  0  0  0  0  0
   52.8689   46.5695    0.9774 C   0  0  0  0  0  0
   51.6230   45.9483   -0.1397 S   0  0  0  0  0  0
   54.0076   46.1936   -1.1855 C   0  0  0  0  0  0
   50.8230   43.1104   -1.5673 C   0  0  0  0  0  0
   49.4003   41.2433   -0.5990 C   0  0  0  0  0  0
   48.7208   40.4978   -3.4276 C   0  0  0  0  0  0
   55.8865   46.8913   -4.3702 C   0  0  0  0  0  0
   56.8140   45.7097   -4.7338 C   0  0  0  0  0  0
   57.6843   45.9887   -5.9670 C   0  0  0  0  0  0
   52.9793   44.8801   -3.3377 H   0  0  0  0  0  0
   51.4498   43.9995   -4.7790 H   0  0  0  0  0  0
   53.9196   46.8340   -3.5764 H   0  0  0  0  0  0
   49.8709   42.1959   -5.1866 H   0  0  0  0  0  0
   53.0689   45.8217    1.7444 H   0  0  0  0  0  0
   52.5150   47.4825    1.4550 H   0  0  0  0  0  0
   51.1040   43.3355   -0.5514 H   0  0  0  0  0  0
   50.0230   40.4100   -0.2983 H   0  0  0  0  0  0
   49.2644   41.9003    0.2612 H   0  0  0  0  0  0
   48.4230   40.8100   -0.8110 H   0  0  0  0  0  0
   47.6979   40.6955   -3.1077 H   0  0  0  0  0  0
   48.7165   40.2519   -4.4902 H   0  0  0  0  0  0
   49.0682   39.6100   -2.8990 H   0  0  0  0  0  0
   56.4835   47.7629   -4.0936 H   0  0  0  0  0  0
   55.3531   47.2100   -5.2647 H   0  0  0  0  0  0
   56.2261   44.8093   -4.8990 H   0  0  0  0  0  0
   57.4738   45.4822   -3.8957 H   0  0  0  0  0  0
   58.3123   45.1287   -6.2022 H   0  0  0  0  0  0
   58.3429   46.8420   -5.8008 H   0  0  0  0  0  0
   57.0749   46.2030   -6.8454 H   0  0  0  0  0  0
  1 10  2  0  0  0
  2  9  1  0  0  0
  2  7  1  0  0  0
  2 22  1  0  0  0
  3 16  1  0  0  0
  3 12  2  0  0  0
  3 17  1  0  0  0
  4 11  2  0  0  0
  5  8  2  0  0  0
  5  7  1  0  0  0
  5 23  1  0  0  0
  6 11  1  0  0  0
  6 19  1  0  0  0
  6 24  1  0  0  0
  7 16  2  0  0  0
  8 12  1  0  0  0
  8 25  1  0  0  0
  9 15  2  0  0  0
  9 14  1  0  0  0
 10 15  1  0  0  0
 10 13  1  0  0  0
 11 15  1  0  0  0
 12 18  1  0  0  0
 13 14  1  0  0  0
 13 26  1  0  0  0
 13 27  1  0  0  0
 16 28  1  0  0  0
 17 29  1  0  0  0
 17 30  1  0  0  0
 17 31  1  0  0  0
 18 32  1  0  0  0
 18 33  1  0  0  0
 18 34  1  0  0  0
 19 20  1  0  0  0
 19 35  1  0  0  0
 19 36  1  0  0  0
 20 21  1  0  0  0
 20 37  1  0  0  0
 20 38  1  0  0  0
 21 39  1  0  0  0
 21 40  1  0  0  0
 21 41  1  0  0  0
M  END
> <s_m_entry_id>
25935

> <s_m_entry_name>
dock_pv.587

> <s_m_Source_Path>
/home/csk/Desktop/cluster/DUD-E-result/pyrd

> <s_m_Source_File>
dock_pv.maegz

> <i_m_Source_File_Index>
587

> <chembl_id>
CHEMBL2431484

> <chembl_pref_name>
None

> <i_lp_mmshare_version>
53161

> <r_lp_tautomer_probability>
0.9999999514288

> <s_lp_Force_Field>
OPLS_2005

> <r_lp_Energy>
26.799812

> <b_lp_Chiralities_Consistent>
1

> <s_lp_Variant>
CHEMBL1966_lig214-1

> <s_i_glide_gridfile>
glide-grid_1d3g

> <i_i_glide_lignum>
259

> <i_i_glide_rotatable_bonds>
6

> <r_i_docking_score>
-7.35325539150375

> <r_i_glide_ligand_efficiency>
-0.350155018643036

> <r_i_glide_ligand_efficiency_sa>
-0.966051145435065

> <r_i_glide_ligand_efficiency_ln>
-1.81807753689772

> <r_i_glide_gscore>
-7.35325539150375

> <r_i_glide_lipo>
-4.39194485432341

> <r_i_glide_hbond>
0

> <r_i_glide_metal>
0

> <r_i_glide_rewards>
-2.17317237505149

> <r_i_glide_evdw>
-35.5226745605469

> <r_i_glide_ecoul>
-0.0472569204866886

> <r_i_glide_erotb>
0.995084103971497

> <r_i_glide_esite>
0

> <r_i_glide_emodel>
-42.5987242639559

> <r_i_glide_energy>
-35.5699314810336

> <r_i_glide_einternal>
4.08534812927246

> <i_i_glide_confnum>
5

> <i_i_glide_posenum>
94

> <r_i_glide_eff_state_penalty>
0

> <s_user_duplicate_titles>
CHEMBL1966_lig214

> <i_f3d_flags>
0

> <s_m_subgroup_title>
dock_pv

> <s_m_subgroupid>
dock_pv

> <b_m_subgroup_collapsed>
1

$$$$
CHEMBL1966_lig324
                    3D
 Schrodinger Suite 2021-1.
 26 27  0  0  1  0            999 V2000
   49.9884   42.0443   -2.9419 C   0  0  0  0  0  0
   50.0135   41.7908   -1.6058 N   0  0  0  0  0  0
   49.2230   40.8100   -1.1117 C   0  0  0  0  0  0
   48.4184   40.0134   -1.9219 C   0  0  0  0  0  0
   48.3772   40.2881   -3.2860 C   0  0  0  0  0  0
   49.1343   41.3400   -3.8240 C   0  0  0  0  0  0
   50.8833   43.0166   -3.4137 N   0  0  0  0  0  0
   51.6081   44.0100   -2.7455 C   0  0  0  0  0  0
   52.8230   44.4100   -3.2990 C   0  0  0  0  0  0
   53.5540   45.4438   -2.7174 C   0  0  0  0  0  0
   53.0629   46.0753   -1.5770 C   0  0  0  0  0  0
   51.8476   45.6855   -1.0163 C   0  0  0  0  0  0
   51.1184   44.6510   -1.5998 C   0  0  0  0  0  0
   48.9825   41.6516   -5.2973 C   0  0  0  0  0  0
   49.2493   42.9337   -5.6685 O   0  0  0  0  0  0
   48.5935   40.8100   -6.0990 O   0  0  0  0  0  0
   53.7781   47.0687   -1.0040 F   0  0  0  0  0  0
   49.2743   40.6371   -0.0461 H   0  0  0  0  0  0
   47.8254   39.2148   -1.5002 H   0  0  0  0  0  0
   47.7315   39.6891   -3.9139 H   0  0  0  0  0  0
   51.0990   42.9344   -4.3963 H   0  0  0  0  0  0
   53.2230   43.8705   -4.1330 H   0  0  0  0  0  0
   54.5042   45.7424   -3.1347 H   0  0  0  0  0  0
   51.4726   46.1861   -0.1359 H   0  0  0  0  0  0
   50.1659   44.3729   -1.1739 H   0  0  0  0  0  0
   49.2515   43.5460   -4.9273 H   0  0  0  0  0  0
  1  2  2  0  0  0
  1  6  1  0  0  0
  1  7  1  0  0  0
  2  3  1  0  0  0
  3  4  2  0  0  0
  3 18  1  0  0  0
  4  5  1  0  0  0
  4 19  1  0  0  0
  5  6  2  0  0  0
  5 20  1  0  0  0
  6 14  1  0  0  0
  7  8  1  0  0  0
  7 21  1  0  0  0
  8  9  2  0  0  0
  8 13  1  0  0  0
  9 10  1  0  0  0
  9 22  1  0  0  0
 10 11  2  0  0  0
 10 23  1  0  0  0
 11 12  1  0  0  0
 11 17  1  0  0  0
 12 13  2  0  0  0
 12 24  1  0  0  0
 13 25  1  0  0  0
 14 15  1  0  0  0
 14 16  2  0  0  0
 15 26  1  0  0  0
M  END
> <s_m_entry_id>
25936

> <s_m_entry_name>
dock_pv.588

> <s_m_Source_Path>
/home/csk/Desktop/cluster/DUD-E-result/pyrd

> <s_m_Source_File>
dock_pv.maegz

> <i_m_Source_File_Index>
588

> <chembl_id>
CHEMBL3916793

> <chembl_pref_name>
None

> <i_lp_mmshare_version>
53161

> <r_lp_tautomer_probability>
1

> <s_lp_Force_Field>
OPLS_2005

> <r_lp_Energy>
17.529044

> <b_lp_Chiralities_Consistent>
1

> <s_lp_Variant>
CHEMBL1966_lig324-1

> <s_i_glide_gridfile>
glide-grid_1d3g

> <i_i_glide_lignum>
374

> <i_i_glide_rotatable_bonds>
4

> <r_i_docking_score>
-7.34040170784347

> <r_i_glide_ligand_efficiency>
-0.431788335755498

> <r_i_glide_ligand_efficiency_sa>
-1.11024939774055

> <r_i_glide_ligand_efficiency_ln>
-1.91494734286718

> <r_i_glide_gscore>
-7.34040170784347

> <r_i_glide_lipo>
-3.14342732052303

> <r_i_glide_hbond>
-0.16

> <r_i_glide_metal>
0

> <r_i_glide_rewards>
-2.96446100529047

> <r_i_glide_evdw>
-26.719482421875

> <r_i_glide_ecoul>
-4.59545612335205

> <r_i_glide_erotb>
0.952779157566581

> <r_i_glide_esite>
0

> <r_i_glide_emodel>
-43.0342803459015

> <r_i_glide_energy>
-31.3149385452271

> <r_i_glide_einternal>
5.53028297424316

> <i_i_glide_confnum>
12

> <i_i_glide_posenum>
5

> <r_i_glide_eff_state_penalty>
0

> <s_user_duplicate_titles>
CHEMBL1966_lig324

> <i_f3d_flags>
0

> <s_m_subgroup_title>
dock_pv

> <s_m_subgroupid>
dock_pv

> <b_m_subgroup_collapsed>
1

$$$$
CHEMBL1966_lig235
                    3D
 Schrodinger Suite 2021-1.
 39 41  0  0  1  0            999 V2000
   53.2658   46.7214   -1.2650 C   0  0  0  0  0  0
   54.0069   46.8917   -0.0963 C   0  0  0  0  0  0
   52.0689   46.0100   -1.2128 C   0  0  0  0  0  0
   50.5917   44.4100   -0.0071 N   0  0  0  0  0  0
   51.6230   45.3833   -0.0481 C   0  0  0  0  0  0
   49.3659   41.5294   -1.7356 C   0  0  0  0  0  0
   50.9067   43.4211   -2.4987 S   0  0  0  0  0  0
   51.1011   43.6099   -6.8990 C   0  0  0  0  0  0
   49.8959   42.0686   -2.9032 C   0  0  0  0  0  0
   50.1046   42.7613   -5.0257 O   0  0  0  0  0  0
   49.2229   40.7112   -4.7619 O   0  0  0  0  0  0
   53.4930   46.4100    1.1037 C   0  0  0  0  0  0
   49.6310   42.2764   -0.6493 N   0  0  0  0  0  0
   49.6876   41.7513   -4.3008 C   0  0  0  0  0  0
   52.3124   45.6677    1.1285 C   0  0  0  0  0  0
   49.9946   42.7493   -6.3906 C   0  0  0  0  0  0
   50.3217   43.3762   -0.8991 C   0  0  0  0  0  0
   48.4230   40.3444   -1.6571 C   0  0  0  0  0  0
   48.3832   39.5718   -0.4999 C   0  0  0  0  0  0
   47.6229   38.3975   -0.4990 C   0  0  0  0  0  0
   46.7456   38.0895   -1.5182 C   0  0  0  0  0  0
   46.6658   38.9162   -2.6174 C   0  0  0  0  0  0
   47.5129   40.0100   -2.6848 C   0  0  0  0  0  0
   55.5207   47.7268   -0.0990 Cl  0  0  0  0  0  0
   53.7901   47.3819   -2.7746 Cl  0  0  0  0  0  0
   51.4967   45.9160   -2.0990 H   0  0  0  0  0  0
   50.2350   44.2982    0.9305 H   0  0  0  0  0  0
   51.1685   43.5839   -7.9817 H   0  0  0  0  0  0
   50.9697   44.6463   -6.5892 H   0  0  0  0  0  0
   52.0230   43.2100   -6.4990 H   0  0  0  0  0  0
   54.0230   46.5889    2.0225 H   0  0  0  0  0  0
   51.9928   45.2398    2.0648 H   0  0  0  0  0  0
   50.0230   41.7551   -6.8422 H   0  0  0  0  0  0
   49.0091   43.1984   -6.4990 H   0  0  0  0  0  0
   49.0316   39.7889    0.3355 H   0  0  0  0  0  0
   47.7001   37.6924    0.3017 H   0  0  0  0  0  0
   46.1238   37.2103   -1.4422 H   0  0  0  0  0  0
   45.9600   38.7157   -3.4097 H   0  0  0  0  0  0
   47.3461   40.6673   -3.5175 H   0  0  0  0  0  0
  1  2  2  0  0  0
  1  3  1  0  0  0
  1 25  1  0  0  0
  2 12  1  0  0  0
  2 24  1  0  0  0
  3  5  2  0  0  0
  3 26  1  0  0  0
  4 17  1  0  0  0
  4  5  1  0  0  0
  4 27  1  0  0  0
  5 15  1  0  0  0
  6  9  2  0  0  0
  6 13  1  0  0  0
  6 18  1  0  0  0
  7 17  1  0  0  0
  7  9  1  0  0  0
  8 16  1  0  0  0
  8 28  1  0  0  0
  8 29  1  0  0  0
  8 30  1  0  0  0
  9 14  1  0  0  0
 10 14  1  0  0  0
 10 16  1  0  0  0
 11 14  2  0  0  0
 12 15  2  0  0  0
 12 31  1  0  0  0
 13 17  2  0  0  0
 15 32  1  0  0  0
 16 33  1  0  0  0
 16 34  1  0  0  0
 18 19  1  0  0  0
 18 23  2  0  0  0
 19 20  2  0  0  0
 19 35  1  0  0  0
 20 21  1  0  0  0
 20 36  1  0  0  0
 21 22  2  0  0  0
 21 37  1  0  0  0
 22 23  1  0  0  0
 22 38  1  0  0  0
 23 39  1  0  0  0
M  END
> <s_m_entry_id>
25937

> <s_m_entry_name>
dock_pv.589

> <s_m_Source_Path>
/home/csk/Desktop/cluster/DUD-E-result/pyrd

> <s_m_Source_File>
dock_pv.maegz

> <i_m_Source_File_Index>
589

> <chembl_id>
CHEMBL3410604

> <chembl_pref_name>
None

> <i_lp_mmshare_version>
53161

> <r_lp_tautomer_probability>
1

> <s_lp_Force_Field>
OPLS_2005

> <r_lp_Energy>
15.460299

> <b_lp_Chiralities_Consistent>
1

> <s_lp_Variant>
CHEMBL1966_lig235-1

> <s_i_glide_gridfile>
glide-grid_1d3g

> <i_i_glide_lignum>
281

> <i_i_glide_rotatable_bonds>
6

> <r_i_docking_score>
-7.32385885478256

> <r_i_glide_ligand_efficiency>
-0.292954354191302

> <r_i_glide_ligand_efficiency_sa>
-0.856603727222963

> <r_i_glide_ligand_efficiency_ln>
-1.73597402692253

> <r_i_glide_gscore>
-7.32385885478256

> <r_i_glide_lipo>
-5.3150563757758

> <r_i_glide_hbond>
0

> <r_i_glide_metal>
0

> <r_i_glide_rewards>
-1.83075899870524

> <r_i_glide_evdw>
-13.5017986297607

> <r_i_glide_ecoul>
-0.895899057388306

> <r_i_glide_erotb>
0.631431309794764

> <r_i_glide_esite>
0

> <r_i_glide_emodel>
-21.2807609781185

> <r_i_glide_energy>
-14.397697687149

> <r_i_glide_einternal>
8.66798686981201

> <i_i_glide_confnum>
68

> <i_i_glide_posenum>
133

> <r_i_glide_eff_state_penalty>
0

> <s_user_duplicate_titles>
CHEMBL1966_lig235

> <i_f3d_flags>
0

> <s_m_subgroup_title>
dock_pv

> <s_m_subgroupid>
dock_pv

> <b_m_subgroup_collapsed>
1

$$$$
CHEMBL1966_lig323
                    3D
 Schrodinger Suite 2021-1.
 26 27  0  0  1  0            999 V2000
   51.1821   44.6407   -1.5440 C   0  0  0  0  0  0
   51.9572   45.6416   -0.9554 C   0  0  0  0  0  0
   53.1716   46.0100   -1.5378 C   0  0  0  0  0  0
   54.1860   47.1789   -0.7766 Cl  0  0  0  0  0  0
   53.6013   45.4054   -2.7159 C   0  0  0  0  0  0
   52.8230   44.4100   -3.2990 C   0  0  0  0  0  0
   51.6229   44.0100   -2.7157 C   0  0  0  0  0  0
   50.8633   43.0490   -3.3919 N   0  0  0  0  0  0
   49.9838   42.0598   -2.9277 C   0  0  0  0  0  0
   50.0059   41.8010   -1.5928 N   0  0  0  0  0  0
   49.2230   40.8100   -1.1068 C   0  0  0  0  0  0
   48.4230   40.0141   -1.9227 C   0  0  0  0  0  0
   48.3893   40.2910   -3.2866 C   0  0  0  0  0  0
   49.1439   41.3480   -3.8184 C   0  0  0  0  0  0
   49.0050   41.6552   -5.2948 C   0  0  0  0  0  0
   48.6270   40.8100   -6.0990 O   0  0  0  0  0  0
   49.2741   42.9364   -5.6671 O   0  0  0  0  0  0
   50.2369   44.3732   -1.0957 H   0  0  0  0  0  0
   51.6233   46.1177   -0.0449 H   0  0  0  0  0  0
   54.5477   45.6810   -3.1577 H   0  0  0  0  0  0
   53.1871   43.8875   -4.1606 H   0  0  0  0  0  0
   51.1405   42.9130   -4.3528 H   0  0  0  0  0  0
   49.2713   40.6329   -0.0416 H   0  0  0  0  0  0
   47.8326   39.2107   -1.5064 H   0  0  0  0  0  0
   47.7523   39.6885   -3.9198 H   0  0  0  0  0  0
   49.2943   43.5445   -4.9226 H   0  0  0  0  0  0
  1  2  1  0  0  0
  1  7  2  0  0  0
  1 18  1  0  0  0
  2  3  2  0  0  0
  2 19  1  0  0  0
  3  4  1  0  0  0
  3  5  1  0  0  0
  5  6  2  0  0  0
  5 20  1  0  0  0
  6  7  1  0  0  0
  6 21  1  0  0  0
  7  8  1  0  0  0
  8  9  1  0  0  0
  8 22  1  0  0  0
  9 10  1  0  0  0
  9 14  2  0  0  0
 10 11  2  0  0  0
 11 12  1  0  0  0
 11 23  1  0  0  0
 12 13  2  0  0  0
 12 24  1  0  0  0
 13 14  1  0  0  0
 13 25  1  0  0  0
 14 15  1  0  0  0
 15 16  2  0  0  0
 15 17  1  0  0  0
 17 26  1  0  0  0
M  END
> <s_m_entry_id>
25939

> <s_m_entry_name>
dock_pv.591

> <s_m_Source_Path>
/home/csk/Desktop/cluster/DUD-E-result/pyrd

> <s_m_Source_File>
dock_pv.maegz

> <i_m_Source_File_Index>
591

> <chembl_id>
CHEMBL1237007

> <chembl_pref_name>
None

> <i_lp_mmshare_version>
53161

> <r_lp_tautomer_probability>
1

> <s_lp_Force_Field>
OPLS_2005

> <r_lp_Energy>
17.108723

> <b_lp_Chiralities_Consistent>
1

> <s_lp_Variant>
CHEMBL1966_lig323-1

> <s_i_glide_gridfile>
glide-grid_1d3g

> <i_i_glide_lignum>
373

> <i_i_glide_rotatable_bonds>
4

> <r_i_docking_score>
-7.31629314527769

> <r_i_glide_ligand_efficiency>
-0.430370185016335

> <r_i_glide_ligand_efficiency_sa>
-1.1066029328556

> <r_i_glide_ligand_efficiency_ln>
-1.90865795576506

> <r_i_glide_gscore>
-7.31629314527769

> <r_i_glide_lipo>
-3.45354861465558

> <r_i_glide_hbond>
-0.16

> <r_i_glide_metal>
0

> <r_i_glide_rewards>
-2.46441770534474

> <r_i_glide_evdw>
-28.1910133361816

> <r_i_glide_ecoul>
-4.51013851165771

> <r_i_glide_erotb>
0.847744618280362

> <r_i_glide_esite>
0

> <r_i_glide_emodel>
-45.0362139137541

> <r_i_glide_energy>
-32.7011518478394

> <r_i_glide_einternal>
6.05918455123901

> <i_i_glide_confnum>
10

> <i_i_glide_posenum>
114

> <r_i_glide_eff_state_penalty>
0

> <s_user_duplicate_titles>
CHEMBL1966_lig323

> <i_f3d_flags>
0

> <s_m_subgroup_title>
dock_pv

> <s_m_subgroupid>
dock_pv

> <b_m_subgroup_collapsed>
1

$$$$
CHEMBL1966_lig262
                    3D
 Schrodinger Suite 2021-1.
 32 33  0  0  1  0            999 V2000
   47.6066   39.8163   -3.2985 Br  0  0  0  0  0  0
   54.0250   45.6297   -2.8990 S   0  0  0  0  0  0
   56.0179   47.4767   -1.8450 O   0  0  0  0  0  0
   55.2227   47.6103    0.3013 O   0  0  0  0  0  0
   52.0165   45.2100   -1.3601 N   0  0  0  0  0  0
   52.0087   44.0097   -3.4580 N   0  0  0  0  0  0
   54.0062   46.3829   -1.3220 C   0  0  0  0  0  0
   52.5299   44.8613   -2.5143 C   0  0  0  0  0  0
   52.8113   46.0174   -0.6768 C   0  0  0  0  0  0
   55.1225   47.2102   -0.8573 C   0  0  0  0  0  0
   50.9335   43.1150   -3.3483 C   0  0  0  0  0  0
   52.3060   46.4042    0.7007 C   0  0  0  0  0  0
   50.2235   42.8126   -4.5114 C   0  0  0  0  0  0
   50.6145   42.4635   -2.1518 C   0  0  0  0  0  0
   48.9445   41.1675   -3.3096 C   0  0  0  0  0  0
   49.2234   41.8454   -4.4928 C   0  0  0  0  0  0
   49.6239   41.4833   -2.1351 C   0  0  0  0  0  0
   57.1655   48.2873   -1.6172 C   0  0  0  0  0  0
   56.8298   49.7822   -1.6992 C   0  0  0  0  0  0
   52.2671   44.1658   -4.4204 H   0  0  0  0  0  0
   53.0981   46.7508    1.3633 H   0  0  0  0  0  0
   51.5734   47.2085    0.6431 H   0  0  0  0  0  0
   51.8269   45.5707    1.2152 H   0  0  0  0  0  0
   50.4522   43.3148   -5.4405 H   0  0  0  0  0  0
   51.1640   42.6750   -1.2475 H   0  0  0  0  0  0
   48.6761   41.6144   -5.3939 H   0  0  0  0  0  0
   49.3950   40.9581   -1.2192 H   0  0  0  0  0  0
   57.9050   48.0441   -2.3809 H   0  0  0  0  0  0
   57.6222   48.0467   -0.6556 H   0  0  0  0  0  0
   57.7238   50.3857   -1.5411 H   0  0  0  0  0  0
   56.1024   50.0684   -0.9401 H   0  0  0  0  0  0
   56.4200   50.0401   -2.6759 H   0  0  0  0  0  0
  1 15  1  0  0  0
  2  7  1  0  0  0
  2  8  1  0  0  0
  3 10  1  0  0  0
  3 18  1  0  0  0
  4 10  2  0  0  0
  5  8  2  0  0  0
  5  9  1  0  0  0
  6  8  1  0  0  0
  6 11  1  0  0  0
  6 20  1  0  0  0
  7  9  2  0  0  0
  7 10  1  0  0  0
  9 12  1  0  0  0
 11 13  2  0  0  0
 11 14  1  0  0  0
 12 21  1  0  0  0
 12 22  1  0  0  0
 12 23  1  0  0  0
 13 16  1  0  0  0
 13 24  1  0  0  0
 14 17  2  0  0  0
 14 25  1  0  0  0
 15 16  2  0  0  0
 15 17  1  0  0  0
 16 26  1  0  0  0
 17 27  1  0  0  0
 18 19  1  0  0  0
 18 28  1  0  0  0
 18 29  1  0  0  0
 19 30  1  0  0  0
 19 31  1  0  0  0
 19 32  1  0  0  0
M  END
> <s_m_entry_id>
25940

> <s_m_entry_name>
dock_pv.592

> <s_m_Source_Path>
/home/csk/Desktop/cluster/DUD-E-result/pyrd

> <s_m_Source_File>
dock_pv.maegz

> <i_m_Source_File_Index>
592

> <chembl_id>
CHEMBL1460972

> <chembl_pref_name>
None

> <i_lp_mmshare_version>
53161

> <r_lp_tautomer_probability>
1

> <s_lp_Force_Field>
OPLS_2005

> <r_lp_Energy>
7.87526

> <b_lp_Chiralities_Consistent>
1

> <s_lp_Variant>
CHEMBL1966_lig262-1

> <s_i_glide_gridfile>
glide-grid_1d3g

> <i_i_glide_lignum>
308

> <i_i_glide_rotatable_bonds>
5

> <r_i_docking_score>
-7.30127944333917

> <r_i_glide_ligand_efficiency>
-0.384277865438903

> <r_i_glide_ligand_efficiency_sa>
-1.0254076886981

> <r_i_glide_ligand_efficiency_ln>
-1.85103115599018

> <r_i_glide_gscore>
-7.30127944333917

> <r_i_glide_lipo>
-4.14450530988416

> <r_i_glide_hbond>
0

> <r_i_glide_metal>
0

> <r_i_glide_rewards>
-1.83255893651792

> <r_i_glide_evdw>
-39.777416229248

> <r_i_glide_ecoul>
0.0915848612785339

> <r_i_glide_erotb>
0.650917885333542

> <r_i_glide_esite>
0

> <r_i_glide_emodel>
-54.9412854152884

> <r_i_glide_energy>
-39.6858313679695

> <r_i_glide_einternal>
2.49740028381348

> <i_i_glide_confnum>
10

> <i_i_glide_posenum>
175

> <r_i_glide_eff_state_penalty>
0

> <s_user_duplicate_titles>
CHEMBL1966_lig262

> <i_f3d_flags>
0

> <s_m_subgroup_title>
dock_pv

> <s_m_subgroupid>
dock_pv

> <b_m_subgroup_collapsed>
1

$$$$
CHEMBL1966_lig438
                    3D
 Schrodinger Suite 2021-1.
 52 54  0  0  1  0            999 V2000
   57.7683   46.0614   -3.7565 C   0  0  0  0  0  0
   56.6386   46.1829   -4.7982 C   0  0  0  0  0  0
   57.2024   46.5801   -6.1696 C   0  0  0  0  0  0
   55.6437   47.1547   -4.4551 O   0  0  0  0  0  0
   54.9767   46.9522   -3.2722 C   0  0  0  0  0  0
   55.4406   47.5552   -2.1085 C   0  0  0  0  0  0
   54.8230   47.2740   -0.8987 C   0  0  0  0  0  0
   53.7309   46.4104   -0.8572 C   0  0  0  0  0  0
   53.1822   45.8238   -2.0175 C   0  0  0  0  0  0
   53.8436   46.1365   -3.2228 C   0  0  0  0  0  0
   52.0407   44.8099   -2.0006 C   0  0  0  0  0  0
   51.9923   44.0101   -3.1189 N   0  0  0  0  0  0
   51.1988   42.9108   -3.1521 C   0  0  0  0  0  0
   50.3906   42.5231   -2.0850 C   0  0  0  0  0  0
   49.6243   41.3406   -2.0384 N   0  0  0  0  0  0
   48.7095   40.7700   -2.9426 C   0  0  0  0  0  0
   48.6776   41.2099   -4.2771 C   0  0  0  0  0  0
   47.6263   40.8713   -5.1224 C   0  0  0  0  0  0
   46.5835   40.0873   -4.6456 C   0  0  0  0  0  0
   45.3590   39.8218   -5.4883 C   0  0  0  0  0  0
   46.6580   39.5486   -3.3714 C   0  0  0  0  0  0
   47.7083   39.8569   -2.4991 C   0  0  0  0  0  0
   47.6231   39.2100   -1.1257 C   0  0  0  0  0  0
   46.8529   38.2803   -0.8991 O   0  0  0  0  0  0
   48.4231   39.7083   -0.1473 O   0  0  0  0  0  0
   50.3977   43.3469   -0.9631 C   0  0  0  0  0  0
   51.2159   44.4847   -0.8911 C   0  0  0  0  0  0
   51.2230   45.2071    0.4463 C   0  0  0  0  0  0
   58.5547   45.3876   -4.0991 H   0  0  0  0  0  0
   57.4053   45.6655   -2.8088 H   0  0  0  0  0  0
   58.2234   47.0328   -3.5648 H   0  0  0  0  0  0
   56.1575   45.2076   -4.8958 H   0  0  0  0  0  0
   57.9677   45.8786   -6.5023 H   0  0  0  0  0  0
   56.4224   46.5951   -6.9290 H   0  0  0  0  0  0
   57.6482   47.5746   -6.1417 H   0  0  0  0  0  0
   56.3039   48.2033   -2.1408 H   0  0  0  0  0  0
   55.2061   47.7043    0.0145 H   0  0  0  0  0  0
   53.3785   46.2095    0.1326 H   0  0  0  0  0  0
   53.5007   45.7101   -4.1482 H   0  0  0  0  0  0
   51.3101   42.2985   -4.0298 H   0  0  0  0  0  0
   49.3721   41.0711   -1.0960 H   0  0  0  0  0  0
   49.3944   41.9084   -4.6660 H   0  0  0  0  0  0
   47.5838   41.3056   -6.1082 H   0  0  0  0  0  0
   44.8231   38.9417   -5.1343 H   0  0  0  0  0  0
   44.7159   40.7018   -5.4779 H   0  0  0  0  0  0
   45.6232   39.6100   -6.5130 H   0  0  0  0  0  0
   45.8464   38.9090   -3.0501 H   0  0  0  0  0  0
   48.2308   39.2159    0.6598 H   0  0  0  0  0  0
   49.7870   43.0713   -0.1152 H   0  0  0  0  0  0
   50.3660   44.9117    1.0395 H   0  0  0  0  0  0
   52.0652   44.9083    1.0648 H   0  0  0  0  0  0
   51.2230   46.2905    0.3270 H   0  0  0  0  0  0
  1  2  1  0  0  0
  1 29  1  0  0  0
  1 30  1  0  0  0
  1 31  1  0  0  0
  2  3  1  0  0  0
  2  4  1  0  0  0
  2 32  1  0  0  0
  3 33  1  0  0  0
  3 34  1  0  0  0
  3 35  1  0  0  0
  4  5  1  0  0  0
  5  6  2  0  0  0
  5 10  1  0  0  0
  6  7  1  0  0  0
  6 36  1  0  0  0
  7  8  2  0  0  0
  7 37  1  0  0  0
  8  9  1  0  0  0
  8 38  1  0  0  0
  9 10  2  0  0  0
  9 11  1  0  0  0
 10 39  1  0  0  0
 11 12  2  0  0  0
 11 27  1  0  0  0
 12 13  1  0  0  0
 13 14  2  0  0  0
 13 40  1  0  0  0
 14 15  1  0  0  0
 14 26  1  0  0  0
 15 16  1  0  0  0
 15 41  1  0  0  0
 16 17  2  0  0  0
 16 22  1  0  0  0
 17 18  1  0  0  0
 17 42  1  0  0  0
 18 19  2  0  0  0
 18 43  1  0  0  0
 19 20  1  0  0  0
 19 21  1  0  0  0
 20 44  1  0  0  0
 20 45  1  0  0  0
 20 46  1  0  0  0
 21 22  2  0  0  0
 21 47  1  0  0  0
 22 23  1  0  0  0
 23 24  2  0  0  0
 23 25  1  0  0  0
 25 48  1  0  0  0
 26 27  2  0  0  0
 26 49  1  0  0  0
 27 28  1  0  0  0
 28 50  1  0  0  0
 28 51  1  0  0  0
 28 52  1  0  0  0
M  END
> <s_m_entry_id>
25942

> <s_m_entry_name>
dock_pv.594

> <s_m_Source_Path>
/home/csk/Desktop/cluster/DUD-E-result/pyrd

> <s_m_Source_File>
dock_pv.maegz

> <i_m_Source_File_Index>
594

> <chembl_id>
CHEMBL3674648

> <chembl_pref_name>
None

> <i_lp_mmshare_version>
53161

> <r_lp_tautomer_probability>
0.999999999999999

> <s_lp_Force_Field>
OPLS_2005

> <r_lp_Energy>
32.813066

> <b_lp_Chiralities_Consistent>
1

> <s_lp_Variant>
CHEMBL1966_lig438-1

> <s_i_glide_gridfile>
glide-grid_1d3g

> <i_i_glide_lignum>
488

> <i_i_glide_rotatable_bonds>
7

> <r_i_docking_score>
-7.29265580688523

> <r_i_glide_ligand_efficiency>
-0.260451993103044

> <r_i_glide_ligand_efficiency_sa>
-0.790885649081275

> <r_i_glide_ligand_efficiency_ln>
-1.68335908190777

> <r_i_glide_gscore>
-7.29265580688523

> <r_i_glide_lipo>
-5.59761776782148

> <r_i_glide_hbond>
0

> <r_i_glide_metal>
0

> <r_i_glide_rewards>
0.19574744406012

> <r_i_glide_evdw>
-41.3516540527344

> <r_i_glide_ecoul>
-3.37462592124939

> <r_i_glide_erotb>
0.682991107700261

> <r_i_glide_esite>
0

> <r_i_glide_emodel>
-27.4822079787328

> <r_i_glide_energy>
-44.7262799739838

> <r_i_glide_einternal>
29.7765350341797

> <i_i_glide_confnum>
21

> <i_i_glide_posenum>
191

> <r_i_glide_eff_state_penalty>
0

> <s_user_duplicate_titles>
CHEMBL1966_lig438

> <i_f3d_flags>
0

> <s_m_subgroup_title>
dock_pv

> <s_m_subgroupid>
dock_pv

> <b_m_subgroup_collapsed>
1

$$$$
CHEMBL1966_lig336
                    3D
 Schrodinger Suite 2021-1.
 46 48  0  0  1  0            999 V2000
   46.5340   40.0100   -4.9780 Cl  0  0  0  0  0  0
   50.7906   41.9709   -2.2195 O   0  0  0  0  0  0
   51.2230   46.6865   -0.4990 O   0  0  0  0  0  0
   52.3591   45.1590   -1.7045 N   0  0  0  0  0  0
   49.6230   42.2454   -0.2820 N   0  0  0  0  0  0
   54.5507   46.4948   -1.7544 C   0  0  0  0  0  0
   53.3326   45.9114   -2.4670 C   0  0  1  0  0  0
   55.8675   46.2687   -2.2249 C   0  0  0  0  0  0
   54.3811   47.3083   -0.6431 C   0  0  0  0  0  0
   53.7441   45.1028   -3.6990 C   0  0  0  0  0  0
   56.1798   45.1926   -3.2529 C   0  0  0  0  0  0
   48.8880   40.5701   -1.8093 C   0  0  0  0  0  0
   56.9008   47.0551   -1.7309 C   0  0  0  0  0  0
   54.9917   44.2438   -3.3911 C   0  0  0  0  0  0
   49.9143   41.6103   -1.4319 C   0  0  0  0  0  0
   51.3052   45.5835   -1.0198 C   0  0  0  0  0  0
   48.4229   40.5310   -3.1278 C   0  0  0  0  0  0
   55.4381   48.0100   -0.1084 C   0  0  0  0  0  0
   56.6921   47.9428   -0.6901 C   0  0  0  0  0  0
   47.2907   39.7833   -3.4470 C   0  0  0  0  0  0
   48.2695   39.7529   -0.8441 C   0  0  0  0  0  0
   50.1166   44.6398   -1.1199 C   0  0  0  0  0  0
   46.7153   38.9379   -2.4990 C   0  0  0  0  0  0
   47.2230   38.9044   -1.2020 C   0  0  0  0  0  0
   49.8292   43.6664    0.0298 C   0  0  0  0  0  0
   52.3172   44.1857   -1.9705 H   0  0  0  0  0  0
   48.9960   41.7613    0.3408 H   0  0  0  0  0  0
   52.7789   46.7739   -2.8487 H   0  0  0  0  0  0
   53.4108   47.4704   -0.2110 H   0  0  0  0  0  0
   53.9738   45.8357   -4.4759 H   0  0  0  0  0  0
   52.9250   44.4805   -4.0667 H   0  0  0  0  0  0
   56.4026   45.6590   -4.2140 H   0  0  0  0  0  0
   57.0712   44.6353   -2.9590 H   0  0  0  0  0  0
   57.8922   46.9496   -2.1431 H   0  0  0  0  0  0
   55.2230   43.4591   -4.0990 H   0  0  0  0  0  0
   54.8235   43.6680   -2.4990 H   0  0  0  0  0  0
   48.8446   41.1874   -3.8766 H   0  0  0  0  0  0
   55.2230   48.6795    0.7010 H   0  0  0  0  0  0
   57.5093   48.5368   -0.3216 H   0  0  0  0  0  0
   48.6058   39.7469    0.1836 H   0  0  0  0  0  0
   49.2230   45.2100   -1.1855 H   0  0  0  0  0  0
   50.0230   44.2228   -2.1193 H   0  0  0  0  0  0
   45.8537   38.3420   -2.7581 H   0  0  0  0  0  0
   46.7781   38.2628   -0.4577 H   0  0  0  0  0  0
   50.1091   44.0100    1.0232 H   0  0  0  0  0  0
   48.7699   43.8526    0.2255 H   0  0  0  0  0  0
  1 20  1  0  0  0
  2 15  2  0  0  0
  3 16  2  0  0  0
  4  7  1  0  0  0
  4 16  1  0  0  0
  4 26  1  0  0  0
  5 15  1  0  0  0
  5 25  1  0  0  0
  5 27  1  0  0  0
  6  7  1  0  0  0
  6  8  1  0  0  0
  6  9  2  0  0  0
  7 10  1  0  0  0
  7 28  1  0  0  0
  8 11  1  0  0  0
  8 13  2  0  0  0
  9 18  1  0  0  0
  9 29  1  0  0  0
 10 14  1  0  0  0
 10 30  1  0  0  0
 10 31  1  0  0  0
 11 14  1  0  0  0
 11 32  1  0  0  0
 11 33  1  0  0  0
 12 15  1  0  0  0
 12 17  2  0  0  0
 12 21  1  0  0  0
 13 19  1  0  0  0
 13 34  1  0  0  0
 14 35  1  0  0  0
 14 36  1  0  0  0
 16 22  1  0  0  0
 17 20  1  0  0  0
 17 37  1  0  0  0
 18 19  2  0  0  0
 18 38  1  0  0  0
 19 39  1  0  0  0
 20 23  2  0  0  0
 21 24  2  0  0  0
 21 40  1  0  0  0
 22 25  1  0  0  0
 22 41  1  0  0  0
 22 42  1  0  0  0
 23 24  1  0  0  0
 23 43  1  0  0  0
 24 44  1  0  0  0
 25 45  1  0  0  0
 25 46  1  0  0  0
M  END
> <s_m_entry_id>
25943

> <s_m_entry_name>
dock_pv.595

> <s_m_Source_Path>
/home/csk/Desktop/cluster/DUD-E-result/pyrd

> <s_m_Source_File>
dock_pv.maegz

> <i_m_Source_File_Index>
595

> <chembl_id>
CHEMBL3186409

> <chembl_pref_name>
None

> <i_lp_mmshare_version>
53161

> <r_lp_tautomer_probability>
1

> <s_lp_Force_Field>
OPLS_2005

> <r_lp_Energy>
14.235171

> <b_lp_Chiralities_Consistent>
1

> <s_lp_Variant>
CHEMBL1966_lig336-1

> <s_i_glide_gridfile>
glide-grid_1d3g

> <i_i_glide_lignum>
386

> <i_i_glide_rotatable_bonds>
7

> <r_i_docking_score>
-7.29189127011269

> <r_i_glide_ligand_efficiency>
-0.291675650804507

> <r_i_glide_ligand_efficiency_sa>
-0.852864775842073

> <r_i_glide_ligand_efficiency_ln>
-1.72839675136456

> <r_i_glide_gscore>
-7.29189127011269

> <r_i_glide_lipo>
-4.91790249370162

> <r_i_glide_hbond>
0

> <r_i_glide_metal>
0

> <r_i_glide_rewards>
-2.12980360651687

> <r_i_glide_evdw>
-17.2981357574463

> <r_i_glide_ecoul>
-0.871362447738647

> <r_i_glide_erotb>
0.751425985138919

> <r_i_glide_esite>
0

> <r_i_glide_emodel>
-18.6545414677947

> <r_i_glide_energy>
-18.1694982051849

> <r_i_glide_einternal>
37.9418754577637

> <i_i_glide_confnum>
75

> <i_i_glide_posenum>
144

> <r_i_glide_eff_state_penalty>
0

> <s_user_duplicate_titles>
CHEMBL1966_lig336

> <i_f3d_flags>
0

> <s_m_subgroup_title>
dock_pv

> <s_m_subgroupid>
dock_pv

> <b_m_subgroup_collapsed>
1

$$$$
CHEMBL1966_lig241
                    3D
 Schrodinger Suite 2021-1.
 43 45  0  0  1  0            999 V2000
   55.1775   46.2251   -1.6399 C   0  0  0  0  0  0
   54.4402   46.5431   -0.4898 C   0  0  0  0  0  0
   54.5711   45.5659   -2.6998 C   0  0  0  0  0  0
   52.7185   44.4610   -3.6962 N   0  0  0  0  0  0
   53.2269   45.2100   -2.6252 C   0  0  0  0  0  0
   50.0567   42.1637   -3.3222 C   0  0  0  0  0  0
   50.8219   43.6091   -5.3276 S   0  0  0  0  0  0
   45.9154   40.4035   -5.1958 C   0  0  0  0  0  0
   49.7918   42.3791   -4.6885 C   0  0  0  0  0  0
   47.6362   42.1783   -5.2991 O   0  0  0  0  0  0
   49.2084   41.0003   -6.4958 O   0  0  0  0  0  0
   53.0687   46.2806   -0.4645 C   0  0  0  0  0  0
   51.0661   42.9073   -2.8742 N   0  0  0  0  0  0
   48.8644   41.7662   -5.6000 C   0  0  0  0  0  0
   52.4584   45.6100   -1.5268 C   0  0  0  0  0  0
   46.4265   41.6924   -5.8390 C   0  0  0  0  0  0
   51.6164   43.6489   -3.7985 C   0  0  0  0  0  0
   49.3616   41.2113   -2.3726 C   0  0  0  0  0  0
   48.4238   40.2516   -2.7860 C   0  0  0  0  0  0
   47.7245   39.4792   -1.8616 C   0  0  0  0  0  0
   48.0224   39.6012   -0.5082 C   0  0  0  0  0  0
   49.0341   40.4520   -0.0991 C   0  0  0  0  0  0
   49.6504   41.2927   -1.0062 C   0  0  0  0  0  0
   55.0089   47.0843    0.6469 O   0  0  0  0  0  0
   56.4219   46.9535    0.7991 C   0  0  0  0  0  0
   56.2308   46.4481   -1.7151 H   0  0  0  0  0  0
   55.1679   45.2938   -3.5587 H   0  0  0  0  0  0
   53.3745   44.4385   -4.4614 H   0  0  0  0  0  0
   45.0067   40.0586   -5.6879 H   0  0  0  0  0  0
   46.6499   39.6117   -5.2633 H   0  0  0  0  0  0
   45.6830   40.5611   -4.1418 H   0  0  0  0  0  0
   52.4882   46.5471    0.4066 H   0  0  0  0  0  0
   51.4065   45.3697   -1.4768 H   0  0  0  0  0  0
   45.6676   42.4619   -5.6961 H   0  0  0  0  0  0
   46.5540   41.6098   -6.8991 H   0  0  0  0  0  0
   48.2138   40.0812   -3.8224 H   0  0  0  0  0  0
   46.9829   38.7699   -2.1960 H   0  0  0  0  0  0
   47.5095   38.9849    0.2138 H   0  0  0  0  0  0
   49.3050   40.4867    0.9440 H   0  0  0  0  0  0
   50.3843   41.9903   -0.6303 H   0  0  0  0  0  0
   56.7531   47.2059    1.8022 H   0  0  0  0  0  0
   56.7355   45.9229    0.6470 H   0  0  0  0  0  0
   56.9523   47.6106    0.1084 H   0  0  0  0  0  0
  1  2  2  0  0  0
  1  3  1  0  0  0
  1 26  1  0  0  0
  2 12  1  0  0  0
  2 24  1  0  0  0
  3  5  2  0  0  0
  3 27  1  0  0  0
  4 17  1  0  0  0
  4  5  1  0  0  0
  4 28  1  0  0  0
  5 15  1  0  0  0
  6  9  2  0  0  0
  6 13  1  0  0  0
  6 18  1  0  0  0
  7 17  1  0  0  0
  7  9  1  0  0  0
  8 16  1  0  0  0
  8 29  1  0  0  0
  8 30  1  0  0  0
  8 31  1  0  0  0
  9 14  1  0  0  0
 10 14  1  0  0  0
 10 16  1  0  0  0
 11 14  2  0  0  0
 12 15  2  0  0  0
 12 32  1  0  0  0
 13 17  2  0  0  0
 15 33  1  0  0  0
 16 34  1  0  0  0
 16 35  1  0  0  0
 18 19  1  0  0  0
 18 23  2  0  0  0
 19 20  2  0  0  0
 19 36  1  0  0  0
 20 21  1  0  0  0
 20 37  1  0  0  0
 21 22  2  0  0  0
 21 38  1  0  0  0
 22 23  1  0  0  0
 22 39  1  0  0  0
 23 40  1  0  0  0
 24 25  1  0  0  0
 25 41  1  0  0  0
 25 42  1  0  0  0
 25 43  1  0  0  0
M  END
> <s_m_entry_id>
25944

> <s_m_entry_name>
dock_pv.596

> <s_m_Source_Path>
/home/csk/Desktop/cluster/DUD-E-result/pyrd

> <s_m_Source_File>
dock_pv.maegz

> <i_m_Source_File_Index>
596

> <chembl_id>
CHEMBL3410598

> <chembl_pref_name>
None

> <i_lp_mmshare_version>
53161

> <r_lp_tautomer_probability>
1

> <s_lp_Force_Field>
OPLS_2005

> <r_lp_Energy>
19.414602

> <b_lp_Chiralities_Consistent>
1

> <s_lp_Variant>
CHEMBL1966_lig241-1

> <s_i_glide_gridfile>
glide-grid_1d3g

> <i_i_glide_lignum>
287

> <i_i_glide_rotatable_bonds>
7

> <r_i_docking_score>
-7.28435496349375

> <r_i_glide_ligand_efficiency>
-0.29137419853975

> <r_i_glide_ligand_efficiency_sa>
-0.851983324073644

> <r_i_glide_ligand_efficiency_ln>
-1.72661042085099

> <r_i_glide_gscore>
-7.28435496349375

> <r_i_glide_lipo>
-5.06116101054516

> <r_i_glide_hbond>
-0.16

> <r_i_glide_metal>
0

> <r_i_glide_rewards>
-1.18790413235136

> <r_i_glide_evdw>
-24.6807746887207

> <r_i_glide_ecoul>
-2.67895793914795

> <r_i_glide_erotb>
0.760592604710989

> <r_i_glide_esite>
0

> <r_i_glide_emodel>
-21.8356834685395

> <r_i_glide_energy>
-27.3597326278687

> <r_i_glide_einternal>
20.4670009613037

> <i_i_glide_confnum>
11

> <i_i_glide_posenum>
199

> <r_i_glide_eff_state_penalty>
0

> <s_user_duplicate_titles>
CHEMBL1966_lig241

> <i_f3d_flags>
0

> <s_m_subgroup_title>
dock_pv

> <s_m_subgroupid>
dock_pv

> <b_m_subgroup_collapsed>
1

$$$$
CHEMBL1966_lig211
                    3D
 Schrodinger Suite 2021-1.
 42 44  0  0  1  0            999 V2000
   54.6413   47.2099    0.1351 O   0  0  0  0  0  0
   52.1561   44.4100   -2.8989 N   0  0  0  0  0  0
   49.6108   42.1858   -4.3779 C   0  0  0  0  0  0
   54.9791   44.7635   -3.2290 O   0  0  0  0  0  0
   50.7833   42.6281   -1.8908 C   0  0  0  0  0  0
   55.8194   46.6330   -2.2999 N   0  0  0  0  0  0
   51.1649   43.4179   -2.9820 C   0  0  0  0  0  0
   49.8434   41.6119   -2.0447 C   0  0  0  0  0  0
   52.4874   45.2320   -1.8326 C   0  0  0  0  0  0
   53.6737   46.5865   -0.3033 C   0  0  0  0  0  0
   54.8606   45.6976   -2.4364 C   0  0  0  0  0  0
   49.2529   41.3779   -3.2873 C   0  0  0  0  0  0
   52.3608   46.4660    0.4388 C   0  0  0  0  0  0
   51.2230   45.6101   -0.6401 S   0  0  0  0  0  0
   53.6813   45.8345   -1.5771 C   0  0  0  0  0  0
   50.5716   43.1884   -4.2203 C   0  0  0  0  0  0
   48.9804   41.9935   -5.7408 C   0  0  0  0  0  0
   48.2322   40.2574   -3.4269 C   0  0  0  0  0  0
   57.1180   46.6710   -2.9693 C   0  0  0  0  0  0
   57.0738   46.6493   -4.5077 C   0  0  0  0  0  0
   58.3151   46.3059   -5.2913 C   0  0  0  0  0  0
   57.1515   45.3352   -5.2445 C   0  0  0  0  0  0
   52.7473   44.4555   -3.7174 H   0  0  0  0  0  0
   51.2229   42.7789   -0.9178 H   0  0  0  0  0  0
   55.6617   47.3366   -1.5904 H   0  0  0  0  0  0
   49.5780   41.0052   -1.1912 H   0  0  0  0  0  0
   52.4927   45.8837    1.3503 H   0  0  0  0  0  0
   51.9578   47.4438    0.7006 H   0  0  0  0  0  0
   50.8528   43.7982   -5.0674 H   0  0  0  0  0  0
   48.9835   40.9425   -6.0261 H   0  0  0  0  0  0
   47.9489   42.3492   -5.7325 H   0  0  0  0  0  0
   49.5414   42.5366   -6.4990 H   0  0  0  0  0  0
   47.2769   40.6455   -3.7786 H   0  0  0  0  0  0
   48.5745   39.5345   -4.1648 H   0  0  0  0  0  0
   48.0625   39.7284   -2.4881 H   0  0  0  0  0  0
   57.6982   45.8167   -2.6173 H   0  0  0  0  0  0
   57.7148   47.5179   -2.6295 H   0  0  0  0  0  0
   56.4570   47.4520   -4.9132 H   0  0  0  0  0  0
   59.2231   46.0565   -4.7460 H   0  0  0  0  0  0
   58.5177   46.8510   -6.2137 H   0  0  0  0  0  0
   56.5007   45.2107   -6.1044 H   0  0  0  0  0  0
   57.2525   44.4131   -4.6703 H   0  0  0  0  0  0
  1 10  2  0  0  0
  2  9  1  0  0  0
  2  7  1  0  0  0
  2 23  1  0  0  0
  3 16  1  0  0  0
  3 12  2  0  0  0
  3 17  1  0  0  0
  4 11  2  0  0  0
  5  8  2  0  0  0
  5  7  1  0  0  0
  5 24  1  0  0  0
  6 11  1  0  0  0
  6 19  1  0  0  0
  6 25  1  0  0  0
  7 16  2  0  0  0
  8 12  1  0  0  0
  8 26  1  0  0  0
  9 15  2  0  0  0
  9 14  1  0  0  0
 10 15  1  0  0  0
 10 13  1  0  0  0
 11 15  1  0  0  0
 12 18  1  0  0  0
 13 14  1  0  0  0
 13 27  1  0  0  0
 13 28  1  0  0  0
 16 29  1  0  0  0
 17 30  1  0  0  0
 17 31  1  0  0  0
 17 32  1  0  0  0
 18 33  1  0  0  0
 18 34  1  0  0  0
 18 35  1  0  0  0
 19 20  1  0  0  0
 19 36  1  0  0  0
 19 37  1  0  0  0
 20 21  1  0  0  0
 20 22  1  0  0  0
 20 38  1  0  0  0
 21 22  1  0  0  0
 21 39  1  0  0  0
 21 40  1  0  0  0
 22 41  1  0  0  0
 22 42  1  0  0  0
M  END
> <s_m_entry_id>
25945

> <s_m_entry_name>
dock_pv.597

> <s_m_Source_Path>
/home/csk/Desktop/cluster/DUD-E-result/pyrd

> <s_m_Source_File>
dock_pv.maegz

> <i_m_Source_File_Index>
597

> <chembl_id>
CHEMBL2431487

> <chembl_pref_name>
None

> <i_lp_mmshare_version>
53161

> <r_lp_tautomer_probability>
0.9999999514288

> <s_lp_Force_Field>
OPLS_2005

> <r_lp_Energy>
36.745787

> <b_lp_Chiralities_Consistent>
1

> <s_lp_Variant>
CHEMBL1966_lig211-1

> <s_i_glide_gridfile>
glide-grid_1d3g

> <i_i_glide_lignum>
256

> <i_i_glide_rotatable_bonds>
6

> <r_i_docking_score>
-7.28040213063621

> <r_i_glide_ligand_efficiency>
-0.330927369574373

> <r_i_glide_ligand_efficiency_sa>
-0.927271504182313

> <r_i_glide_ligand_efficiency_ln>
-1.77959583984756

> <r_i_glide_gscore>
-7.28040213063621

> <r_i_glide_lipo>
-4.13009403199454

> <r_i_glide_hbond>
0

> <r_i_glide_metal>
0

> <r_i_glide_rewards>
-2.17320159490766

> <r_i_glide_evdw>
-38.1263847351074

> <r_i_glide_ecoul>
-0.00325427949428558

> <r_i_glide_erotb>
0.929700874945499

> <r_i_glide_esite>
0

> <r_i_glide_emodel>
-52.3929512336955

> <r_i_glide_energy>
-38.1296390146017

> <r_i_glide_einternal>
2.27048492431641

> <i_i_glide_confnum>
14

> <i_i_glide_posenum>
337

> <r_i_glide_eff_state_penalty>
0

> <s_user_duplicate_titles>
CHEMBL1966_lig211

> <i_f3d_flags>
0

> <s_m_subgroup_title>
dock_pv

> <s_m_subgroupid>
dock_pv

> <b_m_subgroup_collapsed>
1

$$$$
CHEMBL1966_lig326
                    3D
 Schrodinger Suite 2021-1.
 27 28  0  0  1  0            999 V2000
   46.9140   39.1752   -2.4414 C   0  0  0  0  0  0
   47.7846   39.5101   -1.4109 C   0  0  0  0  0  0
   48.8230   40.4100   -1.6448 C   0  0  0  0  0  0
   49.0058   40.9897   -2.9037 C   0  0  0  0  0  0
   48.1198   40.6525   -3.9546 C   0  0  0  0  0  0
   47.0759   39.7482   -3.6990 C   0  0  0  0  0  0
   48.1778   41.3375   -5.2990 C   0  0  0  0  0  0
   46.9520   41.6100   -5.8284 O   0  0  0  0  0  0
   49.2230   41.7268   -5.8132 O   0  0  0  0  0  0
   50.0199   41.9451   -3.0945 N   0  0  0  0  0  0
   50.5173   42.9816   -2.2907 C   0  0  0  0  0  0
   51.5195   43.7816   -2.8356 C   0  0  0  0  0  0
   52.0230   44.8536   -2.0990 C   0  0  0  0  0  0
   51.5023   45.1583   -0.8462 C   0  0  0  0  0  0
   50.4784   44.3893   -0.3150 C   0  0  0  0  0  0
   50.0143   43.2854   -1.0199 C   0  0  0  0  0  0
   52.1968   46.4100    0.1074 Cl  0  0  0  0  0  0
   46.1062   38.4807   -2.2627 H   0  0  0  0  0  0
   47.6643   39.0658   -0.4327 H   0  0  0  0  0  0
   49.5073   40.6204   -0.8380 H   0  0  0  0  0  0
   46.3617   39.4951   -4.4704 H   0  0  0  0  0  0
   46.9902   42.3820   -6.4070 H   0  0  0  0  0  0
   50.3200   42.0031   -4.0585 H   0  0  0  0  0  0
   51.9241   43.5695   -3.8148 H   0  0  0  0  0  0
   52.8256   45.4506   -2.5068 H   0  0  0  0  0  0
   50.0790   44.6105    0.6634 H   0  0  0  0  0  0
   49.2230   42.7139   -0.5708 H   0  0  0  0  0  0
  1  2  2  0  0  0
  1  6  1  0  0  0
  1 18  1  0  0  0
  2  3  1  0  0  0
  2 19  1  0  0  0
  3  4  2  0  0  0
  3 20  1  0  0  0
  4  5  1  0  0  0
  4 10  1  0  0  0
  5  6  2  0  0  0
  5  7  1  0  0  0
  6 21  1  0  0  0
  7  8  1  0  0  0
  7  9  2  0  0  0
  8 22  1  0  0  0
 10 11  1  0  0  0
 10 23  1  0  0  0
 11 12  2  0  0  0
 11 16  1  0  0  0
 12 13  1  0  0  0
 12 24  1  0  0  0
 13 14  2  0  0  0
 13 25  1  0  0  0
 14 15  1  0  0  0
 14 17  1  0  0  0
 15 16  2  0  0  0
 15 26  1  0  0  0
 16 27  1  0  0  0
M  END
> <s_m_entry_id>
25946

> <s_m_entry_name>
dock_pv.598

> <s_m_Source_Path>
/home/csk/Desktop/cluster/DUD-E-result/pyrd

> <s_m_Source_File>
dock_pv.maegz

> <i_m_Source_File_Index>
598

> <chembl_id>
CHEMBL2043303

> <chembl_pref_name>
None

> <i_lp_mmshare_version>
53161

> <r_lp_tautomer_probability>
1

> <s_lp_Force_Field>
OPLS_2005

> <r_lp_Energy>
20.576528

> <b_lp_Chiralities_Consistent>
1

> <s_lp_Variant>
CHEMBL1966_lig326-1

> <s_i_glide_gridfile>
glide-grid_1d3g

> <i_i_glide_lignum>
376

> <i_i_glide_rotatable_bonds>
4

> <r_i_docking_score>
-7.24682059865219

> <r_i_glide_ligand_efficiency>
-0.426283564626599

> <r_i_glide_ligand_efficiency_sa>
-1.09609508108939

> <r_i_glide_ligand_efficiency_ln>
-1.89053411542802

> <r_i_glide_gscore>
-7.24682059865219

> <r_i_glide_lipo>
-3.73361664854693

> <r_i_glide_hbond>
0

> <r_i_glide_metal>
0

> <r_i_glide_rewards>
-2.33370984737786

> <r_i_glide_evdw>
-27.4805526733398

> <r_i_glide_ecoul>
-4.3934121131897

> <r_i_glide_erotb>
0.853545347918042

> <r_i_glide_esite>
0

> <r_i_glide_emodel>
-40.17115888873

> <r_i_glide_energy>
-31.8739647865295

> <r_i_glide_einternal>
10.8809862136841

> <i_i_glide_confnum>
5

> <i_i_glide_posenum>
297

> <r_i_glide_eff_state_penalty>
0

> <s_user_duplicate_titles>
CHEMBL1966_lig326

> <i_f3d_flags>
0

> <s_m_subgroup_title>
dock_pv

> <s_m_subgroupid>
dock_pv

> <b_m_subgroup_collapsed>
1

$$$$
CHEMBL1966_lig271
                    3D
 Schrodinger Suite 2021-1.
 28 29  0  0  1  0            999 V2000
   50.0228   42.3870   -1.6150 N   0  0  0  0  0  0
   50.6511   43.3489   -2.2299 C   0  0  0  0  0  0
   51.2229   44.3702   -1.5012 N   0  0  0  0  0  0
   49.4172   41.5538   -2.4394 C   0  0  0  0  0  0
   49.4976   41.8671   -3.7940 C   0  0  0  0  0  0
   48.8302   41.2755   -4.9502 C   0  0  0  0  0  0
   48.7108   40.3951   -1.7896 C   0  0  0  0  0  0
   52.3250   45.2176   -1.7109 C   0  0  0  0  0  0
   52.6818   46.0356   -0.6370 C   0  0  0  0  0  0
   53.8362   46.8103   -0.6944 C   0  0  0  0  0  0
   54.6177   46.8029   -1.8454 C   0  0  0  0  0  0
   54.2640   46.0098   -2.9325 C   0  0  0  0  0  0
   53.1263   45.2101   -2.8624 C   0  0  0  0  0  0
   50.5979   43.2109   -3.9668 S   0  0  0  0  0  0
   47.5945   40.4100   -4.7405 C   0  0  0  0  0  0
   49.2227   41.4407   -6.0991 O   0  0  0  0  0  0
   50.9090   44.4489   -0.5460 H   0  0  0  0  0  0
   47.6340   40.5036   -1.7034 H   0  0  0  0  0  0
   48.8230   39.4995   -2.3968 H   0  0  0  0  0  0
   49.0917   40.1549   -0.7951 H   0  0  0  0  0  0
   52.0892   46.0486    0.2670 H   0  0  0  0  0  0
   54.1222   47.4212    0.1493 H   0  0  0  0  0  0
   55.5085   47.4122   -1.8932 H   0  0  0  0  0  0
   54.8794   46.0007   -3.8203 H   0  0  0  0  0  0
   52.9038   44.5730   -3.7002 H   0  0  0  0  0  0
   47.8882   39.3946   -4.4786 H   0  0  0  0  0  0
   46.9964   40.3788   -5.6507 H   0  0  0  0  0  0
   46.9631   40.8096   -3.9493 H   0  0  0  0  0  0
  1  2  2  0  0  0
  1  4  1  0  0  0
  2  3  1  0  0  0
  2 14  1  0  0  0
  3  8  1  0  0  0
  3 17  1  0  0  0
  4  5  2  0  0  0
  4  7  1  0  0  0
  5  6  1  0  0  0
  5 14  1  0  0  0
  6 15  1  0  0  0
  6 16  2  0  0  0
  7 18  1  0  0  0
  7 19  1  0  0  0
  7 20  1  0  0  0
  8  9  1  0  0  0
  8 13  2  0  0  0
  9 10  2  0  0  0
  9 21  1  0  0  0
 10 11  1  0  0  0
 10 22  1  0  0  0
 11 12  2  0  0  0
 11 23  1  0  0  0
 12 13  1  0  0  0
 12 24  1  0  0  0
 13 25  1  0  0  0
 15 26  1  0  0  0
 15 27  1  0  0  0
 15 28  1  0  0  0
M  END
> <s_m_entry_id>
25947

> <s_m_entry_name>
dock_pv.599

> <s_m_Source_Path>
/home/csk/Desktop/cluster/DUD-E-result/pyrd

> <s_m_Source_File>
dock_pv.maegz

> <i_m_Source_File_Index>
599

> <chembl_id>
CHEMBL1235108

> <chembl_pref_name>
None

> <i_lp_mmshare_version>
53161

> <r_lp_tautomer_probability>
0.99995

> <s_lp_Force_Field>
OPLS_2005

> <r_lp_Energy>
6.814889

> <b_lp_Chiralities_Consistent>
1

> <s_lp_Variant>
CHEMBL1966_lig271-1

> <s_i_glide_gridfile>
glide-grid_1d3g

> <i_i_glide_lignum>
317

> <i_i_glide_rotatable_bonds>
3

> <r_i_docking_score>
-7.24606675094876

> <r_i_glide_ligand_efficiency>
-0.452879171934297

> <r_i_glide_ligand_efficiency_sa>
-1.14118400250328

> <r_i_glide_ligand_efficiency_ln>
-1.92071473580793

> <r_i_glide_gscore>
-7.24606675094876

> <r_i_glide_lipo>
-3.48313625929822

> <r_i_glide_hbond>
-0.0668089661905697

> <r_i_glide_metal>
0

> <r_i_glide_rewards>
-2.60982173384989

> <r_i_glide_evdw>
-29.5240287780762

> <r_i_glide_ecoul>
-1.63238024711609

> <r_i_glide_erotb>
0.634758684361142

> <r_i_glide_esite>
0

> <r_i_glide_emodel>
-40.8212302951923

> <r_i_glide_energy>
-31.1564090251923

> <r_i_glide_einternal>
2.92400574684143

> <i_i_glide_confnum>
2

> <i_i_glide_posenum>
184

> <r_i_glide_eff_state_penalty>
0

> <s_user_duplicate_titles>
CHEMBL1966_lig271

> <i_f3d_flags>
0

> <s_m_subgroup_title>
dock_pv

> <s_m_subgroupid>
dock_pv

> <b_m_subgroup_collapsed>
1

$$$$
CHEMBL1966_lig39
                    3D
 Schrodinger Suite 2021-1.
 29 30  0  0  1  0            999 V2000
   49.0013   41.2714   -3.5203 C   0  0  0  0  0  0
   49.8700   42.4463   -3.6601 C   0  0  0  0  0  0
   47.9373   39.5167   -2.5097 N   0  0  0  0  0  0
   55.1025   47.4055   -2.3756 C   0  0  0  0  0  0
   48.0231   40.7588   -4.3654 C   0  0  0  0  0  0
   50.4364   42.8581   -2.5903 N   0  0  0  0  0  0
   47.3905   39.7172   -3.7692 O   0  0  0  0  0  0
   48.8871   40.4109   -2.4188 C   0  0  0  0  0  0
   50.0232   43.2100   -5.2877 S   0  0  0  0  0  0
   53.9208   47.1331   -1.6245 O   0  0  0  0  0  0
   51.2965   43.9597   -2.4794 C   0  0  0  0  0  0
   55.6874   48.4650   -1.8197 F   0  0  0  0  0  0
   55.9653   46.3891   -2.3175 F   0  0  0  0  0  0
   54.8219   47.7180   -3.6424 F   0  0  0  0  0  0
   53.1008   46.0720   -1.9609 C   0  0  0  0  0  0
   51.1205   44.8101   -1.3810 C   0  0  0  0  0  0
   52.4229   44.1627   -3.2990 C   0  0  0  0  0  0
   53.3094   45.2099   -3.0468 C   0  0  0  0  0  0
   51.9987   45.8621   -1.1355 C   0  0  0  0  0  0
   47.4567   41.1633   -5.6990 C   0  0  0  0  0  0
   49.4794   40.4766   -1.5173 H   0  0  0  0  0  0
   48.7876   42.9114   -5.6948 H   0  0  0  0  0  0
   50.2859   44.6566   -0.7119 H   0  0  0  0  0  0
   52.6298   43.4826   -4.1115 H   0  0  0  0  0  0
   54.1607   45.3246   -3.6988 H   0  0  0  0  0  0
   51.8301   46.5105   -0.2885 H   0  0  0  0  0  0
   46.9814   42.1443   -5.6523 H   0  0  0  0  0  0
   48.2296   41.2082   -6.4628 H   0  0  0  0  0  0
   46.6967   40.4588   -6.0375 H   0  0  0  0  0  0
  1  2  1  0  0  0
  1  5  2  0  0  0
  1  8  1  0  0  0
  2  6  2  0  0  0
  2  9  1  0  0  0
  3  8  2  0  0  0
  3  7  1  0  0  0
  4 10  1  0  0  0
  4 12  1  0  0  0
  4 13  1  0  0  0
  4 14  1  0  0  0
  5  7  1  0  0  0
  5 20  1  0  0  0
  6 11  1  0  0  0
  8 21  1  0  0  0
  9 22  1  0  0  0
 10 15  1  0  0  0
 11 16  2  0  0  0
 11 17  1  0  0  0
 15 18  1  0  0  0
 15 19  2  0  0  0
 16 19  1  0  0  0
 16 23  1  0  0  0
 17 18  2  0  0  0
 17 24  1  0  0  0
 18 25  1  0  0  0
 19 26  1  0  0  0
 20 27  1  0  0  0
 20 28  1  0  0  0
 20 29  1  0  0  0
M  END
> <s_m_entry_id>
25948

> <s_m_entry_name>
dock_pv.600

> <s_m_Source_Path>
/home/csk/Desktop/cluster/DUD-E-result/pyrd

> <s_m_Source_File>
dock_pv.maegz

> <i_m_Source_File_Index>
600

> <chembl_id>
CHEMBL70261

> <chembl_pref_name>
None

> <i_lp_mmshare_version>
53161

> <r_lp_tautomer_probability>
1

> <s_lp_Force_Field>
OPLS_2005

> <r_lp_Energy>
13.14339

> <b_lp_Chiralities_Consistent>
1

> <s_lp_Variant>
CHEMBL1966_lig39-1

> <s_i_glide_gridfile>
glide-grid_1d3g

> <i_i_glide_lignum>
43

> <i_i_glide_rotatable_bonds>
5

> <r_i_docking_score>
-7.17412144106548

> <r_i_glide_ligand_efficiency>
-0.358706072053274

> <r_i_glide_ligand_efficiency_sa>
-0.973678080188676

> <r_i_glide_ligand_efficiency_ln>
-1.7954459783374

> <r_i_glide_gscore>
-7.17412144106548

> <r_i_glide_lipo>
-2.87854918495256

> <r_i_glide_hbond>
0

> <r_i_glide_metal>
0

> <r_i_glide_rewards>
-3.31479997714215

> <r_i_glide_evdw>
-35.3426742553711

> <r_i_glide_ecoul>
-0.130554050207138

> <r_i_glide_erotb>
0.805944541328853

> <r_i_glide_esite>
0

> <r_i_glide_emodel>
-46.3811500483994

> <r_i_glide_energy>
-35.4732283055782

> <r_i_glide_einternal>
4.08587312698364

> <i_i_glide_confnum>
60

> <i_i_glide_posenum>
154

> <r_i_glide_eff_state_penalty>
0

> <s_user_duplicate_titles>
CHEMBL1966_lig39

> <i_f3d_flags>
0

> <s_m_subgroup_title>
dock_pv

> <s_m_subgroupid>
dock_pv

> <b_m_subgroup_collapsed>
1

$$$$
CHEMBL1966_lig46
                    3D
 Schrodinger Suite 2021-1.
 26 27  0  0  1  0            999 V2000
   48.7314   40.8100   -3.4504 C   0  0  0  0  0  0
   49.6669   41.6706   -2.9061 C   0  0  0  0  0  0
   49.6695   41.3769   -1.5734 N   0  0  0  0  0  0
   48.8230   40.4100   -1.2367 N   0  0  0  0  0  0
   48.2601   40.0360   -2.3686 C   0  0  0  0  0  0
   48.3182   40.8002   -4.8421 C   0  0  0  0  0  0
   50.4887   42.6028   -3.4879 N   0  0  0  0  0  0
   47.9926   40.8100   -5.9495 N   0  0  0  0  0  0
   54.4852   47.2101   -0.5165 N   0  0  0  0  0  0
   53.7454   46.5080   -1.0591 C   0  0  0  0  0  0
   51.2337   43.6140   -2.8740 C   0  0  0  0  0  0
   52.8257   45.6100   -1.7353 C   0  0  0  0  0  0
   52.4172   44.0100   -3.4985 C   0  0  0  0  0  0
   50.8230   44.2569   -1.6990 C   0  0  0  0  0  0
   51.6153   45.2553   -1.1320 C   0  0  0  0  0  0
   53.2147   45.0074   -2.9343 C   0  0  0  0  0  0
   47.2225   38.9357   -2.3400 C   0  0  0  0  0  0
   50.2635   41.8305   -0.8961 H   0  0  0  0  0  0
   50.6603   42.5463   -4.4808 H   0  0  0  0  0  0
   52.7414   43.5215   -4.4054 H   0  0  0  0  0  0
   49.8894   43.9991   -1.2228 H   0  0  0  0  0  0
   51.2980   45.7178   -0.2069 H   0  0  0  0  0  0
   54.1504   45.2663   -3.4114 H   0  0  0  0  0  0
   46.4425   39.1339   -1.6042 H   0  0  0  0  0  0
   46.7248   38.8100   -3.3003 H   0  0  0  0  0  0
   47.6698   37.9750   -2.0852 H   0  0  0  0  0  0
  1  2  2  0  0  0
  1  5  1  0  0  0
  1  6  1  0  0  0
  2  3  1  0  0  0
  2  7  1  0  0  0
  3  4  1  0  0  0
  3 18  1  0  0  0
  4  5  2  0  0  0
  5 17  1  0  0  0
  6  8  3  0  0  0
  7 11  1  0  0  0
  7 19  1  0  0  0
  9 10  3  0  0  0
 10 12  1  0  0  0
 11 13  2  0  0  0
 11 14  1  0  0  0
 12 15  1  0  0  0
 12 16  2  0  0  0
 13 16  1  0  0  0
 13 20  1  0  0  0
 14 15  2  0  0  0
 14 21  1  0  0  0
 15 22  1  0  0  0
 16 23  1  0  0  0
 17 24  1  0  0  0
 17 25  1  0  0  0
 17 26  1  0  0  0
M  END
> <s_m_entry_id>
25950

> <s_m_entry_name>
dock_pv.602

> <s_m_Source_Path>
/home/csk/Desktop/cluster/DUD-E-result/pyrd

> <s_m_Source_File>
dock_pv.maegz

> <i_m_Source_File_Index>
602

> <chembl_id>
CHEMBL119801

> <chembl_pref_name>
None

> <i_lp_mmshare_version>
53161

> <r_lp_tautomer_probability>
1

> <s_lp_Force_Field>
OPLS_2005

> <r_lp_Energy>
10.345275

> <b_lp_Chiralities_Consistent>
1

> <s_lp_Variant>
CHEMBL1966_lig46-1

> <s_i_glide_gridfile>
glide-grid_1d3g

> <i_i_glide_lignum>
50

> <i_i_glide_rotatable_bonds>
2

> <r_i_docking_score>
-7.14532878325476

> <r_i_glide_ligand_efficiency>
-0.420313457838515

> <r_i_glide_ligand_efficiency_sa>
-1.08074425542542

> <r_i_glide_ligand_efficiency_ln>
-1.86405716090244

> <r_i_glide_gscore>
-7.14532878325476

> <r_i_glide_lipo>
-2.85129079484121

> <r_i_glide_hbond>
-0.180461560645927

> <r_i_glide_metal>
0

> <r_i_glide_rewards>
-2.96304436441806

> <r_i_glide_evdw>
-31.1678066253662

> <r_i_glide_ecoul>
-1.80814349651337

> <r_i_glide_erotb>
0.679079792395753

> <r_i_glide_esite>
0

> <r_i_glide_emodel>
-45.5052478215138

> <r_i_glide_energy>
-32.9759501218796

> <r_i_glide_einternal>
2.17983436584473

> <i_i_glide_confnum>
3

> <i_i_glide_posenum>
158

> <r_i_glide_eff_state_penalty>
0

> <s_user_duplicate_titles>
CHEMBL1966_lig46

> <i_f3d_flags>
0

> <s_m_subgroup_title>
dock_pv

> <s_m_subgroupid>
dock_pv

> <b_m_subgroup_collapsed>
1

$$$$
CHEMBL1966_lig234
                    3D
 Schrodinger Suite 2021-1.
 39 41  0  0  1  0            999 V2000
   54.2034   46.6096   -2.4331 C   0  0  0  0  0  0
   54.6115   47.0765   -1.1873 C   0  0  0  0  0  0
   53.0715   45.8016   -2.5361 C   0  0  0  0  0  0
   51.2296   44.5756   -1.3655 N   0  0  0  0  0  0
   52.2987   45.4941   -1.4057 C   0  0  0  0  0  0
   49.6820   41.7317   -2.6955 C   0  0  0  0  0  0
   51.0418   43.5411   -3.9413 S   0  0  0  0  0  0
   45.7536   40.8051   -5.2988 C   0  0  0  0  0  0
   49.8963   42.2365   -3.9946 C   0  0  0  0  0  0
   47.9895   41.6315   -4.9815 O   0  0  0  0  0  0
   49.7570   42.0101   -6.3660 O   0  0  0  0  0  0
   53.8642   46.7576   -0.0572 C   0  0  0  0  0  0
   50.1911   42.5336   -1.7684 N   0  0  0  0  0  0
   49.2428   41.9405   -5.2513 C   0  0  0  0  0  0
   52.6902   46.0181   -0.1725 C   0  0  0  0  0  0
   47.0758   41.2103   -5.9484 C   0  0  0  0  0  0
   50.8248   43.5755   -2.2244 C   0  0  0  0  0  0
   48.8447   40.5441   -2.2433 C   0  0  0  0  0  0
   48.2219   39.6131   -3.0939 C   0  0  0  0  0  0
   47.2256   38.7550   -2.6313 C   0  0  0  0  0  0
   46.9108   38.7390   -1.2911 C   0  0  0  0  0  0
   47.6207   39.5559   -0.4343 C   0  0  0  0  0  0
   48.6090   40.4093   -0.8757 C   0  0  0  0  0  0
   55.1183   46.9977   -3.8436 Cl  0  0  0  0  0  0
   54.4228   47.2104    1.5008 Cl  0  0  0  0  0  0
   55.5140   47.6631   -1.0947 H   0  0  0  0  0  0
   52.8231   45.4313   -3.5138 H   0  0  0  0  0  0
   50.8593   44.5165   -0.4290 H   0  0  0  0  0  0
   45.1663   40.2155   -5.9970 H   0  0  0  0  0  0
   45.8934   40.1926   -4.4134 H   0  0  0  0  0  0
   45.1729   41.6799   -5.0054 H   0  0  0  0  0  0
   52.1406   45.7745    0.7263 H   0  0  0  0  0  0
   46.8921   42.0099   -6.6582 H   0  0  0  0  0  0
   47.5014   40.3709   -6.4943 H   0  0  0  0  0  0
   48.4763   39.5479   -4.1364 H   0  0  0  0  0  0
   46.7068   38.0881   -3.2973 H   0  0  0  0  0  0
   46.1320   38.0932   -0.9167 H   0  0  0  0  0  0
   47.3709   39.6054    0.6004 H   0  0  0  0  0  0
   49.0775   41.0494   -0.1423 H   0  0  0  0  0  0
  1  2  2  0  0  0
  1  3  1  0  0  0
  1 24  1  0  0  0
  2 12  1  0  0  0
  2 26  1  0  0  0
  3  5  2  0  0  0
  3 27  1  0  0  0
  4 17  1  0  0  0
  4  5  1  0  0  0
  4 28  1  0  0  0
  5 15  1  0  0  0
  6  9  2  0  0  0
  6 13  1  0  0  0
  6 18  1  0  0  0
  7 17  1  0  0  0
  7  9  1  0  0  0
  8 16  1  0  0  0
  8 29  1  0  0  0
  8 30  1  0  0  0
  8 31  1  0  0  0
  9 14  1  0  0  0
 10 14  1  0  0  0
 10 16  1  0  0  0
 11 14  2  0  0  0
 12 15  2  0  0  0
 12 25  1  0  0  0
 13 17  2  0  0  0
 15 32  1  0  0  0
 16 33  1  0  0  0
 16 34  1  0  0  0
 18 19  1  0  0  0
 18 23  2  0  0  0
 19 20  2  0  0  0
 19 35  1  0  0  0
 20 21  1  0  0  0
 20 36  1  0  0  0
 21 22  2  0  0  0
 21 37  1  0  0  0
 22 23  1  0  0  0
 22 38  1  0  0  0
 23 39  1  0  0  0
M  END
> <s_m_entry_id>
25951

> <s_m_entry_name>
dock_pv.603

> <s_m_Source_Path>
/home/csk/Desktop/cluster/DUD-E-result/pyrd

> <s_m_Source_File>
dock_pv.maegz

> <i_m_Source_File_Index>
603

> <chembl_id>
CHEMBL3410605

> <chembl_pref_name>
None

> <i_lp_mmshare_version>
53161

> <r_lp_tautomer_probability>
1

> <s_lp_Force_Field>
OPLS_2005

> <r_lp_Energy>
15.784521

> <b_lp_Chiralities_Consistent>
1

> <s_lp_Variant>
CHEMBL1966_lig234-1

> <s_i_glide_gridfile>
glide-grid_1d3g

> <i_i_glide_lignum>
280

> <i_i_glide_rotatable_bonds>
6

> <r_i_docking_score>
-7.12601840701746

> <r_i_glide_ligand_efficiency>
-0.285040736280698

> <r_i_glide_ligand_efficiency_sa>
-0.833464168103745

> <r_i_glide_ligand_efficiency_ln>
-1.68907991200241

> <r_i_glide_gscore>
-7.12601840701746

> <r_i_glide_lipo>
-4.77658847707038

> <r_i_glide_hbond>
0

> <r_i_glide_metal>
0

> <r_i_glide_rewards>
-1.68701491267542

> <r_i_glide_evdw>
-27.3154964447021

> <r_i_glide_ecoul>
0.479523301124573

> <r_i_glide_erotb>
0.631431309794764

> <r_i_glide_esite>
0

> <r_i_glide_emodel>
-45.7888020328354

> <r_i_glide_energy>
-26.8359731435776

> <r_i_glide_einternal>
17.6268844604492

> <i_i_glide_confnum>
64

> <i_i_glide_posenum>
388

> <r_i_glide_eff_state_penalty>
0

> <s_user_duplicate_titles>
CHEMBL1966_lig234

> <i_f3d_flags>
0

> <s_m_subgroup_title>
dock_pv

> <s_m_subgroupid>
dock_pv

> <b_m_subgroup_collapsed>
1

$$$$
CHEMBL1966_lig37
                    3D
 Schrodinger Suite 2021-1.
 46 48  0  0  1  0            999 V2000
   51.6230   44.9759   -1.2933 C   0  0  0  0  0  0
   50.7676   44.8100   -0.0990 N   0  3  0  0  0  0
   49.1871   41.2969   -3.0150 C   0  0  0  0  0  0
   50.0438   42.4100   -3.4363 C   0  0  0  0  0  0
   48.2810   40.6115   -3.7822 C   0  0  0  0  0  0
   51.5576   44.0955   -2.3993 C   0  0  0  0  0  0
   50.6428   43.0273   -2.3976 N   0  0  0  0  0  0
   52.6085   45.9844   -1.2632 C   0  0  0  0  0  0
   57.7246   48.1787   -5.2103 C   0  0  0  0  0  0
   47.9933   40.8100   -5.1954 C   0  0  0  0  0  0
   53.5850   46.0854   -2.2534 C   0  0  0  0  0  0
   51.2239   45.2100    0.9634 O   0  5  0  0  0  0
   54.7048   47.0693   -2.1912 C   0  0  0  0  0  0
   49.6764   44.2527   -0.1883 O   0  0  0  0  0  0
   56.8230   49.0263   -4.4990 O   0  0  0  0  0  0
   50.2013   42.7700   -4.6018 O   0  0  0  0  0  0
   55.1950   47.6688   -3.3626 C   0  0  0  0  0  0
   52.5220   44.2156   -3.4010 C   0  0  0  0  0  0
   48.8231   40.8100   -6.0990 O   0  0  0  0  0  0
   56.3226   48.4931   -3.3381 C   0  0  0  0  0  0
   53.5257   45.1756   -3.3011 C   0  0  0  0  0  0
   58.8230   47.9429   -4.4990 F   0  0  0  0  0  0
   57.1530   47.0277   -5.5721 F   0  0  0  0  0  0
   58.0975   48.8100   -6.3208 F   0  0  0  0  0  0
   46.6553   40.9305   -5.4326 O   0  0  0  0  0  0
   49.1156   40.8100   -1.5644 C   0  0  0  0  0  0
   47.4857   39.6089   -2.9504 C   0  0  0  0  0  0
   48.0230   39.7505   -1.5367 C   0  0  0  0  0  0
   55.3508   47.3579   -0.9809 C   0  0  0  0  0  0
   56.4672   48.1947   -0.9537 C   0  0  0  0  0  0
   56.9487   48.7670   -2.1259 C   0  0  0  0  0  0
   50.2854   42.7879   -1.4853 H   0  0  0  0  0  0
   52.6539   46.6636   -0.4232 H   0  0  0  0  0  0
   54.7198   47.4741   -4.3131 H   0  0  0  0  0  0
   52.5466   43.5247   -4.2306 H   0  0  0  0  0  0
   54.2814   45.2100   -4.0700 H   0  0  0  0  0  0
   46.1440   40.9775   -4.6221 H   0  0  0  0  0  0
   48.9602   41.5798   -0.8133 H   0  0  0  0  0  0
   50.0230   40.3584   -1.2468 H   0  0  0  0  0  0
   47.6230   38.5883   -3.3061 H   0  0  0  0  0  0
   46.4149   39.8164   -2.9773 H   0  0  0  0  0  0
   47.2230   40.0100   -0.8436 H   0  0  0  0  0  0
   48.3924   38.8013   -1.1527 H   0  0  0  0  0  0
   55.0194   46.8999   -0.0600 H   0  0  0  0  0  0
   56.9967   48.3821   -0.0366 H   0  0  0  0  0  0
   57.8227   49.4013   -2.0967 H   0  0  0  0  0  0
  1  2  1  0  0  0
  1  6  1  0  0  0
  1  8  2  0  0  0
  2 12  1  0  0  0
  2 14  2  0  0  0
  3  4  1  0  0  0
  3  5  2  0  0  0
  3 26  1  0  0  0
  4  7  1  0  0  0
  4 16  2  0  0  0
  5 10  1  0  0  0
  5 27  1  0  0  0
  6  7  1  0  0  0
  6 18  2  0  0  0
  7 32  1  0  0  0
  8 11  1  0  0  0
  8 33  1  0  0  0
  9 15  1  0  0  0
  9 22  1  0  0  0
  9 23  1  0  0  0
  9 24  1  0  0  0
 10 19  2  0  0  0
 10 25  1  0  0  0
 11 13  1  0  0  0
 11 21  2  0  0  0
 13 17  1  0  0  0
 13 29  2  0  0  0
 15 20  1  0  0  0
 17 20  2  0  0  0
 17 34  1  0  0  0
 18 21  1  0  0  0
 18 35  1  0  0  0
 20 31  1  0  0  0
 21 36  1  0  0  0
 25 37  1  0  0  0
 26 28  1  0  0  0
 26 38  1  0  0  0
 26 39  1  0  0  0
 27 28  1  0  0  0
 27 40  1  0  0  0
 27 41  1  0  0  0
 28 42  1  0  0  0
 28 43  1  0  0  0
 29 30  1  0  0  0
 29 44  1  0  0  0
 30 31  2  0  0  0
 30 45  1  0  0  0
 31 46  1  0  0  0
M  CHG  2   2   1  12  -1
M  END
> <s_m_entry_id>
25952

> <s_m_entry_name>
dock_pv.604

> <s_m_Source_Path>
/home/csk/Desktop/cluster/DUD-E-result/pyrd

> <s_m_Source_File>
dock_pv.maegz

> <i_m_Source_File_Index>
604

> <chembl_id>
CHEMBL155530

> <chembl_pref_name>
None

> <i_lp_mmshare_version>
53161

> <r_lp_tautomer_probability>
1

> <s_lp_Force_Field>
OPLS_2005

> <r_lp_Energy>
48.163133

> <b_lp_Chiralities_Consistent>
1

> <s_lp_Variant>
CHEMBL1966_lig37-1

> <s_i_glide_gridfile>
glide-grid_1d3g

> <i_i_glide_lignum>
41

> <i_i_glide_rotatable_bonds>
9

> <r_i_docking_score>
-7.07342038454593

> <r_i_glide_ligand_efficiency>
-0.228174851114385

> <r_i_glide_ligand_efficiency_sa>
-0.716784061832539

> <r_i_glide_ligand_efficiency_ln>
-1.59527307101628

> <r_i_glide_gscore>
-7.07342038454593

> <r_i_glide_lipo>
-4.71208992377719

> <r_i_glide_hbond>
-0.16

> <r_i_glide_metal>
0

> <r_i_glide_rewards>
-0.345481636126812

> <r_i_glide_evdw>
-38.3594017028809

> <r_i_glide_ecoul>
-3.77344942092896

> <r_i_glide_erotb>
0.628138673641459

> <r_i_glide_esite>
0

> <r_i_glide_emodel>
-46.7655092032128

> <r_i_glide_energy>
-42.1328511238098

> <r_i_glide_einternal>
5.33922052383423

> <i_i_glide_confnum>
15

> <i_i_glide_posenum>
209

> <r_i_glide_eff_state_penalty>
0

> <s_user_duplicate_titles>
CHEMBL1966_lig37,257751

> <i_f3d_flags>
0

> <s_m_subgroup_title>
dock_pv

> <s_m_subgroupid>
dock_pv

> <b_m_subgroup_collapsed>
1

$$$$
CHEMBL1966_lig44
                    3D
 Schrodinger Suite 2021-1.
 30 32  0  0  1  0            999 V2000
   54.3711   45.2100   -2.6508 C   0  0  0  0  0  0
   55.1921   46.2193   -2.1375 C   0  0  0  0  0  0
   52.9464   44.9404   -2.4990 C   0  0  0  0  0  0
   54.9857   47.3916   -1.2066 C   0  0  0  0  0  0
   56.5548   44.8707   -3.2972 N   0  0  0  0  0  0
   56.4739   46.0340   -2.5491 O   0  0  0  0  0  0
   52.5073   44.0406   -3.4360 N   0  0  0  0  0  0
   55.3318   47.2100    0.2515 C   0  0  0  0  0  0
   56.1514   48.1472   -0.6198 C   0  0  0  0  0  0
   47.1763   40.0100   -4.4990 N   0  0  0  0  0  0
   55.3325   44.4076   -3.2990 C   0  0  0  0  0  0
   48.0745   40.7103   -4.3116 C   0  0  0  0  0  0
   52.0105   45.6459   -1.2990 S   0  0  0  0  0  0
   51.3066   43.3320   -3.5760 C   0  0  0  0  0  0
   49.1863   41.6100   -4.0611 C   0  0  0  0  0  0
   50.6970   43.3173   -4.8308 C   0  0  0  0  0  0
   50.8230   42.5191   -2.5456 C   0  0  0  0  0  0
   49.7676   41.6479   -2.7927 C   0  0  0  0  0  0
   49.6230   42.4673   -5.0712 C   0  0  0  0  0  0
   54.0970   47.9809   -1.4340 H   0  0  0  0  0  0
   53.1378   43.8960   -4.2094 H   0  0  0  0  0  0
   54.6483   47.6100    0.9999 H   0  0  0  0  0  0
   55.7725   46.2644    0.5712 H   0  0  0  0  0  0
   57.1702   47.8643   -0.8892 H   0  0  0  0  0  0
   56.0507   49.2255   -0.4990 H   0  0  0  0  0  0
   55.1379   43.4501   -3.7585 H   0  0  0  0  0  0
   51.0636   43.9436   -5.6310 H   0  0  0  0  0  0
   51.2909   42.5153   -1.5731 H   0  0  0  0  0  0
   49.4194   41.0007   -1.9989 H   0  0  0  0  0  0
   49.1545   42.4732   -6.0457 H   0  0  0  0  0  0
  1  2  2  0  0  0
  1  3  1  0  0  0
  1 11  1  0  0  0
  2  4  1  0  0  0
  2  6  1  0  0  0
  3  7  1  0  0  0
  3 13  2  0  0  0
  4  8  1  0  0  0
  4  9  1  0  0  0
  4 20  1  0  0  0
  5 11  2  0  0  0
  5  6  1  0  0  0
  7 14  1  0  0  0
  7 21  1  0  0  0
  8  9  1  0  0  0
  8 22  1  0  0  0
  8 23  1  0  0  0
  9 24  1  0  0  0
  9 25  1  0  0  0
 10 12  3  0  0  0
 11 26  1  0  0  0
 12 15  1  0  0  0
 14 16  1  0  0  0
 14 17  2  0  0  0
 15 18  2  0  0  0
 15 19  1  0  0  0
 16 19  2  0  0  0
 16 27  1  0  0  0
 17 18  1  0  0  0
 17 28  1  0  0  0
 18 29  1  0  0  0
 19 30  1  0  0  0
M  END
> <s_m_entry_id>
25953

> <s_m_entry_name>
dock_pv.605

> <s_m_Source_Path>
/home/csk/Desktop/cluster/DUD-E-result/pyrd

> <s_m_Source_File>
dock_pv.maegz

> <i_m_Source_File_Index>
605

> <chembl_id>
CHEMBL305215

> <chembl_pref_name>
None

> <i_lp_mmshare_version>
53161

> <r_lp_tautomer_probability>
1

> <s_lp_Force_Field>
OPLS_2005

> <r_lp_Energy>
24.276221

> <b_lp_Chiralities_Consistent>
1

> <s_lp_Variant>
CHEMBL1966_lig44-1

> <s_i_glide_gridfile>
glide-grid_1d3g

> <i_i_glide_lignum>
48

> <i_i_glide_rotatable_bonds>
4

> <r_i_docking_score>
-7.05341253455459

> <r_i_glide_ligand_efficiency>
-0.371232238660768

> <r_i_glide_ligand_efficiency_sa>
-0.99059671672888

> <r_i_glide_ligand_efficiency_ln>
-1.78819157092022

> <r_i_glide_gscore>
-7.05341253455459

> <r_i_glide_lipo>
-3.69088562619157

> <r_i_glide_hbond>
0

> <r_i_glide_metal>
0

> <r_i_glide_rewards>
-2.59114968046717

> <r_i_glide_evdw>
-34.4211235046387

> <r_i_glide_ecoul>
-0.237153023481369

> <r_i_glide_erotb>
0.985251900858302

> <r_i_glide_esite>
0

> <r_i_glide_emodel>
-43.0333985301689

> <r_i_glide_energy>
-34.65827652812

> <r_i_glide_einternal>
4.89590787887573

> <i_i_glide_confnum>
36

> <i_i_glide_posenum>
25

> <r_i_glide_eff_state_penalty>
0

> <s_user_duplicate_titles>
CHEMBL1966_lig44

> <i_f3d_flags>
0

> <s_m_subgroup_title>
dock_pv

> <s_m_subgroupid>
dock_pv

> <b_m_subgroup_collapsed>
1

$$$$
CHEMBL1966_lig422
                    3D
 Schrodinger Suite 2021-1.
 39 41  0  0  1  0            999 V2000
   55.0948   47.6170   -2.0983 C   0  0  0  0  0  0
   54.0409   46.5272   -2.1782 C   0  0  0  0  0  0
   54.0628   45.6100   -3.2195 C   0  0  0  0  0  0
   53.0806   44.6274   -3.2990 C   0  0  0  0  0  0
   52.0230   44.5537   -2.3756 C   0  0  0  0  0  0
   50.9774   43.6076   -2.5418 N   0  0  0  0  0  0
   50.4461   43.0040   -3.6987 C   0  0  0  0  0  0
   50.7544   43.6100   -4.9110 C   0  0  0  0  0  0
   50.4230   43.0339   -6.1076 C   0  0  0  0  0  0
   51.2230   43.5738   -7.5112 Cl  0  0  0  0  0  0
   49.6230   41.9105   -6.0990 C   0  0  0  0  0  0
   49.2127   41.3425   -4.9540 N   0  0  0  0  0  0
   49.6231   41.8417   -3.7499 C   0  0  0  0  0  0
   49.1148   41.0160   -2.5983 C   0  0  0  0  0  0
   49.6230   41.1455   -1.2969 C   0  0  0  0  0  0
   49.0713   40.4100   -0.2544 C   0  0  0  0  0  0
   48.0230   39.5239   -0.4990 C   0  0  0  0  0  0
   47.5497   39.3187   -1.7795 C   0  0  0  0  0  0
   48.0848   40.0671   -2.8121 C   0  0  0  0  0  0
   52.0704   45.4118   -1.2514 C   0  0  0  0  0  0
   53.0632   46.4100   -1.1951 C   0  0  0  0  0  0
   51.2379   45.2100   -0.0056 C   0  0  0  0  0  0
   51.6230   45.6733    1.0674 O   0  0  0  0  0  0
   50.1351   44.4100   -0.0990 O   0  0  0  0  0  0
   55.1805   48.1256   -3.0595 H   0  0  0  0  0  0
   56.0695   47.1881   -1.8629 H   0  0  0  0  0  0
   54.8483   48.3727   -1.3512 H   0  0  0  0  0  0
   54.8429   45.6511   -3.9657 H   0  0  0  0  0  0
   53.1603   43.9026   -4.0938 H   0  0  0  0  0  0
   50.4079   43.5030   -1.7119 H   0  0  0  0  0  0
   51.3117   44.5210   -4.9540 H   0  0  0  0  0  0
   49.4528   41.3391   -6.9886 H   0  0  0  0  0  0
   50.4498   41.7881   -1.0546 H   0  0  0  0  0  0
   49.4670   40.5122    0.7433 H   0  0  0  0  0  0
   47.5984   38.9456    0.3010 H   0  0  0  0  0  0
   46.7590   38.6071   -1.9670 H   0  0  0  0  0  0
   47.6567   39.8994   -3.7886 H   0  0  0  0  0  0
   53.1133   47.0853   -0.3509 H   0  0  0  0  0  0
   49.7171   44.3630    0.7632 H   0  0  0  0  0  0
  1  2  1  0  0  0
  1 25  1  0  0  0
  1 26  1  0  0  0
  1 27  1  0  0  0
  2  3  2  0  0  0
  2 21  1  0  0  0
  3  4  1  0  0  0
  3 28  1  0  0  0
  4  5  2  0  0  0
  4 29  1  0  0  0
  5  6  1  0  0  0
  5 20  1  0  0  0
  6  7  1  0  0  0
  6 30  1  0  0  0
  7  8  2  0  0  0
  7 13  1  0  0  0
  8  9  1  0  0  0
  8 31  1  0  0  0
  9 10  1  0  0  0
  9 11  2  0  0  0
 11 12  1  0  0  0
 11 32  1  0  0  0
 12 13  2  0  0  0
 13 14  1  0  0  0
 14 15  2  0  0  0
 14 19  1  0  0  0
 15 16  1  0  0  0
 15 33  1  0  0  0
 16 17  2  0  0  0
 16 34  1  0  0  0
 17 18  1  0  0  0
 17 35  1  0  0  0
 18 19  2  0  0  0
 18 36  1  0  0  0
 19 37  1  0  0  0
 20 21  2  0  0  0
 20 22  1  0  0  0
 21 38  1  0  0  0
 22 23  2  0  0  0
 22 24  1  0  0  0
 24 39  1  0  0  0
M  END
> <s_m_entry_id>
25954

> <s_m_entry_name>
dock_pv.606

> <s_m_Source_Path>
/home/csk/Desktop/cluster/DUD-E-result/pyrd

> <s_m_Source_File>
dock_pv.maegz

> <i_m_Source_File_Index>
606

> <chembl_id>
CHEMBL3674632

> <chembl_pref_name>
None

> <i_lp_mmshare_version>
53161

> <r_lp_tautomer_probability>
0.999999999999999

> <s_lp_Force_Field>
OPLS_2005

> <r_lp_Energy>
31.159471

> <b_lp_Chiralities_Consistent>
1

> <s_lp_Variant>
CHEMBL1966_lig422-1

> <s_i_glide_gridfile>
glide-grid_1d3g

> <i_i_glide_lignum>
472

> <i_i_glide_rotatable_bonds>
5

> <r_i_docking_score>
-6.96475265462206

> <r_i_glide_ligand_efficiency>
-0.290198027275919

> <r_i_glide_ligand_efficiency_sa>
-0.837075959398747

> <r_i_glide_ligand_efficiency_ln>
-1.66698490192551

> <r_i_glide_gscore>
-6.96475265462206

> <r_i_glide_lipo>
-4.99902681043015

> <r_i_glide_hbond>
0

> <r_i_glide_metal>
0

> <r_i_glide_rewards>
-1.82650360147296

> <r_i_glide_evdw>
-19.95827293396

> <r_i_glide_ecoul>
1.32966232299805

> <r_i_glide_erotb>
0.659242055529348

> <r_i_glide_esite>
0

> <r_i_glide_emodel>
-19.4893626247358

> <r_i_glide_energy>
-18.6286106109619

> <r_i_glide_einternal>
19.4647254943848

> <i_i_glide_confnum>
37

> <i_i_glide_posenum>
346

> <r_i_glide_eff_state_penalty>
0

> <s_user_duplicate_titles>
CHEMBL1966_lig422

> <i_f3d_flags>
0

> <s_m_subgroup_title>
dock_pv

> <s_m_subgroupid>
dock_pv

> <b_m_subgroup_collapsed>
1

$$$$
CHEMBL1966_lig330
                    3D
 Schrodinger Suite 2021-1.
 49 51  0  0  1  0            999 V2000
   51.6230   42.8100   -2.9987 O   0  0  0  0  0  0
   47.8286   41.2100   -6.0990 O   0  0  0  0  0  0
   52.8843   44.5980   -3.6989 N   0  0  0  0  0  0
   49.6229   41.9398   -4.9319 N   0  0  0  0  0  0
   55.1121   45.7003   -3.1532 C   0  0  0  0  0  0
   53.9385   44.8101   -2.6976 C   0  0  1  0  0  0
   55.2168   47.0564   -2.7587 C   0  0  0  0  0  0
   56.1220   45.1716   -3.9711 C   0  0  0  0  0  0
   53.3428   45.3382   -1.3768 C   0  0  0  0  0  0
   54.2778   47.6588   -1.7185 C   0  0  0  0  0  0
   56.2609   47.8400   -3.2651 C   0  0  0  0  0  0
   53.0118   46.8204   -1.4772 C   0  0  0  0  0  0
   48.0959   40.4962   -3.8355 C   0  0  0  0  0  0
   51.8745   43.7005   -3.8036 C   0  0  0  0  0  0
   48.5029   41.2369   -5.0728 C   0  0  0  0  0  0
   57.1671   45.9560   -4.4491 C   0  0  0  0  0  0
   57.2274   47.3005   -4.1074 C   0  0  0  0  0  0
   48.8061   40.6571   -2.6304 C   0  0  0  0  0  0
   46.9438   39.7089   -3.8674 C   0  0  0  0  0  0
   50.8910   44.0100   -4.9558 C   0  0  0  0  0  0
   47.3108   39.1272   -1.5812 C   0  0  0  0  0  0
   48.3847   40.0099   -1.4891 C   0  0  0  0  0  0
   46.5618   39.0027   -2.7451 C   0  0  0  0  0  0
   50.1489   42.9597   -5.7906 C   0  0  0  0  0  0
   46.9879   38.2360   -0.4310 C   0  0  0  0  0  0
   52.9314   45.2748   -4.4457 H   0  0  0  0  0  0
   50.1607   41.7926   -4.0881 H   0  0  0  0  0  0
   54.4230   43.8461   -2.5579 H   0  0  0  0  0  0
   56.0859   44.1308   -4.2588 H   0  0  0  0  0  0
   54.0611   45.2102   -0.5665 H   0  0  0  0  0  0
   52.4230   44.8101   -1.1149 H   0  0  0  0  0  0
   54.8297   47.7314   -0.7798 H   0  0  0  0  0  0
   54.0229   48.6812   -1.9982 H   0  0  0  0  0  0
   56.3452   48.8766   -2.9717 H   0  0  0  0  0  0
   52.5356   47.1367   -0.5484 H   0  0  0  0  0  0
   52.2900   46.9929   -2.2768 H   0  0  0  0  0  0
   57.9244   45.5226   -5.0857 H   0  0  0  0  0  0
   58.0350   47.9174   -4.4733 H   0  0  0  0  0  0
   49.6760   41.2879   -2.5376 H   0  0  0  0  0  0
   46.3560   39.6100   -4.7692 H   0  0  0  0  0  0
   50.0747   44.4100   -4.3546 H   0  0  0  0  0  0
   51.2230   44.8100   -5.6033 H   0  0  0  0  0  0
   48.9397   40.1135   -0.5678 H   0  0  0  0  0  0
   45.7058   38.3459   -2.7942 H   0  0  0  0  0  0
   49.4594   43.4135   -6.4990 H   0  0  0  0  0  0
   50.8381   42.4100   -6.4139 H   0  0  0  0  0  0
   46.4274   37.3675   -0.7821 H   0  0  0  0  0  0
   47.9009   37.8634    0.0344 H   0  0  0  0  0  0
   46.4224   38.8100    0.3010 H   0  0  0  0  0  0
  1 14  2  0  0  0
  2 15  2  0  0  0
  3  6  1  0  0  0
  3 14  1  0  0  0
  3 26  1  0  0  0
  4 15  1  0  0  0
  4 24  1  0  0  0
  4 27  1  0  0  0
  5  6  1  0  0  0
  5  7  1  0  0  0
  5  8  2  0  0  0
  6  9  1  0  0  0
  6 28  1  0  0  0
  7 10  1  0  0  0
  7 11  2  0  0  0
  8 16  1  0  0  0
  8 29  1  0  0  0
  9 12  1  0  0  0
  9 30  1  0  0  0
  9 31  1  0  0  0
 10 12  1  0  0  0
 10 32  1  0  0  0
 10 33  1  0  0  0
 11 17  1  0  0  0
 11 34  1  0  0  0
 12 35  1  0  0  0
 12 36  1  0  0  0
 13 15  1  0  0  0
 13 18  2  0  0  0
 13 19  1  0  0  0
 14 20  1  0  0  0
 16 17  2  0  0  0
 16 37  1  0  0  0
 17 38  1  0  0  0
 18 22  1  0  0  0
 18 39  1  0  0  0
 19 23  2  0  0  0
 19 40  1  0  0  0
 20 24  1  0  0  0
 20 41  1  0  0  0
 20 42  1  0  0  0
 21 22  2  0  0  0
 21 23  1  0  0  0
 21 25  1  0  0  0
 22 43  1  0  0  0
 23 44  1  0  0  0
 24 45  1  0  0  0
 24 46  1  0  0  0
 25 47  1  0  0  0
 25 48  1  0  0  0
 25 49  1  0  0  0
M  END
> <s_m_entry_id>
25955

> <s_m_entry_name>
dock_pv.607

> <s_m_Source_Path>
/home/csk/Desktop/cluster/DUD-E-result/pyrd

> <s_m_Source_File>
dock_pv.maegz

> <i_m_Source_File_Index>
607

> <chembl_id>
CHEMBL3184332

> <chembl_pref_name>
None

> <i_lp_mmshare_version>
53161

> <r_lp_tautomer_probability>
1

> <s_lp_Force_Field>
OPLS_2005

> <r_lp_Energy>
16.053514

> <b_lp_Chiralities_Consistent>
1

> <s_lp_Variant>
CHEMBL1966_lig330-1

> <s_i_glide_gridfile>
glide-grid_1d3g

> <i_i_glide_lignum>
380

> <i_i_glide_rotatable_bonds>
7

> <r_i_docking_score>
-6.9638868959218

> <r_i_glide_ligand_efficiency>
-0.278555475836872

> <r_i_glide_ligand_efficiency_sa>
-0.814501151549413

> <r_i_glide_ligand_efficiency_ln>
-1.65064988518342

> <r_i_glide_gscore>
-6.9638868959218

> <r_i_glide_lipo>
-4.26933238602577

> <r_i_glide_hbond>
-0.212620293199064

> <r_i_glide_metal>
0

> <r_i_glide_rewards>
-2.33613487499682

> <r_i_glide_evdw>
-21.5733184814453

> <r_i_glide_ecoul>
-0.455448359251022

> <r_i_glide_erotb>
1.00118383625977

> <r_i_glide_esite>
0

> <r_i_glide_emodel>
-55.2896029333477

> <r_i_glide_energy>
-22.0287668406963

> <r_i_glide_einternal>
2.0026068687439

> <i_i_glide_confnum>
35

> <i_i_glide_posenum>
371

> <r_i_glide_eff_state_penalty>
0

> <s_user_duplicate_titles>
CHEMBL1966_lig330

> <i_f3d_flags>
0

> <s_m_subgroup_title>
dock_pv

> <s_m_subgroupid>
dock_pv

> <b_m_subgroup_collapsed>
1

$$$$
CHEMBL1966_lig108
                    3D
 Schrodinger Suite 2021-1.
 42 43  0  0  1  0            999 V2000
   47.4068   37.4183   -0.8990 C   0  0  0  0  0  0
   46.6319   38.6430   -1.3867 C   0  0  0  0  0  0
   46.2681   38.4512   -2.7517 O   0  0  0  0  0  0
   46.6532   39.4134   -3.6539 C   0  0  0  0  0  0
   47.9149   40.0100   -3.6222 C   0  0  0  0  0  0
   45.7654   39.7581   -4.6666 C   0  0  0  0  0  0
   46.0785   40.7788   -5.5530 C   0  0  0  0  0  0
   47.3115   41.4088   -5.4738 C   0  0  0  0  0  0
   48.2460   41.0542   -4.4925 C   0  0  0  0  0  0
   49.4360   41.9077   -4.2317 C   0  0  0  0  0  0
   49.9103   42.7681   -5.2217 C   0  0  0  0  0  0
   50.9704   43.6099   -4.9693 C   0  0  0  0  0  0
   50.0399   41.9460   -2.9644 C   0  0  0  0  0  0
   51.1135   42.7895   -2.7114 C   0  0  0  0  0  0
   51.6024   43.6100   -3.7264 C   0  0  0  0  0  0
   52.7379   44.4178   -3.5578 N   0  0  0  0  0  0
   53.0372   45.2127   -2.5050 C   0  0  0  0  0  0
   52.2658   45.3848   -1.5602 O   0  0  0  0  0  0
   54.3856   45.9719   -2.5222 C   0  0  1  0  0  0
   54.7725   46.5466   -1.2216 C   0  0  0  0  0  0
   55.0809   46.9974   -0.2008 N   0  0  0  0  0  0
   55.6158   45.2602   -3.1264 C   0  0  0  0  0  0
   56.8135   46.1288   -3.4980 C   0  0  0  0  0  0
   55.6648   44.0428   -3.2991 O   0  0  0  0  0  0
   47.7653   37.5697    0.1184 H   0  0  0  0  0  0
   46.7797   36.5270   -0.8990 H   0  0  0  0  0  0
   48.2710   37.2127   -1.5312 H   0  0  0  0  0  0
   47.1976   39.5539   -1.1826 H   0  0  0  0  0  0
   45.7031   38.7548   -0.8300 H   0  0  0  0  0  0
   48.6180   39.6796   -2.8744 H   0  0  0  0  0  0
   44.8236   39.2404   -4.7422 H   0  0  0  0  0  0
   45.3570   41.1215   -6.2717 H   0  0  0  0  0  0
   47.4667   42.2712   -6.0991 H   0  0  0  0  0  0
   49.4684   42.8095   -6.2035 H   0  0  0  0  0  0
   51.2230   44.2887   -5.7639 H   0  0  0  0  0  0
   49.6845   41.3391   -2.1469 H   0  0  0  0  0  0
   51.5696   42.7779   -1.7348 H   0  0  0  0  0  0
   53.3641   44.4468   -4.3478 H   0  0  0  0  0  0
   56.5295   46.8816   -4.2328 H   0  0  0  0  0  0
   57.6061   45.5155   -3.9273 H   0  0  0  0  0  0
   57.2157   46.6231   -2.6138 H   0  0  0  0  0  0
   54.1983   46.8367   -3.1587 H   0  0  0  0  0  0
  1  2  1  0  0  0
  1 25  1  0  0  0
  1 26  1  0  0  0
  1 27  1  0  0  0
  2  3  1  0  0  0
  2 28  1  0  0  0
  2 29  1  0  0  0
  3  4  1  0  0  0
  4  5  2  0  0  0
  4  6  1  0  0  0
  5  9  1  0  0  0
  5 30  1  0  0  0
  6  7  2  0  0  0
  6 31  1  0  0  0
  7  8  1  0  0  0
  7 32  1  0  0  0
  8  9  2  0  0  0
  8 33  1  0  0  0
  9 10  1  0  0  0
 10 11  2  0  0  0
 10 13  1  0  0  0
 11 12  1  0  0  0
 11 34  1  0  0  0
 12 15  2  0  0  0
 12 35  1  0  0  0
 13 14  2  0  0  0
 13 36  1  0  0  0
 14 15  1  0  0  0
 14 37  1  0  0  0
 15 16  1  0  0  0
 16 17  1  0  0  0
 16 38  1  0  0  0
 17 18  2  0  0  0
 17 19  1  0  0  0
 19 20  1  0  0  0
 19 42  1  0  0  0
 19 22  1  0  0  0
 20 21  3  0  0  0
 22 24  2  0  0  0
 22 23  1  0  0  0
 23 39  1  0  0  0
 23 40  1  0  0  0
 23 41  1  0  0  0
M  END
> <s_m_entry_id>
25956

> <s_m_entry_name>
dock_pv.608

> <s_m_Source_Path>
/home/csk/Desktop/cluster/DUD-E-result/pyrd

> <s_m_Source_File>
dock_pv.maegz

> <i_m_Source_File_Index>
608

> <chembl_id>
CHEMBL483995

> <chembl_pref_name>
None

> <i_lp_mmshare_version>
53161

> <r_lp_tautomer_probability>
0.995394628248396

> <s_lp_Force_Field>
OPLS_2005

> <r_lp_Energy>
25.729094

> <b_lp_Chiralities_Consistent>
1

> <s_lp_Variant>
CHEMBL1966_lig108-2

> <s_i_glide_gridfile>
glide-grid_1d3g

> <i_i_glide_lignum>
118

> <i_i_glide_rotatable_bonds>
7

> <r_i_docking_score>
-6.95022987719498

> <r_i_glide_ligand_efficiency>
-0.289592911549791

> <r_i_glide_ligand_efficiency_sa>
-0.835330503608606

> <r_i_glide_ligand_efficiency_ln>
-1.66350893488037

> <r_i_glide_gscore>
-6.95022987719498

> <r_i_glide_lipo>
-3.83455946580878

> <r_i_glide_hbond>
0

> <r_i_glide_metal>
0

> <r_i_glide_rewards>
-2.15197504123217

> <r_i_glide_evdw>
-32.6834564208984

> <r_i_glide_ecoul>
-1.52842128276825

> <r_i_glide_erotb>
0.899740643306133

> <r_i_glide_esite>
0

> <r_i_glide_emodel>
-30.5504438963487

> <r_i_glide_energy>
-34.2118777036667

> <r_i_glide_einternal>
6.46043920516968

> <i_i_glide_confnum>
13

> <i_i_glide_posenum>
215

> <r_i_glide_eff_state_penalty>
0

> <s_user_duplicate_titles>
CHEMBL1966_lig108,520747

> <i_f3d_flags>
0

> <s_m_subgroup_title>
dock_pv

> <s_m_subgroupid>
dock_pv

> <b_m_subgroup_collapsed>
1

$$$$
CHEMBL1966_lig65
                    3D
 Schrodinger Suite 2021-1.
 44 46  0  0  1  0            999 V2000
   54.1140   47.2116   -1.6353 C   0  0  0  0  0  0
   52.9244   46.4036   -1.4657 C   0  0  0  0  0  0
   55.1389   47.3041   -0.7444 C   0  0  0  0  0  0
   50.4031   42.1897   -2.9611 C   0  0  0  0  0  0
   50.8273   42.9771   -4.0429 C   0  0  0  0  0  0
   50.5343   42.6864   -1.6523 C   0  0  0  0  0  0
   55.2039   46.6460    0.5440 C   0  0  0  0  0  0
   52.8678   45.4460   -2.3919 N   0  0  0  0  0  0
   51.9346   44.4202   -2.4990 C   0  0  0  0  0  0
   49.9823   40.9156   -3.1632 O   0  0  0  0  0  0
   51.6836   44.0086   -3.7788 C   0  0  0  0  0  0
   51.2224   43.8676   -1.4363 C   0  0  0  0  0  0
   52.1065   46.5484   -0.5569 O   0  0  0  0  0  0
   54.3062   46.0102    1.0895 O   0  0  0  0  0  0
   50.2802   42.8104   -5.8659 Br  0  0  0  0  0  0
   49.9189   41.7800   -0.1013 Br  0  0  0  0  0  0
   48.7748   40.8042   -3.8564 C   0  0  0  0  0  0
   56.4234   46.8098    1.1008 O   0  0  0  0  0  0
   54.4245   48.0048   -2.8951 C   0  0  0  0  0  0
   56.2776   48.1469   -1.3084 C   0  0  0  0  0  0
   47.8004   40.0052   -3.0397 C   0  0  0  0  0  0
   55.6216   48.8535   -2.4734 C   0  0  0  0  0  0
   46.6799   39.5763   -3.6990 C   0  0  0  0  0  0
   48.0238   39.6166   -1.7163 C   0  0  0  0  0  0
   45.9138   38.6194   -3.0891 C   0  0  0  0  0  0
   47.1521   38.7793   -1.0470 C   0  0  0  0  0  0
   46.0825   38.2674   -1.7524 C   0  0  0  0  0  0
   53.5498   45.4987   -3.1321 H   0  0  0  0  0  0
   52.0230   44.6338   -4.5587 H   0  0  0  0  0  0
   51.3454   44.2283   -0.4255 H   0  0  0  0  0  0
   48.3372   41.7563   -4.1501 H   0  0  0  0  0  0
   48.9890   40.2586   -4.7769 H   0  0  0  0  0  0
   56.9934   47.3680    0.5700 H   0  0  0  0  0  0
   53.6018   48.6373   -3.2303 H   0  0  0  0  0  0
   54.6701   47.3384   -3.7233 H   0  0  0  0  0  0
   57.1024   47.5108   -1.6348 H   0  0  0  0  0  0
   56.6898   48.8803   -0.6122 H   0  0  0  0  0  0
   55.2722   49.8174   -2.0969 H   0  0  0  0  0  0
   56.3111   49.0519   -3.2954 H   0  0  0  0  0  0
   46.5036   39.8321   -4.7338 H   0  0  0  0  0  0
   48.9222   39.8782   -1.2156 H   0  0  0  0  0  0
   45.2183   38.0923   -3.7020 H   0  0  0  0  0  0
   47.3540   38.4655   -0.0359 H   0  0  0  0  0  0
   45.4432   37.5254   -1.2997 H   0  0  0  0  0  0
  1  2  1  0  0  0
  1  3  2  0  0  0
  1 19  1  0  0  0
  2  8  1  0  0  0
  2 13  2  0  0  0
  3  7  1  0  0  0
  3 20  1  0  0  0
  4  6  2  0  0  0
  4 10  1  0  0  0
  4  5  1  0  0  0
  5 11  2  0  0  0
  5 15  1  0  0  0
  6 12  1  0  0  0
  6 16  1  0  0  0
  7 14  2  0  0  0
  7 18  1  0  0  0
  8  9  1  0  0  0
  8 28  1  0  0  0
  9 11  1  0  0  0
  9 12  2  0  0  0
 10 17  1  0  0  0
 11 29  1  0  0  0
 12 30  1  0  0  0
 17 21  1  0  0  0
 17 31  1  0  0  0
 17 32  1  0  0  0
 18 33  1  0  0  0
 19 22  1  0  0  0
 19 34  1  0  0  0
 19 35  1  0  0  0
 20 22  1  0  0  0
 20 36  1  0  0  0
 20 37  1  0  0  0
 21 23  2  0  0  0
 21 24  1  0  0  0
 22 38  1  0  0  0
 22 39  1  0  0  0
 23 25  1  0  0  0
 23 40  1  0  0  0
 24 26  2  0  0  0
 24 41  1  0  0  0
 25 27  2  0  0  0
 25 42  1  0  0  0
 26 27  1  0  0  0
 26 43  1  0  0  0
 27 44  1  0  0  0
M  END
> <s_m_entry_id>
25957

> <s_m_entry_name>
dock_pv.609

> <s_m_Source_Path>
/home/csk/Desktop/cluster/DUD-E-result/pyrd

> <s_m_Source_File>
dock_pv.maegz

> <i_m_Source_File_Index>
609

> <chembl_id>
CHEMBL197553

> <chembl_pref_name>
None

> <i_lp_mmshare_version>
53161

> <r_lp_tautomer_probability>
1

> <s_lp_Force_Field>
OPLS_2005

> <r_lp_Energy>
50.332741

> <b_lp_Chiralities_Consistent>
1

> <s_lp_Variant>
CHEMBL1966_lig65-1

> <s_i_glide_gridfile>
glide-grid_1d3g

> <i_i_glide_lignum>
71

> <i_i_glide_rotatable_bonds>
8

> <r_i_docking_score>
-6.94638307902294

> <r_i_glide_ligand_efficiency>
-0.25727344737122

> <r_i_glide_ligand_efficiency_sa>
-0.771820341265729

> <r_i_glide_ligand_efficiency_ln>
-1.61700346072125

> <r_i_glide_gscore>
-6.94638307902294

> <r_i_glide_lipo>
-5.38654753163748

> <r_i_glide_hbond>
-0.0187936618621876

> <r_i_glide_metal>
0

> <r_i_glide_rewards>
-0.622092733654254

> <r_i_glide_evdw>
-28.0705394744873

> <r_i_glide_ecoul>
-0.649121999740601

> <r_i_glide_erotb>
0.581946121816439

> <r_i_glide_esite>
0

> <r_i_glide_emodel>
-43.6242329485633

> <r_i_glide_energy>
-28.7196614742279

> <r_i_glide_einternal>
16.6040096282959

> <i_i_glide_confnum>
76

> <i_i_glide_posenum>
240

> <r_i_glide_eff_state_penalty>
0

> <s_user_duplicate_titles>
CHEMBL1966_lig65,327220

> <i_f3d_flags>
0

> <s_m_subgroup_title>
dock_pv

> <s_m_subgroupid>
dock_pv

> <b_m_subgroup_collapsed>
1

$$$$
CHEMBL1966_lig213
                    3D
 Schrodinger Suite 2021-1.
 44 45  0  0  1  0            999 V2000
   54.3995   47.0318    0.2789 O   0  0  0  0  0  0
   52.3989   44.4099   -3.2486 N   0  0  0  0  0  0
   49.7420   41.7326   -3.1816 C   0  0  0  0  0  0
   54.9127   45.6805   -3.6964 O   0  0  0  0  0  0
   50.8267   43.6103   -4.9166 C   0  0  0  0  0  0
   55.9190   46.6309   -1.9349 N   0  0  0  0  0  0
   51.3383   43.5390   -3.6182 C   0  0  0  0  0  0
   49.7765   42.8058   -5.3405 C   0  0  0  0  0  0
   52.5510   45.1954   -2.0977 C   0  0  0  0  0  0
   53.5057   46.4369   -0.3267 C   0  0  0  0  0  0
   54.8572   46.0528   -2.5235 C   0  0  0  0  0  0
   49.2329   41.8475   -4.4880 C   0  0  0  0  0  0
   52.1431   46.1868    0.2742 C   0  0  0  0  0  0
   51.2229   45.2126   -0.8998 S   0  0  0  0  0  0
   53.6466   45.9036   -1.7041 C   0  0  0  0  0  0
   50.7829   42.5793   -2.7563 C   0  0  0  0  0  0
   49.1862   40.6841   -2.2316 C   0  0  0  0  0  0
   48.1444   40.9221   -5.0234 C   0  0  0  0  0  0
   57.2119   46.9093   -2.5504 C   0  0  0  0  0  0
   57.1879   48.0555   -3.5842 C   0  0  0  0  0  0
   56.6729   49.4103   -3.0536 C   0  0  0  0  0  0
   57.5398   50.0115   -1.9364 C   0  0  0  0  0  0
   53.0465   44.6033   -4.0019 H   0  0  0  0  0  0
   51.2214   44.3324   -5.6115 H   0  0  0  0  0  0
   55.7934   46.9337   -0.9762 H   0  0  0  0  0  0
   49.4060   42.9192   -6.3474 H   0  0  0  0  0  0
   52.2265   45.6401    1.2129 H   0  0  0  0  0  0
   51.6225   47.1270    0.4545 H   0  0  0  0  0  0
   51.1775   42.4728   -1.7569 H   0  0  0  0  0  0
   48.1121   40.8103   -2.1027 H   0  0  0  0  0  0
   49.3270   39.6939   -2.6624 H   0  0  0  0  0  0
   49.6538   40.7149   -1.2474 H   0  0  0  0  0  0
   48.4273   39.8778   -4.8902 H   0  0  0  0  0  0
   47.2033   41.0708   -4.4991 H   0  0  0  0  0  0
   47.9634   41.0779   -6.0869 H   0  0  0  0  0  0
   57.6400   45.9999   -2.9770 H   0  0  0  0  0  0
   57.8497   47.2033   -1.7181 H   0  0  0  0  0  0
   56.5776   47.7499   -4.4351 H   0  0  0  0  0  0
   58.1928   48.1852   -3.9869 H   0  0  0  0  0  0
   55.6462   49.3018   -2.6989 H   0  0  0  0  0  0
   56.6272   50.1195   -3.8819 H   0  0  0  0  0  0
   57.2191   51.0252   -1.6993 H   0  0  0  0  0  0
   58.5892   50.0633   -2.2272 H   0  0  0  0  0  0
   57.4736   49.4284   -1.0186 H   0  0  0  0  0  0
  1 10  2  0  0  0
  2  9  1  0  0  0
  2  7  1  0  0  0
  2 23  1  0  0  0
  3 16  1  0  0  0
  3 12  2  0  0  0
  3 17  1  0  0  0
  4 11  2  0  0  0
  5  8  2  0  0  0
  5  7  1  0  0  0
  5 24  1  0  0  0
  6 11  1  0  0  0
  6 19  1  0  0  0
  6 25  1  0  0  0
  7 16  2  0  0  0
  8 12  1  0  0  0
  8 26  1  0  0  0
  9 15  2  0  0  0
  9 14  1  0  0  0
 10 15  1  0  0  0
 10 13  1  0  0  0
 11 15  1  0  0  0
 12 18  1  0  0  0
 13 14  1  0  0  0
 13 27  1  0  0  0
 13 28  1  0  0  0
 16 29  1  0  0  0
 17 30  1  0  0  0
 17 31  1  0  0  0
 17 32  1  0  0  0
 18 33  1  0  0  0
 18 34  1  0  0  0
 18 35  1  0  0  0
 19 20  1  0  0  0
 19 36  1  0  0  0
 19 37  1  0  0  0
 20 21  1  0  0  0
 20 38  1  0  0  0
 20 39  1  0  0  0
 21 22  1  0  0  0
 21 40  1  0  0  0
 21 41  1  0  0  0
 22 42  1  0  0  0
 22 43  1  0  0  0
 22 44  1  0  0  0
M  END
> <s_m_entry_id>
25958

> <s_m_entry_name>
dock_pv.610

> <s_m_Source_Path>
/home/csk/Desktop/cluster/DUD-E-result/pyrd

> <s_m_Source_File>
dock_pv.maegz

> <i_m_Source_File_Index>
610

> <chembl_id>
CHEMBL2431485

> <chembl_pref_name>
None

> <i_lp_mmshare_version>
53161

> <r_lp_tautomer_probability>
0.9999999514288

> <s_lp_Force_Field>
OPLS_2005

> <r_lp_Energy>
27.017005

> <b_lp_Chiralities_Consistent>
1

> <s_lp_Variant>
CHEMBL1966_lig213-1

> <s_i_glide_gridfile>
glide-grid_1d3g

> <i_i_glide_lignum>
258

> <i_i_glide_rotatable_bonds>
7

> <r_i_docking_score>
-6.92482095644263

> <r_i_glide_ligand_efficiency>
-0.31476458892921

> <r_i_glide_ligand_efficiency_sa>
-0.881982757168474

> <r_i_glide_ligand_efficiency_ln>
-1.69267883073618

> <r_i_glide_gscore>
-6.92482095644263

> <r_i_glide_lipo>
-4.20352834023416

> <r_i_glide_hbond>
0

> <r_i_glide_metal>
0

> <r_i_glide_rewards>
-1.84777673707945

> <r_i_glide_evdw>
-39.9547386169434

> <r_i_glide_ecoul>
0.139889538288116

> <r_i_glide_erotb>
1.10323762097493

> <r_i_glide_esite>
0

> <r_i_glide_emodel>
-49.1172236161232

> <r_i_glide_energy>
-39.8148490786552

> <r_i_glide_einternal>
9.45329570770264

> <i_i_glide_confnum>
68

> <i_i_glide_posenum>
224

> <r_i_glide_eff_state_penalty>
0

> <s_user_duplicate_titles>
CHEMBL1966_lig213

> <i_f3d_flags>
0

> <s_m_subgroup_title>
dock_pv

> <s_m_subgroupid>
dock_pv

> <b_m_subgroup_collapsed>
1

$$$$
CHEMBL1966_lig270
                    3D
 Schrodinger Suite 2021-1.
 28 29  0  0  1  0            999 V2000
   53.0252   46.4100   -0.1163 C   0  0  0  0  0  0
   54.4844   46.8100    0.0743 C   0  0  0  0  0  0
   51.1385   44.7718   -1.2990 S   0  0  0  0  0  0
   51.6230   44.0100   -2.8021 C   0  0  0  0  0  0
   52.7414   44.4788   -3.2990 N   0  0  0  0  0  0
   53.3238   45.3660   -2.5052 C   0  0  0  0  0  0
   52.6517   45.6363   -1.2990 C   0  0  0  0  0  0
   54.6427   45.9109   -3.0140 C   0  0  0  0  0  0
   50.8985   43.0349   -3.4464 N   0  0  0  0  0  0
   50.0320   42.0633   -2.9225 C   0  0  0  0  0  0
   49.2230   41.3615   -3.8179 C   0  0  0  0  0  0
   48.3971   40.3385   -3.3596 C   0  0  0  0  0  0
   48.3886   40.0100   -2.0057 C   0  0  0  0  0  0
   49.2134   40.6915   -1.1091 C   0  0  0  0  0  0
   50.0230   41.7173   -1.5674 C   0  0  0  0  0  0
   52.2179   46.7300    0.7556 O   0  0  0  0  0  0
   47.2230   38.6428   -1.3705 Br  0  0  0  0  0  0
   55.1475   45.9924   -0.2063 H   0  0  0  0  0  0
   54.6755   47.0513    1.1205 H   0  0  0  0  0  0
   54.7213   47.6854   -0.5287 H   0  0  0  0  0  0
   54.8622   46.9037   -2.6259 H   0  0  0  0  0  0
   55.4746   45.2617   -2.7407 H   0  0  0  0  0  0
   54.6588   46.0100   -4.0990 H   0  0  0  0  0  0
   51.0389   42.9267   -4.4391 H   0  0  0  0  0  0
   49.2293   41.6057   -4.8700 H   0  0  0  0  0  0
   47.7636   39.7997   -4.0487 H   0  0  0  0  0  0
   49.2167   40.4200   -0.0634 H   0  0  0  0  0  0
   50.6827   42.1860   -0.8575 H   0  0  0  0  0  0
  1  2  1  0  0  0
  1  7  1  0  0  0
  1 16  2  0  0  0
  2 18  1  0  0  0
  2 19  1  0  0  0
  2 20  1  0  0  0
  3  4  1  0  0  0
  3  7  1  0  0  0
  4  5  2  0  0  0
  4  9  1  0  0  0
  5  6  1  0  0  0
  6  7  2  0  0  0
  6  8  1  0  0  0
  8 21  1  0  0  0
  8 22  1  0  0  0
  8 23  1  0  0  0
  9 10  1  0  0  0
  9 24  1  0  0  0
 10 11  1  0  0  0
 10 15  2  0  0  0
 11 12  2  0  0  0
 11 25  1  0  0  0
 12 13  1  0  0  0
 12 26  1  0  0  0
 13 14  2  0  0  0
 13 17  1  0  0  0
 14 15  1  0  0  0
 14 27  1  0  0  0
 15 28  1  0  0  0
M  END
> <s_m_entry_id>
25959

> <s_m_entry_name>
dock_pv.611

> <s_m_Source_Path>
/home/csk/Desktop/cluster/DUD-E-result/pyrd

> <s_m_Source_File>
dock_pv.maegz

> <i_m_Source_File_Index>
611

> <chembl_id>
CHEMBL3410570

> <chembl_pref_name>
None

> <i_lp_mmshare_version>
53161

> <r_lp_tautomer_probability>
0.99995

> <s_lp_Force_Field>
OPLS_2005

> <r_lp_Energy>
5.772322

> <b_lp_Chiralities_Consistent>
1

> <s_lp_Variant>
CHEMBL1966_lig270-1

> <s_i_glide_gridfile>
glide-grid_1d3g

> <i_i_glide_lignum>
316

> <i_i_glide_rotatable_bonds>
3

> <r_i_docking_score>
-6.91527627794585

> <r_i_glide_ligand_efficiency>
-0.406780957526226

> <r_i_glide_ligand_efficiency_sa>
-1.04594838652972

> <r_i_glide_ligand_efficiency_ln>
-1.80404158528475

> <r_i_glide_gscore>
-6.91527627794585

> <r_i_glide_lipo>
-3.74559023097439

> <r_i_glide_hbond>
0

> <r_i_glide_metal>
0

> <r_i_glide_rewards>
-1.94475931005842

> <r_i_glide_evdw>
-34.1794776916504

> <r_i_glide_ecoul>
0.674187362194061

> <r_i_glide_erotb>
0.382919043340377

> <r_i_glide_esite>
0

> <r_i_glide_emodel>
-44.0680594241773

> <r_i_glide_energy>
-33.5052903294563

> <r_i_glide_einternal>
4.64356470108032

> <i_i_glide_confnum>
6

> <i_i_glide_posenum>
109

> <r_i_glide_eff_state_penalty>
0

> <s_user_duplicate_titles>
CHEMBL1966_lig270

> <i_f3d_flags>
0

> <s_m_subgroup_title>
dock_pv

> <s_m_subgroupid>
dock_pv

> <b_m_subgroup_collapsed>
1

$$$$
CHEMBL1966_lig327
                    3D
 Schrodinger Suite 2021-1.
 31 32  0  0  1  0            999 V2000
   52.6584   46.0241   -1.2277 O   0  0  0  0  0  0
   48.7251   40.9521   -5.9705 O   0  0  0  0  0  0
   46.4591   41.0108   -5.6990 O   0  0  0  0  0  0
   49.8271   41.7217   -3.3920 N   0  0  0  0  0  0
   48.8296   40.8367   -2.9401 C   0  0  0  0  0  0
   47.8048   40.3955   -3.8081 C   0  0  0  0  0  0
   50.5323   42.7657   -2.7696 C   0  0  0  0  0  0
   47.7320   40.8100   -5.2583 C   0  0  0  0  0  0
   48.8230   40.4100   -1.6061 C   0  0  0  0  0  0
   46.8078   39.5442   -3.2990 C   0  0  0  0  0  0
   51.6048   43.3308   -3.4607 C   0  0  0  0  0  0
   50.1540   43.3026   -1.5349 C   0  0  0  0  0  0
   51.9095   44.9644   -1.6990 C   0  0  0  0  0  0
   52.3011   44.4100   -2.9193 C   0  0  0  0  0  0
   50.8230   44.4044   -1.0105 C   0  0  0  0  0  0
   47.8340   39.5580   -1.1229 C   0  0  0  0  0  0
   46.8296   39.1167   -1.9750 C   0  0  0  0  0  0
   52.4580   46.4671    0.1115 C   0  0  0  0  0  0
   45.8532   41.0549   -4.9554 H   0  0  0  0  0  0
   50.0238   41.6210   -4.3784 H   0  0  0  0  0  0
   49.6112   40.7128   -0.9343 H   0  0  0  0  0  0
   46.0106   39.1765   -3.9302 H   0  0  0  0  0  0
   51.9096   42.9347   -4.4177 H   0  0  0  0  0  0
   49.3044   42.9207   -0.9947 H   0  0  0  0  0  0
   53.1389   44.8316   -3.4549 H   0  0  0  0  0  0
   50.4850   44.8097   -0.0692 H   0  0  0  0  0  0
   47.8564   39.2261   -0.0951 H   0  0  0  0  0  0
   46.0641   38.4490   -1.6071 H   0  0  0  0  0  0
   53.2149   47.2100    0.3589 H   0  0  0  0  0  0
   51.4802   46.9345    0.2359 H   0  0  0  0  0  0
   52.5581   45.6518    0.8302 H   0  0  0  0  0  0
  1 13  1  0  0  0
  1 18  1  0  0  0
  2  8  2  0  0  0
  3  8  1  0  0  0
  3 19  1  0  0  0
  4  5  1  0  0  0
  4  7  1  0  0  0
  4 20  1  0  0  0
  5  6  1  0  0  0
  5  9  2  0  0  0
  6  8  1  0  0  0
  6 10  2  0  0  0
  7 11  2  0  0  0
  7 12  1  0  0  0
  9 16  1  0  0  0
  9 21  1  0  0  0
 10 17  1  0  0  0
 10 22  1  0  0  0
 11 14  1  0  0  0
 11 23  1  0  0  0
 12 15  2  0  0  0
 12 24  1  0  0  0
 13 14  2  0  0  0
 13 15  1  0  0  0
 14 25  1  0  0  0
 15 26  1  0  0  0
 16 17  2  0  0  0
 16 27  1  0  0  0
 17 28  1  0  0  0
 18 29  1  0  0  0
 18 30  1  0  0  0
 18 31  1  0  0  0
M  END
> <s_m_entry_id>
25960

> <s_m_entry_name>
dock_pv.612

> <s_m_Source_Path>
/home/csk/Desktop/cluster/DUD-E-result/pyrd

> <s_m_Source_File>
dock_pv.maegz

> <i_m_Source_File_Index>
612

> <chembl_id>
CHEMBL1596993

> <chembl_pref_name>
None

> <i_lp_mmshare_version>
53161

> <r_lp_tautomer_probability>
1

> <s_lp_Force_Field>
OPLS_2005

> <r_lp_Energy>
24.66557

> <b_lp_Chiralities_Consistent>
1

> <s_lp_Variant>
CHEMBL1966_lig327-1

> <s_i_glide_gridfile>
glide-grid_1d3g

> <i_i_glide_lignum>
377

> <i_i_glide_rotatable_bonds>
5

> <r_i_docking_score>
-6.87967495774074

> <r_i_glide_ligand_efficiency>
-0.38220416431893

> <r_i_glide_ligand_efficiency_sa>
-1.00165827350458

> <r_i_glide_ligand_efficiency_ln>
-1.76838497343532

> <r_i_glide_gscore>
-6.87967495774074

> <r_i_glide_lipo>
-3.83910474465186

> <r_i_glide_hbond>
-0.16

> <r_i_glide_metal>
0

> <r_i_glide_rewards>
-1.85151071065741

> <r_i_glide_evdw>
-28.7350673675537

> <r_i_glide_ecoul>
-3.15028977394104

> <r_i_glide_erotb>
0.880237332037371

> <r_i_glide_esite>
0

> <r_i_glide_emodel>
-41.166530372758

> <r_i_glide_energy>
-31.8853571414948

> <r_i_glide_einternal>
8.8557071685791

> <i_i_glide_confnum>
14

> <i_i_glide_posenum>
355

> <r_i_glide_eff_state_penalty>
0

> <s_user_duplicate_titles>
CHEMBL1966_lig327

> <i_f3d_flags>
0

> <s_m_subgroup_title>
dock_pv

> <s_m_subgroupid>
dock_pv

> <b_m_subgroup_collapsed>
1

$$$$
CHEMBL1966_lig126
                    3D
 Schrodinger Suite 2021-1.
 35 35  0  0  1  0            999 V2000
   55.8142   45.8302   -2.1204 O   0  0  0  0  0  0
   55.2303   46.9681   -1.3997 S   0  0  0  0  0  0
   55.7616   48.3211   -1.6007 O   0  0  0  0  0  0
   52.8428   45.9106   -1.9293 C   0  0  0  0  0  0
   51.7530   45.6104   -1.1075 C   0  0  0  0  0  0
   50.9408   44.5062   -1.3855 C   0  0  0  0  0  0
   51.2229   43.6980   -2.4992 C   0  0  0  0  0  0
   52.3028   44.0100   -3.3249 C   0  0  0  0  0  0
   53.1099   45.1114   -3.0416 C   0  0  0  0  0  0
   53.5784   47.0490   -1.6986 O   0  0  0  0  0  0
   50.4600   42.5780   -2.8654 N   0  0  0  0  0  0
   49.9104   41.6658   -2.0359 C   0  0  0  0  0  0
   49.1649   40.4548   -2.6480 C   0  0  2  0  0  0
   50.0220   41.7337   -0.8107 O   0  0  0  0  0  0
   48.4231   40.6689   -3.9876 C   0  0  0  0  0  0
   46.9638   40.1848   -4.0888 C   0  0  0  0  0  0
   48.9805   41.2061   -4.9482 O   0  0  0  0  0  0
   48.3046   39.7438   -1.6795 C   0  0  0  0  0  0
   47.6229   39.1891   -0.9244 N   0  0  0  0  0  0
   46.1866   40.7201   -5.2990 C   0  0  0  0  0  0
   55.1961   46.5977    0.4623 C   0  0  0  0  0  0
   54.8229   47.7006    1.1007 F   0  0  0  0  0  0
   54.3363   45.6100    0.6971 F   0  0  0  0  0  0
   56.4231   46.2422    0.8366 F   0  0  0  0  0  0
   51.5296   46.2431   -0.2619 H   0  0  0  0  0  0
   50.0943   44.3003   -0.7470 H   0  0  0  0  0  0
   52.5277   43.3897   -4.1785 H   0  0  0  0  0  0
   53.9298   45.3567   -3.6981 H   0  0  0  0  0  0
   50.4015   42.3854   -3.8556 H   0  0  0  0  0  0
   46.4256   40.4688   -3.1858 H   0  0  0  0  0  0
   46.9732   39.0998   -4.0986 H   0  0  0  0  0  0
   49.9452   39.7374   -2.8990 H   0  0  0  0  0  0
   45.1694   40.3319   -5.3089 H   0  0  0  0  0  0
   46.6685   40.4106   -6.2202 H   0  0  0  0  0  0
   46.1216   41.8102   -5.2995 H   0  0  0  0  0  0
  1  2  2  0  0  0
  2  3  2  0  0  0
  2 10  1  0  0  0
  2 21  1  0  0  0
  4  5  2  0  0  0
  4  9  1  0  0  0
  4 10  1  0  0  0
  5  6  1  0  0  0
  5 25  1  0  0  0
  6  7  2  0  0  0
  6 26  1  0  0  0
  7  8  1  0  0  0
  7 11  1  0  0  0
  8  9  2  0  0  0
  8 27  1  0  0  0
  9 28  1  0  0  0
 11 12  1  0  0  0
 11 29  1  0  0  0
 12 14  2  0  0  0
 12 13  1  0  0  0
 13 18  1  0  0  0
 13 32  1  0  0  0
 13 15  1  0  0  0
 15 17  2  0  0  0
 15 16  1  0  0  0
 16 20  1  0  0  0
 16 30  1  0  0  0
 16 31  1  0  0  0
 18 19  3  0  0  0
 20 33  1  0  0  0
 20 34  1  0  0  0
 20 35  1  0  0  0
 21 22  1  0  0  0
 21 23  1  0  0  0
 21 24  1  0  0  0
M  END
> <s_m_entry_id>
25961

> <s_m_entry_name>
dock_pv.613

> <s_m_Source_Path>
/home/csk/Desktop/cluster/DUD-E-result/pyrd

> <s_m_Source_File>
dock_pv.maegz

> <i_m_Source_File_Index>
613

> <chembl_id>
CHEMBL1929432

> <chembl_pref_name>
None

> <i_lp_mmshare_version>
53161

> <r_lp_tautomer_probability>
0.995394627300976

> <s_lp_Force_Field>
OPLS_2005

> <r_lp_Energy>
15.924055

> <b_lp_Chiralities_Consistent>
1

> <s_lp_Variant>
CHEMBL1966_lig126-2

> <s_i_glide_gridfile>
glide-grid_1d3g

> <i_i_glide_lignum>
150

> <i_i_glide_rotatable_bonds>
8

> <r_i_docking_score>
-6.86074797385495

> <r_i_glide_ligand_efficiency>
-0.285864498910623

> <r_i_glide_ligand_efficiency_sa>
-0.824575900566461

> <r_i_glide_ligand_efficiency_ln>
-1.64209180935412

> <r_i_glide_gscore>
-6.86074797385495

> <r_i_glide_lipo>
-2.66636876587396

> <r_i_glide_hbond>
0

> <r_i_glide_metal>
0

> <r_i_glide_rewards>
-2.73254019824844

> <r_i_glide_evdw>
-42.6393165588379

> <r_i_glide_ecoul>
-1.32640624046326

> <r_i_glide_erotb>
0.869087754278834

> <r_i_glide_esite>
0

> <r_i_glide_emodel>
-56.8899756441612

> <r_i_glide_energy>
-43.9657227993011

> <r_i_glide_einternal>
7.05139827728271

> <i_i_glide_confnum>
64

> <i_i_glide_posenum>
355

> <r_i_glide_eff_state_penalty>
0

> <s_user_duplicate_titles>
CHEMBL1966_lig126

> <i_f3d_flags>
0

> <s_m_subgroup_title>
dock_pv

> <s_m_subgroupid>
dock_pv

> <b_m_subgroup_collapsed>
1

$$$$
CHEMBL1966_lig242
                    3D
 Schrodinger Suite 2021-1.
 39 41  0  0  1  0            999 V2000
   53.5003   46.5555   -1.1114 C   0  0  0  0  0  0
   53.9900   46.8140    0.1621 C   0  0  0  0  0  0
   52.3149   45.8411   -1.2597 C   0  0  0  0  0  0
   50.5651   44.4099   -0.1174 N   0  0  0  0  0  0
   51.6230   45.3483   -0.1355 C   0  0  0  0  0  0
   49.3610   41.4890   -1.7477 C   0  0  0  0  0  0
   50.8769   43.3698   -2.5647 S   0  0  0  0  0  0
   51.0643   43.5307   -6.8990 C   0  0  0  0  0  0
   49.8772   41.9996   -2.9294 C   0  0  0  0  0  0
   50.0519   42.6371   -5.0549 O   0  0  0  0  0  0
   49.2230   40.5725   -4.7421 O   0  0  0  0  0  0
   53.2735   46.4099    1.2801 C   0  0  0  0  0  0
   49.6305   42.2545   -0.6798 N   0  0  0  0  0  0
   49.6599   41.6373   -4.3129 C   0  0  0  0  0  0
   52.1012   45.6842    1.1226 C   0  0  0  0  0  0
   49.9863   42.6031   -6.4171 C   0  0  0  0  0  0
   50.3108   43.3486   -0.9673 C   0  0  0  0  0  0
   48.4229   40.3148   -1.6506 C   0  0  0  0  0  0
   48.3909   39.5382   -0.4991 C   0  0  0  0  0  0
   47.6230   38.3694   -0.4990 C   0  0  0  0  0  0
   46.7242   38.0819   -1.5064 C   0  0  0  0  0  0
   46.6313   38.9228   -2.5943 C   0  0  0  0  0  0
   47.4868   40.0100   -2.6634 C   0  0  0  0  0  0
   54.0433   46.8945   -1.9817 H   0  0  0  0  0  0
   54.9162   47.3570    0.2845 H   0  0  0  0  0  0
   52.0228   45.6546   -2.2727 H   0  0  0  0  0  0
   50.1572   44.3528    0.8038 H   0  0  0  0  0  0
   51.1397   43.5194   -7.9815 H   0  0  0  0  0  0
   50.8618   44.5554   -6.5865 H   0  0  0  0  0  0
   52.0230   43.2100   -6.4989 H   0  0  0  0  0  0
   53.6446   46.6098    2.2719 H   0  0  0  0  0  0
   51.6231   45.2800    1.9983 H   0  0  0  0  0  0
   50.0529   41.6076   -6.8610 H   0  0  0  0  0  0
   48.9814   43.0126   -6.4990 H   0  0  0  0  0  0
   49.0520   39.7455    0.3290 H   0  0  0  0  0  0
   47.7031   37.6629    0.3025 H   0  0  0  0  0  0
   46.0927   37.2102   -1.4290 H   0  0  0  0  0  0
   45.9103   38.7379   -3.3764 H   0  0  0  0  0  0
   47.3212   40.6771   -3.4896 H   0  0  0  0  0  0
  1  2  2  0  0  0
  1  3  1  0  0  0
  1 24  1  0  0  0
  2 12  1  0  0  0
  2 25  1  0  0  0
  3  5  2  0  0  0
  3 26  1  0  0  0
  4 17  1  0  0  0
  4  5  1  0  0  0
  4 27  1  0  0  0
  5 15  1  0  0  0
  6  9  2  0  0  0
  6 13  1  0  0  0
  6 18  1  0  0  0
  7 17  1  0  0  0
  7  9  1  0  0  0
  8 16  1  0  0  0
  8 28  1  0  0  0
  8 29  1  0  0  0
  8 30  1  0  0  0
  9 14  1  0  0  0
 10 14  1  0  0  0
 10 16  1  0  0  0
 11 14  2  0  0  0
 12 15  2  0  0  0
 12 31  1  0  0  0
 13 17  2  0  0  0
 15 32  1  0  0  0
 16 33  1  0  0  0
 16 34  1  0  0  0
 18 19  1  0  0  0
 18 23  2  0  0  0
 19 20  2  0  0  0
 19 35  1  0  0  0
 20 21  1  0  0  0
 20 36  1  0  0  0
 21 22  2  0  0  0
 21 37  1  0  0  0
 22 23  1  0  0  0
 22 38  1  0  0  0
 23 39  1  0  0  0
M  END
> <s_m_entry_id>
25962

> <s_m_entry_name>
dock_pv.614

> <s_m_Source_Path>
/home/csk/Desktop/cluster/DUD-E-result/pyrd

> <s_m_Source_File>
dock_pv.maegz

> <i_m_Source_File_Index>
614

> <chembl_id>
CHEMBL3410597

> <chembl_pref_name>
None

> <i_lp_mmshare_version>
53161

> <r_lp_tautomer_probability>
1

> <s_lp_Force_Field>
OPLS_2005

> <r_lp_Energy>
16.320925

> <b_lp_Chiralities_Consistent>
1

> <s_lp_Variant>
CHEMBL1966_lig242-1

> <s_i_glide_gridfile>
glide-grid_1d3g

> <i_i_glide_lignum>
288

> <i_i_glide_rotatable_bonds>
6

> <r_i_docking_score>
-6.80891639061228

> <r_i_glide_ligand_efficiency>
-0.296039843070099

> <r_i_glide_ligand_efficiency_sa>
-0.841897933547572

> <r_i_glide_ligand_efficiency_ln>
-1.64645772309041

> <r_i_glide_gscore>
-6.80891639061228

> <r_i_glide_lipo>
-4.85279994984348

> <r_i_glide_hbond>
0

> <r_i_glide_metal>
0

> <r_i_glide_rewards>
-2.14538671683629

> <r_i_glide_evdw>
-11.2745800018311

> <r_i_glide_ecoul>
-0.911903321743011

> <r_i_glide_erotb>
0.889784774420498

> <r_i_glide_esite>
0

> <r_i_glide_emodel>
-24.8316169477973

> <r_i_glide_energy>
-12.1864833235741

> <r_i_glide_einternal>
7.6814227104187

> <i_i_glide_confnum>
72

> <i_i_glide_posenum>
6

> <r_i_glide_eff_state_penalty>
0

> <s_user_duplicate_titles>
CHEMBL1966_lig242

> <i_f3d_flags>
0

> <s_m_subgroup_title>
dock_pv

> <s_m_subgroupid>
dock_pv

> <b_m_subgroup_collapsed>
1

$$$$
234659
                    3D
 Schrodinger Suite 2021-1.
 45 47  0  0  1  0            999 V2000
   57.5539   46.6934   -4.6094 C   0  0  0  0  0  0
   57.2247   45.4589   -4.0548 C   0  0  0  0  0  0
   56.4466   45.4050   -2.9022 C   0  0  0  0  0  0
   55.9897   46.5880   -2.3094 C   0  0  0  0  0  0
   56.3262   47.8225   -2.8737 C   0  0  0  0  0  0
   57.1063   47.8767   -4.0247 C   0  0  0  0  0  0
   55.1424   46.5543   -1.0410 C   0  0  0  0  0  0
   53.6413   46.8775   -1.2435 C   0  0  0  0  0  0
   52.7658   45.7311   -1.7468 C   0  0  0  0  0  0
   51.6227   45.3589   -1.0299 C   0  0  0  0  0  0
   50.8236   44.3059   -1.4747 C   0  0  0  0  0  0
   51.1658   43.6101   -2.6446 C   0  0  0  0  0  0
   52.2833   44.0098   -3.3800 C   0  0  0  0  0  0
   53.0745   45.0682   -2.9359 C   0  0  0  0  0  0
   50.4213   42.5375   -3.1583 N   0  0  0  0  0  0
   49.7479   41.6001   -2.4587 C   0  0  0  0  0  0
   49.7177   41.5948   -1.2286 O   0  0  0  0  0  0
   49.0943   40.4518   -3.2696 C   0  0  1  0  0  0
   47.7763   39.8349   -2.7375 C   0  0  0  0  0  0
   47.6558   39.4413   -1.2495 C   0  0  0  0  0  0
   46.2531   39.2032   -0.7015 C   0  0  0  0  0  0
   47.1795   38.0445   -0.8987 C   0  0  0  0  0  0
   46.8386   39.6104   -3.5061 O   0  0  0  0  0  0
   48.9415   40.7429   -4.7099 C   0  0  0  0  0  0
   48.8219   40.9737   -5.8370 N   0  0  0  0  0  0
   58.1605   46.7328   -5.5030 H   0  0  0  0  0  0
   57.5780   44.5475   -4.5133 H   0  0  0  0  0  0
   56.1927   44.4369   -2.4984 H   0  0  0  0  0  0
   55.9850   48.7425   -2.4188 H   0  0  0  0  0  0
   57.3626   48.8336   -4.4586 H   0  0  0  0  0  0
   55.5691   47.2902   -0.3568 H   0  0  0  0  0  0
   55.2619   45.6108   -0.5116 H   0  0  0  0  0  0
   53.5320   47.7276   -1.9182 H   0  0  0  0  0  0
   53.2451   47.2123   -0.2824 H   0  0  0  0  0  0
   51.3477   45.8791   -0.1232 H   0  0  0  0  0  0
   49.9411   44.0483   -0.9081 H   0  0  0  0  0  0
   52.5479   43.4987   -4.2931 H   0  0  0  0  0  0
   53.9166   45.3716   -3.5361 H   0  0  0  0  0  0
   50.4984   42.4066   -4.1562 H   0  0  0  0  0  0
   48.4377   39.8294   -0.6046 H   0  0  0  0  0  0
   45.3826   39.2881   -1.3546 H   0  0  0  0  0  0
   46.0323   39.5594    0.3012 H   0  0  0  0  0  0
   47.6256   37.5631   -0.0285 H   0  0  0  0  0  0
   46.9943   37.3364   -1.6984 H   0  0  0  0  0  0
   49.8158   39.6349   -3.2502 H   0  0  0  0  0  0
  1  6  1  0  0  0
  1  2  2  0  0  0
  1 26  1  0  0  0
  2  3  1  0  0  0
  2 27  1  0  0  0
  3  4  2  0  0  0
  3 28  1  0  0  0
  4  5  1  0  0  0
  4  7  1  0  0  0
  5  6  2  0  0  0
  5 29  1  0  0  0
  6 30  1  0  0  0
  7  8  1  0  0  0
  7 31  1  0  0  0
  7 32  1  0  0  0
  8  9  1  0  0  0
  8 33  1  0  0  0
  8 34  1  0  0  0
  9 14  1  0  0  0
  9 10  2  0  0  0
 10 11  1  0  0  0
 10 35  1  0  0  0
 11 12  2  0  0  0
 11 36  1  0  0  0
 12 13  1  0  0  0
 12 15  1  0  0  0
 13 14  2  0  0  0
 13 37  1  0  0  0
 14 38  1  0  0  0
 15 16  1  0  0  0
 15 39  1  0  0  0
 16 17  2  0  0  0
 16 18  1  0  0  0
 18 24  1  0  0  0
 18 45  1  0  0  0
 18 19  1  0  0  0
 19 23  2  0  0  0
 19 20  1  0  0  0
 20 22  1  0  0  0
 20 21  1  0  0  0
 20 40  1  0  0  0
 21 22  1  0  0  0
 21 41  1  0  0  0
 21 42  1  0  0  0
 22 43  1  0  0  0
 22 44  1  0  0  0
 24 25  3  0  0  0
M  END
> <s_m_entry_id>
26056

> <s_m_entry_name>
ligand_docking-pose.61

> <s_m_Source_Path>
/home/csk/Desktop/cluster/DUD-E-result/pyrd

> <s_m_Source_File>
ligand_docking-pose.sdf

> <i_m_Source_File_Index>
61

> <i_lp_mmshare_version>
53161

> <i_f3d_flags>
0

> <r_lp_tautomer_probability>
0.995394627300976

> <s_lp_Force_Field>
OPLS_2005

> <r_lp_Energy>
26.912588

> <b_lp_Chiralities_Consistent>
1

> <s_lp_Variant>
234659-1

> <s_i_glide_gridfile>
glide-grid_1d3g

> <i_i_glide_lignum>
41

> <i_i_glide_rotatable_bonds>
8

> <r_i_docking_score>
-9.60281097278176

> <r_i_glide_ligand_efficiency>
-0.38411243891127

> <r_i_glide_ligand_efficiency_sa>
-1.12315158363966

> <r_i_glide_ligand_efficiency_ln>
-2.27615397357227

> <r_i_glide_gscore>
-9.60281097278176

> <r_i_glide_lipo>
-5.03073395717672

> <r_i_glide_hbond>
-0.108185673491074

> <r_i_glide_metal>
0

> <r_i_glide_rewards>
-3.02725024660582

> <r_i_glide_evdw>
-43.9210662841797

> <r_i_glide_ecoul>
-2.89217710494995

> <r_i_glide_erotb>
1.19323878444334

> <r_i_glide_esite>
0

> <r_i_glide_emodel>
-72.546573167893

> <r_i_glide_energy>
-46.8132433891296

> <r_i_glide_einternal>
4.9397611618042

> <i_i_glide_confnum>
99

> <i_i_glide_posenum>
178

> <r_i_glide_eff_state_penalty>
0

> <s_user_duplicate_titles>
234659

> <s_m_subgroup_title>
dock_pv

> <s_m_subgroupid>
dock_pv1

> <b_m_subgroup_collapsed>
0

$$$$
173853
                    3D
 Schrodinger Suite 2021-1.
 44 48  0  0  1  0            999 V2000
   47.7596   39.5050   -1.7369 C   0  0  0  0  0  0
   48.0332   40.0100   -3.0015 C   0  0  0  0  0  0
   48.9517   41.0466   -3.1444 C   0  0  0  0  0  0
   49.6152   41.5986   -2.0335 C   0  0  0  0  0  0
   49.3637   41.0356   -0.7706 C   0  0  0  0  0  0
   48.4230   40.0100   -0.6230 C   0  0  0  0  0  0
   50.5292   42.7701   -2.2155 C   0  0  0  0  0  0
   51.2938   42.8475   -3.3723 C   0  0  0  0  0  0
   52.2401   43.8436   -3.5568 C   0  0  0  0  0  0
   52.4798   44.8100   -2.5673 C   0  0  0  0  0  0
   51.6060   44.8477   -1.4622 C   0  0  0  0  0  0
   50.6615   43.8160   -1.2872 C   0  0  0  0  0  0
   51.7270   46.0101   -0.4926 C   0  0  0  0  0  0
   53.2028   46.3726   -0.2230 C   0  0  0  0  0  0
   54.0539   46.4773   -1.5031 C   0  0  0  0  0  0
   53.6982   45.7009   -2.6156 C   0  0  0  0  0  0
   54.5109   45.6023   -3.6990 N   0  0  0  0  0  0
   55.6662   46.3063   -3.7890 C   0  0  0  0  0  0
   56.5244   46.0965   -4.8990 C   0  0  0  0  0  0
   57.6507   46.8867   -5.0927 C   0  0  0  0  0  0
   57.9791   47.8677   -4.1723 C   0  0  0  0  0  0
   57.2230   48.0197   -3.0171 C   0  0  0  0  0  0
   56.0483   47.2271   -2.7850 C   0  0  0  0  0  0
   55.2421   47.2405   -1.6006 C   0  0  0  0  0  0
   55.7696   47.9867   -0.4284 C   0  0  0  0  0  0
   56.0673   49.1722   -0.4990 O   0  0  0  0  0  0
   55.9590   47.2100    0.6760 O   0  0  0  0  0  0
   59.0511   48.6632   -4.3881 F   0  0  0  0  0  0
   47.0435   38.7050   -1.6189 H   0  0  0  0  0  0
   47.5247   39.6100   -3.8660 H   0  0  0  0  0  0
   49.1073   41.4490   -4.1340 H   0  0  0  0  0  0
   49.8682   41.4158    0.1050 H   0  0  0  0  0  0
   48.2243   39.5920    0.3497 H   0  0  0  0  0  0
   51.2239   42.0604   -4.0990 H   0  0  0  0  0  0
   52.8415   43.7732   -4.4435 H   0  0  0  0  0  0
   50.0290   43.8271   -0.4115 H   0  0  0  0  0  0
   51.2050   46.8613   -0.9281 H   0  0  0  0  0  0
   51.2229   45.7875    0.4487 H   0  0  0  0  0  0
   53.2366   47.2906    0.3573 H   0  0  0  0  0  0
   53.6481   45.6100    0.4160 H   0  0  0  0  0  0
   56.3071   45.3256   -5.6209 H   0  0  0  0  0  0
   58.2716   46.7428   -5.9647 H   0  0  0  0  0  0
   57.5561   48.7566   -2.3043 H   0  0  0  0  0  0
   56.3473   47.7261    1.3851 H   0  0  0  0  0  0
  1  6  1  0  0  0
  1  2  2  0  0  0
  1 29  1  0  0  0
  2  3  1  0  0  0
  2 30  1  0  0  0
  3  4  2  0  0  0
  3 31  1  0  0  0
  4  5  1  0  0  0
  4  7  1  0  0  0
  5  6  2  0  0  0
  5 32  1  0  0  0
  6 33  1  0  0  0
  7 12  1  0  0  0
  7  8  2  0  0  0
  8  9  1  0  0  0
  8 34  1  0  0  0
  9 10  2  0  0  0
  9 35  1  0  0  0
 10 16  1  0  0  0
 10 11  1  0  0  0
 11 12  2  0  0  0
 11 13  1  0  0  0
 12 36  1  0  0  0
 13 14  1  0  0  0
 13 37  1  0  0  0
 13 38  1  0  0  0
 14 15  1  0  0  0
 14 39  1  0  0  0
 14 40  1  0  0  0
 15 24  2  0  0  0
 15 16  1  0  0  0
 16 17  2  0  0  0
 17 18  1  0  0  0
 18 23  2  0  0  0
 18 19  1  0  0  0
 19 20  2  0  0  0
 19 41  1  0  0  0
 20 21  1  0  0  0
 20 42  1  0  0  0
 21 22  2  0  0  0
 21 28  1  0  0  0
 22 23  1  0  0  0
 22 43  1  0  0  0
 23 24  1  0  0  0
 24 25  1  0  0  0
 25 26  2  0  0  0
 25 27  1  0  0  0
 27 44  1  0  0  0
M  END
> <s_m_entry_id>
26060

> <s_m_entry_name>
ligand_docking-pose.65

> <s_m_Source_Path>
/home/csk/Desktop/cluster/DUD-E-result/pyrd

> <s_m_Source_File>
ligand_docking-pose.sdf

> <i_m_Source_File_Index>
65

> <i_lp_mmshare_version>
53161

> <i_f3d_flags>
0

> <r_lp_tautomer_probability>
1

> <s_lp_Force_Field>
OPLS_2005

> <r_lp_Energy>
32.055348

> <b_lp_Chiralities_Consistent>
1

> <s_lp_Variant>
173853-1

> <s_i_glide_gridfile>
glide-grid_1d3g

> <i_i_glide_lignum>
6

> <i_i_glide_rotatable_bonds>
3

> <r_i_docking_score>
-9.39643356491952

> <r_i_glide_ligand_efficiency>
-0.33558691303284

> <r_i_glide_ligand_efficiency_sa>
-1.01903951808944

> <r_i_glide_ligand_efficiency_ln>
-2.16897275806112

> <r_i_glide_gscore>
-9.39643356491952

> <r_i_glide_lipo>
-5.92747611358851

> <r_i_glide_hbond>
0

> <r_i_glide_metal>
0

> <r_i_glide_rewards>
-2.2338719018116

> <r_i_glide_evdw>
-27.3736896514893

> <r_i_glide_ecoul>
-0.993382513523102

> <r_i_glide_erotb>
0.282606310083511

> <r_i_glide_esite>
0

> <r_i_glide_emodel>
-42.4408508017933

> <r_i_glide_energy>
-28.3670721650124

> <r_i_glide_einternal>
4.3934645652771

> <i_i_glide_confnum>
6

> <i_i_glide_posenum>
109

> <r_i_glide_eff_state_penalty>
0

> <s_user_duplicate_titles>
173853

> <s_m_subgroup_title>
dock_pv

> <s_m_subgroupid>
dock_pv1

> <b_m_subgroup_collapsed>
0

$$$$
235347
                    3D
 Schrodinger Suite 2021-1.
 36 38  0  0  1  0            999 V2000
   55.5400   47.4648   -0.1013 C   0  0  0  0  0  0
   54.4635   46.5810   -0.2113 C   0  0  0  0  0  0
   53.9321   46.5215   -1.4966 C   0  0  0  0  0  0
   54.7402   47.6467   -2.5583 S   0  0  0  0  0  0
   55.8111   48.1319   -1.2862 C   0  0  0  0  0  0
   52.8790   45.6074   -2.0160 C   0  0  0  0  0  0
   51.7091   45.3565   -1.2896 C   0  0  0  0  0  0
   50.8291   44.3540   -1.7007 C   0  0  0  0  0  0
   51.1139   43.6095   -2.8589 C   0  0  0  0  0  0
   52.2493   43.9002   -3.6146 C   0  0  0  0  0  0
   53.1378   44.8806   -3.1816 C   0  0  0  0  0  0
   50.3097   42.5612   -3.3255 N   0  0  0  0  0  0
   49.7217   41.6062   -2.5752 C   0  0  0  0  0  0
   49.7754   41.6105   -1.3460 O   0  0  0  0  0  0
   49.0754   40.4227   -3.3365 C   0  0  1  0  0  0
   47.7627   39.8305   -2.7747 C   0  0  0  0  0  0
   47.6808   39.4501   -1.2818 C   0  0  0  0  0  0
   46.2951   39.2099   -0.7011 C   0  0  0  0  0  0
   47.2229   38.0537   -0.9075 C   0  0  0  0  0  0
   46.8051   39.6099   -3.5205 O   0  0  0  0  0  0
   48.9307   40.6389   -4.7882 C   0  0  0  0  0  0
   48.8203   40.8118   -5.9265 N   0  0  0  0  0  0
   56.1006   47.6082    0.8090 H   0  0  0  0  0  0
   54.1136   45.9681    0.6071 H   0  0  0  0  0  0
   56.5824   48.8663   -1.4699 H   0  0  0  0  0  0
   51.5032   45.9049   -0.3816 H   0  0  0  0  0  0
   49.9424   44.1565   -1.1161 H   0  0  0  0  0  0
   52.4828   43.3275   -4.4998 H   0  0  0  0  0  0
   54.0579   45.0457   -3.7197 H   0  0  0  0  0  0
   50.3057   42.4353   -4.3271 H   0  0  0  0  0  0
   48.4720   39.8576   -0.6589 H   0  0  0  0  0  0
   45.4086   39.2783   -1.3339 H   0  0  0  0  0  0
   46.0970   39.5773    0.3014 H   0  0  0  0  0  0
   47.6833   37.5814   -0.0394 H   0  0  0  0  0  0
   47.0240   37.3376   -1.6988 H   0  0  0  0  0  0
   49.7998   39.6108   -3.2728 H   0  0  0  0  0  0
  1  5  2  0  0  0
  1  2  1  0  0  0
  1 23  1  0  0  0
  2  3  2  0  0  0
  2 24  1  0  0  0
  3  4  1  0  0  0
  3  6  1  0  0  0
  4  5  1  0  0  0
  5 25  1  0  0  0
  6 11  1  0  0  0
  6  7  2  0  0  0
  7  8  1  0  0  0
  7 26  1  0  0  0
  8  9  2  0  0  0
  8 27  1  0  0  0
  9 10  1  0  0  0
  9 12  1  0  0  0
 10 11  2  0  0  0
 10 28  1  0  0  0
 11 29  1  0  0  0
 12 13  1  0  0  0
 12 30  1  0  0  0
 13 14  2  0  0  0
 13 15  1  0  0  0
 15 21  1  0  0  0
 15 36  1  0  0  0
 15 16  1  0  0  0
 16 20  2  0  0  0
 16 17  1  0  0  0
 17 19  1  0  0  0
 17 18  1  0  0  0
 17 31  1  0  0  0
 18 19  1  0  0  0
 18 32  1  0  0  0
 18 33  1  0  0  0
 19 34  1  0  0  0
 19 35  1  0  0  0
 21 22  3  0  0  0
M  END
> <s_m_entry_id>
26085

> <s_m_entry_name>
ligand_docking-pose.90

> <s_m_Source_Path>
/home/csk/Desktop/cluster/DUD-E-result/pyrd

> <s_m_Source_File>
ligand_docking-pose.sdf

> <i_m_Source_File_Index>
90

> <i_lp_mmshare_version>
53161

> <i_f3d_flags>
0

> <r_lp_tautomer_probability>
0.995394627300976

> <s_lp_Force_Field>
OPLS_2005

> <r_lp_Energy>
25.913023

> <b_lp_Chiralities_Consistent>
1

> <s_lp_Variant>
235347-1

> <s_i_glide_gridfile>
glide-grid_1d3g

> <i_i_glide_lignum>
114

> <i_i_glide_rotatable_bonds>
6

> <r_i_docking_score>
-9.00644181598111

> <r_i_glide_ligand_efficiency>
-0.409383718908232

> <r_i_glide_ligand_efficiency_sa>
-1.14710928052892

> <r_i_glide_ligand_efficiency_ln>
-2.2015028977731

> <r_i_glide_gscore>
-9.00644181598111

> <r_i_glide_lipo>
-4.43495822178104

> <r_i_glide_hbond>
-0.16

> <r_i_glide_metal>
0

> <r_i_glide_rewards>
-2.69779852068362

> <r_i_glide_evdw>
-39.8221435546875

> <r_i_glide_ecoul>
-4.56241416931152

> <r_i_glide_erotb>
0.961784229614649

> <r_i_glide_esite>
0

> <r_i_glide_emodel>
-61.4955360203187

> <r_i_glide_energy>
-44.384557723999

> <r_i_glide_einternal>
7.6236138343811

> <i_i_glide_confnum>
10

> <i_i_glide_posenum>
70

> <r_i_glide_eff_state_penalty>
0

> <s_user_duplicate_titles>
235347

> <s_m_subgroup_title>
dock_pv

> <s_m_subgroupid>
dock_pv1

> <b_m_subgroup_collapsed>
0

$$$$
235584
                    3D
 Schrodinger Suite 2021-1.
 36 37  0  0  1  0            999 V2000
   51.5464   45.8105    0.1576 C   0  0  0  0  0  0
   51.7425   45.2403   -1.2395 C   0  0  0  0  0  0
   50.8348   44.2799   -1.6983 C   0  0  0  0  0  0
   51.0652   43.6096   -2.9112 C   0  0  0  0  0  0
   52.1688   43.9576   -3.6931 C   0  0  0  0  0  0
   53.0676   44.9280   -3.2431 C   0  0  0  0  0  0
   52.8653   45.5744   -2.0201 C   0  0  0  0  0  0
   54.1062   46.7015   -1.4236 S   0  0  0  0  0  0
   54.3573   47.9837   -2.6798 C   0  0  0  0  0  0
   55.2697   48.8580   -2.2635 F   0  0  0  0  0  0
   54.7756   47.4590   -3.8305 F   0  0  0  0  0  0
   53.2236   48.6425   -2.8992 F   0  0  0  0  0  0
   50.2450   42.5675   -3.3781 N   0  0  0  0  0  0
   49.6668   41.5972   -2.6316 C   0  0  0  0  0  0
   49.7422   41.5792   -1.4032 O   0  0  0  0  0  0
   48.9994   40.4232   -3.3854 C   0  0  1  0  0  0
   47.6932   39.8310   -2.8020 C   0  0  0  0  0  0
   47.6250   39.4594   -1.3027 C   0  0  0  0  0  0
   46.2468   39.2097   -0.7032 C   0  0  0  0  0  0
   47.1827   38.0616   -0.9154 C   0  0  0  0  0  0
   46.7259   39.6091   -3.5346 O   0  0  0  0  0  0
   48.8352   40.6514   -4.8328 C   0  0  0  0  0  0
   48.7115   40.8372   -5.9678 N   0  0  0  0  0  0
   51.2232   46.8508    0.1080 H   0  0  0  0  0  0
   50.8295   45.2181    0.7293 H   0  0  0  0  0  0
   52.4778   45.7776    0.7219 H   0  0  0  0  0  0
   49.9806   44.0261   -1.0876 H   0  0  0  0  0  0
   52.3665   43.4378   -4.6197 H   0  0  0  0  0  0
   53.9450   45.1540   -3.8281 H   0  0  0  0  0  0
   50.2304   42.4513   -4.3804 H   0  0  0  0  0  0
   48.4215   39.8722   -0.6912 H   0  0  0  0  0  0
   45.3516   39.2697   -1.3272 H   0  0  0  0  0  0
   46.0587   39.5825    0.3011 H   0  0  0  0  0  0
   47.6577   37.5989   -0.0499 H   0  0  0  0  0  0
   46.9798   37.3381   -1.6989 H   0  0  0  0  0  0
   49.7248   39.6115   -3.3303 H   0  0  0  0  0  0
  1  2  1  0  0  0
  1 24  1  0  0  0
  1 25  1  0  0  0
  1 26  1  0  0  0
  2  7  1  0  0  0
  2  3  2  0  0  0
  3  4  1  0  0  0
  3 27  1  0  0  0
  4  5  2  0  0  0
  4 13  1  0  0  0
  5  6  1  0  0  0
  5 28  1  0  0  0
  6  7  2  0  0  0
  6 29  1  0  0  0
  7  8  1  0  0  0
  8  9  1  0  0  0
  9 10  1  0  0  0
  9 11  1  0  0  0
  9 12  1  0  0  0
 13 14  1  0  0  0
 13 30  1  0  0  0
 14 15  2  0  0  0
 14 16  1  0  0  0
 16 22  1  0  0  0
 16 36  1  0  0  0
 16 17  1  0  0  0
 17 21  2  0  0  0
 17 18  1  0  0  0
 18 20  1  0  0  0
 18 19  1  0  0  0
 18 31  1  0  0  0
 19 20  1  0  0  0
 19 32  1  0  0  0
 19 33  1  0  0  0
 20 34  1  0  0  0
 20 35  1  0  0  0
 22 23  3  0  0  0
M  END
> <s_m_entry_id>
26089

> <s_m_entry_name>
ligand_docking-pose.94

> <s_m_Source_Path>
/home/csk/Desktop/cluster/DUD-E-result/pyrd

> <s_m_Source_File>
ligand_docking-pose.sdf

> <i_m_Source_File_Index>
94

> <i_lp_mmshare_version>
53161

> <i_f3d_flags>
0

> <r_lp_tautomer_probability>
0.995394627300976

> <s_lp_Force_Field>
OPLS_2005

> <r_lp_Energy>
25.558196

> <b_lp_Chiralities_Consistent>
1

> <s_lp_Variant>
235584-1

> <s_i_glide_gridfile>
glide-grid_1d3g

> <i_i_glide_lignum>
194

> <i_i_glide_rotatable_bonds>
7

> <r_i_docking_score>
-8.90107046506312

> <r_i_glide_ligand_efficiency>
-0.387003063698397

> <r_i_glide_ligand_efficiency_sa>
-1.10058523280297

> <r_i_glide_ligand_efficiency_ln>
-2.15235954889693

> <r_i_glide_gscore>
-8.90107046506312

> <r_i_glide_lipo>
-3.76948189381539

> <r_i_glide_hbond>
-0.16

> <r_i_glide_metal>
0

> <r_i_glide_rewards>
-3.27506413974617

> <r_i_glide_evdw>
-37.2245979309082

> <r_i_glide_ecoul>
-4.29505062103271

> <r_i_glide_erotb>
0.808963058198753

> <r_i_glide_esite>
0

> <r_i_glide_emodel>
-57.2389938550485

> <r_i_glide_energy>
-41.5196485519409

> <r_i_glide_einternal>
9.59852886199951

> <i_i_glide_confnum>
45

> <i_i_glide_posenum>
83

> <r_i_glide_eff_state_penalty>
0

> <s_user_duplicate_titles>
235584

> <s_m_subgroup_title>
dock_pv

> <s_m_subgroupid>
dock_pv1

> <b_m_subgroup_collapsed>
0

$$$$
236055
                    3D
 Schrodinger Suite 2021-1.
 35 36  0  0  1  0            999 V2000
   51.5660   45.7989    0.1131 C   0  0  0  0  0  0
   51.8098   45.2215   -1.2733 C   0  0  0  0  0  0
   50.9381   44.2110   -1.6988 C   0  0  0  0  0  0
   51.1614   43.5222   -2.8983 C   0  0  0  0  0  0
   52.2391   43.8911   -3.6989 C   0  0  0  0  0  0
   53.0938   44.9189   -3.2988 C   0  0  0  0  0  0
   52.8970   45.6075   -2.0937 C   0  0  0  0  0  0
   53.9111   46.7124   -1.7517 C   0  0  0  0  0  0
   55.1468   46.3066   -2.0526 F   0  0  0  0  0  0
   53.6343   47.7804   -2.4988 F   0  0  0  0  0  0
   53.9320   47.0934   -0.4774 F   0  0  0  0  0  0
   50.3664   42.4576   -3.3551 N   0  0  0  0  0  0
   49.6593   41.5736   -2.6159 C   0  0  0  0  0  0
   49.6237   41.6112   -1.3876 O   0  0  0  0  0  0
   48.9878   40.4113   -3.3827 C   0  0  1  0  0  0
   47.6829   39.8103   -2.8053 C   0  0  0  0  0  0
   47.6232   39.4197   -1.3114 C   0  0  0  0  0  0
   46.2419   39.2083   -0.7022 C   0  0  0  0  0  0
   47.1440   38.0347   -0.9208 C   0  0  0  0  0  0
   46.7103   39.6096   -3.5367 O   0  0  0  0  0  0
   48.8230   40.6571   -4.8270 C   0  0  0  0  0  0
   48.6989   40.8551   -5.9594 N   0  0  0  0  0  0
   52.4663   45.7542    0.7239 H   0  0  0  0  0  0
   51.2366   46.8363    0.0505 H   0  0  0  0  0  0
   50.8262   45.2107    0.6615 H   0  0  0  0  0  0
   50.0995   43.9506   -1.0712 H   0  0  0  0  0  0
   52.4294   43.3683   -4.6240 H   0  0  0  0  0  0
   53.9185   45.1975   -3.9375 H   0  0  0  0  0  0
   50.4390   42.2722   -4.3440 H   0  0  0  0  0  0
   48.4376   39.8019   -0.7032 H   0  0  0  0  0  0
   45.3460   39.2936   -1.3197 H   0  0  0  0  0  0
   46.0700   39.5870    0.3009 H   0  0  0  0  0  0
   47.6210   37.5593   -0.0634 H   0  0  0  0  0  0
   46.9083   37.3178   -1.6989 H   0  0  0  0  0  0
   49.7202   39.6101   -3.3364 H   0  0  0  0  0  0
  1  2  1  0  0  0
  1 23  1  0  0  0
  1 24  1  0  0  0
  1 25  1  0  0  0
  2  7  1  0  0  0
  2  3  2  0  0  0
  3  4  1  0  0  0
  3 26  1  0  0  0
  4  5  2  0  0  0
  4 12  1  0  0  0
  5  6  1  0  0  0
  5 27  1  0  0  0
  6  7  2  0  0  0
  6 28  1  0  0  0
  7  8  1  0  0  0
  8  9  1  0  0  0
  8 10  1  0  0  0
  8 11  1  0  0  0
 12 13  1  0  0  0
 12 29  1  0  0  0
 13 14  2  0  0  0
 13 15  1  0  0  0
 15 21  1  0  0  0
 15 35  1  0  0  0
 15 16  1  0  0  0
 16 20  2  0  0  0
 16 17  1  0  0  0
 17 19  1  0  0  0
 17 18  1  0  0  0
 17 30  1  0  0  0
 18 19  1  0  0  0
 18 31  1  0  0  0
 18 32  1  0  0  0
 19 33  1  0  0  0
 19 34  1  0  0  0
 21 22  3  0  0  0
M  END
> <s_m_entry_id>
26094

> <s_m_entry_name>
ligand_docking-pose.99

> <s_m_Source_Path>
/home/csk/Desktop/cluster/DUD-E-result/pyrd

> <s_m_Source_File>
ligand_docking-pose.sdf

> <i_m_Source_File_Index>
99

> <i_lp_mmshare_version>
53161

> <i_f3d_flags>
0

> <r_lp_tautomer_probability>
0.995394627300976

> <s_lp_Force_Field>
OPLS_2005

> <r_lp_Energy>
27.268682

> <b_lp_Chiralities_Consistent>
1

> <s_lp_Variant>
236055-1

> <s_i_glide_gridfile>
glide-grid_1d3g

> <i_i_glide_lignum>
180

> <i_i_glide_rotatable_bonds>
6

> <r_i_docking_score>
-8.83823540107182

> <r_i_glide_ligand_efficiency>
-0.401737972775992

> <r_i_glide_ligand_efficiency_sa>
-1.12568559917624

> <r_i_glide_ligand_efficiency_ln>
-2.16038711449121

> <r_i_glide_gscore>
-8.83823540107182

> <r_i_glide_lipo>
-3.50750441714541

> <r_i_glide_hbond>
-0.16

> <r_i_glide_metal>
0

> <r_i_glide_rewards>
-3.6340981436889

> <r_i_glide_evdw>
-33.9929733276367

> <r_i_glide_ecoul>
-4.04565143585205

> <r_i_glide_erotb>
0.769863541522139

> <r_i_glide_esite>
0

> <r_i_glide_emodel>
-53.9081648982376

> <r_i_glide_energy>
-38.0386247634888

> <r_i_glide_einternal>
7.29466533660889

> <i_i_glide_confnum>
2

> <i_i_glide_posenum>
112

> <r_i_glide_eff_state_penalty>
0

> <s_user_duplicate_titles>
236055

> <s_m_subgroup_title>
dock_pv

> <s_m_subgroupid>
dock_pv1

> <b_m_subgroup_collapsed>
0

$$$$
234669
                    3D
 Schrodinger Suite 2021-1.
 38 39  0  0  1  0            999 V2000
   51.6479   45.9785    0.1487 C   0  0  0  0  0  0
   51.9529   45.3718   -1.2153 C   0  0  0  0  0  0
   51.0436   44.4100   -1.6868 C   0  0  0  0  0  0
   51.2884   43.6975   -2.8658 C   0  0  0  0  0  0
   52.4228   44.0055   -3.6080 C   0  0  0  0  0  0
   53.3353   44.9519   -3.1476 C   0  0  0  0  0  0
   53.1351   45.6527   -1.9506 C   0  0  0  0  0  0
   54.2622   46.6257   -1.4983 C   0  0  0  0  0  0
   54.6281   47.7244   -2.5317 C   0  0  0  0  0  0
   53.5580   48.4100   -2.8991 F   0  0  0  0  0  0
   55.5050   48.5947   -2.0267 F   0  0  0  0  0  0
   55.1753   47.2410   -3.6474 F   0  0  0  0  0  0
   53.9854   47.2098   -0.3368 F   0  0  0  0  0  0
   55.3568   45.9050   -1.2737 F   0  0  0  0  0  0
   50.4540   42.6774   -3.3438 N   0  0  0  0  0  0
   49.8982   41.6915   -2.6048 C   0  0  0  0  0  0
   50.0227   41.6299   -1.3827 O   0  0  0  0  0  0
   49.1923   40.5537   -3.3788 C   0  0  1  0  0  0
   47.9005   39.9407   -2.7871 C   0  0  0  0  0  0
   47.8148   39.5987   -1.2811 C   0  0  0  0  0  0
   46.4586   39.2050   -0.7077 C   0  0  0  0  0  0
   47.5082   38.1562   -0.9094 C   0  0  0  0  0  0
   46.9707   39.6210   -3.5322 O   0  0  0  0  0  0
   48.9850   40.8302   -4.8141 C   0  0  0  0  0  0
   48.8226   41.0514   -5.9376 N   0  0  0  0  0  0
   51.4121   47.0393    0.0668 H   0  0  0  0  0  0
   50.8232   45.4639    0.6392 H   0  0  0  0  0  0
   52.4923   45.8625    0.8269 H   0  0  0  0  0  0
   50.1557   44.1909   -1.1104 H   0  0  0  0  0  0
   52.6423   43.4470   -4.5042 H   0  0  0  0  0  0
   54.2451   45.0941   -3.7055 H   0  0  0  0  0  0
   50.4066   42.5968   -4.3476 H   0  0  0  0  0  0
   48.5368   40.1002   -0.6451 H   0  0  0  0  0  0
   45.5752   39.1965   -1.3476 H   0  0  0  0  0  0
   46.2183   39.5357    0.3008 H   0  0  0  0  0  0
   48.0188   37.7358   -0.0420 H   0  0  0  0  0  0
   47.3841   37.4181   -1.6986 H   0  0  0  0  0  0
   49.9069   39.7315   -3.3723 H   0  0  0  0  0  0
  1  2  1  0  0  0
  1 26  1  0  0  0
  1 27  1  0  0  0
  1 28  1  0  0  0
  2  7  1  0  0  0
  2  3  2  0  0  0
  3  4  1  0  0  0
  3 29  1  0  0  0
  4  5  2  0  0  0
  4 15  1  0  0  0
  5  6  1  0  0  0
  5 30  1  0  0  0
  6  7  2  0  0  0
  6 31  1  0  0  0
  7  8  1  0  0  0
  8  9  1  0  0  0
  8 13  1  0  0  0
  8 14  1  0  0  0
  9 10  1  0  0  0
  9 11  1  0  0  0
  9 12  1  0  0  0
 15 16  1  0  0  0
 15 32  1  0  0  0
 16 17  2  0  0  0
 16 18  1  0  0  0
 18 24  1  0  0  0
 18 38  1  0  0  0
 18 19  1  0  0  0
 19 23  2  0  0  0
 19 20  1  0  0  0
 20 22  1  0  0  0
 20 21  1  0  0  0
 20 33  1  0  0  0
 21 22  1  0  0  0
 21 34  1  0  0  0
 21 35  1  0  0  0
 22 36  1  0  0  0
 22 37  1  0  0  0
 24 25  3  0  0  0
M  END
> <s_m_entry_id>
26099

> <s_m_entry_name>
ligand_docking-pose.104

> <s_m_Source_Path>
/home/csk/Desktop/cluster/DUD-E-result/pyrd

> <s_m_Source_File>
ligand_docking-pose.sdf

> <i_m_Source_File_Index>
104

> <i_lp_mmshare_version>
53161

> <i_f3d_flags>
0

> <r_lp_tautomer_probability>
0.995394627300976

> <s_lp_Force_Field>
OPLS_2005

> <r_lp_Energy>
23.632632

> <b_lp_Chiralities_Consistent>
1

> <s_lp_Variant>
234669-1

> <s_i_glide_gridfile>
glide-grid_1d3g

> <i_i_glide_lignum>
178

> <i_i_glide_rotatable_bonds>
7

> <r_i_docking_score>
-8.76348066949062

> <r_i_glide_ligand_efficiency>
-0.350539226779625

> <r_i_glide_ligand_efficiency_sa>
-1.02498291594328

> <r_i_glide_ligand_efficiency_ln>
-2.07720753899278

> <r_i_glide_gscore>
-8.76348066949062

> <r_i_glide_lipo>
-3.69285620625251

> <r_i_glide_hbond>
-0.129279799971662

> <r_i_glide_metal>
0

> <r_i_glide_rewards>
-3.32656102569883

> <r_i_glide_evdw>
-35.666374206543

> <r_i_glide_ecoul>
-3.80119776725769

> <r_i_glide_erotb>
0.738714737848175

> <r_i_glide_esite>
0

> <r_i_glide_emodel>
-52.3768350595312

> <r_i_glide_energy>
-39.4675719738007

> <r_i_glide_einternal>
13.0742502212524

> <i_i_glide_confnum>
25

> <i_i_glide_posenum>
391

> <r_i_glide_eff_state_penalty>
0

> <s_user_duplicate_titles>
234669

> <s_m_subgroup_title>
dock_pv

> <s_m_subgroupid>
dock_pv1

> <b_m_subgroup_collapsed>
0

$$$$
234705
                    3D
 Schrodinger Suite 2021-1.
 38 39  0  0  1  0            999 V2000
   54.9354   45.2105   -2.7303 C   0  0  0  0  0  0
   53.5292   45.7440   -3.0365 C   0  0  0  0  0  0
   52.4230   45.0668   -2.2286 C   0  0  0  0  0  0
   51.7233   44.0101   -2.8646 C   0  0  0  0  0  0
   50.6677   43.3620   -2.2247 C   0  0  0  0  0  0
   50.2739   43.7878   -0.9515 C   0  0  0  0  0  0
   50.9594   44.8100   -0.3109 C   0  0  0  0  0  0
   52.0512   45.4511   -0.9084 C   0  0  0  0  0  0
   52.8354   46.4325   -0.0093 C   0  0  0  0  0  0
   53.6812   47.2104   -0.6697 F   0  0  0  0  0  0
   52.0099   47.2095    0.6975 F   0  0  0  0  0  0
   53.5580   45.7579    0.8838 F   0  0  0  0  0  0
   50.0254   42.3200   -2.9139 N   0  0  0  0  0  0
   49.4794   41.2105   -2.3673 C   0  0  0  0  0  0
   49.5460   40.9608   -1.1624 O   0  0  0  0  0  0
   48.8293   40.1877   -3.3217 C   0  0  1  0  0  0
   47.4568   39.6100   -2.8965 C   0  0  0  0  0  0
   47.3439   38.9450   -1.5137 C   0  0  0  0  0  0
   46.0494   39.1148   -0.7277 C   0  0  0  0  0  0
   46.3608   37.7975   -1.3329 C   0  0  0  0  0  0
   46.4804   39.6655   -3.6470 O   0  0  0  0  0  0
   48.7936   40.5884   -4.7386 C   0  0  0  0  0  0
   48.7686   40.9070   -5.8499 N   0  0  0  0  0  0
   55.6778   45.6864   -3.3718 H   0  0  0  0  0  0
   55.2210   45.4118   -1.6990 H   0  0  0  0  0  0
   54.9964   44.1341   -2.8988 H   0  0  0  0  0  0
   53.3235   45.6081   -4.0987 H   0  0  0  0  0  0
   53.4774   46.8258   -2.9239 H   0  0  0  0  0  0
   52.0165   43.6992   -3.8575 H   0  0  0  0  0  0
   49.4439   43.3260   -0.4384 H   0  0  0  0  0  0
   50.6716   45.0661    0.6977 H   0  0  0  0  0  0
   50.0871   42.3640   -3.9202 H   0  0  0  0  0  0
   48.2806   38.9154   -0.9601 H   0  0  0  0  0  0
   45.1776   39.6104   -1.1492 H   0  0  0  0  0  0
   46.1071   39.2355    0.3481 H   0  0  0  0  0  0
   46.7224   36.9547   -0.7432 H   0  0  0  0  0  0
   45.6419   37.5091   -2.0991 H   0  0  0  0  0  0
   49.5249   39.3583   -3.3003 H   0  0  0  0  0  0
  1  2  1  0  0  0
  1 24  1  0  0  0
  1 25  1  0  0  0
  1 26  1  0  0  0
  2  3  1  0  0  0
  2 27  1  0  0  0
  2 28  1  0  0  0
  3  8  1  0  0  0
  3  4  2  0  0  0
  4  5  1  0  0  0
  4 29  1  0  0  0
  5  6  2  0  0  0
  5 13  1  0  0  0
  6  7  1  0  0  0
  6 30  1  0  0  0
  7  8  2  0  0  0
  7 31  1  0  0  0
  8  9  1  0  0  0
  9 10  1  0  0  0
  9 11  1  0  0  0
  9 12  1  0  0  0
 13 14  1  0  0  0
 13 32  1  0  0  0
 14 15  2  0  0  0
 14 16  1  0  0  0
 16 22  1  0  0  0
 16 38  1  0  0  0
 16 17  1  0  0  0
 17 21  2  0  0  0
 17 18  1  0  0  0
 18 20  1  0  0  0
 18 19  1  0  0  0
 18 33  1  0  0  0
 19 20  1  0  0  0
 19 34  1  0  0  0
 19 35  1  0  0  0
 20 36  1  0  0  0
 20 37  1  0  0  0
 22 23  3  0  0  0
M  END
> <s_m_entry_id>
26107

> <s_m_entry_name>
ligand_docking-pose.112

> <s_m_Source_Path>
/home/csk/Desktop/cluster/DUD-E-result/pyrd

> <s_m_Source_File>
ligand_docking-pose.sdf

> <i_m_Source_File_Index>
112

> <i_lp_mmshare_version>
53161

> <i_f3d_flags>
0

> <r_lp_tautomer_probability>
0.995394627300976

> <s_lp_Force_Field>
OPLS_2005

> <r_lp_Energy>
25.734373

> <b_lp_Chiralities_Consistent>
1

> <s_lp_Variant>
234705-1

> <s_i_glide_gridfile>
glide-grid_1d3g

> <i_i_glide_lignum>
199

> <i_i_glide_rotatable_bonds>
7

> <r_i_docking_score>
-8.5868728260795

> <r_i_glide_ligand_efficiency>
-0.373342296786065

> <r_i_glide_ligand_efficiency_sa>
-1.06173582890214

> <r_i_glide_ligand_efficiency_ln>
-2.07638371080401

> <r_i_glide_gscore>
-8.5868728260795

> <r_i_glide_lipo>
-3.68651839554067

> <r_i_glide_hbond>
-0.125876878384896

> <r_i_glide_metal>
0

> <r_i_glide_rewards>
-3.52616552487197

> <r_i_glide_evdw>
-27.5028076171875

> <r_i_glide_ecoul>
-3.90258193016052

> <r_i_glide_erotb>
0.712215643101489

> <r_i_glide_esite>
0

> <r_i_glide_emodel>
-46.4179452354649

> <r_i_glide_energy>
-31.405389547348

> <r_i_glide_einternal>
3.73057079315186

> <i_i_glide_confnum>
2

> <i_i_glide_posenum>
379

> <r_i_glide_eff_state_penalty>
0

> <s_user_duplicate_titles>
234705

> <s_m_subgroup_title>
dock_pv

> <s_m_subgroupid>
dock_pv1

> <b_m_subgroup_collapsed>
0

$$$$
235492
                    3D
 Schrodinger Suite 2021-1.
 33 34  0  0  1  0            999 V2000
   52.3558   43.9088   -3.5843 C   0  0  0  0  0  0
   53.2103   44.9282   -3.1643 C   0  0  0  0  0  0
   52.9070   45.6671   -2.0234 C   0  0  0  0  0  0
   51.7401   45.4006   -1.2989 C   0  0  0  0  0  0
   50.8982   44.3610   -1.6988 C   0  0  0  0  0  0
   51.2145   43.6010   -2.8379 C   0  0  0  0  0  0
   50.4201   42.5377   -3.3018 N   0  0  0  0  0  0
   49.7774   41.6074   -2.5591 C   0  0  0  0  0  0
   49.8007   41.6129   -1.3293 O   0  0  0  0  0  0
   49.0979   40.4446   -3.3286 C   0  0  1  0  0  0
   47.7806   39.8474   -2.7689 C   0  0  0  0  0  0
   47.6748   39.4686   -1.2752 C   0  0  0  0  0  0
   46.2846   39.2098   -0.7066 C   0  0  0  0  0  0
   47.2232   38.0657   -0.9095 C   0  0  0  0  0  0
   46.8344   39.6099   -3.5241 O   0  0  0  0  0  0
   48.9410   40.6909   -4.7746 C   0  0  0  0  0  0
   48.8203   40.8876   -5.9080 N   0  0  0  0  0  0
   54.0209   46.9580   -1.5424 S   0  0  0  0  0  0
   54.3947   46.7732    0.2241 C   0  0  0  0  0  0
   55.2163   47.7420    0.6209 F   0  0  0  0  0  0
   53.2895   46.8332    0.9657 F   0  0  0  0  0  0
   54.9938   45.6105    0.4508 F   0  0  0  0  0  0
   52.6082   43.3326   -4.4631 H   0  0  0  0  0  0
   54.1159   45.1416   -3.7096 H   0  0  0  0  0  0
   51.4792   45.9864   -0.4306 H   0  0  0  0  0  0
   50.0035   44.1608   -1.1277 H   0  0  0  0  0  0
   50.4586   42.3831   -4.2982 H   0  0  0  0  0  0
   48.4544   39.8830   -0.6419 H   0  0  0  0  0  0
   45.4037   39.2756   -1.3480 H   0  0  0  0  0  0
   46.0732   39.5618    0.3007 H   0  0  0  0  0  0
   47.6812   37.5958   -0.0390 H   0  0  0  0  0  0
   47.0323   37.3467   -1.6988 H   0  0  0  0  0  0
   49.8135   39.6243   -3.2874 H   0  0  0  0  0  0
  1  6  1  0  0  0
  1  2  2  0  0  0
  1 23  1  0  0  0
  2  3  1  0  0  0
  2 24  1  0  0  0
  3  4  2  0  0  0
  3 18  1  0  0  0
  4  5  1  0  0  0
  4 25  1  0  0  0
  5  6  2  0  0  0
  5 26  1  0  0  0
  6  7  1  0  0  0
  7  8  1  0  0  0
  7 27  1  0  0  0
  8  9  2  0  0  0
  8 10  1  0  0  0
 10 16  1  0  0  0
 10 33  1  0  0  0
 10 11  1  0  0  0
 11 15  2  0  0  0
 11 12  1  0  0  0
 12 14  1  0  0  0
 12 13  1  0  0  0
 12 28  1  0  0  0
 13 14  1  0  0  0
 13 29  1  0  0  0
 13 30  1  0  0  0
 14 31  1  0  0  0
 14 32  1  0  0  0
 16 17  3  0  0  0
 18 19  1  0  0  0
 19 20  1  0  0  0
 19 21  1  0  0  0
 19 22  1  0  0  0
M  END
> <s_m_entry_id>
26108

> <s_m_entry_name>
ligand_docking-pose.113

> <s_m_Source_Path>
/home/csk/Desktop/cluster/DUD-E-result/pyrd

> <s_m_Source_File>
ligand_docking-pose.sdf

> <i_m_Source_File_Index>
113

> <i_lp_mmshare_version>
53161

> <i_f3d_flags>
0

> <r_lp_tautomer_probability>
0.995394627300976

> <s_lp_Force_Field>
OPLS_2005

> <r_lp_Energy>
22.223808

> <b_lp_Chiralities_Consistent>
1

> <s_lp_Variant>
235492-1

> <s_i_glide_gridfile>
glide-grid_1d3g

> <i_i_glide_lignum>
76

> <i_i_glide_rotatable_bonds>
7

> <r_i_docking_score>
-8.57188180287809

> <r_i_glide_ligand_efficiency>
-0.389630991039913

> <r_i_glide_ligand_efficiency_sa>
-1.09176136021118

> <r_i_glide_ligand_efficiency_ln>
-2.09528057960911

> <r_i_glide_gscore>
-8.57188180287809

> <r_i_glide_lipo>
-3.49022321256535

> <r_i_glide_hbond>
-0.148562216307279

> <r_i_glide_metal>
0

> <r_i_glide_rewards>
-3.37625549055859

> <r_i_glide_evdw>
-36.3961944580078

> <r_i_glide_ecoul>
-4.05453491210938

> <r_i_glide_erotb>
0.871149076269928

> <r_i_glide_esite>
0

> <r_i_glide_emodel>
-57.7394752973333

> <r_i_glide_energy>
-40.4507293701172

> <r_i_glide_einternal>
6.99806547164917

> <i_i_glide_confnum>
36

> <i_i_glide_posenum>
155

> <r_i_glide_eff_state_penalty>
0

> <s_user_duplicate_titles>
235492

> <s_m_subgroup_title>
dock_pv

> <s_m_subgroupid>
dock_pv1

> <b_m_subgroup_collapsed>
0

$$$$
236060
                    3D
 Schrodinger Suite 2021-1.
 32 32  0  0  1  0            999 V2000
   47.5289   39.0129   -0.8277 C   0  0  0  0  0  0
   47.7041   39.6100   -2.2289 C   0  0  0  0  0  0
   46.7911   39.2101   -3.1395 C   0  0  0  0  0  0
   48.8016   40.5912   -2.4567 C   0  0  0  0  0  0
   49.0529   41.2827   -3.6233 C   0  0  0  0  0  0
   48.4086   41.0117   -4.8677 C   0  0  0  0  0  0
   47.9409   40.8100   -5.9068 N   0  0  0  0  0  0
   50.0062   42.3923   -3.7614 C   0  0  0  0  0  0
   50.4211   42.7653   -4.8601 O   0  0  0  0  0  0
   50.3595   43.0231   -2.6235 N   0  0  0  0  0  0
   51.3280   44.0100   -2.4392 C   0  0  0  0  0  0
   51.1874   44.8100   -1.2990 C   0  0  0  0  0  0
   52.1341   45.7896   -1.0077 C   0  0  0  0  0  0
   53.2443   45.9665   -1.8420 C   0  0  0  0  0  0
   53.3693   45.1893   -2.9964 C   0  0  0  0  0  0
   52.4230   44.2117   -3.2990 C   0  0  0  0  0  0
   54.3580   46.9449   -1.4711 C   0  0  0  0  0  0
   55.5537   46.4411   -1.7826 F   0  0  0  0  0  0
   54.1900   48.0808   -2.1453 F   0  0  0  0  0  0
   54.3615   47.2103   -0.1637 F   0  0  0  0  0  0
   49.5817   40.8100   -1.3582 O   0  0  0  0  0  0
   48.4230   38.4866   -0.4994 H   0  0  0  0  0  0
   47.3947   39.8167   -0.1030 H   0  0  0  0  0  0
   46.6793   38.3348   -0.7329 H   0  0  0  0  0  0
   46.7320   39.5399   -4.1559 H   0  0  0  0  0  0
   46.0263   38.4975   -2.8651 H   0  0  0  0  0  0
   49.7512   42.8801   -1.8312 H   0  0  0  0  0  0
   50.3489   44.6797   -0.6296 H   0  0  0  0  0  0
   52.0158   46.3861   -0.1141 H   0  0  0  0  0  0
   54.2216   45.3156   -3.6493 H   0  0  0  0  0  0
   52.5780   43.5979   -4.1727 H   0  0  0  0  0  0
   50.3948   41.2436   -1.6302 H   0  0  0  0  0  0
  1  2  1  0  0  0
  1 22  1  0  0  0
  1 23  1  0  0  0
  1 24  1  0  0  0
  2  3  2  0  0  0
  2  4  1  0  0  0
  3 25  1  0  0  0
  3 26  1  0  0  0
  4  5  2  0  0  0
  4 21  1  0  0  0
  5  6  1  0  0  0
  5  8  1  0  0  0
  6  7  3  0  0  0
  8  9  2  0  0  0
  8 10  1  0  0  0
 10 11  1  0  0  0
 10 27  1  0  0  0
 11 16  1  0  0  0
 11 12  2  0  0  0
 12 13  1  0  0  0
 12 28  1  0  0  0
 13 14  2  0  0  0
 13 29  1  0  0  0
 14 15  1  0  0  0
 14 17  1  0  0  0
 15 16  2  0  0  0
 15 30  1  0  0  0
 16 31  1  0  0  0
 17 18  1  0  0  0
 17 19  1  0  0  0
 17 20  1  0  0  0
 21 32  1  0  0  0
M  END
> <s_m_entry_id>
26115

> <s_m_entry_name>
ligand_docking-pose.120

> <s_m_Source_Path>
/home/csk/Desktop/cluster/DUD-E-result/pyrd

> <s_m_Source_File>
ligand_docking-pose.sdf

> <i_m_Source_File_Index>
120

> <i_lp_mmshare_version>
53161

> <i_f3d_flags>
0

> <r_lp_tautomer_probability>
1

> <s_lp_Force_Field>
OPLS_2005

> <r_lp_Energy>
25.945888

> <b_lp_Chiralities_Consistent>
1

> <s_lp_Variant>
236060-1

> <s_i_glide_gridfile>
glide-grid_1d3g

> <i_i_glide_lignum>
205

> <i_i_glide_rotatable_bonds>
6

> <r_i_docking_score>
-8.37524626976077

> <r_i_glide_ligand_efficiency>
-0.398821250940989

> <r_i_glide_ligand_efficiency_sa>
-1.10031759015901

> <r_i_glide_ligand_efficiency_ln>
-2.07076271641975

> <r_i_glide_gscore>
-8.37524626976077

> <r_i_glide_lipo>
-3.65587745185574

> <r_i_glide_hbond>
-0.159134777986942

> <r_i_glide_metal>
0

> <r_i_glide_rewards>
-3.73552881656811

> <r_i_glide_evdw>
-32.1176109313965

> <r_i_glide_ecoul>
-1.74931120872498

> <r_i_glide_erotb>
1.04357200452859

> <r_i_glide_esite>
0

> <r_i_glide_emodel>
-49.5977418683864

> <r_i_glide_energy>
-33.8669221401215

> <r_i_glide_einternal>
4.57318019866943

> <i_i_glide_confnum>
10

> <i_i_glide_posenum>
298

> <r_i_glide_eff_state_penalty>
0

> <s_user_duplicate_titles>
236060

> <s_m_subgroup_title>
dock_pv

> <s_m_subgroupid>
dock_pv1

> <b_m_subgroup_collapsed>
0

$$$$
235451
                    3D
 Schrodinger Suite 2021-1.
 34 35  0  0  1  0            999 V2000
   52.3076   43.9041   -3.6867 C   0  0  0  0  0  0
   53.1571   44.9407   -3.2990 C   0  0  0  0  0  0
   52.9257   45.6100   -2.0957 C   0  0  0  0  0  0
   51.8234   45.2766   -1.2999 C   0  0  0  0  0  0
   50.9638   44.2571   -1.6987 C   0  0  0  0  0  0
   51.2202   43.5513   -2.8845 C   0  0  0  0  0  0
   50.4203   42.4912   -3.3407 N   0  0  0  0  0  0
   49.7496   41.5867   -2.5931 C   0  0  0  0  0  0
   49.7559   41.6102   -1.3633 O   0  0  0  0  0  0
   49.0693   40.4235   -3.3548 C   0  0  1  0  0  0
   47.7532   39.8369   -2.7866 C   0  0  0  0  0  0
   47.6638   39.4641   -1.2904 C   0  0  0  0  0  0
   46.2823   39.2100   -0.7055 C   0  0  0  0  0  0
   47.2230   38.0639   -0.9126 C   0  0  0  0  0  0
   46.7980   39.6101   -3.5331 O   0  0  0  0  0  0
   48.9191   40.6522   -4.8039 C   0  0  0  0  0  0
   48.8058   40.8349   -5.9404 N   0  0  0  0  0  0
   53.9443   47.0460   -1.5864 S   0  0  1  0  0  0
   53.6228   47.2100   -0.0992 O   0  0  0  0  0  0
   55.6915   46.4100   -1.6287 C   0  0  0  0  0  0
   55.8486   45.4142   -2.4989 F   0  0  0  0  0  0
   56.4994   47.4108   -1.9748 F   0  0  0  0  0  0
   56.0230   46.0100   -0.4045 F   0  0  0  0  0  0
   52.5017   43.3659   -4.6020 H   0  0  0  0  0  0
   53.9738   45.2319   -3.9400 H   0  0  0  0  0  0
   51.6151   45.8181   -0.3881 H   0  0  0  0  0  0
   50.1078   44.0302   -1.0809 H   0  0  0  0  0  0
   50.4462   42.3375   -4.3374 H   0  0  0  0  0  0
   48.4508   39.8773   -0.6666 H   0  0  0  0  0  0
   45.3943   39.2708   -1.3375 H   0  0  0  0  0  0
   46.0820   39.5705    0.3009 H   0  0  0  0  0  0
   47.6911   37.5994   -0.0447 H   0  0  0  0  0  0
   47.0271   37.3422   -1.6990 H   0  0  0  0  0  0
   49.7892   39.6100   -3.2991 H   0  0  0  0  0  0
  1  6  1  0  0  0
  1  2  2  0  0  0
  1 24  1  0  0  0
  2  3  1  0  0  0
  2 25  1  0  0  0
  3  4  2  0  0  0
  3 18  1  0  0  0
  4  5  1  0  0  0
  4 26  1  0  0  0
  5  6  2  0  0  0
  5 27  1  0  0  0
  6  7  1  0  0  0
  7  8  1  0  0  0
  7 28  1  0  0  0
  8  9  2  0  0  0
  8 10  1  0  0  0
 10 16  1  0  0  0
 10 34  1  0  0  0
 10 11  1  0  0  0
 11 15  2  0  0  0
 11 12  1  0  0  0
 12 14  1  0  0  0
 12 13  1  0  0  0
 12 29  1  0  0  0
 13 14  1  0  0  0
 13 30  1  0  0  0
 13 31  1  0  0  0
 14 32  1  0  0  0
 14 33  1  0  0  0
 16 17  3  0  0  0
 18 19  2  0  0  0
 18 20  1  0  0  0
 20 21  1  0  0  0
 20 22  1  0  0  0
 20 23  1  0  0  0
M  END
> <s_m_entry_id>
26119

> <s_m_entry_name>
ligand_docking-pose.124

> <s_m_Source_Path>
/home/csk/Desktop/cluster/DUD-E-result/pyrd

> <s_m_Source_File>
ligand_docking-pose.sdf

> <i_m_Source_File_Index>
124

> <i_lp_mmshare_version>
53161

> <i_f3d_flags>
0

> <r_lp_tautomer_probability>
0.995394627300976

> <s_lp_Force_Field>
OPLS_2005

> <r_lp_Energy>
22.1935

> <b_lp_Chiralities_Consistent>
1

> <s_lp_Variant>
235451-3

> <s_i_glide_gridfile>
glide-grid_1d3g

> <i_i_glide_lignum>
80

> <i_i_glide_rotatable_bonds>
7

> <r_i_docking_score>
-8.29388325907244

> <r_i_glide_ligand_efficiency>
-0.360603619959671

> <r_i_glide_ligand_efficiency_sa>
-1.02550872654643

> <r_i_glide_ligand_efficiency_ln>
-2.00553617681919

> <r_i_glide_gscore>
-8.29388325907244

> <r_i_glide_lipo>
-3.16426643526395

> <r_i_glide_hbond>
-0.16

> <r_i_glide_metal>
0

> <r_i_glide_rewards>
-3.29804183468198

> <r_i_glide_evdw>
-36.1544647216797

> <r_i_glide_ecoul>
-4.43072175979614

> <r_i_glide_erotb>
0.800756510926897

> <r_i_glide_esite>
0

> <r_i_glide_emodel>
-56.5913958775404

> <r_i_glide_energy>
-40.5851864814758

> <r_i_glide_einternal>
10.7543792724609

> <i_i_glide_confnum>
10

> <i_i_glide_posenum>
246

> <r_i_glide_eff_state_penalty>
0

> <s_user_duplicate_titles>
235451

> <s_m_subgroup_title>
dock_pv

> <s_m_subgroupid>
dock_pv1

> <b_m_subgroup_collapsed>
0

$$$$
235450
                    3D
 Schrodinger Suite 2021-1.
 35 36  0  0  1  0            999 V2000
   52.3167   43.8516   -3.6093 C   0  0  0  0  0  0
   53.2256   44.8164   -3.1801 C   0  0  0  0  0  0
   52.9862   45.5615   -2.0248 C   0  0  0  0  0  0
   51.8016   45.3525   -1.2995 C   0  0  0  0  0  0
   50.9087   44.3536   -1.7002 C   0  0  0  0  0  0
   51.1780   43.5902   -2.8495 C   0  0  0  0  0  0
   50.3633   42.5416   -3.3071 N   0  0  0  0  0  0
   49.7333   41.6104   -2.5586 C   0  0  0  0  0  0
   49.7657   41.6230   -1.3289 O   0  0  0  0  0  0
   49.0757   40.4320   -3.3220 C   0  0  1  0  0  0
   47.7577   39.8437   -2.7663 C   0  0  0  0  0  0
   47.6581   39.4723   -1.2726 C   0  0  0  0  0  0
   46.2725   39.2099   -0.7031 C   0  0  0  0  0  0
   47.2221   38.0685   -0.9039 C   0  0  0  0  0  0
   46.8099   39.6103   -3.5205 O   0  0  0  0  0  0
   48.9327   40.6449   -4.7746 C   0  0  0  0  0  0
   48.8221   40.8125   -5.9138 N   0  0  0  0  0  0
   54.3044   46.6764   -1.4911 S   0  0  0  0  0  0
   55.5667   46.0101   -1.8343 O   0  0  0  0  0  0
   54.0224   47.9926   -2.0751 O   0  0  0  0  0  0
   54.2098   46.7726    0.4093 C   0  0  0  0  0  0
   54.4234   45.5573    0.9028 F   0  0  0  0  0  0
   55.1599   47.6089    0.8218 F   0  0  0  0  0  0
   53.0095   47.2100    0.7780 F   0  0  0  0  0  0
   52.5358   43.2463   -4.4780 H   0  0  0  0  0  0
   54.1577   44.9647   -3.6989 H   0  0  0  0  0  0
   51.5665   45.9139   -0.4109 H   0  0  0  0  0  0
   50.0202   44.1785   -1.1132 H   0  0  0  0  0  0
   50.4055   42.3755   -4.3009 H   0  0  0  0  0  0
   48.4366   39.8920   -0.6417 H   0  0  0  0  0  0
   45.3908   39.2664   -1.3436 H   0  0  0  0  0  0
   46.0592   39.5690    0.3008 H   0  0  0  0  0  0
   47.6848   37.6026   -0.0336 H   0  0  0  0  0  0
   47.0429   37.3506   -1.6984 H   0  0  0  0  0  0
   49.7931   39.6148   -3.2575 H   0  0  0  0  0  0
  1  6  1  0  0  0
  1  2  2  0  0  0
  1 25  1  0  0  0
  2  3  1  0  0  0
  2 26  1  0  0  0
  3  4  2  0  0  0
  3 18  1  0  0  0
  4  5  1  0  0  0
  4 27  1  0  0  0
  5  6  2  0  0  0
  5 28  1  0  0  0
  6  7  1  0  0  0
  7  8  1  0  0  0
  7 29  1  0  0  0
  8  9  2  0  0  0
  8 10  1  0  0  0
 10 16  1  0  0  0
 10 35  1  0  0  0
 10 11  1  0  0  0
 11 15  2  0  0  0
 11 12  1  0  0  0
 12 14  1  0  0  0
 12 13  1  0  0  0
 12 30  1  0  0  0
 13 14  1  0  0  0
 13 31  1  0  0  0
 13 32  1  0  0  0
 14 33  1  0  0  0
 14 34  1  0  0  0
 16 17  3  0  0  0
 18 19  2  0  0  0
 18 20  2  0  0  0
 18 21  1  0  0  0
 21 22  1  0  0  0
 21 23  1  0  0  0
 21 24  1  0  0  0
M  END
> <s_m_entry_id>
26121

> <s_m_entry_name>
ligand_docking-pose.126

> <s_m_Source_Path>
/home/csk/Desktop/cluster/DUD-E-result/pyrd

> <s_m_Source_File>
ligand_docking-pose.sdf

> <i_m_Source_File_Index>
126

> <i_lp_mmshare_version>
53161

> <i_f3d_flags>
0

> <r_lp_tautomer_probability>
0.995394627300976

> <s_lp_Force_Field>
OPLS_2005

> <r_lp_Energy>
20.893242

> <b_lp_Chiralities_Consistent>
1

> <s_lp_Variant>
235450-1

> <s_i_glide_gridfile>
glide-grid_1d3g

> <i_i_glide_lignum>
82

> <i_i_glide_rotatable_bonds>
7

> <r_i_docking_score>
-8.23872253063238

> <r_i_glide_ligand_efficiency>
-0.343280105443016

> <r_i_glide_ligand_efficiency_sa>
-0.990191168091582

> <r_i_glide_ligand_efficiency_ln>
-1.97190435192317

> <r_i_glide_gscore>
-8.23872253063238

> <r_i_glide_lipo>
-3.14637004245208

> <r_i_glide_hbond>
-0.16

> <r_i_glide_metal>
0

> <r_i_glide_rewards>
-3.07353828213607

> <r_i_glide_evdw>
-37.8878593444824

> <r_i_glide_ecoul>
-4.68682479858398

> <r_i_glide_erotb>
0.738602480967498

> <r_i_glide_esite>
0

> <r_i_glide_emodel>
-55.7157818235142

> <r_i_glide_energy>
-42.5746841430664

> <r_i_glide_einternal>
12.5115461349487

> <i_i_glide_confnum>
20

> <i_i_glide_posenum>
334

> <r_i_glide_eff_state_penalty>
0

> <s_user_duplicate_titles>
235450

> <s_m_subgroup_title>
dock_pv

> <s_m_subgroupid>
dock_pv1

> <b_m_subgroup_collapsed>
0

$$$$
234697
                    3D
 Schrodinger Suite 2021-1.
 41 43  0  0  1  0            999 V2000
   50.0997   43.2290   -2.1637 C   0  0  0  0  0  0
   50.9062   44.2277   -1.6108 C   0  0  0  0  0  0
   52.0230   44.6939   -2.3123 C   0  0  0  0  0  0
   52.3437   44.1107   -3.5433 C   0  0  0  0  0  0
   51.4784   43.2100   -4.1291 C   0  0  0  0  0  0
   50.3576   42.7302   -3.4499 C   0  0  0  0  0  0
   49.4293   41.7888   -4.1762 C   0  0  0  0  0  0
   49.3755   41.8265   -5.4109 O   0  0  0  0  0  0
   48.5551   40.8100   -3.4469 C   0  0  0  0  0  0
   47.4262   40.2921   -4.0990 C   0  0  0  0  0  0
   46.5526   39.4503   -3.4228 C   0  0  0  0  0  0
   46.8325   39.0813   -2.1143 C   0  0  0  0  0  0
   47.9575   39.5654   -1.4595 C   0  0  0  0  0  0
   48.8277   40.4100   -2.1336 C   0  0  0  0  0  0
   45.7748   38.0099   -1.2990 Cl  0  0  0  0  0  0
   52.8147   45.7082   -1.7367 N   0  0  0  0  0  0
   53.7535   46.4921   -2.3318 C   0  0  0  0  0  0
   53.9939   46.5021   -3.5397 O   0  0  0  0  0  0
   54.5073   47.4741   -1.4241 C   0  0  2  0  0  0
   55.9562   47.7679   -1.8321 C   0  0  0  0  0  0
   56.2700   49.2117   -2.2566 C   0  0  0  0  0  0
   57.6878   49.7302   -2.0990 C   0  0  0  0  0  0
   57.1765   49.4056   -3.4659 C   0  0  0  0  0  0
   56.8124   46.8820   -1.8346 O   0  0  0  0  0  0
   54.4694   47.1096   -0.0082 C   0  0  0  0  0  0
   54.4230   46.8100    1.1010 N   0  0  0  0  0  0
   49.2234   42.9288   -1.6104 H   0  0  0  0  0  0
   50.6494   44.6431   -0.6468 H   0  0  0  0  0  0
   53.2230   44.3826   -4.0990 H   0  0  0  0  0  0
   51.7101   42.8773   -5.1263 H   0  0  0  0  0  0
   47.1860   40.5754   -5.1140 H   0  0  0  0  0  0
   45.6692   39.0735   -3.9177 H   0  0  0  0  0  0
   48.1660   39.2643   -0.4422 H   0  0  0  0  0  0
   49.7158   40.7347   -1.6130 H   0  0  0  0  0  0
   52.6205   45.8906   -0.7634 H   0  0  0  0  0  0
   55.4449   49.9041   -2.0990 H   0  0  0  0  0  0
   58.4230   49.0802   -1.6308 H   0  0  0  0  0  0
   57.8254   50.7745   -1.8163 H   0  0  0  0  0  0
   56.9430   50.2206   -4.1524 H   0  0  0  0  0  0
   57.5725   48.5317   -3.9869 H   0  0  0  0  0  0
   53.9638   48.4100   -1.4919 H   0  0  0  0  0  0
  1  6  1  0  0  0
  1  2  2  0  0  0
  1 27  1  0  0  0
  2  3  1  0  0  0
  2 28  1  0  0  0
  3  4  2  0  0  0
  3 16  1  0  0  0
  4  5  1  0  0  0
  4 29  1  0  0  0
  5  6  2  0  0  0
  5 30  1  0  0  0
  6  7  1  0  0  0
  7  8  2  0  0  0
  7  9  1  0  0  0
  9 14  1  0  0  0
  9 10  2  0  0  0
 10 11  1  0  0  0
 10 31  1  0  0  0
 11 12  2  0  0  0
 11 32  1  0  0  0
 12 13  1  0  0  0
 12 15  1  0  0  0
 13 14  2  0  0  0
 13 33  1  0  0  0
 14 34  1  0  0  0
 16 17  1  0  0  0
 16 35  1  0  0  0
 17 18  2  0  0  0
 17 19  1  0  0  0
 19 25  1  0  0  0
 19 41  1  0  0  0
 19 20  1  0  0  0
 20 24  2  0  0  0
 20 21  1  0  0  0
 21 23  1  0  0  0
 21 22  1  0  0  0
 21 36  1  0  0  0
 22 23  1  0  0  0
 22 37  1  0  0  0
 22 38  1  0  0  0
 23 39  1  0  0  0
 23 40  1  0  0  0
 25 26  3  0  0  0
M  END
> <s_m_entry_id>
26122

> <s_m_entry_name>
ligand_docking-pose.127

> <s_m_Source_Path>
/home/csk/Desktop/cluster/DUD-E-result/pyrd

> <s_m_Source_File>
ligand_docking-pose.sdf

> <i_m_Source_File_Index>
127

> <i_lp_mmshare_version>
53161

> <i_f3d_flags>
0

> <r_lp_tautomer_probability>
0.995394627300976

> <s_lp_Force_Field>
OPLS_2005

> <r_lp_Energy>
36.091547

> <b_lp_Chiralities_Consistent>
1

> <s_lp_Variant>
234697-2

> <s_i_glide_gridfile>
glide-grid_1d3g

> <i_i_glide_lignum>
61

> <i_i_glide_rotatable_bonds>
7

> <r_i_docking_score>
-8.22378931145898

> <r_i_glide_ligand_efficiency>
-0.316299588902269

> <r_i_glide_ligand_efficiency_sa>
-0.937036287544187

> <r_i_glide_ligand_efficiency_ln>
-1.93132993534246

> <r_i_glide_gscore>
-8.22378931145898

> <r_i_glide_lipo>
-4.72396158206612

> <r_i_glide_hbond>
0

> <r_i_glide_metal>
0

> <r_i_glide_rewards>
-2.8894874595945

> <r_i_glide_evdw>
-34.6782264709473

> <r_i_glide_ecoul>
1.766845703125

> <r_i_glide_erotb>
0.858544198280257

> <r_i_glide_esite>
0

> <r_i_glide_emodel>
-43.7190575099087

> <r_i_glide_energy>
-32.9113807678223

> <r_i_glide_einternal>
5.84225273132324

> <i_i_glide_confnum>
3

> <i_i_glide_posenum>
179

> <r_i_glide_eff_state_penalty>
0

> <s_user_duplicate_titles>
234697

> <s_m_subgroup_title>
dock_pv

> <s_m_subgroupid>
dock_pv1

> <b_m_subgroup_collapsed>
0

$$$$
235627
                    3D
 Schrodinger Suite 2021-1.
 33 34  0  0  1  0            999 V2000
   51.6227   45.9085    0.0741 C   0  0  0  0  0  0
   51.8612   45.2693   -1.2903 C   0  0  0  0  0  0
   50.9892   44.2563   -1.7034 C   0  0  0  0  0  0
   51.2211   43.5561   -2.8988 C   0  0  0  0  0  0
   52.3107   43.9086   -3.6988 C   0  0  0  0  0  0
   53.1781   44.9273   -3.2986 C   0  0  0  0  0  0
   52.9650   45.6100   -2.0984 C   0  0  0  0  0  0
   53.9191   46.6498   -1.7216 C   0  0  0  0  0  0
   54.6757   47.4727   -1.4229 N   0  0  0  0  0  0
   50.4203   42.4935   -3.3504 N   0  0  0  0  0  0
   49.7516   41.5898   -2.5998 C   0  0  0  0  0  0
   49.7616   41.6114   -1.3698 O   0  0  0  0  0  0
   49.0719   40.4226   -3.3566 C   0  0  1  0  0  0
   47.7554   39.8412   -2.7849 C   0  0  0  0  0  0
   47.6628   39.4759   -1.2865 C   0  0  0  0  0  0
   46.2793   39.2089   -0.7049 C   0  0  0  0  0  0
   47.2300   38.0709   -0.9099 C   0  0  0  0  0  0
   46.8005   39.6100   -3.5300 O   0  0  0  0  0  0
   48.9221   40.6390   -4.8070 C   0  0  0  0  0  0
   48.8081   40.8102   -5.9451 N   0  0  0  0  0  0
   52.5541   45.9817    0.6365 H   0  0  0  0  0  0
   51.2228   46.9160   -0.0364 H   0  0  0  0  0  0
   50.9511   45.3015    0.6848 H   0  0  0  0  0  0
   50.1455   44.0067   -1.0784 H   0  0  0  0  0  0
   52.5115   43.3688   -4.6115 H   0  0  0  0  0  0
   54.0211   45.1856   -3.9235 H   0  0  0  0  0  0
   50.4730   42.3152   -4.3412 H   0  0  0  0  0  0
   48.4440   39.8956   -0.6597 H   0  0  0  0  0  0
   45.3938   39.2674   -1.3414 H   0  0  0  0  0  0
   46.0712   39.5667    0.3006 H   0  0  0  0  0  0
   47.7033   37.6074   -0.0444 H   0  0  0  0  0  0
   47.0406   37.3494   -1.6984 H   0  0  0  0  0  0
   49.7930   39.6100   -3.2994 H   0  0  0  0  0  0
  1  2  1  0  0  0
  1 21  1  0  0  0
  1 22  1  0  0  0
  1 23  1  0  0  0
  2  7  1  0  0  0
  2  3  2  0  0  0
  3  4  1  0  0  0
  3 24  1  0  0  0
  4  5  2  0  0  0
  4 10  1  0  0  0
  5  6  1  0  0  0
  5 25  1  0  0  0
  6  7  2  0  0  0
  6 26  1  0  0  0
  7  8  1  0  0  0
  8  9  3  0  0  0
 10 11  1  0  0  0
 10 27  1  0  0  0
 11 12  2  0  0  0
 11 13  1  0  0  0
 13 19  1  0  0  0
 13 33  1  0  0  0
 13 14  1  0  0  0
 14 18  2  0  0  0
 14 15  1  0  0  0
 15 17  1  0  0  0
 15 16  1  0  0  0
 15 28  1  0  0  0
 16 17  1  0  0  0
 16 29  1  0  0  0
 16 30  1  0  0  0
 17 31  1  0  0  0
 17 32  1  0  0  0
 19 20  3  0  0  0
M  END
> <s_m_entry_id>
26123

> <s_m_entry_name>
ligand_docking-pose.128

> <s_m_Source_Path>
/home/csk/Desktop/cluster/DUD-E-result/pyrd

> <s_m_Source_File>
ligand_docking-pose.sdf

> <i_m_Source_File_Index>
128

> <i_lp_mmshare_version>
53161

> <i_f3d_flags>
0

> <r_lp_tautomer_probability>
0.995394627300976

> <s_lp_Force_Field>
OPLS_2005

> <r_lp_Energy>
25.974573

> <b_lp_Chiralities_Consistent>
1

> <s_lp_Variant>
235627-1

> <s_i_glide_gridfile>
glide-grid_1d3g

> <i_i_glide_lignum>
187

> <i_i_glide_rotatable_bonds>
5

> <r_i_docking_score>
-8.15855547739377

> <r_i_glide_ligand_efficiency>
-0.407927773869689

> <r_i_glide_ligand_efficiency_sa>
-1.10728633458452

> <r_i_glide_ligand_efficiency_ln>
-2.04181734882282

> <r_i_glide_gscore>
-8.15855547739377

> <r_i_glide_lipo>
-3.17011860691852

> <r_i_glide_hbond>
-0.16

> <r_i_glide_metal>
0

> <r_i_glide_rewards>
-3.44966700525811

> <r_i_glide_evdw>
-35.0682029724121

> <r_i_glide_ecoul>
-4.15763807296753

> <r_i_glide_erotb>
0.998285994348589

> <r_i_glide_esite>
0

> <r_i_glide_emodel>
-53.4463926280362

> <r_i_glide_energy>
-39.2258410453796

> <r_i_glide_einternal>
8.04344177246094

> <i_i_glide_confnum>
7

> <i_i_glide_posenum>
343

> <r_i_glide_eff_state_penalty>
0

> <s_user_duplicate_titles>
235627

> <s_m_subgroup_title>
dock_pv

> <s_m_subgroupid>
dock_pv1

> <b_m_subgroup_collapsed>
0

$$$$
235724
                    3D
 Schrodinger Suite 2021-1.
 35 36  0  0  1  0            999 V2000
   51.6699   45.2100   -1.2990 C   0  0  0  0  0  0
   50.8230   44.1838   -1.7152 C   0  0  0  0  0  0
   51.1042   43.4899   -2.9012 C   0  0  0  0  0  0
   52.2220   43.8271   -3.6640 C   0  0  0  0  0  0
   53.0886   44.8227   -3.2202 C   0  0  0  0  0  0
   52.8230   45.5173   -2.0364 C   0  0  0  0  0  0
   53.8343   46.5455   -1.5365 C   0  0  0  0  0  0
   55.0727   46.0579   -1.6300 F   0  0  0  0  0  0
   53.7538   47.6406   -2.2898 F   0  0  0  0  0  0
   53.6230   46.8768   -0.2618 F   0  0  0  0  0  0
   50.3030   42.4608   -3.4116 N   0  0  0  0  0  0
   49.6230   41.5140   -2.7294 C   0  0  0  0  0  0
   49.6233   41.4503   -1.5038 O   0  0  0  0  0  0
   48.9578   40.4100   -3.5817 C   0  0  1  0  0  0
   47.6148   39.8005   -3.1147 C   0  0  0  0  0  0
   47.6079   38.8654   -1.8970 C   0  0  0  0  0  0
   47.5308   39.4754   -0.4990 C   0  0  0  0  0  0
   46.0207   39.2100   -0.4990 C   0  0  0  0  0  0
   46.3379   38.0922   -1.4960 C   0  0  0  0  0  0
   46.5651   40.0100   -3.7244 O   0  0  0  0  0  0
   48.8278   40.7797   -4.9929 C   0  0  0  0  0  0
   48.7336   41.0814   -6.0990 N   0  0  0  0  0  0
   51.4432   45.7363   -0.3827 H   0  0  0  0  0  0
   49.9487   43.9492   -1.1260 H   0  0  0  0  0  0
   52.4486   43.2902   -4.5735 H   0  0  0  0  0  0
   53.9813   45.0538   -3.7802 H   0  0  0  0  0  0
   50.3592   42.3458   -4.4124 H   0  0  0  0  0  0
   48.4230   38.1758   -2.0734 H   0  0  0  0  0  0
   47.8144   40.5070   -0.3629 H   0  0  0  0  0  0
   48.0959   38.9033    0.2399 H   0  0  0  0  0  0
   45.3307   39.9477   -0.9070 H   0  0  0  0  0  0
   45.6481   38.9924    0.4897 H   0  0  0  0  0  0
   46.5520   37.1244   -1.0371 H   0  0  0  0  0  0
   45.6230   37.9314   -2.2998 H   0  0  0  0  0  0
   49.6898   39.6100   -3.5891 H   0  0  0  0  0  0
  1  6  1  0  0  0
  1  2  2  0  0  0
  1 23  1  0  0  0
  2  3  1  0  0  0
  2 24  1  0  0  0
  3  4  2  0  0  0
  3 11  1  0  0  0
  4  5  1  0  0  0
  4 25  1  0  0  0
  5  6  2  0  0  0
  5 26  1  0  0  0
  6  7  1  0  0  0
  7  8  1  0  0  0
  7  9  1  0  0  0
  7 10  1  0  0  0
 11 12  1  0  0  0
 11 27  1  0  0  0
 12 13  2  0  0  0
 12 14  1  0  0  0
 14 21  1  0  0  0
 14 35  1  0  0  0
 14 15  1  0  0  0
 15 20  2  0  0  0
 15 16  1  0  0  0
 16 19  1  0  0  0
 16 17  1  0  0  0
 16 28  1  0  0  0
 17 18  1  0  0  0
 17 29  1  0  0  0
 17 30  1  0  0  0
 18 19  1  0  0  0
 18 31  1  0  0  0
 18 32  1  0  0  0
 19 33  1  0  0  0
 19 34  1  0  0  0
 21 22  3  0  0  0
M  END
> <s_m_entry_id>
26124

> <s_m_entry_name>
ligand_docking-pose.129

> <s_m_Source_Path>
/home/csk/Desktop/cluster/DUD-E-result/pyrd

> <s_m_Source_File>
ligand_docking-pose.sdf

> <i_m_Source_File_Index>
129

> <i_lp_mmshare_version>
53161

> <i_f3d_flags>
0

> <r_lp_tautomer_probability>
0.995394627300976

> <s_lp_Force_Field>
OPLS_2005

> <r_lp_Energy>
27.561904

> <b_lp_Chiralities_Consistent>
1

> <s_lp_Variant>
235724-1

> <s_i_glide_gridfile>
glide-grid_1d3g

> <i_i_glide_lignum>
46

> <i_i_glide_rotatable_bonds>
6

> <r_i_docking_score>
-8.04729261354146

> <r_i_glide_ligand_efficiency>
-0.365786027888248

> <r_i_glide_ligand_efficiency_sa>
-1.02494683569103

> <r_i_glide_ligand_efficiency_ln>
-1.96705184687963

> <r_i_glide_gscore>
-8.04729261354146

> <r_i_glide_lipo>
-3.41317318005572

> <r_i_glide_hbond>
-0.16

> <r_i_glide_metal>
0

> <r_i_glide_rewards>
-3.42945226860225

> <r_i_glide_evdw>
-24.2843570709229

> <r_i_glide_ecoul>
-4.00208568572998

> <r_i_glide_erotb>
0.76986354152214

> <r_i_glide_esite>
0

> <r_i_glide_emodel>
-35.1049506358351

> <r_i_glide_energy>
-28.2864427566528

> <r_i_glide_einternal>
3.42113065719604

> <i_i_glide_confnum>
27

> <i_i_glide_posenum>
37

> <r_i_glide_eff_state_penalty>
0

> <s_user_duplicate_titles>
235724

> <s_m_subgroup_title>
dock_pv

> <s_m_subgroupid>
dock_pv1

> <b_m_subgroup_collapsed>
0

$$$$
235689
                    3D
 Schrodinger Suite 2021-1.
 35 36  0  0  1  0            999 V2000
   55.7786   46.2346   -1.5071 C   0  0  0  0  0  0
   54.0456   46.9374   -1.4623 S   0  0  0  0  0  0
   54.0185   48.0134   -2.4669 O   0  0  0  0  0  0
   53.7261   47.2054   -0.0538 O   0  0  0  0  0  0
   52.8933   45.6726   -2.0063 C   0  0  0  0  0  0
   51.7517   45.3498   -1.2572 C   0  0  0  0  0  0
   50.8997   44.3209   -1.6634 C   0  0  0  0  0  0
   51.1948   43.6090   -2.8353 C   0  0  0  0  0  0
   52.2795   44.0088   -3.6216 C   0  0  0  0  0  0
   53.1452   45.0104   -3.2051 C   0  0  0  0  0  0
   50.4247   42.5266   -3.3082 N   0  0  0  0  0  0
   49.6989   41.6253   -2.6060 C   0  0  0  0  0  0
   49.6266   41.6348   -1.3769 O   0  0  0  0  0  0
   49.0184   40.4894   -3.4141 C   0  0  1  0  0  0
   47.6703   39.9461   -2.8984 C   0  0  0  0  0  0
   47.6190   39.3323   -1.4918 C   0  0  0  0  0  0
   46.2667   39.2102   -0.7717 C   0  0  0  0  0  0
   46.8923   38.0043   -1.3441 C   0  0  0  0  0  0
   46.6739   39.9360   -3.6174 O   0  0  0  0  0  0
   48.9047   40.7688   -4.8602 C   0  0  0  0  0  0
   48.8175   40.9857   -5.9925 N   0  0  0  0  0  0
   56.4794   47.0676   -1.4314 H   0  0  0  0  0  0
   55.8952   45.6101   -0.6326 H   0  0  0  0  0  0
   55.9372   45.6922   -2.4343 H   0  0  0  0  0  0
   51.5328   45.9003   -0.3495 H   0  0  0  0  0  0
   50.0287   44.0924   -1.0672 H   0  0  0  0  0  0
   52.5112   43.4693   -4.5245 H   0  0  0  0  0  0
   54.0115   45.2639   -3.8000 H   0  0  0  0  0  0
   50.5236   42.3456   -4.2990 H   0  0  0  0  0  0
   48.5134   39.5047   -0.8898 H   0  0  0  0  0  0
   45.3592   39.5972   -1.2392 H   0  0  0  0  0  0
   46.2646   39.3431    0.3029 H   0  0  0  0  0  0
   47.3307   37.2341   -0.6927 H   0  0  0  0  0  0
   46.3651   37.6126   -2.1979 H   0  0  0  0  0  0
   49.7163   39.6449   -3.3563 H   0  0  0  0  0  0
  1  2  1  0  0  0
  1 22  1  0  0  0
  1 23  1  0  0  0
  1 24  1  0  0  0
  2  3  2  0  0  0
  2  4  2  0  0  0
  2  5  1  0  0  0
  5 10  1  0  0  0
  5  6  2  0  0  0
  6  7  1  0  0  0
  6 25  1  0  0  0
  7  8  2  0  0  0
  7 26  1  0  0  0
  8  9  1  0  0  0
  8 11  1  0  0  0
  9 10  2  0  0  0
  9 27  1  0  0  0
 10 28  1  0  0  0
 11 12  1  0  0  0
 11 29  1  0  0  0
 12 13  2  0  0  0
 12 14  1  0  0  0
 14 20  1  0  0  0
 14 35  1  0  0  0
 14 15  1  0  0  0
 15 19  2  0  0  0
 15 16  1  0  0  0
 16 18  1  0  0  0
 16 17  1  0  0  0
 16 30  1  0  0  0
 17 18  1  0  0  0
 17 31  1  0  0  0
 17 32  1  0  0  0
 18 33  1  0  0  0
 18 34  1  0  0  0
 20 21  3  0  0  0
M  END
> <s_m_entry_id>
26125

> <s_m_entry_name>
ligand_docking-pose.130

> <s_m_Source_Path>
/home/csk/Desktop/cluster/DUD-E-result/pyrd

> <s_m_Source_File>
ligand_docking-pose.sdf

> <i_m_Source_File_Index>
130

> <i_lp_mmshare_version>
53161

> <i_f3d_flags>
0

> <r_lp_tautomer_probability>
0.995394627300976

> <s_lp_Force_Field>
OPLS_2005

> <r_lp_Energy>
20.053356

> <b_lp_Chiralities_Consistent>
1

> <s_lp_Variant>
235689-1

> <s_i_glide_gridfile>
glide-grid_1d3g

> <i_i_glide_lignum>
286

> <i_i_glide_rotatable_bonds>
6

> <r_i_docking_score>
-8.03934782094323

> <r_i_glide_ligand_efficiency>
-0.382826086711582

> <r_i_glide_ligand_efficiency_sa>
-1.0561881449061

> <r_i_glide_ligand_efficiency_ln>
-1.98771250369633

> <r_i_glide_gscore>
-8.03934782094323

> <r_i_glide_lipo>
-3.24571360786997

> <r_i_glide_hbond>
-0.16

> <r_i_glide_metal>
0

> <r_i_glide_rewards>
-3.0806169031932

> <r_i_glide_evdw>
-34.3175468444824

> <r_i_glide_ecoul>
-4.16290426254272

> <r_i_glide_erotb>
0.787295671725477

> <r_i_glide_esite>
0

> <r_i_glide_emodel>
-53.340515151842

> <r_i_glide_energy>
-38.4804511070251

> <r_i_glide_einternal>
5.7954249382019

> <i_i_glide_confnum>
7

> <i_i_glide_posenum>
26

> <r_i_glide_eff_state_penalty>
0

> <s_user_duplicate_titles>
235689

> <s_m_subgroup_title>
dock_pv

> <s_m_subgroupid>
dock_pv1

> <b_m_subgroup_collapsed>
0

$$$$
235406
                    3D
 Schrodinger Suite 2021-1.
 33 34  0  0  1  0            999 V2000
   54.0077   46.6720    0.4686 C   0  0  0  0  0  0
   54.0071   46.8100   -1.3427 S   0  0  0  0  0  0
   52.8492   45.6180   -1.9514 C   0  0  0  0  0  0
   53.1448   44.9404   -3.1341 C   0  0  0  0  0  0
   52.2838   43.9445   -3.5940 C   0  0  0  0  0  0
   51.1442   43.6099   -2.8583 C   0  0  0  0  0  0
   50.8231   44.3318   -1.6984 C   0  0  0  0  0  0
   51.6729   45.3400   -1.2499 C   0  0  0  0  0  0
   50.3625   42.5460   -3.3378 N   0  0  0  0  0  0
   49.7435   41.6029   -2.5930 C   0  0  0  0  0  0
   49.7772   41.6097   -1.3629 O   0  0  0  0  0  0
   49.0776   40.4285   -3.3522 C   0  0  1  0  0  0
   47.7620   39.8406   -2.7845 C   0  0  0  0  0  0
   47.6686   39.4716   -1.2862 C   0  0  0  0  0  0
   46.2825   39.2096   -0.7042 C   0  0  0  0  0  0
   47.2289   38.0684   -0.9072 C   0  0  0  0  0  0
   46.8093   39.6099   -3.5322 O   0  0  0  0  0  0
   48.9302   40.6524   -4.8026 C   0  0  0  0  0  0
   48.8196   40.8318   -5.9400 N   0  0  0  0  0  0
   54.7960   47.2969    0.8896 H   0  0  0  0  0  0
   53.0550   46.9973    0.8879 H   0  0  0  0  0  0
   54.1904   45.6407    0.7695 H   0  0  0  0  0  0
   54.0503   45.1670   -3.6798 H   0  0  0  0  0  0
   52.5333   43.4016   -4.4933 H   0  0  0  0  0  0
   49.9280   44.1142   -1.1342 H   0  0  0  0  0  0
   51.4233   45.8801   -0.3490 H   0  0  0  0  0  0
   50.3915   42.4087   -4.3367 H   0  0  0  0  0  0
   48.4503   39.8919   -0.6608 H   0  0  0  0  0  0
   45.3944   39.2509   -1.3371 H   0  0  0  0  0  0
   46.0751   39.5703    0.3009 H   0  0  0  0  0  0
   47.6967   37.6060   -0.0377 H   0  0  0  0  0  0
   47.0453   37.3488   -1.6990 H   0  0  0  0  0  0
   49.7951   39.6103   -3.2963 H   0  0  0  0  0  0
  1  2  1  0  0  0
  1 20  1  0  0  0
  1 21  1  0  0  0
  1 22  1  0  0  0
  2  3  1  0  0  0
  3  8  1  0  0  0
  3  4  2  0  0  0
  4  5  1  0  0  0
  4 23  1  0  0  0
  5  6  2  0  0  0
  5 24  1  0  0  0
  6  7  1  0  0  0
  6  9  1  0  0  0
  7  8  2  0  0  0
  7 25  1  0  0  0
  8 26  1  0  0  0
  9 10  1  0  0  0
  9 27  1  0  0  0
 10 11  2  0  0  0
 10 12  1  0  0  0
 12 18  1  0  0  0
 12 33  1  0  0  0
 12 13  1  0  0  0
 13 17  2  0  0  0
 13 14  1  0  0  0
 14 16  1  0  0  0
 14 15  1  0  0  0
 14 28  1  0  0  0
 15 16  1  0  0  0
 15 29  1  0  0  0
 15 30  1  0  0  0
 16 31  1  0  0  0
 16 32  1  0  0  0
 18 19  3  0  0  0
M  END
> <s_m_entry_id>
26126

> <s_m_entry_name>
ligand_docking-pose.131

> <s_m_Source_Path>
/home/csk/Desktop/cluster/DUD-E-result/pyrd

> <s_m_Source_File>
ligand_docking-pose.sdf

> <i_m_Source_File_Index>
131

> <i_lp_mmshare_version>
53161

> <i_f3d_flags>
0

> <r_lp_tautomer_probability>
0.995394627300976

> <s_lp_Force_Field>
OPLS_2005

> <r_lp_Energy>
22.940364

> <b_lp_Chiralities_Consistent>
1

> <s_lp_Variant>
235406-1

> <s_i_glide_gridfile>
glide-grid_1d3g

> <i_i_glide_lignum>
280

> <i_i_glide_rotatable_bonds>
6

> <r_i_docking_score>
-8.00497746678613

> <r_i_glide_ligand_efficiency>
-0.42131460351506

> <r_i_glide_ligand_efficiency_sa>
-1.1242365815468

> <r_i_glide_ligand_efficiency_ln>
-2.0294337189817

> <r_i_glide_gscore>
-8.00497746678613

> <r_i_glide_lipo>
-3.48645880188114

> <r_i_glide_hbond>
-0.16

> <r_i_glide_metal>
0

> <r_i_glide_rewards>
-2.87623235550953

> <r_i_glide_evdw>
-36.0572929382324

> <r_i_glide_ecoul>
-4.22463655471802

> <r_i_glide_erotb>
0.954273820723861

> <r_i_glide_esite>
0

> <r_i_glide_emodel>
-56.3152248399771

> <r_i_glide_energy>
-40.2819294929504

> <r_i_glide_einternal>
6.89517021179199

> <i_i_glide_confnum>
2

> <i_i_glide_posenum>
265

> <r_i_glide_eff_state_penalty>
0

> <s_user_duplicate_titles>
235406

> <s_m_subgroup_title>
dock_pv

> <s_m_subgroupid>
dock_pv1

> <b_m_subgroup_collapsed>
0

$$$$
235586
                    3D
 Schrodinger Suite 2021-1.
 32 33  0  0  1  0            999 V2000
   51.5010   45.6031   -0.7147 C   0  0  0  0  0  0
   52.6956   46.0256   -1.2854 C   0  0  0  0  0  0
   53.1795   45.4290   -2.4541 C   0  0  0  0  0  0
   52.4230   44.4100   -3.0633 C   0  0  0  0  0  0
   51.2281   43.9570   -2.4781 C   0  0  0  0  0  0
   50.7694   44.5709   -1.3004 C   0  0  0  0  0  0
   50.5447   42.8859   -3.0911 N   0  0  0  0  0  0
   49.9740   41.8360   -2.4513 C   0  0  0  0  0  0
   50.0227   41.7166   -1.2269 O   0  0  0  0  0  0
   49.3457   40.7103   -3.3173 C   0  0  1  0  0  0
   48.0456   40.0100   -2.8337 C   0  0  0  0  0  0
   47.8766   39.5951   -1.3545 C   0  0  0  0  0  0
   46.5034   39.1102   -0.8991 C   0  0  0  0  0  0
   47.6103   38.1238   -1.0664 C   0  0  0  0  0  0
   47.1768   39.6944   -3.6510 O   0  0  0  0  0  0
   49.2199   41.0198   -4.7550 C   0  0  0  0  0  0
   49.1174   41.2571   -5.8834 N   0  0  0  0  0  0
   54.5452   45.8386   -3.0046 C   0  0  0  0  0  0
   54.3874   46.5814   -4.0987 F   0  0  0  0  0  0
   55.2500   46.5522   -2.1237 F   0  0  0  0  0  0
   55.2590   44.7518   -3.2993 F   0  0  0  0  0  0
   51.1677   46.0634    0.2015 H   0  0  0  0  0  0
   53.2537   46.8095   -0.7936 H   0  0  0  0  0  0
   52.7976   43.9328   -3.9581 H   0  0  0  0  0  0
   49.8484   44.2532   -0.8334 H   0  0  0  0  0  0
   50.5987   42.8504   -4.0987 H   0  0  0  0  0  0
   48.5307   40.1000   -0.6505 H   0  0  0  0  0  0
   45.6678   39.0942   -1.6015 H   0  0  0  0  0  0
   46.1779   39.3748    0.1075 H   0  0  0  0  0  0
   48.0230   37.6748   -0.1631 H   0  0  0  0  0  0
   47.6232   37.4300   -1.9056 H   0  0  0  0  0  0
   50.0825   39.9112   -3.2989 H   0  0  0  0  0  0
  1  6  1  0  0  0
  1  2  2  0  0  0
  1 22  1  0  0  0
  2  3  1  0  0  0
  2 23  1  0  0  0
  3  4  2  0  0  0
  3 18  1  0  0  0
  4  5  1  0  0  0
  4 24  1  0  0  0
  5  6  2  0  0  0
  5  7  1  0  0  0
  6 25  1  0  0  0
  7  8  1  0  0  0
  7 26  1  0  0  0
  8  9  2  0  0  0
  8 10  1  0  0  0
 10 16  1  0  0  0
 10 32  1  0  0  0
 10 11  1  0  0  0
 11 15  2  0  0  0
 11 12  1  0  0  0
 12 14  1  0  0  0
 12 13  1  0  0  0
 12 27  1  0  0  0
 13 14  1  0  0  0
 13 28  1  0  0  0
 13 29  1  0  0  0
 14 30  1  0  0  0
 14 31  1  0  0  0
 16 17  3  0  0  0
 18 19  1  0  0  0
 18 20  1  0  0  0
 18 21  1  0  0  0
M  END
> <s_m_entry_id>
26127

> <s_m_entry_name>
ligand_docking-pose.132

> <s_m_Source_Path>
/home/csk/Desktop/cluster/DUD-E-result/pyrd

> <s_m_Source_File>
ligand_docking-pose.sdf

> <i_m_Source_File_Index>
132

> <i_lp_mmshare_version>
53161

> <i_f3d_flags>
0

> <r_lp_tautomer_probability>
0.995394627300976

> <s_lp_Force_Field>
OPLS_2005

> <r_lp_Energy>
25.490395

> <b_lp_Chiralities_Consistent>
1

> <s_lp_Variant>
235586-1

> <s_i_glide_gridfile>
glide-grid_1d3g

> <i_i_glide_lignum>
66

> <i_i_glide_rotatable_bonds>
6

> <r_i_docking_score>
-7.99574357052226

> <r_i_glide_ligand_efficiency>
-0.380749693834393

> <r_i_glide_ligand_efficiency_sa>
-1.05045953440337

> <r_i_glide_ligand_efficiency_ln>
-1.97693144089044

> <r_i_glide_gscore>
-7.99574357052226

> <r_i_glide_lipo>
-3.24555871760283

> <r_i_glide_hbond>
-0.0513453215417888

> <r_i_glide_metal>
0

> <r_i_glide_rewards>
-3.45778511240988

> <r_i_glide_evdw>
-33.209041595459

> <r_i_glide_ecoul>
-2.76973295211792

> <r_i_glide_erotb>
0.834857603622873

> <r_i_glide_esite>
0

> <r_i_glide_emodel>
-48.1951287847683

> <r_i_glide_energy>
-35.9787745475769

> <r_i_glide_einternal>
4.12702465057373

> <i_i_glide_confnum>
2

> <i_i_glide_posenum>
203

> <r_i_glide_eff_state_penalty>
0

> <s_user_duplicate_titles>
235586

> <s_m_subgroup_title>
dock_pv

> <s_m_subgroupid>
dock_pv1

> <b_m_subgroup_collapsed>
0

$$$$
235625
                    3D
 Schrodinger Suite 2021-1.
 36 37  0  0  1  0            999 V2000
   51.6234   46.0763    0.1038 C   0  0  0  0  0  0
   51.8560   45.4039   -1.2399 C   0  0  0  0  0  0
   50.9867   44.3879   -1.6588 C   0  0  0  0  0  0
   51.2483   43.6694   -2.8351 C   0  0  0  0  0  0
   52.3650   44.0096   -3.6010 C   0  0  0  0  0  0
   53.2230   45.0344   -3.1960 C   0  0  0  0  0  0
   52.9793   45.7457   -2.0104 C   0  0  0  0  0  0
   53.7897   46.7649   -1.5369 O   0  0  0  0  0  0
   54.9662   47.1555   -2.2422 C   0  0  0  0  0  0
   55.5336   48.1400   -1.5477 F   0  0  0  0  0  0
   55.8480   46.1565   -2.3194 F   0  0  0  0  0  0
   54.6792   47.6314   -3.4553 F   0  0  0  0  0  0
   50.4391   42.6255   -3.3024 N   0  0  0  0  0  0
   49.8773   41.6486   -2.5589 C   0  0  0  0  0  0
   49.9860   41.6101   -1.3333 O   0  0  0  0  0  0
   49.1847   40.5015   -3.3352 C   0  0  1  0  0  0
   47.8865   39.8884   -2.7579 C   0  0  0  0  0  0
   47.7964   39.5196   -1.2621 C   0  0  0  0  0  0
   46.4181   39.1882   -0.7010 C   0  0  0  0  0  0
   47.4185   38.0926   -0.9003 C   0  0  0  0  0  0
   46.9460   39.6102   -3.5068 O   0  0  0  0  0  0
   48.9825   40.7779   -4.7714 C   0  0  0  0  0  0
   48.8230   40.9989   -5.8957 N   0  0  0  0  0  0
   51.2221   47.0802   -0.0278 H   0  0  0  0  0  0
   50.9640   45.4834    0.7379 H   0  0  0  0  0  0
   52.5639   46.1689    0.6486 H   0  0  0  0  0  0
   50.1248   44.1432   -1.0551 H   0  0  0  0  0  0
   52.5904   43.4564   -4.4991 H   0  0  0  0  0  0
   54.0818   45.2539   -3.8091 H   0  0  0  0  0  0
   50.3948   42.5306   -4.3063 H   0  0  0  0  0  0
   48.5461   39.9798   -0.6253 H   0  0  0  0  0  0
   45.5385   39.2101   -1.3471 H   0  0  0  0  0  0
   46.1835   39.5359    0.3010 H   0  0  0  0  0  0
   47.8947   37.6438   -0.0287 H   0  0  0  0  0  0
   47.2757   37.3680   -1.6989 H   0  0  0  0  0  0
   49.9047   39.6840   -3.3215 H   0  0  0  0  0  0
  1  2  1  0  0  0
  1 24  1  0  0  0
  1 25  1  0  0  0
  1 26  1  0  0  0
  2  7  1  0  0  0
  2  3  2  0  0  0
  3  4  1  0  0  0
  3 27  1  0  0  0
  4  5  2  0  0  0
  4 13  1  0  0  0
  5  6  1  0  0  0
  5 28  1  0  0  0
  6  7  2  0  0  0
  6 29  1  0  0  0
  7  8  1  0  0  0
  8  9  1  0  0  0
  9 10  1  0  0  0
  9 11  1  0  0  0
  9 12  1  0  0  0
 13 14  1  0  0  0
 13 30  1  0  0  0
 14 15  2  0  0  0
 14 16  1  0  0  0
 16 22  1  0  0  0
 16 36  1  0  0  0
 16 17  1  0  0  0
 17 21  2  0  0  0
 17 18  1  0  0  0
 18 20  1  0  0  0
 18 19  1  0  0  0
 18 31  1  0  0  0
 19 20  1  0  0  0
 19 32  1  0  0  0
 19 33  1  0  0  0
 20 34  1  0  0  0
 20 35  1  0  0  0
 22 23  3  0  0  0
M  END
> <s_m_entry_id>
26128

> <s_m_entry_name>
ligand_docking-pose.133

> <s_m_Source_Path>
/home/csk/Desktop/cluster/DUD-E-result/pyrd

> <s_m_Source_File>
ligand_docking-pose.sdf

> <i_m_Source_File_Index>
133

> <i_lp_mmshare_version>
53161

> <i_f3d_flags>
0

> <r_lp_tautomer_probability>
0.995394627300976

> <s_lp_Force_Field>
OPLS_2005

> <r_lp_Energy>
22.289549

> <b_lp_Chiralities_Consistent>
1

> <s_lp_Variant>
235625-1

> <s_i_glide_gridfile>
glide-grid_1d3g

> <i_i_glide_lignum>
192

> <i_i_glide_rotatable_bonds>
7

> <r_i_docking_score>
-7.99417921892053

> <r_i_glide_ligand_efficiency>
-0.347573009518284

> <r_i_glide_ligand_efficiency_sa>
-0.988451403823587

> <r_i_glide_ligand_efficiency_ln>
-1.93306502234448

> <r_i_glide_gscore>
-7.99417921892053

> <r_i_glide_lipo>
-3.41116417589877

> <r_i_glide_hbond>
-0.124491009395399

> <r_i_glide_metal>
0

> <r_i_glide_rewards>
-2.95177026001648

> <r_i_glide_evdw>
-36.6990661621094

> <r_i_glide_ecoul>
-3.6839439868927

> <r_i_glide_erotb>
0.88079113252949

> <r_i_glide_esite>
0

> <r_i_glide_emodel>
-56.3849348347566

> <r_i_glide_energy>
-40.3830101490021

> <r_i_glide_einternal>
5.61884307861328

> <i_i_glide_confnum>
8

> <i_i_glide_posenum>
65

> <r_i_glide_eff_state_penalty>
0

> <s_user_duplicate_titles>
235625

> <s_m_subgroup_title>
dock_pv

> <s_m_subgroupid>
dock_pv1

> <b_m_subgroup_collapsed>
0

$$$$
235058
                    3D
 Schrodinger Suite 2021-1.
 31 32  0  0  1  0            999 V2000
   53.0672   44.8987   -3.1402 C   0  0  0  0  0  0
   52.1983   43.9055   -3.5995 C   0  0  0  0  0  0
   51.0765   43.5802   -2.8358 C   0  0  0  0  0  0
   50.7763   44.2329   -1.6774 N   0  0  0  0  0  0
   51.6201   45.2101   -1.2524 C   0  0  0  0  0  0
   52.7973   45.5568   -1.9341 C   0  0  0  0  0  0
   53.8058   46.5439   -1.3639 C   0  0  0  0  0  0
   53.5131   46.8821   -0.1078 F   0  0  0  0  0  0
   55.0272   46.0108   -1.3713 F   0  0  0  0  0  0
   53.8210   47.6344   -2.1238 F   0  0  0  0  0  0
   50.2894   42.5285   -3.3215 N   0  0  0  0  0  0
   49.6366   41.5842   -2.6087 C   0  0  0  0  0  0
   49.6304   41.5545   -1.3779 O   0  0  0  0  0  0
   48.9822   40.4436   -3.4224 C   0  0  1  0  0  0
   47.6393   39.8926   -2.8980 C   0  0  0  0  0  0
   47.6009   39.2907   -1.4772 C   0  0  0  0  0  0
   46.2630   39.2100   -0.7399 C   0  0  0  0  0  0
   46.8451   37.9896   -1.3049 C   0  0  0  0  0  0
   46.6348   39.8818   -3.6141 O   0  0  0  0  0  0
   48.8832   40.7141   -4.8691 C   0  0  0  0  0  0
   48.8150   40.9342   -6.0026 N   0  0  0  0  0  0
   53.9619   45.1357   -3.6969 H   0  0  0  0  0  0
   52.4237   43.3561   -4.4998 H   0  0  0  0  0  0
   51.3537   45.6791   -0.3162 H   0  0  0  0  0  0
   50.3131   42.4152   -4.3229 H   0  0  0  0  0  0
   48.5070   39.4458   -0.8966 H   0  0  0  0  0  0
   45.3535   39.6036   -1.1978 H   0  0  0  0  0  0
   46.2665   39.3619    0.3292 H   0  0  0  0  0  0
   47.2558   37.2191   -0.6508 H   0  0  0  0  0  0
   46.2757   37.6101   -2.1431 H   0  0  0  0  0  0
   49.6816   39.6114   -3.3598 H   0  0  0  0  0  0
  1  6  1  0  0  0
  1  2  2  0  0  0
  1 22  1  0  0  0
  2  3  1  0  0  0
  2 23  1  0  0  0
  3  4  2  0  0  0
  3 11  1  0  0  0
  4  5  1  0  0  0
  5  6  2  0  0  0
  5 24  1  0  0  0
  6  7  1  0  0  0
  7  8  1  0  0  0
  7  9  1  0  0  0
  7 10  1  0  0  0
 11 12  1  0  0  0
 11 25  1  0  0  0
 12 13  2  0  0  0
 12 14  1  0  0  0
 14 20  1  0  0  0
 14 31  1  0  0  0
 14 15  1  0  0  0
 15 19  2  0  0  0
 15 16  1  0  0  0
 16 18  1  0  0  0
 16 17  1  0  0  0
 16 26  1  0  0  0
 17 18  1  0  0  0
 17 27  1  0  0  0
 17 28  1  0  0  0
 18 29  1  0  0  0
 18 30  1  0  0  0
 20 21  3  0  0  0
M  END
> <s_m_entry_id>
26129

> <s_m_entry_name>
ligand_docking-pose.134

> <s_m_Source_Path>
/home/csk/Desktop/cluster/DUD-E-result/pyrd

> <s_m_Source_File>
ligand_docking-pose.sdf

> <i_m_Source_File_Index>
134

> <i_lp_mmshare_version>
53161

> <i_f3d_flags>
0

> <r_lp_tautomer_probability>
0.995394627300976

> <s_lp_Force_Field>
OPLS_2005

> <r_lp_Energy>
18.084193

> <b_lp_Chiralities_Consistent>
1

> <s_lp_Variant>
235058-1

> <s_i_glide_gridfile>
glide-grid_1d3g

> <i_i_glide_lignum>
108

> <i_i_glide_rotatable_bonds>
6

> <r_i_docking_score>
-7.98107244919411

> <r_i_glide_ligand_efficiency>
-0.380051069009243

> <r_i_glide_ligand_efficiency_sa>
-1.048532081485

> <r_i_glide_ligand_efficiency_ln>
-1.97330403578784

> <r_i_glide_gscore>
-7.98107244919411

> <r_i_glide_lipo>
-2.90588833428974

> <r_i_glide_hbond>
-0.16

> <r_i_glide_metal>
0

> <r_i_glide_rewards>
-3.54613948253951

> <r_i_glide_evdw>
-31.5856170654297

> <r_i_glide_ecoul>
-4.13184309005737

> <r_i_glide_erotb>
0.830012684415221

> <r_i_glide_esite>
0

> <r_i_glide_emodel>
-51.9994720209557

> <r_i_glide_energy>
-35.7174601554871

> <r_i_glide_einternal>
3.06241989135742

> <i_i_glide_confnum>
2

> <i_i_glide_posenum>
9

> <r_i_glide_eff_state_penalty>
0

> <s_user_duplicate_titles>
235058

> <s_m_subgroup_title>
dock_pv

> <s_m_subgroupid>
dock_pv1

> <b_m_subgroup_collapsed>
0

$$$$
235720
                    3D
 Schrodinger Suite 2021-1.
 34 35  0  0  1  0            999 V2000
   54.1225   47.9643   -2.7484 C   0  0  0  0  0  0
   54.1393   46.7666   -1.3341 S   0  0  2  0  0  0
   55.4751   46.0252   -1.4050 O   0  0  0  0  0  0
   52.9044   45.6099   -2.0065 C   0  0  0  0  0  0
   53.1971   44.8883   -3.1644 C   0  0  0  0  0  0
   52.3144   43.9030   -3.6030 C   0  0  0  0  0  0
   51.1698   43.6093   -2.8567 C   0  0  0  0  0  0
   50.8600   44.3625   -1.7100 C   0  0  0  0  0  0
   51.7238   45.3770   -1.2982 C   0  0  0  0  0  0
   50.3719   42.5514   -3.3213 N   0  0  0  0  0  0
   49.7512   41.6106   -2.5737 C   0  0  0  0  0  0
   49.7879   41.6149   -1.3438 O   0  0  0  0  0  0
   49.0864   40.4367   -3.3379 C   0  0  1  0  0  0
   47.7715   39.8396   -2.7756 C   0  0  0  0  0  0
   47.6756   39.4601   -1.2811 C   0  0  0  0  0  0
   46.2888   39.2099   -0.7044 C   0  0  0  0  0  0
   47.2234   38.0608   -0.9091 C   0  0  0  0  0  0
   46.8203   39.6103   -3.5265 O   0  0  0  0  0  0
   48.9352   40.6697   -4.7866 C   0  0  0  0  0  0
   48.8202   40.8570   -5.9223 N   0  0  0  0  0  0
   53.1236   48.3723   -2.8983 H   0  0  0  0  0  0
   54.8086   48.7846   -2.5385 H   0  0  0  0  0  0
   54.4465   47.4796   -3.6690 H   0  0  0  0  0  0
   54.1207   45.0629   -3.6963 H   0  0  0  0  0  0
   52.5582   43.3270   -4.4841 H   0  0  0  0  0  0
   49.9649   44.1653   -1.1383 H   0  0  0  0  0  0
   51.5035   45.9360   -0.4001 H   0  0  0  0  0  0
   50.3860   42.4137   -4.3208 H   0  0  0  0  0  0
   48.4610   39.8722   -0.6537 H   0  0  0  0  0  0
   45.4038   39.2726   -1.3409 H   0  0  0  0  0  0
   46.0834   39.5695    0.3011 H   0  0  0  0  0  0
   47.6840   37.5903   -0.0402 H   0  0  0  0  0  0
   47.0274   37.3431   -1.6988 H   0  0  0  0  0  0
   49.8077   39.6218   -3.2856 H   0  0  0  0  0  0
  1  2  1  0  0  0
  1 21  1  0  0  0
  1 22  1  0  0  0
  1 23  1  0  0  0
  2  3  2  0  0  0
  2  4  1  0  0  0
  4  9  1  0  0  0
  4  5  2  0  0  0
  5  6  1  0  0  0
  5 24  1  0  0  0
  6  7  2  0  0  0
  6 25  1  0  0  0
  7  8  1  0  0  0
  7 10  1  0  0  0
  8  9  2  0  0  0
  8 26  1  0  0  0
  9 27  1  0  0  0
 10 11  1  0  0  0
 10 28  1  0  0  0
 11 12  2  0  0  0
 11 13  1  0  0  0
 13 19  1  0  0  0
 13 34  1  0  0  0
 13 14  1  0  0  0
 14 18  2  0  0  0
 14 15  1  0  0  0
 15 17  1  0  0  0
 15 16  1  0  0  0
 15 29  1  0  0  0
 16 17  1  0  0  0
 16 30  1  0  0  0
 16 31  1  0  0  0
 17 32  1  0  0  0
 17 33  1  0  0  0
 19 20  3  0  0  0
M  END
> <s_m_entry_id>
26134

> <s_m_entry_name>
ligand_docking-pose.139

> <s_m_Source_Path>
/home/csk/Desktop/cluster/DUD-E-result/pyrd

> <s_m_Source_File>
ligand_docking-pose.sdf

> <i_m_Source_File_Index>
139

> <i_lp_mmshare_version>
53161

> <i_f3d_flags>
0

> <r_lp_tautomer_probability>
0.995394627300976

> <s_lp_Force_Field>
OPLS_2005

> <r_lp_Energy>
21.634439

> <b_lp_Chiralities_Consistent>
1

> <s_lp_Variant>
235720-1

> <s_i_glide_gridfile>
glide-grid_1d3g

> <i_i_glide_lignum>
282

> <i_i_glide_rotatable_bonds>
6

> <r_i_docking_score>
-7.87567903477974

> <r_i_glide_ligand_efficiency>
-0.393783951738987

> <r_i_glide_ligand_efficiency_sa>
-1.06889409466529

> <r_i_glide_ligand_efficiency_ln>
-1.97102270512602

> <r_i_glide_gscore>
-7.87567903477974

> <r_i_glide_lipo>
-3.09207643219896

> <r_i_glide_hbond>
-0.158830600459234

> <r_i_glide_metal>
0

> <r_i_glide_rewards>
-3.05920221543384

> <r_i_glide_evdw>
-36.409912109375

> <r_i_glide_ecoul>
-4.06535291671753

> <r_i_glide_erotb>
0.864728756288676

> <r_i_glide_esite>
0

> <r_i_glide_emodel>
-55.6384254355554

> <r_i_glide_energy>
-40.4752650260925

> <r_i_glide_einternal>
7.88046836853027

> <i_i_glide_confnum>
2

> <i_i_glide_posenum>
106

> <r_i_glide_eff_state_penalty>
0

> <s_user_duplicate_titles>
235720

> <s_m_subgroup_title>
dock_pv

> <s_m_subgroupid>
dock_pv1

> <b_m_subgroup_collapsed>
0

$$$$
236058
                    3D
 Schrodinger Suite 2021-1.
 34 35  0  0  1  0            999 V2000
   53.7572   46.7357    0.4256 C   0  0  0  0  0  0
   53.7159   46.5679   -1.0928 C   0  0  0  0  0  0
   54.5676   47.1451   -1.7670 O   0  0  0  0  0  0
   52.7308   45.5982   -1.6541 C   0  0  0  0  0  0
   51.5863   45.2137   -0.9377 C   0  0  0  0  0  0
   50.7451   44.2163   -1.4301 C   0  0  0  0  0  0
   51.0340   43.5922   -2.6524 C   0  0  0  0  0  0
   52.1397   44.0102   -3.3926 C   0  0  0  0  0  0
   52.9814   45.0092   -2.8999 C   0  0  0  0  0  0
   50.2673   42.5468   -3.2010 N   0  0  0  0  0  0
   49.6243   41.5622   -2.5328 C   0  0  0  0  0  0
   49.6256   41.4803   -1.3039 O   0  0  0  0  0  0
   48.9853   40.4349   -3.3779 C   0  0  1  0  0  0
   47.6375   39.8709   -2.8822 C   0  0  0  0  0  0
   47.5756   39.2681   -1.4633 C   0  0  0  0  0  0
   46.2300   39.2098   -0.7408 C   0  0  0  0  0  0
   46.8036   37.9804   -1.3041 C   0  0  0  0  0  0
   46.6449   39.8556   -3.6150 O   0  0  0  0  0  0
   48.8950   40.6925   -4.8262 C   0  0  0  0  0  0
   48.8224   40.8895   -5.9635 N   0  0  0  0  0  0
   53.8376   45.7611    0.9066 H   0  0  0  0  0  0
   54.6149   47.3367    0.7289 H   0  0  0  0  0  0
   52.8450   47.2105    0.7846 H   0  0  0  0  0  0
   51.3446   45.6573    0.0175 H   0  0  0  0  0  0
   49.8782   43.9329   -0.8517 H   0  0  0  0  0  0
   52.3745   43.5455   -4.3392 H   0  0  0  0  0  0
   53.8498   45.2891   -3.4808 H   0  0  0  0  0  0
   50.3370   42.4511   -4.2030 H   0  0  0  0  0  0
   48.4752   39.4046   -0.8708 H   0  0  0  0  0  0
   45.3285   39.6098   -1.2080 H   0  0  0  0  0  0
   46.2222   39.3567    0.3301 H   0  0  0  0  0  0
   47.2016   37.2036   -0.6499 H   0  0  0  0  0  0
   46.2475   37.6106   -2.1552 H   0  0  0  0  0  0
   49.6908   39.6100   -3.3070 H   0  0  0  0  0  0
  1  2  1  0  0  0
  1 21  1  0  0  0
  1 22  1  0  0  0
  1 23  1  0  0  0
  2  3  2  0  0  0
  2  4  1  0  0  0
  4  9  1  0  0  0
  4  5  2  0  0  0
  5  6  1  0  0  0
  5 24  1  0  0  0
  6  7  2  0  0  0
  6 25  1  0  0  0
  7  8  1  0  0  0
  7 10  1  0  0  0
  8  9  2  0  0  0
  8 26  1  0  0  0
  9 27  1  0  0  0
 10 11  1  0  0  0
 10 28  1  0  0  0
 11 12  2  0  0  0
 11 13  1  0  0  0
 13 19  1  0  0  0
 13 34  1  0  0  0
 13 14  1  0  0  0
 14 18  2  0  0  0
 14 15  1  0  0  0
 15 17  1  0  0  0
 15 16  1  0  0  0
 15 29  1  0  0  0
 16 17  1  0  0  0
 16 30  1  0  0  0
 16 31  1  0  0  0
 17 32  1  0  0  0
 17 33  1  0  0  0
 19 20  3  0  0  0
M  END
> <s_m_entry_id>
26135

> <s_m_entry_name>
ligand_docking-pose.140

> <s_m_Source_Path>
/home/csk/Desktop/cluster/DUD-E-result/pyrd

> <s_m_Source_File>
ligand_docking-pose.sdf

> <i_m_Source_File_Index>
140

> <i_lp_mmshare_version>
53161

> <i_f3d_flags>
0

> <r_lp_tautomer_probability>
0.995344857569611

> <s_lp_Force_Field>
OPLS_2005

> <r_lp_Energy>
30.235318

> <b_lp_Chiralities_Consistent>
1

> <s_lp_Variant>
236058-1

> <s_i_glide_gridfile>
glide-grid_1d3g

> <i_i_glide_lignum>
243

> <i_i_glide_rotatable_bonds>
6

> <r_i_docking_score>
-7.87194056348706

> <r_i_glide_ligand_efficiency>
-0.393597028174353

> <r_i_glide_ligand_efficiency_sa>
-1.068386706049

> <r_i_glide_ligand_efficiency_ln>
-1.9700870890645

> <r_i_glide_gscore>
-7.87194056348706

> <r_i_glide_lipo>
-3.23202786786393

> <r_i_glide_hbond>
-0.16

> <r_i_glide_metal>
0

> <r_i_glide_rewards>
-3.23939235668381

> <r_i_glide_evdw>
-33.4861145019531

> <r_i_glide_ecoul>
-3.63611912727356

> <r_i_glide_erotb>
0.979203255249372

> <r_i_glide_esite>
0

> <r_i_glide_emodel>
-54.1238013747349

> <r_i_glide_energy>
-37.1222336292267

> <r_i_glide_einternal>
2.38905048370361

> <i_i_glide_confnum>
2

> <i_i_glide_posenum>
2

> <r_i_glide_eff_state_penalty>
0

> <s_user_duplicate_titles>
236058

> <s_m_subgroup_title>
dock_pv

> <s_m_subgroupid>
dock_pv1

> <b_m_subgroup_collapsed>
0

$$$$
235393
                    3D
 Schrodinger Suite 2021-1.
 35 36  0  0  1  0            999 V2000
   54.8400   47.2099    0.7956 C   0  0  0  0  0  0
   53.8127   46.5568    0.0672 O   0  0  0  0  0  0
   53.8199   46.5479   -1.2878 C   0  0  0  0  0  0
   54.6582   47.1372   -1.9762 O   0  0  0  0  0  0
   52.8022   45.6085   -1.8505 C   0  0  0  0  0  0
   53.0576   44.9844   -3.0794 C   0  0  0  0  0  0
   52.1987   43.9980   -3.5643 C   0  0  0  0  0  0
   51.0846   43.6102   -2.8173 C   0  0  0  0  0  0
   50.7831   44.2871   -1.6257 C   0  0  0  0  0  0
   51.6270   45.2874   -1.1509 C   0  0  0  0  0  0
   50.3146   42.5464   -3.3132 N   0  0  0  0  0  0
   49.6833   41.5976   -2.5832 C   0  0  0  0  0  0
   49.7069   41.5911   -1.3526 O   0  0  0  0  0  0
   49.0307   40.4231   -3.3538 C   0  0  1  0  0  0
   47.7131   39.8320   -2.7915 C   0  0  0  0  0  0
   47.6237   39.4570   -1.2938 C   0  0  0  0  0  0
   46.2361   39.2100   -0.7023 C   0  0  0  0  0  0
   47.1717   38.0608   -0.9127 C   0  0  0  0  0  0
   46.7594   39.6093   -3.5384 O   0  0  0  0  0  0
   48.8915   40.6507   -4.8031 C   0  0  0  0  0  0
   48.7850   40.8334   -5.9398 N   0  0  0  0  0  0
   54.5957   47.2153    1.8566 H   0  0  0  0  0  0
   55.7907   46.6901    0.6650 H   0  0  0  0  0  0
   54.9666   48.2417    0.4715 H   0  0  0  0  0  0
   53.9435   45.2308   -3.6542 H   0  0  0  0  0  0
   52.4365   43.4982   -4.4928 H   0  0  0  0  0  0
   49.9052   44.0373   -1.0490 H   0  0  0  0  0  0
   51.3877   45.7638   -0.2088 H   0  0  0  0  0  0
   50.3567   42.4121   -4.3134 H   0  0  0  0  0  0
   48.4200   39.8552   -0.6732 H   0  0  0  0  0  0
   45.3500   39.2808   -1.3365 H   0  0  0  0  0  0
   46.0453   39.5826    0.3012 H   0  0  0  0  0  0
   47.6335   37.5933   -0.0424 H   0  0  0  0  0  0
   46.9691   37.3412   -1.6984 H   0  0  0  0  0  0
   49.7543   39.6122   -3.2929 H   0  0  0  0  0  0
  1  2  1  0  0  0
  1 22  1  0  0  0
  1 23  1  0  0  0
  1 24  1  0  0  0
  2  3  1  0  0  0
  3  4  2  0  0  0
  3  5  1  0  0  0
  5 10  1  0  0  0
  5  6  2  0  0  0
  6  7  1  0  0  0
  6 25  1  0  0  0
  7  8  2  0  0  0
  7 26  1  0  0  0
  8  9  1  0  0  0
  8 11  1  0  0  0
  9 10  2  0  0  0
  9 27  1  0  0  0
 10 28  1  0  0  0
 11 12  1  0  0  0
 11 29  1  0  0  0
 12 13  2  0  0  0
 12 14  1  0  0  0
 14 20  1  0  0  0
 14 35  1  0  0  0
 14 15  1  0  0  0
 15 19  2  0  0  0
 15 16  1  0  0  0
 16 18  1  0  0  0
 16 17  1  0  0  0
 16 30  1  0  0  0
 17 18  1  0  0  0
 17 31  1  0  0  0
 17 32  1  0  0  0
 18 33  1  0  0  0
 18 34  1  0  0  0
 20 21  3  0  0  0
M  END
> <s_m_entry_id>
26137

> <s_m_entry_name>
ligand_docking-pose.142

> <s_m_Source_Path>
/home/csk/Desktop/cluster/DUD-E-result/pyrd

> <s_m_Source_File>
ligand_docking-pose.sdf

> <i_m_Source_File_Index>
142

> <i_lp_mmshare_version>
53161

> <i_f3d_flags>
0

> <r_lp_tautomer_probability>
0.995394627300976

> <s_lp_Force_Field>
OPLS_2005

> <r_lp_Energy>
27.018614

> <b_lp_Chiralities_Consistent>
1

> <s_lp_Variant>
235393-1

> <s_i_glide_gridfile>
glide-grid_1d3g

> <i_i_glide_lignum>
277

> <i_i_glide_rotatable_bonds>
7

> <r_i_docking_score>
-7.82068279406544

> <r_i_glide_ligand_efficiency>
-0.372413466384068

> <r_i_glide_ligand_efficiency_sa>
-1.0274605149742

> <r_i_glide_ligand_efficiency_ln>
-1.93364801765509

> <r_i_glide_gscore>
-7.82068279406544

> <r_i_glide_lipo>
-3.14829703870044

> <r_i_glide_hbond>
-0.16

> <r_i_glide_metal>
0

> <r_i_glide_rewards>
-3.12445885386393

> <r_i_glide_evdw>
-37.3505210876465

> <r_i_glide_ecoul>
-4.18757152557373

> <r_i_glide_erotb>
1.10773488171732

> <r_i_glide_esite>
0

> <r_i_glide_emodel>
-55.3795568068105

> <r_i_glide_energy>
-41.5380926132202

> <r_i_glide_einternal>
11.5016422271729

> <i_i_glide_confnum>
20

> <i_i_glide_posenum>
172

> <r_i_glide_eff_state_penalty>
0

> <s_user_duplicate_titles>
235393

> <s_m_subgroup_title>
dock_pv

> <s_m_subgroupid>
dock_pv1

> <b_m_subgroup_collapsed>
0

$$$$
235072
                    3D
 Schrodinger Suite 2021-1.
 32 33  0  0  1  0            999 V2000
   51.6682   46.0231    0.0378 C   0  0  0  0  0  0
   51.8854   45.3323   -1.2984 C   0  0  0  0  0  0
   51.0006   44.3235   -1.6990 C   0  0  0  0  0  0
   51.2288   43.6101   -2.8891 C   0  0  0  0  0  0
   52.3267   43.9451   -3.6893 C   0  0  0  0  0  0
   53.2101   44.9524   -3.2922 C   0  0  0  0  0  0
   52.9962   45.6397   -2.0990 C   0  0  0  0  0  0
   54.2538   46.9829   -1.5931 Br  0  0  0  0  0  0
   50.4179   42.5553   -3.3361 N   0  0  0  0  0  0
   49.8119   41.6121   -2.5810 C   0  0  0  0  0  0
   49.8751   41.6099   -1.3517 O   0  0  0  0  0  0
   49.1284   40.4488   -3.3413 C   0  0  1  0  0  0
   47.8181   39.8572   -2.7659 C   0  0  0  0  0  0
   47.7266   39.4876   -1.2693 C   0  0  0  0  0  0
   46.3447   39.1792   -0.7008 C   0  0  0  0  0  0
   47.3290   38.0683   -0.9017 C   0  0  0  0  0  0
   46.8664   39.6105   -3.5112 O   0  0  0  0  0  0
   48.9552   40.6894   -4.7863 C   0  0  0  0  0  0
   48.8200   40.8829   -5.9193 N   0  0  0  0  0  0
   51.2219   47.0063   -0.1005 H   0  0  0  0  0  0
   51.0456   45.4196    0.6967 H   0  0  0  0  0  0
   52.6141   46.1550    0.5625 H   0  0  0  0  0  0
   50.1492   44.0857   -1.0773 H   0  0  0  0  0  0
   52.5156   43.3949   -4.5977 H   0  0  0  0  0  0
   54.0670   45.2089   -3.8952 H   0  0  0  0  0  0
   50.4036   42.4261   -4.3359 H   0  0  0  0  0  0
   48.4885   39.9316   -0.6359 H   0  0  0  0  0  0
   45.4624   39.2100   -1.3428 H   0  0  0  0  0  0
   46.1189   39.5347    0.3010 H   0  0  0  0  0  0
   47.8065   37.6143   -0.0320 H   0  0  0  0  0  0
   47.1773   37.3449   -1.6990 H   0  0  0  0  0  0
   49.8454   39.6295   -3.2986 H   0  0  0  0  0  0
  1  2  1  0  0  0
  1 20  1  0  0  0
  1 21  1  0  0  0
  1 22  1  0  0  0
  2  7  1  0  0  0
  2  3  2  0  0  0
  3  4  1  0  0  0
  3 23  1  0  0  0
  4  5  2  0  0  0
  4  9  1  0  0  0
  5  6  1  0  0  0
  5 24  1  0  0  0
  6  7  2  0  0  0
  6 25  1  0  0  0
  7  8  1  0  0  0
  9 10  1  0  0  0
  9 26  1  0  0  0
 10 11  2  0  0  0
 10 12  1  0  0  0
 12 18  1  0  0  0
 12 32  1  0  0  0
 12 13  1  0  0  0
 13 17  2  0  0  0
 13 14  1  0  0  0
 14 16  1  0  0  0
 14 15  1  0  0  0
 14 27  1  0  0  0
 15 16  1  0  0  0
 15 28  1  0  0  0
 15 29  1  0  0  0
 16 30  1  0  0  0
 16 31  1  0  0  0
 18 19  3  0  0  0
M  END
> <s_m_entry_id>
26139

> <s_m_entry_name>
ligand_docking-pose.144

> <s_m_Source_Path>
/home/csk/Desktop/cluster/DUD-E-result/pyrd

> <s_m_Source_File>
ligand_docking-pose.sdf

> <i_m_Source_File_Index>
144

> <i_lp_mmshare_version>
53161

> <i_f3d_flags>
0

> <r_lp_tautomer_probability>
0.995394627300976

> <s_lp_Force_Field>
OPLS_2005

> <r_lp_Energy>
23.593594

> <b_lp_Chiralities_Consistent>
1

> <s_lp_Variant>
235072-1

> <s_i_glide_gridfile>
glide-grid_1d3g

> <i_i_glide_lignum>
164

> <i_i_glide_rotatable_bonds>
5

> <r_i_docking_score>
-7.80409468857849

> <r_i_glide_ligand_efficiency>
-0.410741825714657

> <r_i_glide_ligand_efficiency_sa>
-1.09602416386033

> <r_i_glide_ligand_efficiency_ln>
-1.97850562013959

> <r_i_glide_gscore>
-7.80409468857849

> <r_i_glide_lipo>
-3.46663757679999

> <r_i_glide_hbond>
-0.153441318574483

> <r_i_glide_metal>
0

> <r_i_glide_rewards>
-2.55829545145969

> <r_i_glide_evdw>
-35.0983734130859

> <r_i_glide_ecoul>
-3.96864604949951

> <r_i_glide_erotb>
0.7244952363349

> <r_i_glide_esite>
0

> <r_i_glide_emodel>
-54.3721505404195

> <r_i_glide_energy>
-39.0670194625854

> <r_i_glide_einternal>
4.65877866744995

> <i_i_glide_confnum>
7

> <i_i_glide_posenum>
228

> <r_i_glide_eff_state_penalty>
0

> <s_user_duplicate_titles>
235072

> <s_m_subgroup_title>
dock_pv

> <s_m_subgroupid>
dock_pv1

> <b_m_subgroup_collapsed>
0

$$$$
234668
                    3D
 Schrodinger Suite 2021-1.
 40 42  0  0  1  0            999 V2000
   50.8886   43.6305   -2.1001 C   0  0  0  0  0  0
   49.8569   42.7295   -2.3617 C   0  0  0  0  0  0
   49.6419   42.2713   -3.6700 C   0  0  0  0  0  0
   50.4222   42.7558   -4.6913 C   0  0  0  0  0  0
   51.5243   43.5202   -4.4120 C   0  0  0  0  0  0
   51.7640   44.0114   -3.1316 C   0  0  0  0  0  0
   52.9139   44.8103   -2.9404 N   0  0  0  0  0  0
   53.1070   45.7564   -1.9924 C   0  0  0  0  0  0
   52.2101   46.1709   -1.2594 O   0  0  0  0  0  0
   54.5374   46.3075   -1.8101 C   0  0  1  0  0  0
   54.8860   47.5853   -2.5882 C   0  0  0  0  0  0
   56.3837   47.9203   -2.7024 C   0  0  0  0  0  0
   56.8376   48.9719   -3.7044 C   0  0  0  0  0  0
   56.8185   49.3064   -2.2453 C   0  0  0  0  0  0
   54.0246   48.3588   -3.0037 O   0  0  0  0  0  0
   54.8850   46.5821   -0.4061 C   0  0  0  0  0  0
   55.1644   46.8041    0.6943 N   0  0  0  0  0  0
   48.7096   41.3711   -4.1176 O   0  0  0  0  0  0
   48.0284   40.4644   -3.3553 C   0  0  0  0  0  0
   48.4228   40.0090   -2.0940 C   0  0  0  0  0  0
   47.6232   39.0941   -1.4193 C   0  0  0  0  0  0
   46.4804   38.6132   -2.0380 C   0  0  0  0  0  0
   46.0709   39.0866   -3.2770 C   0  0  0  0  0  0
   46.8535   40.0096   -3.9381 C   0  0  0  0  0  0
   45.6183   37.3464   -1.2990 Cl  0  0  0  0  0  0
   51.0373   43.9746   -1.0867 H   0  0  0  0  0  0
   49.2230   42.4351   -1.5446 H   0  0  0  0  0  0
   50.2521   42.4183   -5.7037 H   0  0  0  0  0  0
   52.1625   43.6097   -5.2533 H   0  0  0  0  0  0
   53.6528   44.6646   -3.6093 H   0  0  0  0  0  0
   57.0344   47.0876   -2.4460 H   0  0  0  0  0  0
   56.1075   49.4507   -4.3591 H   0  0  0  0  0  0
   57.7981   48.8314   -4.2032 H   0  0  0  0  0  0
   57.7630   49.3983   -1.7044 H   0  0  0  0  0  0
   56.0712   50.0107   -1.8762 H   0  0  0  0  0  0
   55.2378   45.5394   -2.1341 H   0  0  0  0  0  0
   49.3482   40.3215   -1.6397 H   0  0  0  0  0  0
   47.9272   38.7118   -0.4546 H   0  0  0  0  0  0
   45.1849   38.7212   -3.7628 H   0  0  0  0  0  0
   46.5510   40.3760   -4.9071 H   0  0  0  0  0  0
  1  6  1  0  0  0
  1  2  2  0  0  0
  1 26  1  0  0  0
  2  3  1  0  0  0
  2 27  1  0  0  0
  3  4  2  0  0  0
  3 18  1  0  0  0
  4  5  1  0  0  0
  4 28  1  0  0  0
  5  6  2  0  0  0
  5 29  1  0  0  0
  6  7  1  0  0  0
  7  8  1  0  0  0
  7 30  1  0  0  0
  8  9  2  0  0  0
  8 10  1  0  0  0
 10 16  1  0  0  0
 10 36  1  0  0  0
 10 11  1  0  0  0
 11 15  2  0  0  0
 11 12  1  0  0  0
 12 14  1  0  0  0
 12 13  1  0  0  0
 12 31  1  0  0  0
 13 14  1  0  0  0
 13 32  1  0  0  0
 13 33  1  0  0  0
 14 34  1  0  0  0
 14 35  1  0  0  0
 16 17  3  0  0  0
 18 19  1  0  0  0
 19 24  1  0  0  0
 19 20  2  0  0  0
 20 21  1  0  0  0
 20 37  1  0  0  0
 21 22  2  0  0  0
 21 38  1  0  0  0
 22 23  1  0  0  0
 22 25  1  0  0  0
 23 24  2  0  0  0
 23 39  1  0  0  0
 24 40  1  0  0  0
M  END
> <s_m_entry_id>
26140

> <s_m_entry_name>
ligand_docking-pose.145

> <s_m_Source_Path>
/home/csk/Desktop/cluster/DUD-E-result/pyrd

> <s_m_Source_File>
ligand_docking-pose.sdf

> <i_m_Source_File_Index>
145

> <i_lp_mmshare_version>
53161

> <i_f3d_flags>
0

> <r_lp_tautomer_probability>
0.995394627300976

> <s_lp_Force_Field>
OPLS_2005

> <r_lp_Energy>
28.945611

> <b_lp_Chiralities_Consistent>
1

> <s_lp_Variant>
234668-1

> <s_i_glide_gridfile>
glide-grid_1d3g

> <i_i_glide_lignum>
72

> <i_i_glide_rotatable_bonds>
7

> <r_i_docking_score>
-7.78955819745595

> <r_i_glide_ligand_efficiency>
-0.311582327898238

> <r_i_glide_ligand_efficiency_sa>
-0.911072252710562

> <r_i_glide_ligand_efficiency_ln>
-1.84635872701925

> <r_i_glide_gscore>
-7.78955819745595

> <r_i_glide_lipo>
-4.68148685856034

> <r_i_glide_hbond>
0

> <r_i_glide_metal>
0

> <r_i_glide_rewards>
-2.54001638265497

> <r_i_glide_evdw>
-27.3282032012939

> <r_i_glide_ecoul>
-0.751299142837524

> <r_i_glide_erotb>
0.911050075249689

> <r_i_glide_esite>
0

> <r_i_glide_emodel>
-41.2633733383706

> <r_i_glide_energy>
-28.0795023441315

> <r_i_glide_einternal>
6.56709623336792

> <i_i_glide_confnum>
30

> <i_i_glide_posenum>
1

> <r_i_glide_eff_state_penalty>
0

> <s_user_duplicate_titles>
234668

> <s_m_subgroup_title>
dock_pv

> <s_m_subgroupid>
dock_pv1

> <b_m_subgroup_collapsed>
0

$$$$
235085
                    3D
 Schrodinger Suite 2021-1.
 32 33  0  0  1  0            999 V2000
   51.6239   46.0356    0.0401 C   0  0  0  0  0  0
   51.8502   45.3486   -1.2975 C   0  0  0  0  0  0
   50.9790   44.3280   -1.6988 C   0  0  0  0  0  0
   51.2228   43.6101   -2.8821 C   0  0  0  0  0  0
   52.3263   43.9450   -3.6716 C   0  0  0  0  0  0
   53.1932   44.9676   -3.2780 C   0  0  0  0  0  0
   52.9564   45.6733   -2.0983 C   0  0  0  0  0  0
   54.0537   46.9358   -1.6539 Cl  0  0  0  0  0  0
   50.4210   42.5491   -3.3313 N   0  0  0  0  0  0
   49.8073   41.6098   -2.5776 C   0  0  0  0  0  0
   49.8616   41.6100   -1.3482 O   0  0  0  0  0  0
   49.1248   40.4461   -3.3395 C   0  0  1  0  0  0
   47.8135   39.8550   -2.7663 C   0  0  0  0  0  0
   47.7227   39.4833   -1.2702 C   0  0  0  0  0  0
   46.3402   39.1808   -0.7020 C   0  0  0  0  0  0
   47.3186   38.0660   -0.9019 C   0  0  0  0  0  0
   46.8627   39.6101   -3.5136 O   0  0  0  0  0  0
   48.9542   40.6876   -4.7853 C   0  0  0  0  0  0
   48.8226   40.8810   -5.9181 N   0  0  0  0  0  0
   51.2097   47.0331   -0.0999 H   0  0  0  0  0  0
   50.9675   45.4466    0.6808 H   0  0  0  0  0  0
   52.5633   46.1387    0.5836 H   0  0  0  0  0  0
   50.1270   44.0853   -1.0803 H   0  0  0  0  0  0
   52.5329   43.3860   -4.5710 H   0  0  0  0  0  0
   54.0548   45.2146   -3.8795 H   0  0  0  0  0  0
   50.4133   42.4158   -4.3315 H   0  0  0  0  0  0
   48.4873   39.9253   -0.6380 H   0  0  0  0  0  0
   45.4576   39.2104   -1.3438 H   0  0  0  0  0  0
   46.1165   39.5343    0.3010 H   0  0  0  0  0  0
   47.7869   37.6100   -0.0297 H   0  0  0  0  0  0
   47.1619   37.3438   -1.6987 H   0  0  0  0  0  0
   49.8407   39.6260   -3.2990 H   0  0  0  0  0  0
  1  2  1  0  0  0
  1 20  1  0  0  0
  1 21  1  0  0  0
  1 22  1  0  0  0
  2  7  1  0  0  0
  2  3  2  0  0  0
  3  4  1  0  0  0
  3 23  1  0  0  0
  4  5  2  0  0  0
  4  9  1  0  0  0
  5  6  1  0  0  0
  5 24  1  0  0  0
  6  7  2  0  0  0
  6 25  1  0  0  0
  7  8  1  0  0  0
  9 10  1  0  0  0
  9 26  1  0  0  0
 10 11  2  0  0  0
 10 12  1  0  0  0
 12 18  1  0  0  0
 12 32  1  0  0  0
 12 13  1  0  0  0
 13 17  2  0  0  0
 13 14  1  0  0  0
 14 16  1  0  0  0
 14 15  1  0  0  0
 14 27  1  0  0  0
 15 16  1  0  0  0
 15 28  1  0  0  0
 15 29  1  0  0  0
 16 30  1  0  0  0
 16 31  1  0  0  0
 18 19  3  0  0  0
M  END
> <s_m_entry_id>
26141

> <s_m_entry_name>
ligand_docking-pose.146

> <s_m_Source_Path>
/home/csk/Desktop/cluster/DUD-E-result/pyrd

> <s_m_Source_File>
ligand_docking-pose.sdf

> <i_m_Source_File_Index>
146

> <i_lp_mmshare_version>
53161

> <i_f3d_flags>
0

> <r_lp_tautomer_probability>
0.995394627300976

> <s_lp_Force_Field>
OPLS_2005

> <r_lp_Energy>
23.655298

> <b_lp_Chiralities_Consistent>
1

> <s_lp_Variant>
235085-1

> <s_i_glide_gridfile>
glide-grid_1d3g

> <i_i_glide_lignum>
182

> <i_i_glide_rotatable_bonds>
5

> <r_i_docking_score>
-7.76824328918757

> <r_i_glide_ligand_efficiency>
-0.408854909957241

> <r_i_glide_ligand_efficiency_sa>
-1.09098911474718

> <r_i_glide_ligand_efficiency_ln>
-1.96941652037654

> <r_i_glide_gscore>
-7.76824328918757

> <r_i_glide_lipo>
-3.48356835818269

> <r_i_glide_hbond>
-0.153235568177185

> <r_i_glide_metal>
0

> <r_i_glide_rewards>
-2.83902633040048

> <r_i_glide_evdw>
-32.8180809020996

> <r_i_glide_ecoul>
-3.94403767585754

> <r_i_glide_erotb>
0.940096664056399

> <r_i_glide_esite>
0

> <r_i_glide_emodel>
-51.079974369822

> <r_i_glide_energy>
-36.7621185779572

> <r_i_glide_einternal>
4.05236196517944

> <i_i_glide_confnum>
2

> <i_i_glide_posenum>
338

> <r_i_glide_eff_state_penalty>
0

> <s_user_duplicate_titles>
235085

> <s_m_subgroup_title>
dock_pv

> <s_m_subgroupid>
dock_pv1

> <b_m_subgroup_collapsed>
0

$$$$
235602
                    3D
 Schrodinger Suite 2021-1.
 31 32  0  0  1  0            999 V2000
   50.1290   42.9392   -4.2324 C   0  0  0  0  0  0
   49.2233   41.9909   -4.6849 C   0  0  0  0  0  0
   48.7177   41.0227   -3.8076 C   0  0  0  0  0  0
   49.2018   40.9620   -2.4959 C   0  0  0  0  0  0
   50.0770   41.9331   -2.0304 C   0  0  0  0  0  0
   50.5035   42.9459   -2.8919 C   0  0  0  0  0  0
   51.2935   44.0099   -2.4614 N   0  0  0  0  0  0
   51.1793   44.6951   -1.2996 C   0  0  0  0  0  0
   50.3449   44.4100   -0.4401 O   0  0  0  0  0  0
   52.0980   45.9177   -1.0561 C   0  0  2  0  0  0
   53.4431   46.0389   -1.8207 C   0  0  0  0  0  0
   54.4208   47.1440   -1.3705 C   0  0  0  0  0  0
   55.9159   46.8840   -1.5228 C   0  0  0  0  0  0
   55.2416   47.8509   -2.4433 C   0  0  0  0  0  0
   53.7145   45.3252   -2.7899 O   0  0  0  0  0  0
   52.3012   46.1938    0.3759 C   0  0  0  0  0  0
   52.4629   46.4100    1.4998 N   0  0  0  0  0  0
   47.5709   40.1804   -4.2121 N   0  3  0  0  0  0
   47.1481   39.3422   -3.4200 O   0  5  0  0  0  0
   47.0485   40.4101   -5.3010 O   0  0  0  0  0  0
   50.4717   43.7056   -4.9115 H   0  0  0  0  0  0
   48.8633   42.0661   -5.7003 H   0  0  0  0  0  0
   48.8224   40.2263   -1.8012 H   0  0  0  0  0  0
   50.3864   41.9181   -0.9956 H   0  0  0  0  0  0
   51.9710   44.3576   -3.1274 H   0  0  0  0  0  0
   54.0722   47.7238   -0.5161 H   0  0  0  0  0  0
   56.2603   45.9270   -1.9199 H   0  0  0  0  0  0
   56.5851   47.2678   -0.7510 H   0  0  0  0  0  0
   55.4377   48.9168   -2.3228 H   0  0  0  0  0  0
   55.1066   47.5784   -3.4921 H   0  0  0  0  0  0
   51.5058   46.7631   -1.4049 H   0  0  0  0  0  0
  1  6  1  0  0  0
  1  2  2  0  0  0
  1 21  1  0  0  0
  2  3  1  0  0  0
  2 22  1  0  0  0
  3  4  2  0  0  0
  3 18  1  0  0  0
  4  5  1  0  0  0
  4 23  1  0  0  0
  5  6  2  0  0  0
  5 24  1  0  0  0
  6  7  1  0  0  0
  7  8  1  0  0  0
  7 25  1  0  0  0
  8  9  2  0  0  0
  8 10  1  0  0  0
 10 16  1  0  0  0
 10 31  1  0  0  0
 10 11  1  0  0  0
 11 15  2  0  0  0
 11 12  1  0  0  0
 12 14  1  0  0  0
 12 13  1  0  0  0
 12 26  1  0  0  0
 13 14  1  0  0  0
 13 27  1  0  0  0
 13 28  1  0  0  0
 14 29  1  0  0  0
 14 30  1  0  0  0
 16 17  3  0  0  0
 18 19  1  0  0  0
 18 20  2  0  0  0
M  CHG  2  18   1  19  -1
M  END
> <s_m_entry_id>
26144

> <s_m_entry_name>
ligand_docking-pose.149

> <s_m_Source_Path>
/home/csk/Desktop/cluster/DUD-E-result/pyrd

> <s_m_Source_File>
ligand_docking-pose.sdf

> <i_m_Source_File_Index>
149

> <i_lp_mmshare_version>
53161

> <i_f3d_flags>
0

> <r_lp_tautomer_probability>
0.995394627300976

> <s_lp_Force_Field>
OPLS_2005

> <r_lp_Energy>
25.943956

> <b_lp_Chiralities_Consistent>
1

> <s_lp_Variant>
235602-2

> <s_i_glide_gridfile>
glide-grid_1d3g

> <i_i_glide_lignum>
71

> <i_i_glide_rotatable_bonds>
6

> <r_i_docking_score>
-7.68676586937258

> <r_i_glide_ligand_efficiency>
-0.384338293468629

> <r_i_glide_ligand_efficiency_sa>
-1.0432546334815

> <r_i_glide_ligand_efficiency_ln>
-1.92374397059781

> <r_i_glide_gscore>
-7.68676586937258

> <r_i_glide_lipo>
-3.16088340223812

> <r_i_glide_hbond>
0

> <r_i_glide_metal>
0

> <r_i_glide_rewards>
-3.37921630358473

> <r_i_glide_evdw>
-41.8630485534668

> <r_i_glide_ecoul>
0.225580155849457

> <r_i_glide_erotb>
0.960908911163261

> <r_i_glide_esite>
-0.0482596704170673

> <r_i_glide_emodel>
-45.9069336902037

> <r_i_glide_energy>
-41.6374683976173

> <r_i_glide_einternal>
1.73346531391144

> <i_i_glide_confnum>
1

> <i_i_glide_posenum>
85

> <r_i_glide_eff_state_penalty>
0

> <s_user_duplicate_titles>
235602

> <s_m_subgroup_title>
dock_pv

> <s_m_subgroupid>
dock_pv1

> <b_m_subgroup_collapsed>
0

$$$$
236035
                    3D
 Schrodinger Suite 2021-1.
 27 27  0  0  1  0            999 V2000
   46.0229   38.7233   -3.2990 C   0  0  0  0  0  0
   46.9744   39.2085   -2.7158 C   0  0  0  0  0  0
   48.0230   39.9802   -2.1478 C   0  0  0  0  0  0
   48.8254   40.7859   -2.8984 C   0  0  0  0  0  0
   48.7111   40.8105   -4.3332 C   0  0  0  0  0  0
   48.5987   40.8108   -5.4873 N   0  0  0  0  0  0
   49.7929   41.6880   -2.2839 C   0  0  0  0  0  0
   50.0231   41.6974   -1.0721 O   0  0  0  0  0  0
   50.3741   42.5664   -3.1312 N   0  0  0  0  0  0
   51.2230   43.6192   -2.7688 C   0  0  0  0  0  0
   50.9969   44.4104   -1.6309 C   0  0  0  0  0  0
   51.8844   45.4325   -1.2990 C   0  0  0  0  0  0
   53.0087   45.6714   -2.0991 C   0  0  0  0  0  0
   53.2075   44.9107   -3.2560 C   0  0  0  0  0  0
   52.3088   43.8997   -3.6019 C   0  0  0  0  0  0
   54.0419   46.7313   -1.7149 C   0  0  0  0  0  0
   53.9189   47.1152   -0.4433 F   0  0  0  0  0  0
   55.2777   46.2546   -1.8762 F   0  0  0  0  0  0
   53.8946   47.7990   -2.4991 F   0  0  0  0  0  0
   48.0488   39.8269   -0.7950 O   0  0  0  0  0  0
   45.2230   38.3701   -3.9094 H   0  0  0  0  0  0
   50.2978   42.3840   -4.1199 H   0  0  0  0  0  0
   50.1409   44.2374   -0.9951 H   0  0  0  0  0  0
   51.7030   46.0191   -0.4099 H   0  0  0  0  0  0
   54.0701   45.1079   -3.8736 H   0  0  0  0  0  0
   52.4867   43.3087   -4.4885 H   0  0  0  0  0  0
   47.3761   39.1940   -0.5333 H   0  0  0  0  0  0
  1  2  3  0  0  0
  1 21  1  0  0  0
  2  3  1  0  0  0
  3  4  2  0  0  0
  3 20  1  0  0  0
  4  5  1  0  0  0
  4  7  1  0  0  0
  5  6  3  0  0  0
  7  8  2  0  0  0
  7  9  1  0  0  0
  9 10  1  0  0  0
  9 22  1  0  0  0
 10 15  1  0  0  0
 10 11  2  0  0  0
 11 12  1  0  0  0
 11 23  1  0  0  0
 12 13  2  0  0  0
 12 24  1  0  0  0
 13 14  1  0  0  0
 13 16  1  0  0  0
 14 15  2  0  0  0
 14 25  1  0  0  0
 15 26  1  0  0  0
 16 17  1  0  0  0
 16 18  1  0  0  0
 16 19  1  0  0  0
 20 27  1  0  0  0
M  END
> <s_m_entry_id>
26145

> <s_m_entry_name>
ligand_docking-pose.150

> <s_m_Source_Path>
/home/csk/Desktop/cluster/DUD-E-result/pyrd

> <s_m_Source_File>
ligand_docking-pose.sdf

> <i_m_Source_File_Index>
150

> <i_lp_mmshare_version>
53161

> <i_f3d_flags>
0

> <r_lp_tautomer_probability>
1

> <s_lp_Force_Field>
OPLS_2005

> <r_lp_Energy>
18.581425

> <b_lp_Chiralities_Consistent>
1

> <s_lp_Variant>
236035-1

> <s_i_glide_gridfile>
glide-grid_1d3g

> <i_i_glide_lignum>
209

> <i_i_glide_rotatable_bonds>
6

> <r_i_docking_score>
-7.68340029937234

> <r_i_glide_ligand_efficiency>
-0.384170014968617

> <r_i_glide_ligand_efficiency_sa>
-1.04279785535703

> <r_i_glide_ligand_efficiency_ln>
-1.92290167943068

> <r_i_glide_gscore>
-7.68340029937234

> <r_i_glide_lipo>
-3.08840255032303

> <r_i_glide_hbond>
-0.00730113518079477

> <r_i_glide_metal>
0

> <r_i_glide_rewards>
-3.66055658093526

> <r_i_glide_evdw>
-32.2807540893555

> <r_i_glide_ecoul>
-3.08650827407837

> <r_i_glide_erotb>
1.14987391264627

> <r_i_glide_esite>
0

> <r_i_glide_emodel>
-49.1614596040714

> <r_i_glide_energy>
-35.3672623634338

> <r_i_glide_einternal>
4.35497856140137

> <i_i_glide_confnum>
5

> <i_i_glide_posenum>
345

> <r_i_glide_eff_state_penalty>
0

> <s_user_duplicate_titles>
236035

> <s_m_subgroup_title>
dock_pv

> <s_m_subgroupid>
dock_pv1

> <b_m_subgroup_collapsed>
0

$$$$
235494
                    3D
 Schrodinger Suite 2021-1.
 30 31  0  0  1  0            999 V2000
   51.5649   45.2598   -0.9886 C   0  0  0  0  0  0
   50.7293   44.2543   -1.4746 C   0  0  0  0  0  0
   51.0372   43.6094   -2.6824 C   0  0  0  0  0  0
   52.1540   44.0100   -3.4174 C   0  0  0  0  0  0
   53.0007   45.0010   -2.9230 C   0  0  0  0  0  0
   52.7177   45.6100   -1.6990 C   0  0  0  0  0  0
   53.6865   46.5245   -1.1193 C   0  0  0  0  0  0
   54.4651   47.2417   -0.6556 N   0  0  0  0  0  0
   50.2830   42.5515   -3.2198 N   0  0  0  0  0  0
   49.6357   41.5733   -2.5462 C   0  0  0  0  0  0
   49.6230   41.5050   -1.3168 O   0  0  0  0  0  0
   48.9963   40.4458   -3.3920 C   0  0  1  0  0  0
   47.6503   39.8809   -2.8896 C   0  0  0  0  0  0
   47.5951   39.2736   -1.4720 C   0  0  0  0  0  0
   46.2520   39.2100   -0.7438 C   0  0  0  0  0  0
   46.8230   37.9831   -1.3100 C   0  0  0  0  0  0
   46.6534   39.8695   -3.6166 O   0  0  0  0  0  0
   48.8974   40.7416   -4.8333 C   0  0  0  0  0  0
   48.8230   40.9771   -5.9633 N   0  0  0  0  0  0
   51.3329   45.7235   -0.0393 H   0  0  0  0  0  0
   49.8556   43.9782   -0.9025 H   0  0  0  0  0  0
   52.4017   43.5248   -4.3507 H   0  0  0  0  0  0
   53.8892   45.2606   -3.4826 H   0  0  0  0  0  0
   50.3625   42.4410   -4.2196 H   0  0  0  0  0  0
   48.4983   39.4120   -0.8837 H   0  0  0  0  0  0
   45.3480   39.6100   -1.2065 H   0  0  0  0  0  0
   46.2495   39.3567    0.3268 H   0  0  0  0  0  0
   47.2230   37.2069   -0.6563 H   0  0  0  0  0  0
   46.2605   37.6100   -2.1560 H   0  0  0  0  0  0
   49.6946   39.6106   -3.3393 H   0  0  0  0  0  0
  1  6  1  0  0  0
  1  2  2  0  0  0
  1 20  1  0  0  0
  2  3  1  0  0  0
  2 21  1  0  0  0
  3  4  2  0  0  0
  3  9  1  0  0  0
  4  5  1  0  0  0
  4 22  1  0  0  0
  5  6  2  0  0  0
  5 23  1  0  0  0
  6  7  1  0  0  0
  7  8  3  0  0  0
  9 10  1  0  0  0
  9 24  1  0  0  0
 10 11  2  0  0  0
 10 12  1  0  0  0
 12 18  1  0  0  0
 12 30  1  0  0  0
 12 13  1  0  0  0
 13 17  2  0  0  0
 13 14  1  0  0  0
 14 16  1  0  0  0
 14 15  1  0  0  0
 14 25  1  0  0  0
 15 16  1  0  0  0
 15 26  1  0  0  0
 15 27  1  0  0  0
 16 28  1  0  0  0
 16 29  1  0  0  0
 18 19  3  0  0  0
M  END
> <s_m_entry_id>
26146

> <s_m_entry_name>
ligand_docking-pose.151

> <s_m_Source_Path>
/home/csk/Desktop/cluster/DUD-E-result/pyrd

> <s_m_Source_File>
ligand_docking-pose.sdf

> <i_m_Source_File_Index>
151

> <i_lp_mmshare_version>
53161

> <i_f3d_flags>
0

> <r_lp_tautomer_probability>
0.995394627300976

> <s_lp_Force_Field>
OPLS_2005

> <r_lp_Energy>
22.769254

> <b_lp_Chiralities_Consistent>
1

> <s_lp_Variant>
235494-1

> <s_i_glide_gridfile>
glide-grid_1d3g

> <i_i_glide_lignum>
56

> <i_i_glide_rotatable_bonds>
5

> <r_i_docking_score>
-7.66699115940109

> <r_i_glide_ligand_efficiency>
-0.403525850494794

> <r_i_glide_ligand_efficiency_sa>
-1.07676904370541

> <r_i_glide_ligand_efficiency_ln>
-1.94374693077932

> <r_i_glide_gscore>
-7.66699115940109

> <r_i_glide_lipo>
-2.90411843909245

> <r_i_glide_hbond>
-0.152384527985733

> <r_i_glide_metal>
0

> <r_i_glide_rewards>
-3.55763909966864

> <r_i_glide_evdw>
-32.049919128418

> <r_i_glide_ecoul>
-3.63842034339905

> <r_i_glide_erotb>
1.09540991527648

> <r_i_glide_esite>
0

> <r_i_glide_emodel>
-51.5618577986336

> <r_i_glide_energy>
-35.688339471817

> <r_i_glide_einternal>
2.54048728942871

> <i_i_glide_confnum>
2

> <i_i_glide_posenum>
5

> <r_i_glide_eff_state_penalty>
0

> <s_user_duplicate_titles>
235494

> <s_m_subgroup_title>
dock_pv

> <s_m_subgroupid>
dock_pv1

> <b_m_subgroup_collapsed>
0

$$$$
235051
                    3D
 Schrodinger Suite 2021-1.
 29 29  0  0  1  0            999 V2000
   46.0673   39.6101   -3.7692 C   0  0  0  0  0  0
   46.9927   39.1661   -2.8998 C   0  0  0  0  0  0
   48.0229   39.9830   -2.2837 C   0  0  0  0  0  0
   48.8246   40.8081   -3.0205 C   0  0  0  0  0  0
   48.7363   40.8441   -4.4543 C   0  0  0  0  0  0
   48.6655   40.8923   -5.6102 N   0  0  0  0  0  0
   49.7890   41.7020   -2.3863 C   0  0  0  0  0  0
   50.0228   41.6670   -1.1729 O   0  0  0  0  0  0
   50.3686   42.6042   -3.2054 N   0  0  0  0  0  0
   51.2253   43.6356   -2.8058 C   0  0  0  0  0  0
   52.3277   43.9168   -3.6149 C   0  0  0  0  0  0
   53.2231   44.9217   -3.2457 C   0  0  0  0  0  0
   53.0093   45.6711   -2.0845 C   0  0  0  0  0  0
   51.8748   45.4240   -1.2997 C   0  0  0  0  0  0
   50.9874   44.4100   -1.6583 C   0  0  0  0  0  0
   54.0395   46.7259   -1.6803 C   0  0  0  0  0  0
   53.9385   47.7783   -2.4935 F   0  0  0  0  0  0
   53.8732   47.1386   -0.4230 F   0  0  0  0  0  0
   55.2728   46.2274   -1.7831 F   0  0  0  0  0  0
   48.1023   39.8889   -0.9268 O   0  0  0  0  0  0
   46.0166   40.6456   -4.0755 H   0  0  0  0  0  0
   45.3358   38.9341   -4.1876 H   0  0  0  0  0  0
   46.9780   38.1186   -2.6338 H   0  0  0  0  0  0
   50.2876   42.4565   -4.2006 H   0  0  0  0  0  0
   52.5168   43.3307   -4.5012 H   0  0  0  0  0  0
   54.0968   45.1177   -3.8478 H   0  0  0  0  0  0
   51.6830   45.9998   -0.4057 H   0  0  0  0  0  0
   50.1189   44.2329   -1.0405 H   0  0  0  0  0  0
   48.8155   40.4679   -0.6278 H   0  0  0  0  0  0
  1  2  2  0  0  0
  1 21  1  0  0  0
  1 22  1  0  0  0
  2  3  1  0  0  0
  2 23  1  0  0  0
  3  4  2  0  0  0
  3 20  1  0  0  0
  4  5  1  0  0  0
  4  7  1  0  0  0
  5  6  3  0  0  0
  7  8  2  0  0  0
  7  9  1  0  0  0
  9 10  1  0  0  0
  9 24  1  0  0  0
 10 15  1  0  0  0
 10 11  2  0  0  0
 11 12  1  0  0  0
 11 25  1  0  0  0
 12 13  2  0  0  0
 12 26  1  0  0  0
 13 14  1  0  0  0
 13 16  1  0  0  0
 14 15  2  0  0  0
 14 27  1  0  0  0
 15 28  1  0  0  0
 16 17  1  0  0  0
 16 18  1  0  0  0
 16 19  1  0  0  0
 20 29  1  0  0  0
M  END
> <s_m_entry_id>
26149

> <s_m_entry_name>
ligand_docking-pose.154

> <s_m_Source_Path>
/home/csk/Desktop/cluster/DUD-E-result/pyrd

> <s_m_Source_File>
ligand_docking-pose.sdf

> <i_m_Source_File_Index>
154

> <i_lp_mmshare_version>
53161

> <i_f3d_flags>
0

> <r_lp_tautomer_probability>
1

> <s_lp_Force_Field>
OPLS_2005

> <r_lp_Energy>
20.679906

> <b_lp_Chiralities_Consistent>
1

> <s_lp_Variant>
235051-1

> <s_i_glide_gridfile>
glide-grid_1d3g

> <i_i_glide_lignum>
208

> <i_i_glide_rotatable_bonds>
6

> <r_i_docking_score>
-7.61823938134972

> <r_i_glide_ligand_efficiency>
-0.380911969067486

> <r_i_glide_ligand_efficiency_sa>
-1.03395415817615

> <r_i_glide_ligand_efficiency_ln>
-1.90659405080053

> <r_i_glide_gscore>
-7.61823938134972

> <r_i_glide_lipo>
-3.14446367665606

> <r_i_glide_hbond>
-0.0418274530001627

> <r_i_glide_metal>
0

> <r_i_glide_rewards>
-3.60499647431389

> <r_i_glide_evdw>
-32.9595642089844

> <r_i_glide_ecoul>
-2.09741759300232

> <r_i_glide_erotb>
1.13563907201996

> <r_i_glide_esite>
0

> <r_i_glide_emodel>
-48.3337328968656

> <r_i_glide_energy>
-35.0569818019867

> <r_i_glide_einternal>
5.32339239120483

> <i_i_glide_confnum>
3

> <i_i_glide_posenum>
136

> <r_i_glide_eff_state_penalty>
0

> <s_user_duplicate_titles>
235051

> <s_m_subgroup_title>
dock_pv

> <s_m_subgroupid>
dock_pv1

> <b_m_subgroup_collapsed>
0

$$$$
235687
                    3D
 Schrodinger Suite 2021-1.
 33 34  0  0  1  0            999 V2000
   52.3926   44.0101   -3.3610 C   0  0  0  0  0  0
   53.1857   45.0648   -2.9002 C   0  0  0  0  0  0
   52.8135   45.7831   -1.7509 C   0  0  0  0  0  0
   51.6227   45.4563   -1.1006 C   0  0  0  0  0  0
   50.8241   44.4080   -1.5610 C   0  0  0  0  0  0
   51.2214   43.6685   -2.6847 C   0  0  0  0  0  0
   50.4659   42.6102   -3.2070 N   0  0  0  0  0  0
   49.8468   41.6423   -2.4960 C   0  0  0  0  0  0
   49.8870   41.6104   -1.2664 O   0  0  0  0  0  0
   49.1672   40.5095   -3.3033 C   0  0  1  0  0  0
   47.8652   39.8825   -2.7477 C   0  0  0  0  0  0
   47.7554   39.5062   -1.2547 C   0  0  0  0  0  0
   46.3704   39.1906   -0.7039 C   0  0  0  0  0  0
   47.3585   38.0823   -0.9002 C   0  0  0  0  0  0
   46.9324   39.6107   -3.5089 O   0  0  0  0  0  0
   48.9754   40.8147   -4.7332 C   0  0  0  0  0  0
   48.8226   41.0570   -5.8531 N   0  0  0  0  0  0
   53.5541   46.8079   -1.1887 O   0  0  0  0  0  0
   54.8478   47.1293   -1.7019 C   0  0  0  0  0  0
   55.3753   48.0523   -0.9046 F   0  0  0  0  0  0
   55.6672   46.0777   -1.6838 F   0  0  0  0  0  0
   54.7677   47.6451   -2.9290 F   0  0  0  0  0  0
   52.7055   43.4526   -4.2304 H   0  0  0  0  0  0
   54.0940   45.2894   -3.4382 H   0  0  0  0  0  0
   51.3223   46.0129   -0.2236 H   0  0  0  0  0  0
   49.9061   44.1756   -1.0377 H   0  0  0  0  0  0
   50.4876   42.5155   -4.2105 H   0  0  0  0  0  0
   48.5065   39.9487   -0.6055 H   0  0  0  0  0  0
   45.4953   39.2240   -1.3546 H   0  0  0  0  0  0
   46.1323   39.5322    0.3006 H   0  0  0  0  0  0
   47.8364   37.6315   -0.0313 H   0  0  0  0  0  0
   47.2095   37.3613   -1.6989 H   0  0  0  0  0  0
   49.8927   39.6970   -3.2987 H   0  0  0  0  0  0
  1  6  1  0  0  0
  1  2  2  0  0  0
  1 23  1  0  0  0
  2  3  1  0  0  0
  2 24  1  0  0  0
  3  4  2  0  0  0
  3 18  1  0  0  0
  4  5  1  0  0  0
  4 25  1  0  0  0
  5  6  2  0  0  0
  5 26  1  0  0  0
  6  7  1  0  0  0
  7  8  1  0  0  0
  7 27  1  0  0  0
  8  9  2  0  0  0
  8 10  1  0  0  0
 10 16  1  0  0  0
 10 33  1  0  0  0
 10 11  1  0  0  0
 11 15  2  0  0  0
 11 12  1  0  0  0
 12 14  1  0  0  0
 12 13  1  0  0  0
 12 28  1  0  0  0
 13 14  1  0  0  0
 13 29  1  0  0  0
 13 30  1  0  0  0
 14 31  1  0  0  0
 14 32  1  0  0  0
 16 17  3  0  0  0
 18 19  1  0  0  0
 19 20  1  0  0  0
 19 21  1  0  0  0
 19 22  1  0  0  0
M  END
> <s_m_entry_id>
26152

> <s_m_entry_name>
ligand_docking-pose.157

> <s_m_Source_Path>
/home/csk/Desktop/cluster/DUD-E-result/pyrd

> <s_m_Source_File>
ligand_docking-pose.sdf

> <i_m_Source_File_Index>
157

> <i_lp_mmshare_version>
53161

> <i_f3d_flags>
0

> <r_lp_tautomer_probability>
0.995394627300976

> <s_lp_Force_Field>
OPLS_2005

> <r_lp_Energy>
23.314966

> <b_lp_Chiralities_Consistent>
1

> <s_lp_Variant>
235687-1

> <s_i_glide_gridfile>
glide-grid_1d3g

> <i_i_glide_lignum>
74

> <i_i_glide_rotatable_bonds>
7

> <r_i_docking_score>
-7.57359811991511

> <r_i_glide_ligand_efficiency>
-0.344254459996141

> <r_i_glide_ligand_efficiency_sa>
-0.964614535668832

> <r_i_glide_ligand_efficiency_ln>
-1.85126363421088

> <r_i_glide_gscore>
-7.57359811991511

> <r_i_glide_lipo>
-3.14010160279218

> <r_i_glide_hbond>
-0.0986873227852764

> <r_i_glide_metal>
0

> <r_i_glide_rewards>
-2.97515264693331

> <r_i_glide_evdw>
-35.2211227416992

> <r_i_glide_ecoul>
-3.66848969459534

> <r_i_glide_erotb>
0.951673043869912

> <r_i_glide_esite>
0

> <r_i_glide_emodel>
-54.743222228274

> <r_i_glide_energy>
-38.8896124362946

> <r_i_glide_einternal>
4.36225748062134

> <i_i_glide_confnum>
8

> <i_i_glide_posenum>
246

> <r_i_glide_eff_state_penalty>
0

> <s_user_duplicate_titles>
235687

> <s_m_subgroup_title>
dock_pv

> <s_m_subgroupid>
dock_pv1

> <b_m_subgroup_collapsed>
0

$$$$
235073
                    3D
 Schrodinger Suite 2021-1.
 32 33  0  0  1  0            999 V2000
   53.6390   46.9827   -1.0184 C   0  0  0  0  0  0
   52.7870   45.8822   -1.6285 C   0  0  0  0  0  0
   51.5954   45.5091   -0.9968 C   0  0  0  0  0  0
   50.8234   44.4592   -1.4969 C   0  0  0  0  0  0
   51.2339   43.7714   -2.6482 C   0  0  0  0  0  0
   52.4164   44.1625   -3.2990 C   0  0  0  0  0  0
   53.1958   45.2100   -2.7902 C   0  0  0  0  0  0
   54.6748   45.6203   -3.5864 Cl  0  0  0  0  0  0
   50.5053   42.7037   -3.1909 N   0  0  0  0  0  0
   49.9331   41.6961   -2.4950 C   0  0  0  0  0  0
   50.0230   41.6106   -1.2697 O   0  0  0  0  0  0
   49.2461   40.5780   -3.3141 C   0  0  1  0  0  0
   47.9659   39.9137   -2.7447 C   0  0  0  0  0  0
   47.8691   39.5273   -1.2508 C   0  0  0  0  0  0
   46.4873   39.1838   -0.7026 C   0  0  0  0  0  0
   47.4959   38.0957   -0.8987 C   0  0  0  0  0  0
   47.0401   39.6108   -3.5019 O   0  0  0  0  0  0
   49.0103   40.9267   -4.7294 C   0  0  0  0  0  0
   48.8229   41.2047   -5.8372 N   0  0  0  0  0  0
   54.6755   46.6556   -0.9318 H   0  0  0  0  0  0
   53.6246   47.8688   -1.6541 H   0  0  0  0  0  0
   53.3047   47.2431   -0.0136 H   0  0  0  0  0  0
   51.2669   46.0203   -0.1039 H   0  0  0  0  0  0
   49.9111   44.1912   -0.9854 H   0  0  0  0  0  0
   52.7513   43.6314   -4.1767 H   0  0  0  0  0  0
   50.5194   42.6334   -4.1981 H   0  0  0  0  0  0
   48.6052   39.9870   -0.5999 H   0  0  0  0  0  0
   45.6149   39.2086   -1.3571 H   0  0  0  0  0  0
   46.2401   39.5186    0.3010 H   0  0  0  0  0  0
   47.9645   37.6466   -0.0238 H   0  0  0  0  0  0
   47.3643   37.3698   -1.6990 H   0  0  0  0  0  0
   49.9790   39.7726   -3.3544 H   0  0  0  0  0  0
  1  2  1  0  0  0
  1 20  1  0  0  0
  1 21  1  0  0  0
  1 22  1  0  0  0
  2  7  1  0  0  0
  2  3  2  0  0  0
  3  4  1  0  0  0
  3 23  1  0  0  0
  4  5  2  0  0  0
  4 24  1  0  0  0
  5  6  1  0  0  0
  5  9  1  0  0  0
  6  7  2  0  0  0
  6 25  1  0  0  0
  7  8  1  0  0  0
  9 10  1  0  0  0
  9 26  1  0  0  0
 10 11  2  0  0  0
 10 12  1  0  0  0
 12 18  1  0  0  0
 12 32  1  0  0  0
 12 13  1  0  0  0
 13 17  2  0  0  0
 13 14  1  0  0  0
 14 16  1  0  0  0
 14 15  1  0  0  0
 14 27  1  0  0  0
 15 16  1  0  0  0
 15 28  1  0  0  0
 15 29  1  0  0  0
 16 30  1  0  0  0
 16 31  1  0  0  0
 18 19  3  0  0  0
M  END
> <s_m_entry_id>
26156

> <s_m_entry_name>
ligand_docking-pose.161

> <s_m_Source_Path>
/home/csk/Desktop/cluster/DUD-E-result/pyrd

> <s_m_Source_File>
ligand_docking-pose.sdf

> <i_m_Source_File_Index>
161

> <i_lp_mmshare_version>
53161

> <i_f3d_flags>
0

> <r_lp_tautomer_probability>
0.995394627300976

> <s_lp_Force_Field>
OPLS_2005

> <r_lp_Energy>
23.09385

> <b_lp_Chiralities_Consistent>
1

> <s_lp_Variant>
235073-1

> <s_i_glide_gridfile>
glide-grid_1d3g

> <i_i_glide_lignum>
184

> <i_i_glide_rotatable_bonds>
5

> <r_i_docking_score>
-7.5325148094303

> <r_i_glide_ligand_efficiency>
-0.396448147864752

> <r_i_glide_ligand_efficiency_sa>
-1.05788289035678

> <r_i_glide_ligand_efficiency_ln>
-1.90965428777456

> <r_i_glide_gscore>
-7.5325148094303

> <r_i_glide_lipo>
-3.41669850720551

> <r_i_glide_hbond>
-0.0639009298476802

> <r_i_glide_metal>
0

> <r_i_glide_rewards>
-2.84699994384317

> <r_i_glide_evdw>
-34.2396507263184

> <r_i_glide_ecoul>
-2.88686370849609

> <r_i_glide_erotb>
0.940096664056399

> <r_i_glide_esite>
0

> <r_i_glide_emodel>
-51.2541569168652

> <r_i_glide_energy>
-37.1265144348145

> <r_i_glide_einternal>
4.26104831695557

> <i_i_glide_confnum>
7

> <i_i_glide_posenum>
366

> <r_i_glide_eff_state_penalty>
0

> <s_user_duplicate_titles>
235073

> <s_m_subgroup_title>
dock_pv

> <s_m_subgroupid>
dock_pv1

> <b_m_subgroup_collapsed>
0

$$$$
235628
                    3D
 Schrodinger Suite 2021-1.
 29 30  0  0  1  0            999 V2000
   52.3633   44.0103   -3.3553 C   0  0  0  0  0  0
   53.1382   45.0779   -2.8991 C   0  0  0  0  0  0
   52.7593   45.7669   -1.7483 C   0  0  0  0  0  0
   51.5992   45.4123   -1.0604 C   0  0  0  0  0  0
   50.8235   44.3447   -1.5124 C   0  0  0  0  0  0
   51.2171   43.6247   -2.6538 C   0  0  0  0  0  0
   50.4813   42.5445   -3.1722 N   0  0  0  0  0  0
   49.7973   41.6117   -2.4721 C   0  0  0  0  0  0
   49.7685   41.6054   -1.2423 O   0  0  0  0  0  0
   49.1282   40.4735   -3.2850 C   0  0  1  0  0  0
   47.8157   39.8462   -2.7472 C   0  0  0  0  0  0
   47.6985   39.4494   -1.2579 C   0  0  0  0  0  0
   46.2990   39.2087   -0.7021 C   0  0  0  0  0  0
   47.2230   38.0515   -0.9014 C   0  0  0  0  0  0
   46.8782   39.6110   -3.5142 O   0  0  0  0  0  0
   48.9577   40.7839   -4.7186 C   0  0  0  0  0  0
   48.8228   41.0298   -5.8412 N   0  0  0  0  0  0
   53.7387   47.0643   -1.1721 Cl  0  0  0  0  0  0
   52.6709   43.4719   -4.2408 H   0  0  0  0  0  0
   54.0321   45.3646   -3.4347 H   0  0  0  0  0  0
   51.3009   45.9551   -0.1766 H   0  0  0  0  0  0
   49.9224   44.0916   -0.9751 H   0  0  0  0  0  0
   50.5709   42.4052   -4.1674 H   0  0  0  0  0  0
   48.4818   39.8371   -0.6133 H   0  0  0  0  0  0
   45.4233   39.2778   -1.3501 H   0  0  0  0  0  0
   46.0814   39.5671    0.3013 H   0  0  0  0  0  0
   47.6647   37.5713   -0.0280 H   0  0  0  0  0  0
   47.0315   37.3407   -1.6989 H   0  0  0  0  0  0
   49.8507   39.6587   -3.2821 H   0  0  0  0  0  0
  1  6  1  0  0  0
  1  2  2  0  0  0
  1 19  1  0  0  0
  2  3  1  0  0  0
  2 20  1  0  0  0
  3  4  2  0  0  0
  3 18  1  0  0  0
  4  5  1  0  0  0
  4 21  1  0  0  0
  5  6  2  0  0  0
  5 22  1  0  0  0
  6  7  1  0  0  0
  7  8  1  0  0  0
  7 23  1  0  0  0
  8  9  2  0  0  0
  8 10  1  0  0  0
 10 16  1  0  0  0
 10 29  1  0  0  0
 10 11  1  0  0  0
 11 15  2  0  0  0
 11 12  1  0  0  0
 12 14  1  0  0  0
 12 13  1  0  0  0
 12 24  1  0  0  0
 13 14  1  0  0  0
 13 25  1  0  0  0
 13 26  1  0  0  0
 14 27  1  0  0  0
 14 28  1  0  0  0
 16 17  3  0  0  0
M  END
> <s_m_entry_id>
26157

> <s_m_entry_name>
ligand_docking-pose.162

> <s_m_Source_Path>
/home/csk/Desktop/cluster/DUD-E-result/pyrd

> <s_m_Source_File>
ligand_docking-pose.sdf

> <i_m_Source_File_Index>
162

> <i_lp_mmshare_version>
53161

> <i_f3d_flags>
0

> <r_lp_tautomer_probability>
0.995394627300976

> <s_lp_Force_Field>
OPLS_2005

> <r_lp_Energy>
21.867547

> <b_lp_Chiralities_Consistent>
1

> <s_lp_Variant>
235628-1

> <s_i_glide_gridfile>
glide-grid_1d3g

> <i_i_glide_lignum>
68

> <i_i_glide_rotatable_bonds>
5

> <r_i_docking_score>
-7.52975969354449

> <r_i_glide_ligand_efficiency>
-0.418319982974694

> <r_i_glide_ligand_efficiency_sa>
-1.09630849435029

> <r_i_glide_ligand_efficiency_ln>
-1.93548590266768

> <r_i_glide_gscore>
-7.52975969354449

> <r_i_glide_lipo>
-3.15779347840361

> <r_i_glide_hbond>
-0.0995328318170417

> <r_i_glide_metal>
0

> <r_i_glide_rewards>
-2.96777223862032

> <r_i_glide_evdw>
-30.8652305603027

> <r_i_glide_ecoul>
-3.55229067802429

> <r_i_glide_erotb>
0.771443985015273

> <r_i_glide_esite>
0

> <r_i_glide_emodel>
-48.5329331906308

> <r_i_glide_energy>
-34.417521238327

> <r_i_glide_einternal>
4.07625484466553

> <i_i_glide_confnum>
2

> <i_i_glide_posenum>
31

> <r_i_glide_eff_state_penalty>
0

> <s_user_duplicate_titles>
235628

> <s_m_subgroup_title>
dock_pv

> <s_m_subgroupid>
dock_pv1

> <b_m_subgroup_collapsed>
0

$$$$
236059
                    3D
 Schrodinger Suite 2021-1.
 29 30  0  0  1  0            999 V2000
   52.3700   44.0098   -3.3530 C   0  0  0  0  0  0
   53.1592   45.0680   -2.8990 C   0  0  0  0  0  0
   52.7897   45.7617   -1.7483 C   0  0  0  0  0  0
   51.6207   45.4259   -1.0645 C   0  0  0  0  0  0
   50.8301   44.3681   -1.5163 C   0  0  0  0  0  0
   51.2192   43.6373   -2.6524 C   0  0  0  0  0  0
   50.4762   42.5593   -3.1665 N   0  0  0  0  0  0
   49.8027   41.6196   -2.4639 C   0  0  0  0  0  0
   49.7866   41.6092   -1.2330 O   0  0  0  0  0  0
   49.1308   40.4833   -3.2769 C   0  0  1  0  0  0
   47.8174   39.8558   -2.7392 C   0  0  0  0  0  0
   47.6920   39.4620   -1.2499 C   0  0  0  0  0  0
   46.2920   39.2099   -0.7042 C   0  0  0  0  0  0
   47.2239   38.0598   -0.9018 C   0  0  0  0  0  0
   46.8860   39.6096   -3.5105 O   0  0  0  0  0  0
   48.9583   40.7961   -4.7088 C   0  0  0  0  0  0
   48.8224   41.0449   -5.8307 N   0  0  0  0  0  0
   53.9063   47.1626   -1.1036 Br  0  0  0  0  0  0
   52.6777   43.4653   -4.2339 H   0  0  0  0  0  0
   54.0607   45.3368   -3.4298 H   0  0  0  0  0  0
   51.3334   45.9775   -0.1812 H   0  0  0  0  0  0
   49.9260   44.1235   -0.9777 H   0  0  0  0  0  0
   50.5523   42.4254   -4.1636 H   0  0  0  0  0  0
   48.4656   39.8620   -0.6015 H   0  0  0  0  0  0
   45.4212   39.2865   -1.3575 H   0  0  0  0  0  0
   46.0692   39.5581    0.3011 H   0  0  0  0  0  0
   47.6605   37.5801   -0.0260 H   0  0  0  0  0  0
   47.0382   37.3478   -1.6984 H   0  0  0  0  0  0
   49.8527   39.6669   -3.2785 H   0  0  0  0  0  0
  1  6  1  0  0  0
  1  2  2  0  0  0
  1 19  1  0  0  0
  2  3  1  0  0  0
  2 20  1  0  0  0
  3  4  2  0  0  0
  3 18  1  0  0  0
  4  5  1  0  0  0
  4 21  1  0  0  0
  5  6  2  0  0  0
  5 22  1  0  0  0
  6  7  1  0  0  0
  7  8  1  0  0  0
  7 23  1  0  0  0
  8  9  2  0  0  0
  8 10  1  0  0  0
 10 16  1  0  0  0
 10 29  1  0  0  0
 10 11  1  0  0  0
 11 15  2  0  0  0
 11 12  1  0  0  0
 12 14  1  0  0  0
 12 13  1  0  0  0
 12 24  1  0  0  0
 13 14  1  0  0  0
 13 25  1  0  0  0
 13 26  1  0  0  0
 14 27  1  0  0  0
 14 28  1  0  0  0
 16 17  3  0  0  0
M  END
> <s_m_entry_id>
26159

> <s_m_entry_name>
ligand_docking-pose.164

> <s_m_Source_Path>
/home/csk/Desktop/cluster/DUD-E-result/pyrd

> <s_m_Source_File>
ligand_docking-pose.sdf

> <i_m_Source_File_Index>
164

> <i_lp_mmshare_version>
53161

> <i_f3d_flags>
0

> <r_lp_tautomer_probability>
0.995394627300976

> <s_lp_Force_Field>
OPLS_2005

> <r_lp_Energy>
22.08798

> <b_lp_Chiralities_Consistent>
1

> <s_lp_Variant>
236059-1

> <s_i_glide_gridfile>
glide-grid_1d3g

> <i_i_glide_lignum>
64

> <i_i_glide_rotatable_bonds>
5

> <r_i_docking_score>
-7.45060345958735

> <r_i_glide_ligand_efficiency>
-0.413922414421519

> <r_i_glide_ligand_efficiency_sa>
-1.08478360442022

> <r_i_glide_ligand_efficiency_ln>
-1.9151392008913

> <r_i_glide_gscore>
-7.45060345958735

> <r_i_glide_lipo>
-3.17921897692936

> <r_i_glide_hbond>
-0.0930562375559442

> <r_i_glide_metal>
0

> <r_i_glide_rewards>
-2.65928549984883

> <r_i_glide_evdw>
-31.5725917816162

> <r_i_glide_ecoul>
-3.52115988731384

> <r_i_glide_erotb>
0.587760826924671

> <r_i_glide_esite>
0

> <r_i_glide_emodel>
-49.2528021502023

> <r_i_glide_energy>
-35.0937516689301

> <r_i_glide_einternal>
4.06576251983643

> <i_i_glide_confnum>
1

> <i_i_glide_posenum>
200

> <r_i_glide_eff_state_penalty>
0

> <s_user_duplicate_titles>
236059

> <s_m_subgroup_title>
dock_pv

> <s_m_subgroupid>
dock_pv1

> <b_m_subgroup_collapsed>
0

$$$$
368536
                    3D
 Schrodinger Suite 2021-1.
 34 34  0  0  1  0            999 V2000
   47.4198   37.7512   -0.7831 C   0  0  0  0  0  0
   46.8415   39.1383   -1.1383 C   0  0  0  0  0  0
   45.3649   39.2100   -0.6815 C   0  0  0  0  0  0
   47.0072   39.4464   -2.6471 C   0  0  0  0  0  0
   48.3372   40.0368   -3.2009 C   0  0  1  0  0  0
   48.1540   40.4629   -4.6018 C   0  0  0  0  0  0
   48.0214   40.8098   -5.6976 N   0  0  0  0  0  0
   49.1851   41.0089   -2.3468 C   0  0  0  0  0  0
   49.3869   40.8098   -1.1488 O   0  0  0  0  0  0
   49.7183   42.0474   -3.0135 N   0  0  0  0  0  0
   50.5270   43.0590   -2.5041 C   0  0  0  0  0  0
   51.5950   43.4239   -3.3106 C   0  0  0  0  0  0
   52.4321   44.4446   -2.9038 C   0  0  0  0  0  0
   52.1765   45.1704   -1.7305 C   0  0  0  0  0  0
   51.0856   44.8066   -0.9282 C   0  0  0  0  0  0
   50.2777   43.7304   -1.2980 C   0  0  0  0  0  0
   53.1542   46.2663   -1.3209 C   0  0  0  0  0  0
   52.8297   46.8100   -0.1475 F   0  0  0  0  0  0
   54.3828   45.7617   -1.2128 F   0  0  0  0  0  0
   53.1801   47.2109   -2.2601 F   0  0  0  0  0  0
   46.0622   39.2179   -3.4098 O   0  0  0  0  0  0
   48.4227   37.6012   -1.1701 H   0  0  0  0  0  0
   46.8034   36.9467   -1.1791 H   0  0  0  0  0  0
   47.4770   37.6111    0.2980 H   0  0  0  0  0  0
   47.3620   39.8935   -0.5564 H   0  0  0  0  0  0
   44.7895   40.0098   -1.1442 H   0  0  0  0  0  0
   44.8241   38.2921   -0.8989 H   0  0  0  0  0  0
   45.3252   39.3760    0.3918 H   0  0  0  0  0  0
   49.6390   42.0374   -4.0199 H   0  0  0  0  0  0
   51.8022   42.9071   -4.2365 H   0  0  0  0  0  0
   53.2816   44.6998   -3.5209 H   0  0  0  0  0  0
   50.8756   45.3300   -0.0068 H   0  0  0  0  0  0
   49.4410   43.4535   -0.6741 H   0  0  0  0  0  0
   49.0198   39.2126   -3.2869 H   0  0  0  0  0  0
  1 22  1  0  0  0
  1 23  1  0  0  0
  1 24  1  0  0  0
  1  2  1  0  0  0
  2  4  1  0  0  0
  2  3  1  0  0  0
  2 25  1  0  0  0
  3 26  1  0  0  0
  3 27  1  0  0  0
  3 28  1  0  0  0
  4  5  1  0  0  0
  4 21  2  0  0  0
  5  6  1  0  0  0
  5  8  1  0  0  0
  5 34  1  0  0  0
  6  7  3  0  0  0
  8  9  2  0  0  0
  8 10  1  0  0  0
 10 11  1  0  0  0
 10 29  1  0  0  0
 11 16  1  0  0  0
 11 12  2  0  0  0
 12 13  1  0  0  0
 12 30  1  0  0  0
 13 14  2  0  0  0
 13 31  1  0  0  0
 14 15  1  0  0  0
 14 17  1  0  0  0
 15 16  2  0  0  0
 15 32  1  0  0  0
 16 33  1  0  0  0
 17 18  1  0  0  0
 17 19  1  0  0  0
 17 20  1  0  0  0
M  END
> <s_m_entry_id>
26161

> <s_m_entry_name>
ligand_docking-pose.166

> <s_m_Source_Path>
/home/csk/Desktop/cluster/DUD-E-result/pyrd

> <s_m_Source_File>
ligand_docking-pose.sdf

> <i_m_Source_File_Index>
166

> <i_lp_mmshare_version>
53161

> <i_f3d_flags>
0

> <r_lp_tautomer_probability>
0.995394627300976

> <s_lp_Force_Field>
OPLS_2005

> <r_lp_Energy>
20.291012

> <b_lp_Chiralities_Consistent>
1

> <s_lp_Variant>
368536-2

> <s_i_glide_gridfile>
glide-grid_1d3g

> <i_i_glide_lignum>
207

> <i_i_glide_rotatable_bonds>
6

> <r_i_docking_score>
-7.36198146038815

> <r_i_glide_ligand_efficiency>
-0.350570545732769

> <r_i_glide_ligand_efficiency_sa>
-0.967197553167709

> <r_i_glide_ligand_efficiency_ln>
-1.8202350397967

> <r_i_glide_gscore>
-7.36198146038815

> <r_i_glide_lipo>
-2.91221631046757

> <r_i_glide_hbond>
-0.0546094097199913

> <r_i_glide_metal>
0

> <r_i_glide_rewards>
-3.30690964565366

> <r_i_glide_evdw>
-27.5597476959229

> <r_i_glide_ecoul>
-3.56850957870483

> <r_i_glide_erotb>
0.825017727054938

> <r_i_glide_esite>
0

> <r_i_glide_emodel>
-34.1871095753088

> <r_i_glide_energy>
-31.1282572746277

> <r_i_glide_einternal>
3.60853481292725

> <i_i_glide_confnum>
2

> <i_i_glide_posenum>
316

> <r_i_glide_eff_state_penalty>
0

> <s_user_duplicate_titles>
368536

> <s_m_subgroup_title>
dock_pv

> <s_m_subgroupid>
dock_pv1

> <b_m_subgroup_collapsed>
0

$$$$
235753
                    3D
 Schrodinger Suite 2021-1.
 29 30  0  0  1  0            999 V2000
   51.5793   45.5413   -1.0281 C   0  0  0  0  0  0
   50.8234   44.4677   -1.5056 C   0  0  0  0  0  0
   51.2394   43.7644   -2.6477 C   0  0  0  0  0  0
   52.4228   44.1479   -3.2995 C   0  0  0  0  0  0
   53.1874   45.2110   -2.8048 C   0  0  0  0  0  0
   52.7584   45.9127   -1.6767 C   0  0  0  0  0  0
   54.6659   45.6628   -3.5700 Cl  0  0  0  0  0  0
   50.5142   42.6941   -3.1864 N   0  0  0  0  0  0
   49.9321   41.6955   -2.4886 C   0  0  0  0  0  0
   50.0215   41.6148   -1.2631 O   0  0  0  0  0  0
   49.2401   40.5813   -3.3095 C   0  0  1  0  0  0
   47.9549   39.9256   -2.7461 C   0  0  0  0  0  0
   47.8429   39.5577   -1.2495 C   0  0  0  0  0  0
   46.4634   39.2095   -0.7056 C   0  0  0  0  0  0
   47.4731   38.1237   -0.8996 C   0  0  0  0  0  0
   47.0378   39.6095   -3.5086 O   0  0  0  0  0  0
   49.0091   40.9301   -4.7255 C   0  0  0  0  0  0
   48.8246   41.2067   -5.8340 N   0  0  0  0  0  0
   51.2490   46.0862   -0.1565 H   0  0  0  0  0  0
   49.9119   44.2014   -0.9903 H   0  0  0  0  0  0
   52.7685   43.6059   -4.1672 H   0  0  0  0  0  0
   53.3439   46.7361   -1.2952 H   0  0  0  0  0  0
   50.5331   42.6167   -4.1927 H   0  0  0  0  0  0
   48.5798   40.0163   -0.5979 H   0  0  0  0  0  0
   45.5916   39.2208   -1.3609 H   0  0  0  0  0  0
   46.2163   39.5388    0.3013 H   0  0  0  0  0  0
   47.9555   37.6759   -0.0308 H   0  0  0  0  0  0
   47.3377   37.3995   -1.6992 H   0  0  0  0  0  0
   49.9705   39.7726   -3.3454 H   0  0  0  0  0  0
  1  6  1  0  0  0
  1  2  2  0  0  0
  1 19  1  0  0  0
  2  3  1  0  0  0
  2 20  1  0  0  0
  3  4  2  0  0  0
  3  8  1  0  0  0
  4  5  1  0  0  0
  4 21  1  0  0  0
  5  6  2  0  0  0
  5  7  1  0  0  0
  6 22  1  0  0  0
  8  9  1  0  0  0
  8 23  1  0  0  0
  9 10  2  0  0  0
  9 11  1  0  0  0
 11 17  1  0  0  0
 11 29  1  0  0  0
 11 12  1  0  0  0
 12 16  2  0  0  0
 12 13  1  0  0  0
 13 15  1  0  0  0
 13 14  1  0  0  0
 13 24  1  0  0  0
 14 15  1  0  0  0
 14 25  1  0  0  0
 14 26  1  0  0  0
 15 27  1  0  0  0
 15 28  1  0  0  0
 17 18  3  0  0  0
M  END
> <s_m_entry_id>
26162

> <s_m_entry_name>
ligand_docking-pose.167

> <s_m_Source_Path>
/home/csk/Desktop/cluster/DUD-E-result/pyrd

> <s_m_Source_File>
ligand_docking-pose.sdf

> <i_m_Source_File_Index>
167

> <i_lp_mmshare_version>
53161

> <i_f3d_flags>
0

> <r_lp_tautomer_probability>
0.995394627300976

> <s_lp_Force_Field>
OPLS_2005

> <r_lp_Energy>
23.737616

> <b_lp_Chiralities_Consistent>
1

> <s_lp_Variant>
235753-1

> <s_i_glide_gridfile>
glide-grid_1d3g

> <i_i_glide_lignum>
52

> <i_i_glide_rotatable_bonds>
5

> <r_i_docking_score>
-7.31798673669582

> <r_i_glide_ligand_efficiency>
-0.406554818705324

> <r_i_glide_ligand_efficiency_sa>
-1.0654750413696

> <r_i_glide_ligand_efficiency_ln>
-1.88105075609876

> <r_i_glide_gscore>
-7.31798673669582

> <r_i_glide_lipo>
-3.13609939847963

> <r_i_glide_hbond>
-0.0623259048838094

> <r_i_glide_metal>
0

> <r_i_glide_rewards>
-2.88618161444598

> <r_i_glide_evdw>
-31.4270114898682

> <r_i_glide_ecoul>
-2.88982152938843

> <r_i_glide_erotb>
0.771443985015273

> <r_i_glide_esite>
0

> <r_i_glide_emodel>
-46.2440173725167

> <r_i_glide_energy>
-34.3168330192566

> <r_i_glide_einternal>
5.9806022644043

> <i_i_glide_confnum>
2

> <i_i_glide_posenum>
132

> <r_i_glide_eff_state_penalty>
0

> <s_user_duplicate_titles>
235753

> <s_m_subgroup_title>
dock_pv

> <s_m_subgroupid>
dock_pv1

> <b_m_subgroup_collapsed>
0

$$$$
235075
                    3D
 Schrodinger Suite 2021-1.
 32 33  0  0  1  0            999 V2000
   53.7203   46.9154   -1.5324 C   0  0  0  0  0  0
   52.8235   45.7835   -1.9991 C   0  0  0  0  0  0
   51.6610   45.4685   -1.2914 C   0  0  0  0  0  0
   50.8594   44.4038   -1.6988 C   0  0  0  0  0  0
   51.2231   43.6476   -2.8255 C   0  0  0  0  0  0
   52.3651   43.9951   -3.5544 C   0  0  0  0  0  0
   53.1761   45.0489   -3.1323 C   0  0  0  0  0  0
   50.4635   42.5678   -3.2982 N   0  0  0  0  0  0
   49.8582   41.6177   -2.5542 C   0  0  0  0  0  0
   49.9161   41.6103   -1.3247 O   0  0  0  0  0  0
   49.1765   40.4615   -3.3244 C   0  0  1  0  0  0
   47.8746   39.8590   -2.7452 C   0  0  0  0  0  0
   47.7973   39.4702   -1.2543 C   0  0  0  0  0  0
   46.4397   39.0561   -0.7018 C   0  0  0  0  0  0
   47.5078   38.0216   -0.9001 C   0  0  0  0  0  0
   46.9216   39.6100   -3.4883 O   0  0  0  0  0  0
   48.9789   40.7282   -4.7616 C   0  0  0  0  0  0
   48.8221   40.9408   -5.8878 N   0  0  0  0  0  0
   53.5034   47.2090   -0.5045 H   0  0  0  0  0  0
   54.7654   46.6056   -1.5622 H   0  0  0  0  0  0
   53.6130   47.7829   -2.1849 H   0  0  0  0  0  0
   51.3780   46.0409   -0.4191 H   0  0  0  0  0  0
   49.9652   44.1756   -1.1392 H   0  0  0  0  0  0
   52.6488   43.4240   -4.4272 H   0  0  0  0  0  0
   54.0675   45.2917   -3.6915 H   0  0  0  0  0  0
   50.4795   42.4373   -4.2982 H   0  0  0  0  0  0
   48.5100   39.9718   -0.6105 H   0  0  0  0  0  0
   45.5649   39.0433   -1.3553 H   0  0  0  0  0  0
   46.1802   39.3838    0.3011 H   0  0  0  0  0  0
   48.0194   37.6090   -0.0292 H   0  0  0  0  0  0
   47.4213   37.2879   -1.6989 H   0  0  0  0  0  0
   49.8971   39.6450   -3.3034 H   0  0  0  0  0  0
  1  2  1  0  0  0
  1 19  1  0  0  0
  1 20  1  0  0  0
  1 21  1  0  0  0
  2  7  1  0  0  0
  2  3  2  0  0  0
  3  4  1  0  0  0
  3 22  1  0  0  0
  4  5  2  0  0  0
  4 23  1  0  0  0
  5  6  1  0  0  0
  5  8  1  0  0  0
  6  7  2  0  0  0
  6 24  1  0  0  0
  7 25  1  0  0  0
  8  9  1  0  0  0
  8 26  1  0  0  0
  9 10  2  0  0  0
  9 11  1  0  0  0
 11 17  1  0  0  0
 11 32  1  0  0  0
 11 12  1  0  0  0
 12 16  2  0  0  0
 12 13  1  0  0  0
 13 15  1  0  0  0
 13 14  1  0  0  0
 13 27  1  0  0  0
 14 15  1  0  0  0
 14 28  1  0  0  0
 14 29  1  0  0  0
 15 30  1  0  0  0
 15 31  1  0  0  0
 17 18  3  0  0  0
M  END
> <s_m_entry_id>
26163

> <s_m_entry_name>
ligand_docking-pose.168

> <s_m_Source_Path>
/home/csk/Desktop/cluster/DUD-E-result/pyrd

> <s_m_Source_File>
ligand_docking-pose.sdf

> <i_m_Source_File_Index>
168

> <i_lp_mmshare_version>
53161

> <i_f3d_flags>
0

> <r_lp_tautomer_probability>
0.995394627300976

> <s_lp_Force_Field>
OPLS_2005

> <r_lp_Energy>
22.006934

> <b_lp_Chiralities_Consistent>
1

> <s_lp_Variant>
235075-1

> <s_i_glide_gridfile>
glide-grid_1d3g

> <i_i_glide_lignum>
190

> <i_i_glide_rotatable_bonds>
5

> <r_i_docking_score>
-7.25614720256566

> <r_i_glide_ligand_efficiency>
-0.403119289031425

> <r_i_glide_ligand_efficiency_sa>
-1.05647140655085

> <r_i_glide_ligand_efficiency_ln>
-1.86515522272083

> <r_i_glide_gscore>
-7.25614720256566

> <r_i_glide_lipo>
-3.14878442537234

> <r_i_glide_hbond>
-0.132112361741775

> <r_i_glide_metal>
0

> <r_i_glide_rewards>
-3.00692237009641

> <r_i_glide_evdw>
-31.8950519561768

> <r_i_glide_ecoul>
-3.70257449150085

> <r_i_glide_erotb>
1.18181072617883

> <r_i_glide_esite>
0

> <r_i_glide_emodel>
-49.1735368591927

> <r_i_glide_energy>
-35.5976264476776

> <r_i_glide_einternal>
3.98845720291138

> <i_i_glide_confnum>
7

> <i_i_glide_posenum>
292

> <r_i_glide_eff_state_penalty>
0

> <s_user_duplicate_titles>
235075

> <s_m_subgroup_title>
dock_pv

> <s_m_subgroupid>
dock_pv1

> <b_m_subgroup_collapsed>
0

$$$$
235093
                    3D
 Schrodinger Suite 2021-1.
 28 29  0  0  1  0            999 V2000
   50.8230   44.3521   -1.4831 C   0  0  0  0  0  0
   51.6202   45.4207   -1.0612 C   0  0  0  0  0  0
   52.7738   45.7336   -1.7871 C   0  0  0  0  0  0
   53.1406   45.0455   -2.8997 N   0  0  0  0  0  0
   52.3540   44.0099   -3.2995 C   0  0  0  0  0  0
   51.1957   43.6168   -2.6237 C   0  0  0  0  0  0
   50.4659   42.5383   -3.1463 N   0  0  0  0  0  0
   49.7766   41.6100   -2.4501 C   0  0  0  0  0  0
   49.7398   41.6097   -1.2205 O   0  0  0  0  0  0
   49.1187   40.4723   -3.2708 C   0  0  1  0  0  0
   47.8052   39.8475   -2.7387 C   0  0  0  0  0  0
   47.6852   39.4548   -1.2501 C   0  0  0  0  0  0
   46.2886   39.2092   -0.7030 C   0  0  0  0  0  0
   47.2227   38.0550   -0.8997 C   0  0  0  0  0  0
   46.8706   39.6098   -3.5092 O   0  0  0  0  0  0
   48.9529   40.7872   -4.7029 C   0  0  0  0  0  0
   48.8227   41.0390   -5.8242 N   0  0  0  0  0  0
   53.7815   47.0267   -1.2497 Cl  0  0  0  0  0  0
   49.9309   44.1100   -0.9243 H   0  0  0  0  0  0
   51.3518   45.9900   -0.1845 H   0  0  0  0  0  0
   52.7003   43.4562   -4.1565 H   0  0  0  0  0  0
   50.5567   42.3981   -4.1406 H   0  0  0  0  0  0
   48.4611   39.8487   -0.6013 H   0  0  0  0  0  0
   45.4157   39.2811   -1.3544 H   0  0  0  0  0  0
   46.0668   39.5626    0.3008 H   0  0  0  0  0  0
   47.6688   37.5783   -0.0276 H   0  0  0  0  0  0
   47.0379   37.3435   -1.6981 H   0  0  0  0  0  0
   49.8427   39.6580   -3.2648 H   0  0  0  0  0  0
  1  6  1  0  0  0
  1  2  2  0  0  0
  1 19  1  0  0  0
  2  3  1  0  0  0
  2 20  1  0  0  0
  3  4  2  0  0  0
  3 18  1  0  0  0
  4  5  1  0  0  0
  5  6  2  0  0  0
  5 21  1  0  0  0
  6  7  1  0  0  0
  7  8  1  0  0  0
  7 22  1  0  0  0
  8  9  2  0  0  0
  8 10  1  0  0  0
 10 16  1  0  0  0
 10 28  1  0  0  0
 10 11  1  0  0  0
 11 15  2  0  0  0
 11 12  1  0  0  0
 12 14  1  0  0  0
 12 13  1  0  0  0
 12 23  1  0  0  0
 13 14  1  0  0  0
 13 24  1  0  0  0
 13 25  1  0  0  0
 14 26  1  0  0  0
 14 27  1  0  0  0
 16 17  3  0  0  0
M  END
> <s_m_entry_id>
26164

> <s_m_entry_name>
ligand_docking-pose.169

> <s_m_Source_Path>
/home/csk/Desktop/cluster/DUD-E-result/pyrd

> <s_m_Source_File>
ligand_docking-pose.sdf

> <i_m_Source_File_Index>
169

> <i_lp_mmshare_version>
53161

> <i_f3d_flags>
0

> <r_lp_tautomer_probability>
0.995394627300976

> <s_lp_Force_Field>
OPLS_2005

> <r_lp_Energy>
20.216498

> <b_lp_Chiralities_Consistent>
1

> <s_lp_Variant>
235093-1

> <s_i_glide_gridfile>
glide-grid_1d3g

> <i_i_glide_lignum>
112

> <i_i_glide_rotatable_bonds>
5

> <r_i_docking_score>
-7.25209250563718

> <r_i_glide_ligand_efficiency>
-0.402894028090954

> <r_i_glide_ligand_efficiency_sa>
-1.05588105588023

> <r_i_glide_ligand_efficiency_ln>
-1.86411298378306

> <r_i_glide_gscore>
-7.25209250563718

> <r_i_glide_lipo>
-2.9054609277929

> <r_i_glide_hbond>
-0.0918496083531066

> <r_i_glide_metal>
0

> <r_i_glide_rewards>
-2.89799997680693

> <r_i_glide_evdw>
-32.0177345275879

> <r_i_glide_ecoul>
-3.48240303993225

> <r_i_glide_erotb>
0.766465189684987

> <r_i_glide_esite>
0

> <r_i_glide_emodel>
-49.5343040506237

> <r_i_glide_energy>
-35.5001375675201

> <r_i_glide_einternal>
4.67335367202759

> <i_i_glide_confnum>
2

> <i_i_glide_posenum>
386

> <r_i_glide_eff_state_penalty>
0

> <s_user_duplicate_titles>
235093

> <s_m_subgroup_title>
dock_pv

> <s_m_subgroupid>
dock_pv1

> <b_m_subgroup_collapsed>
0

$$$$
235213
                    3D
 Schrodinger Suite 2021-1.
 28 29  0  0  1  0            999 V2000
   53.0896   45.0743   -2.8993 C   0  0  0  0  0  0
   52.3139   44.0101   -3.3732 C   0  0  0  0  0  0
   51.1831   43.6141   -2.6525 C   0  0  0  0  0  0
   50.8007   44.2566   -1.5097 N   0  0  0  0  0  0
   51.5598   45.2894   -1.0613 C   0  0  0  0  0  0
   52.7144   45.7189   -1.7181 C   0  0  0  0  0  0
   53.6658   47.0086   -1.0817 Cl  0  0  0  0  0  0
   50.4383   42.5476   -3.1777 N   0  0  0  0  0  0
   49.7645   41.6102   -2.4777 C   0  0  0  0  0  0
   49.7327   41.6089   -1.2464 O   0  0  0  0  0  0
   49.1109   40.4648   -3.2900 C   0  0  1  0  0  0
   47.7982   39.8430   -2.7504 C   0  0  0  0  0  0
   47.6838   39.4533   -1.2600 C   0  0  0  0  0  0
   46.2895   39.2096   -0.7031 C   0  0  0  0  0  0
   47.2230   38.0550   -0.9022 C   0  0  0  0  0  0
   46.8602   39.6101   -3.5167 O   0  0  0  0  0  0
   48.9490   40.7635   -4.7260 C   0  0  0  0  0  0
   48.8229   41.0021   -5.8512 N   0  0  0  0  0  0
   53.9768   45.3845   -3.4306 H   0  0  0  0  0  0
   52.6027   43.4774   -4.2660 H   0  0  0  0  0  0
   51.2326   45.7648   -0.1485 H   0  0  0  0  0  0
   50.5575   42.3909   -4.1667 H   0  0  0  0  0  0
   48.4630   39.8488   -0.6168 H   0  0  0  0  0  0
   45.4138   39.2820   -1.3506 H   0  0  0  0  0  0
   46.0733   39.5661    0.3012 H   0  0  0  0  0  0
   47.6687   37.5786   -0.0288 H   0  0  0  0  0  0
   47.0354   37.3418   -1.6989 H   0  0  0  0  0  0
   49.8366   39.6521   -3.2795 H   0  0  0  0  0  0
  1  6  1  0  0  0
  1  2  2  0  0  0
  1 19  1  0  0  0
  2  3  1  0  0  0
  2 20  1  0  0  0
  3  4  2  0  0  0
  3  8  1  0  0  0
  4  5  1  0  0  0
  5  6  2  0  0  0
  5 21  1  0  0  0
  6  7  1  0  0  0
  8  9  1  0  0  0
  8 22  1  0  0  0
  9 10  2  0  0  0
  9 11  1  0  0  0
 11 17  1  0  0  0
 11 28  1  0  0  0
 11 12  1  0  0  0
 12 16  2  0  0  0
 12 13  1  0  0  0
 13 15  1  0  0  0
 13 14  1  0  0  0
 13 23  1  0  0  0
 14 15  1  0  0  0
 14 24  1  0  0  0
 14 25  1  0  0  0
 15 26  1  0  0  0
 15 27  1  0  0  0
 17 18  3  0  0  0
M  END
> <s_m_entry_id>
26165

> <s_m_entry_name>
ligand_docking-pose.170

> <s_m_Source_Path>
/home/csk/Desktop/cluster/DUD-E-result/pyrd

> <s_m_Source_File>
ligand_docking-pose.sdf

> <i_m_Source_File_Index>
170

> <i_lp_mmshare_version>
53161

> <i_f3d_flags>
0

> <r_lp_tautomer_probability>
0.995394627300976

> <s_lp_Force_Field>
OPLS_2005

> <r_lp_Energy>
18.177134

> <b_lp_Chiralities_Consistent>
1

> <s_lp_Variant>
235213-1

> <s_i_glide_gridfile>
glide-grid_1d3g

> <i_i_glide_lignum>
110

> <i_i_glide_rotatable_bonds>
5

> <r_i_docking_score>
-7.22431229419536

> <r_i_glide_ligand_efficiency>
-0.401350683010854

> <r_i_glide_ligand_efficiency_sa>
-1.05183634754716

> <r_i_glide_ligand_efficiency_ln>
-1.85697222367821

> <r_i_glide_gscore>
-7.22431229419536

> <r_i_glide_lipo>
-2.80309164121568

> <r_i_glide_hbond>
-0.108138102482786

> <r_i_glide_metal>
0

> <r_i_glide_rewards>
-2.94640841599366

> <r_i_glide_evdw>
-31.1902389526367

> <r_i_glide_ecoul>
-3.82418251037598

> <r_i_glide_erotb>
0.766465189684987

> <r_i_glide_esite>
0

> <r_i_glide_emodel>
-48.4293596206365

> <r_i_glide_energy>
-35.0144214630127

> <r_i_glide_einternal>
5.11858701705933

> <i_i_glide_confnum>
2

> <i_i_glide_posenum>
168

> <r_i_glide_eff_state_penalty>
0

> <s_user_duplicate_titles>
235213

> <s_m_subgroup_title>
dock_pv

> <s_m_subgroupid>
dock_pv1

> <b_m_subgroup_collapsed>
0

$$$$
234936
                    3D
 Schrodinger Suite 2021-1.
 28 29  0  0  1  0            999 V2000
   53.0940   45.0595   -2.8991 C   0  0  0  0  0  0
   52.3003   44.0101   -3.3764 C   0  0  0  0  0  0
   51.1767   43.6141   -2.6459 C   0  0  0  0  0  0
   50.8122   44.2476   -1.4923 N   0  0  0  0  0  0
   51.5876   45.2678   -1.0401 C   0  0  0  0  0  0
   52.7413   45.6901   -1.7036 C   0  0  0  0  0  0
   53.8344   47.0720   -0.9851 Br  0  0  0  0  0  0
   50.4249   42.5521   -3.1677 N   0  0  0  0  0  0
   49.7612   41.6093   -2.4660 C   0  0  0  0  0  0
   49.7372   41.6034   -1.2357 O   0  0  0  0  0  0
   49.1082   40.4636   -3.2786 C   0  0  1  0  0  0
   47.7945   39.8443   -2.7414 C   0  0  0  0  0  0
   47.6796   39.4531   -1.2528 C   0  0  0  0  0  0
   46.2845   39.2028   -0.7025 C   0  0  0  0  0  0
   47.2226   38.0517   -0.8991 C   0  0  0  0  0  0
   46.8571   39.6094   -3.5080 O   0  0  0  0  0  0
   48.9485   40.7555   -4.7158 C   0  0  0  0  0  0
   48.8230   40.9870   -5.8418 N   0  0  0  0  0  0
   53.9812   45.3651   -3.4344 H   0  0  0  0  0  0
   52.5691   43.4882   -4.2799 H   0  0  0  0  0  0
   51.2758   45.7330   -0.1164 H   0  0  0  0  0  0
   50.5300   42.4031   -4.1592 H   0  0  0  0  0  0
   48.4543   39.8501   -0.6050 H   0  0  0  0  0  0
   45.4111   39.2694   -1.3530 H   0  0  0  0  0  0
   46.0626   39.5540    0.3010 H   0  0  0  0  0  0
   47.6655   37.5746   -0.0253 H   0  0  0  0  0  0
   47.0458   37.3401   -1.6990 H   0  0  0  0  0  0
   49.8311   39.6490   -3.2619 H   0  0  0  0  0  0
  1  6  1  0  0  0
  1  2  2  0  0  0
  1 19  1  0  0  0
  2  3  1  0  0  0
  2 20  1  0  0  0
  3  4  2  0  0  0
  3  8  1  0  0  0
  4  5  1  0  0  0
  5  6  2  0  0  0
  5 21  1  0  0  0
  6  7  1  0  0  0
  8  9  1  0  0  0
  8 22  1  0  0  0
  9 10  2  0  0  0
  9 11  1  0  0  0
 11 17  1  0  0  0
 11 28  1  0  0  0
 11 12  1  0  0  0
 12 16  2  0  0  0
 12 13  1  0  0  0
 13 15  1  0  0  0
 13 14  1  0  0  0
 13 23  1  0  0  0
 14 15  1  0  0  0
 14 24  1  0  0  0
 14 25  1  0  0  0
 15 26  1  0  0  0
 15 27  1  0  0  0
 17 18  3  0  0  0
M  END
> <s_m_entry_id>
26166

> <s_m_entry_name>
ligand_docking-pose.171

> <s_m_Source_Path>
/home/csk/Desktop/cluster/DUD-E-result/pyrd

> <s_m_Source_File>
ligand_docking-pose.sdf

> <i_m_Source_File_Index>
171

> <i_lp_mmshare_version>
53161

> <i_f3d_flags>
0

> <r_lp_tautomer_probability>
0.995394627300976

> <s_lp_Force_Field>
OPLS_2005

> <r_lp_Energy>
18.475064

> <b_lp_Chiralities_Consistent>
1

> <s_lp_Variant>
234936-1

> <s_i_glide_gridfile>
glide-grid_1d3g

> <i_i_glide_lignum>
106

> <i_i_glide_rotatable_bonds>
5

> <r_i_docking_score>
-7.16540269382108

> <r_i_glide_ligand_efficiency>
-0.398077927434504

> <r_i_glide_ligand_efficiency_sa>
-1.04325930154336

> <r_i_glide_ligand_efficiency_ln>
-1.84182981466429

> <r_i_glide_gscore>
-7.16540269382108

> <r_i_glide_lipo>
-2.83023887908021

> <r_i_glide_hbond>
-0.107491156088319

> <r_i_glide_metal>
0

> <r_i_glide_rewards>
-2.65379199351257

> <r_i_glide_evdw>
-31.7101154327393

> <r_i_glide_ecoul>
-3.8188841342926

> <r_i_glide_erotb>
0.584457726640871

> <r_i_glide_esite>
0

> <r_i_glide_emodel>
-49.2187979141772

> <r_i_glide_energy>
-35.5289995670319

> <r_i_glide_einternal>
4.78453969955444

> <i_i_glide_confnum>
1

> <i_i_glide_posenum>
257

> <r_i_glide_eff_state_penalty>
0

> <s_user_duplicate_titles>
234936

> <s_m_subgroup_title>
dock_pv

> <s_m_subgroupid>
dock_pv1

> <b_m_subgroup_collapsed>
0

$$$$
235686
                    3D
 Schrodinger Suite 2021-1.
 33 34  0  0  1  0            999 V2000
   53.7259   46.7833    0.1776 C   0  0  0  0  0  0
   53.6552   46.5395   -1.2240 O   0  0  0  0  0  0
   52.7419   45.6105   -1.6810 C   0  0  0  0  0  0
   51.5802   45.2543   -0.9800 C   0  0  0  0  0  0
   50.7434   44.2596   -1.4749 C   0  0  0  0  0  0
   51.0618   43.6096   -2.6761 C   0  0  0  0  0  0
   52.1816   44.0100   -3.4049 C   0  0  0  0  0  0
   53.0182   45.0075   -2.9062 C   0  0  0  0  0  0
   50.2971   42.5576   -3.2035 N   0  0  0  0  0  0
   49.6996   41.5730   -2.4965 C   0  0  0  0  0  0
   49.7364   41.5311   -1.2671 O   0  0  0  0  0  0
   49.0543   40.4185   -3.2964 C   0  0  1  0  0  0
   47.7386   39.8105   -2.7524 C   0  0  0  0  0  0
   47.6401   39.4075   -1.2624 C   0  0  0  0  0  0
   46.2476   39.1432   -0.7028 C   0  0  0  0  0  0
   47.1970   38.0017   -0.9025 C   0  0  0  0  0  0
   46.7868   39.6098   -3.5104 O   0  0  0  0  0  0
   48.9212   40.6809   -4.7419 C   0  0  0  0  0  0
   48.8203   40.8886   -5.8755 N   0  0  0  0  0  0
   54.5308   47.4901    0.3820 H   0  0  0  0  0  0
   52.8038   47.2098    0.5700 H   0  0  0  0  0  0
   53.9449   45.8672    0.7283 H   0  0  0  0  0  0
   51.3173   45.7235   -0.0440 H   0  0  0  0  0  0
   49.8602   43.9970   -0.9114 H   0  0  0  0  0  0
   52.4300   43.5289   -4.3387 H   0  0  0  0  0  0
   53.8993   45.2948   -3.4587 H   0  0  0  0  0  0
   50.3170   42.4658   -4.2086 H   0  0  0  0  0  0
   48.4184   39.8097   -0.6217 H   0  0  0  0  0  0
   45.3722   39.2094   -1.3497 H   0  0  0  0  0  0
   46.0310   39.5001    0.3010 H   0  0  0  0  0  0
   47.6522   37.5331   -0.0302 H   0  0  0  0  0  0
   47.0232   37.2860   -1.6989 H   0  0  0  0  0  0
   49.7836   39.6115   -3.2553 H   0  0  0  0  0  0
  1  2  1  0  0  0
  1 20  1  0  0  0
  1 21  1  0  0  0
  1 22  1  0  0  0
  2  3  1  0  0  0
  3  8  1  0  0  0
  3  4  2  0  0  0
  4  5  1  0  0  0
  4 23  1  0  0  0
  5  6  2  0  0  0
  5 24  1  0  0  0
  6  7  1  0  0  0
  6  9  1  0  0  0
  7  8  2  0  0  0
  7 25  1  0  0  0
  8 26  1  0  0  0
  9 10  1  0  0  0
  9 27  1  0  0  0
 10 11  2  0  0  0
 10 12  1  0  0  0
 12 18  1  0  0  0
 12 33  1  0  0  0
 12 13  1  0  0  0
 13 17  2  0  0  0
 13 14  1  0  0  0
 14 16  1  0  0  0
 14 15  1  0  0  0
 14 28  1  0  0  0
 15 16  1  0  0  0
 15 29  1  0  0  0
 15 30  1  0  0  0
 16 31  1  0  0  0
 16 32  1  0  0  0
 18 19  3  0  0  0
M  END
> <s_m_entry_id>
26167

> <s_m_entry_name>
ligand_docking-pose.172

> <s_m_Source_Path>
/home/csk/Desktop/cluster/DUD-E-result/pyrd

> <s_m_Source_File>
ligand_docking-pose.sdf

> <i_m_Source_File_Index>
172

> <i_lp_mmshare_version>
53161

> <i_f3d_flags>
0

> <r_lp_tautomer_probability>
0.995394627300976

> <s_lp_Force_Field>
OPLS_2005

> <r_lp_Energy>
26.717922

> <b_lp_Chiralities_Consistent>
1

> <s_lp_Variant>
235686-1

> <s_i_glide_gridfile>
glide-grid_1d3g

> <i_i_glide_lignum>
274

> <i_i_glide_rotatable_bonds>
6

> <r_i_docking_score>
-7.08452318525882

> <r_i_glide_ligand_efficiency>
-0.372869641329412

> <r_i_glide_ligand_efficiency_sa>
-0.994965964705224

> <r_i_glide_ligand_efficiency_ln>
-1.79607878906925

> <r_i_glide_gscore>
-7.08452318525882

> <r_i_glide_lipo>
-3.12871116992458

> <r_i_glide_hbond>
-0.136647994277444

> <r_i_glide_metal>
0

> <r_i_glide_rewards>
-2.62791199980055

> <r_i_glide_evdw>
-33.4469337463379

> <r_i_glide_ecoul>
-3.85332489013672

> <r_i_glide_erotb>
1.05909339958115

> <r_i_glide_esite>
0

> <r_i_glide_emodel>
-49.8887726162856

> <r_i_glide_energy>
-37.3002586364746

> <r_i_glide_einternal>
7.27748203277588

> <i_i_glide_confnum>
7

> <i_i_glide_posenum>
32

> <r_i_glide_eff_state_penalty>
0

> <s_user_duplicate_titles>
235686

> <s_m_subgroup_title>
dock_pv

> <s_m_subgroupid>
dock_pv1

> <b_m_subgroup_collapsed>
0

$$$$
235722
                    3D
 Schrodinger Suite 2021-1.
 40 42  0  0  1  0            999 V2000
   46.7831   38.3321   -1.4499 C   0  0  0  0  0  0
   46.3589   38.5990   -2.7454 C   0  0  0  0  0  0
   46.9528   39.6106   -3.4829 C   0  0  0  0  0  0
   48.0221   40.3262   -2.9578 C   0  0  0  0  0  0
   48.4229   40.0561   -1.6429 C   0  0  0  0  0  0
   47.7771   39.0986   -0.8754 C   0  0  0  0  0  0
   48.5828   41.2101   -3.8560 O   0  0  0  0  0  0
   49.5534   42.1694   -3.6511 C   0  0  0  0  0  0
   50.0439   42.7183   -4.8296 C   0  0  0  0  0  0
   51.1190   43.5962   -4.8132 C   0  0  0  0  0  0
   51.7143   43.9524   -3.6038 C   0  0  0  0  0  0
   51.1175   43.5328   -2.4084 C   0  0  0  0  0  0
   50.0337   42.6602   -2.4292 C   0  0  0  0  0  0
   52.9027   44.7132   -3.6293 N   0  0  0  0  0  0
   53.2527   45.6810   -2.7504 C   0  0  0  0  0  0
   52.4452   46.1632   -1.9494 O   0  0  0  0  0  0
   54.7428   46.1118   -2.7005 C   0  0  2  0  0  0
   55.0738   47.0516   -1.5403 C   0  0  0  0  0  0
   55.1639   46.3862   -0.1736 C   0  0  0  0  0  0
   56.3227   46.8076    0.7025 C   0  0  0  0  0  0
   54.9383   47.2245    1.0557 C   0  0  0  0  0  0
   55.2541   48.2621   -1.6988 O   0  0  0  0  0  0
   55.4266   46.6420   -3.8941 C   0  0  0  0  0  0
   56.0013   47.0694   -4.8040 N   0  0  0  0  0  0
   46.4075   37.4880   -0.8991 H   0  0  0  0  0  0
   45.6216   37.9804   -3.2179 H   0  0  0  0  0  0
   46.6261   39.7917   -4.4969 H   0  0  0  0  0  0
   49.2898   40.5015   -1.1974 H   0  0  0  0  0  0
   48.1292   38.8704    0.1191 H   0  0  0  0  0  0
   49.6324   42.4059   -5.7781 H   0  0  0  0  0  0
   51.4884   43.9069   -5.7695 H   0  0  0  0  0  0
   51.5075   43.8504   -1.4530 H   0  0  0  0  0  0
   49.6011   42.4070   -1.4810 H   0  0  0  0  0  0
   53.5415   44.5065   -4.3824 H   0  0  0  0  0  0
   54.8248   45.3512   -0.1635 H   0  0  0  0  0  0
   57.0132   47.5872    0.3670 H   0  0  0  0  0  0
   56.8206   46.0437    1.2956 H   0  0  0  0  0  0
   54.4062   46.7923    1.8997 H   0  0  0  0  0  0
   54.8229   48.3034    1.0005 H   0  0  0  0  0  0
   55.2955   45.1926   -2.5031 H   0  0  0  0  0  0
  1  6  1  0  0  0
  1  2  2  0  0  0
  1 25  1  0  0  0
  2  3  1  0  0  0
  2 26  1  0  0  0
  3  4  2  0  0  0
  3 27  1  0  0  0
  4  5  1  0  0  0
  4  7  1  0  0  0
  5  6  2  0  0  0
  5 28  1  0  0  0
  6 29  1  0  0  0
  7  8  1  0  0  0
  8 13  1  0  0  0
  8  9  2  0  0  0
  9 10  1  0  0  0
  9 30  1  0  0  0
 10 11  2  0  0  0
 10 31  1  0  0  0
 11 12  1  0  0  0
 11 14  1  0  0  0
 12 13  2  0  0  0
 12 32  1  0  0  0
 13 33  1  0  0  0
 14 15  1  0  0  0
 14 34  1  0  0  0
 15 16  2  0  0  0
 15 17  1  0  0  0
 17 23  1  0  0  0
 17 40  1  0  0  0
 17 18  1  0  0  0
 18 22  2  0  0  0
 18 19  1  0  0  0
 19 21  1  0  0  0
 19 20  1  0  0  0
 19 35  1  0  0  0
 20 21  1  0  0  0
 20 36  1  0  0  0
 20 37  1  0  0  0
 21 38  1  0  0  0
 21 39  1  0  0  0
 23 24  3  0  0  0
M  END
> <s_m_entry_id>
26171

> <s_m_entry_name>
ligand_docking-pose.176

> <s_m_Source_Path>
/home/csk/Desktop/cluster/DUD-E-result/pyrd

> <s_m_Source_File>
ligand_docking-pose.sdf

> <i_m_Source_File_Index>
176

> <i_lp_mmshare_version>
53161

> <i_f3d_flags>
0

> <r_lp_tautomer_probability>
0.995394627300976

> <s_lp_Force_Field>
OPLS_2005

> <r_lp_Energy>
29.872714

> <b_lp_Chiralities_Consistent>
1

> <s_lp_Variant>
235722-2

> <s_i_glide_gridfile>
glide-grid_1d3g

> <i_i_glide_lignum>
90

> <i_i_glide_rotatable_bonds>
7

> <r_i_docking_score>
-6.91505475842107

> <r_i_glide_ligand_efficiency>
-0.288127281600878

> <r_i_glide_ligand_efficiency_sa>
-0.831102895284985

> <r_i_glide_ligand_efficiency_ln>
-1.65508991487675

> <r_i_glide_gscore>
-6.91505475842107

> <r_i_glide_lipo>
-4.4965278739512

> <r_i_glide_hbond>
0

> <r_i_glide_metal>
0

> <r_i_glide_rewards>
-2.4306588279188

> <r_i_glide_evdw>
-21.0499954223633

> <r_i_glide_ecoul>
-0.180413320660591

> <r_i_glide_erotb>
1.09169371266618

> <r_i_glide_esite>
0

> <r_i_glide_emodel>
-22.2956606822246

> <r_i_glide_energy>
-21.2304087430239

> <r_i_glide_einternal>
10.9095125198364

> <i_i_glide_confnum>
40

> <i_i_glide_posenum>
83

> <r_i_glide_eff_state_penalty>
0

> <s_user_duplicate_titles>
235722

> <s_m_subgroup_title>
dock_pv

> <s_m_subgroupid>
dock_pv1

> <b_m_subgroup_collapsed>
0

$$$$
