CHEMBL204_lig4155
                    3D
 Schrodinger Suite 2021-1.
 58 60  0  0  1  0            999 V2000
   18.0744  -13.3087   21.8956 N   0  3  0  0  0  0
   18.5556  -12.3670   21.0265 C   0  0  0  0  0  0
   18.7125  -15.6611   25.5444 C   0  0  0  0  0  0
   17.7786  -11.0530   20.8327 C   0  0  0  0  0  0
   18.7154  -14.5016   22.1191 C   0  0  0  0  0  0
   16.4353  -11.2662   20.1176 C   0  0  0  0  0  0
   13.0486  -10.8758   21.7156 C   0  0  0  0  0  0
   15.3523  -10.7480   20.7210 N   0  0  0  0  0  0
   13.9662  -11.1897   20.5198 C   0  0  2  0  0  0
   16.9784  -13.0604   22.4847 O   0  5  0  0  0  0
   18.2709  -15.5066   23.0416 N   0  0  0  0  0  0
   19.7360  -12.6381   20.3135 C   0  0  0  0  0  0
   20.0571  -14.9182   25.5498 C   0  0  0  0  0  0
   17.7781  -15.1952   24.3998 C   0  0  0  0  0  0
   20.0160  -13.6090   25.9239 N   0  0  0  0  0  0
   12.0622  -11.7906   22.1305 C   0  0  0  0  0  0
   13.1655   -9.6498   22.3907 C   0  0  0  0  0  0
   19.8767  -14.7880   21.3954 C   0  0  0  0  0  0
   16.3798  -11.9359   19.0867 O   0  0  0  0  0  0
   20.3862  -13.8542   20.4997 C   0  0  0  0  0  0
   18.1179  -15.4530   26.7210 F   0  0  0  0  0  0
   18.9223  -16.9798   25.4674 F   0  0  0  0  0  0
   11.2160  -11.4643   23.1969 C   0  0  0  0  0  0
   12.3325   -9.3451   23.4689 C   0  0  0  0  0  0
   20.4165  -11.5131   19.1897 Cl  0  0  0  0  0  0
   11.3553  -10.2530   23.8692 C   0  0  0  0  0  0
   12.5164   -7.8530   24.3210 Cl  0  0  0  0  0  0
   12.8160  -14.1214   21.9210 N   0  0  0  0  0  0
   13.3092  -10.7663   19.1891 C   0  0  0  0  0  0
   12.8160   -9.4401   19.2409 O   0  0  0  0  0  0
   11.8745  -13.1291   21.4300 C   0  0  0  0  0  0
   21.1741  -12.9032   25.9210 C   0  0  0  0  0  0
   21.2498  -15.5418   25.1541 C   0  0  0  0  0  0
   22.3950  -13.4530   25.5246 C   0  0  0  0  0  0
   22.4287  -14.7939   25.1422 C   0  0  0  0  0  0
   18.3548  -10.2890   20.3210 H   0  0  0  0  0  0
   17.6160  -10.6530   21.8310 H   0  0  0  0  0  0
   15.5061  -10.1541   21.5210 H   0  0  0  0  0  0
   14.0796  -12.2741   20.4839 H   0  0  0  0  0  0
   18.6580  -16.4327   22.9307 H   0  0  0  0  0  0
   17.5888  -14.1275   24.4954 H   0  0  0  0  0  0
   16.8160  -15.6972   24.4835 H   0  0  0  0  0  0
   13.9044   -8.9255   22.0812 H   0  0  0  0  0  0
   20.4091  -15.7200   21.5287 H   0  0  0  0  0  0
   21.2890  -14.0775   19.9494 H   0  0  0  0  0  0
   10.4453  -12.1533   23.5163 H   0  0  0  0  0  0
   10.6959  -10.0226   24.6950 H   0  0  0  0  0  0
   13.6882  -13.6964   22.2067 H   0  0  0  0  0  0
   12.3943  -14.5128   22.7582 H   0  0  0  0  0  0
   14.0034  -10.8630   18.3540 H   0  0  0  0  0  0
   12.4774  -11.4313   18.9697 H   0  0  0  0  0  0
   11.8951   -9.4530   18.9142 H   0  0  0  0  0  0
   10.8544  -13.4725   21.5829 H   0  0  0  0  0  0
   11.9824  -13.0286   20.3521 H   0  0  0  0  0  0
   21.1055  -11.8708   26.2362 H   0  0  0  0  0  0
   21.2676  -16.5793   24.8540 H   0  0  0  0  0  0
   23.2966  -12.8581   25.5210 H   0  0  0  0  0  0
   23.3607  -15.2495   24.8412 H   0  0  0  0  0  0
  1  2  1  0  0  0
  1  5  2  0  0  0
  1 10  1  0  0  0
  2  4  1  0  0  0
  2 12  2  0  0  0
  3 14  1  0  0  0
  3 13  1  0  0  0
  3 21  1  0  0  0
  3 22  1  0  0  0
  4  6  1  0  0  0
  4 36  1  0  0  0
  4 37  1  0  0  0
  5 11  1  0  0  0
  5 18  1  0  0  0
  6  8  1  0  0  0
  6 19  2  0  0  0
  7  9  1  0  0  0
  7 16  1  0  0  0
  7 17  2  0  0  0
  8  9  1  0  0  0
  8 38  1  0  0  0
  9 29  1  0  0  0
  9 39  1  0  0  0
 11 14  1  0  0  0
 11 40  1  0  0  0
 12 25  1  0  0  0
 12 20  1  0  0  0
 13 15  2  0  0  0
 13 33  1  0  0  0
 14 41  1  0  0  0
 14 42  1  0  0  0
 15 32  1  0  0  0
 16 23  2  0  0  0
 16 31  1  0  0  0
 17 24  1  0  0  0
 17 43  1  0  0  0
 18 20  2  0  0  0
 18 44  1  0  0  0
 20 45  1  0  0  0
 23 26  1  0  0  0
 23 46  1  0  0  0
 24 26  2  0  0  0
 24 27  1  0  0  0
 26 47  1  0  0  0
 28 31  1  0  0  0
 28 48  1  0  0  0
 28 49  1  0  0  0
 29 30  1  0  0  0
 29 50  1  0  0  0
 29 51  1  0  0  0
 30 52  1  0  0  0
 31 53  1  0  0  0
 31 54  1  0  0  0
 32 34  2  0  0  0
 32 55  1  0  0  0
 33 35  2  0  0  0
 33 56  1  0  0  0
 34 35  1  0  0  0
 34 57  1  0  0  0
 35 58  1  0  0  0
M  CHG  2   1   1  10  -1
M  END
> <s_m_entry_id>
35152

> <s_m_entry_name>
dock_pv.2

> <s_m_Source_Path>
/home/csk/Desktop/cluster/DUD-E-result/thrb

> <s_m_Source_File>
dock_pv.maegz

> <i_m_Source_File_Index>
2

> <chembl_id>
CHEMBL195313

> <chembl_pref_name>
None

> <i_lp_mmshare_version>
53161

> <r_lp_tautomer_probability>
0.9999999999682

> <s_lp_Force_Field>
OPLS_2005

> <r_lp_Energy>
14.175559

> <b_lp_Chiralities_Consistent>
1

> <s_lp_Variant>
CHEMBL204_lig4155-1

> <s_i_glide_gridfile>
glide-grid_1ype

> <i_i_glide_lignum>
5772

> <i_i_glide_rotatable_bonds>
12

> <r_i_docking_score>
-10.1436324272503

> <r_i_glide_ligand_efficiency>
-0.289818069350008

> <r_i_glide_ligand_efficiency_sa>
-0.948014121611204

> <r_i_glide_ligand_efficiency_ln>
-2.2267524435737

> <r_i_glide_gscore>
-10.1436324272503

> <r_i_glide_lipo>
-3.91855177662579

> <r_i_glide_hbond>
-0.781246547975293

> <r_i_glide_metal>
0

> <r_i_glide_rewards>
-0.791005473514993

> <r_i_glide_evdw>
-44.9736328125

> <r_i_glide_ecoul>
-20.486328125

> <r_i_glide_erotb>
0.668802230240806

> <r_i_glide_esite>
0

> <r_i_glide_emodel>
-94.03460044798

> <r_i_glide_energy>
-65.4599609375

> <r_i_glide_einternal>
14.8267154693604

> <i_i_glide_confnum>
147

> <i_i_glide_posenum>
134

> <r_i_glide_eff_state_penalty>
0

> <s_user_duplicate_titles>
CHEMBL204_lig4155,325965

> <i_f3d_flags>
0

> <s_m_subgroup_title>
dock_pv

> <s_m_subgroupid>
dock_pv

> <b_m_subgroup_collapsed>
1

$$$$
CHEMBL204_lig4357
                    3D
 Schrodinger Suite 2021-1.
 60 61  0  0  1  0            999 V2000
   15.5501  -10.8936   13.2943 C   0  0  0  0  0  0
   15.8302  -11.5650   14.5147 O   0  0  0  0  0  0
   15.2162  -11.1858   15.6577 C   0  0  0  0  0  0
   15.6136  -12.0915   16.8883 C   0  0  0  0  0  0
   14.4161  -10.2531   15.7800 O   0  0  0  0  0  0
   15.4817  -11.4531   18.0713 N   0  0  0  0  0  0
   15.9645  -13.2605   16.7244 O   0  0  0  0  0  0
   21.0242  -14.5935   23.6462 C   0  0  0  0  0  0
   19.9209  -14.9602   24.4293 C   0  0  0  0  0  0
   19.8454  -14.5896   25.7690 C   0  0  0  0  0  0
   20.8815  -13.8550   26.3366 C   0  0  0  0  0  0
   22.0147  -13.5495   25.5874 C   0  0  0  0  0  0
   22.1120  -13.9272   24.2449 C   0  0  0  0  0  0
   18.4804  -15.0527   26.7207 Cl  0  0  0  0  0  0
   23.3822  -13.5516   23.4837 C   0  0  0  0  0  0
   24.4160  -14.5711   23.5629 N   0  0  0  0  0  0
   21.0124  -14.9830   22.1698 C   0  0  0  0  0  0
   20.7048  -13.8985   21.2281 N   0  0  0  0  0  0
   19.6256  -13.0935   21.2859 C   0  0  0  0  0  0
   19.4282  -12.1313   20.1027 C   0  0  0  0  0  0
   18.8313  -13.0845   22.2273 O   0  0  0  0  0  0
   18.0175  -11.7662   19.9193 N   0  0  0  0  0  0
   17.0370  -12.6417   19.6290 C   0  0  0  0  0  0
   15.6194  -12.0597   19.4079 C   0  0  2  0  0  0
   17.2238  -13.8530   19.5203 O   0  0  0  0  0  0
   14.5046  -13.1067   19.7077 C   0  0  0  0  0  0
   13.0489  -12.5955   19.6206 C   0  0  0  0  0  0
   12.5925  -11.8015   20.8439 C   0  0  0  0  0  0
   12.7283  -10.4490   20.8974 N   0  3  0  0  0  0
   12.3363   -9.7168   21.9612 C   0  0  0  0  0  0
   11.7418  -10.3409   23.0582 C   0  0  0  0  0  0
   11.5766  -11.7235   23.0349 C   0  0  0  0  0  0
   12.0157  -12.4598   21.9336 C   0  0  0  0  0  0
   13.2155   -9.8259   19.9150 O   0  5  0  0  0  0
   16.0838  -11.3743   12.4734 H   0  0  0  0  0  0
   14.4851  -10.9176   13.0620 H   0  0  0  0  0  0
   15.8709   -9.8535   13.3452 H   0  0  0  0  0  0
   15.2154  -10.4740   18.0691 H   0  0  0  0  0  0
   19.0955  -15.5001   23.9861 H   0  0  0  0  0  0
   20.8198  -13.5492   27.3707 H   0  0  0  0  0  0
   22.8225  -13.0125   26.0557 H   0  0  0  0  0  0
   23.1566  -13.3295   22.4416 H   0  0  0  0  0  0
   23.7926  -12.6459   23.9203 H   0  0  0  0  0  0
   25.3079  -14.1635   23.2998 H   0  0  0  0  0  0
   24.5320  -14.8466   24.5323 H   0  0  0  0  0  0
   20.3182  -15.8092   21.9960 H   0  0  0  0  0  0
   21.9847  -15.4042   21.9220 H   0  0  0  0  0  0
   21.2990  -13.8477   20.4136 H   0  0  0  0  0  0
   19.8062  -12.5840   19.1840 H   0  0  0  0  0  0
   20.0083  -11.2270   20.2863 H   0  0  0  0  0  0
   17.7771  -10.7987   20.0710 H   0  0  0  0  0  0
   15.4964  -11.2550   20.1340 H   0  0  0  0  0  0
   14.6600  -13.5172   20.7077 H   0  0  0  0  0  0
   14.6026  -13.9662   19.0412 H   0  0  0  0  0  0
   12.3819  -13.4506   19.4949 H   0  0  0  0  0  0
   12.8916  -12.0037   18.7210 H   0  0  0  0  0  0
   12.4909   -8.6526   21.8872 H   0  0  0  0  0  0
   11.3947   -9.7694   23.9080 H   0  0  0  0  0  0
   11.0963  -12.2236   23.8657 H   0  0  0  0  0  0
   11.8832  -13.5326   21.9223 H   0  0  0  0  0  0
  1  2  1  0  0  0
  1 35  1  0  0  0
  1 36  1  0  0  0
  1 37  1  0  0  0
  2  3  1  0  0  0
  3  5  2  0  0  0
  3  4  1  0  0  0
  4  6  1  0  0  0
  4  7  2  0  0  0
  6 24  1  0  0  0
  6 38  1  0  0  0
  8 13  1  0  0  0
  8  9  2  0  0  0
  8 17  1  0  0  0
  9 10  1  0  0  0
  9 39  1  0  0  0
 10 11  2  0  0  0
 10 14  1  0  0  0
 11 12  1  0  0  0
 11 40  1  0  0  0
 12 13  2  0  0  0
 12 41  1  0  0  0
 13 15  1  0  0  0
 15 16  1  0  0  0
 15 42  1  0  0  0
 15 43  1  0  0  0
 16 44  1  0  0  0
 16 45  1  0  0  0
 17 18  1  0  0  0
 17 46  1  0  0  0
 17 47  1  0  0  0
 18 19  1  0  0  0
 18 48  1  0  0  0
 19 20  1  0  0  0
 19 21  2  0  0  0
 20 22  1  0  0  0
 20 49  1  0  0  0
 20 50  1  0  0  0
 22 23  1  0  0  0
 22 51  1  0  0  0
 23 24  1  0  0  0
 23 25  2  0  0  0
 24 26  1  0  0  0
 24 52  1  0  0  0
 26 27  1  0  0  0
 26 53  1  0  0  0
 26 54  1  0  0  0
 27 28  1  0  0  0
 27 55  1  0  0  0
 27 56  1  0  0  0
 28 29  2  0  0  0
 28 33  1  0  0  0
 29 30  1  0  0  0
 29 34  1  0  0  0
 30 31  2  0  0  0
 30 57  1  0  0  0
 31 32  1  0  0  0
 31 58  1  0  0  0
 32 33  2  0  0  0
 32 59  1  0  0  0
 33 60  1  0  0  0
M  CHG  2  29   1  34  -1
M  END
> <s_m_entry_id>
35153

> <s_m_entry_name>
dock_pv.3

> <s_m_Source_Path>
/home/csk/Desktop/cluster/DUD-E-result/thrb

> <s_m_Source_File>
dock_pv.maegz

> <i_m_Source_File_Index>
3

> <chembl_id>
CHEMBL395773

> <chembl_pref_name>
None

> <i_lp_mmshare_version>
53161

> <r_lp_tautomer_probability>
1

> <s_lp_Force_Field>
OPLS_2005

> <r_lp_Energy>
10.233654

> <b_lp_Chiralities_Consistent>
1

> <s_lp_Variant>
CHEMBL204_lig4357-1

> <s_i_glide_gridfile>
glide-grid_1ype

> <i_i_glide_lignum>
6008

> <i_i_glide_rotatable_bonds>
15

> <r_i_docking_score>
-10.1275162177079

> <r_i_glide_ligand_efficiency>
-0.297868124050233

> <r_i_glide_ligand_efficiency_sa>
-0.964977088763235

> <r_i_glide_ligand_efficiency_ln>
-2.23745239969959

> <r_i_glide_gscore>
-10.1275162177079

> <r_i_glide_lipo>
-3.07210443486406

> <r_i_glide_hbond>
-0.979190007531885

> <r_i_glide_metal>
0

> <r_i_glide_rewards>
-1.30603615775079

> <r_i_glide_evdw>
-47.9105911254883

> <r_i_glide_ecoul>
-22.5622234344482

> <r_i_glide_erotb>
1.00967745388045

> <r_i_glide_esite>
0

> <r_i_glide_emodel>
-108.124302561028

> <r_i_glide_energy>
-70.4728145599365

> <r_i_glide_einternal>
6.94391298294067

> <i_i_glide_confnum>
71

> <i_i_glide_posenum>
272

> <r_i_glide_eff_state_penalty>
0

> <s_user_duplicate_titles>
CHEMBL204_lig4357

> <i_f3d_flags>
0

> <s_m_subgroup_title>
dock_pv

> <s_m_subgroupid>
dock_pv

> <b_m_subgroup_collapsed>
1

$$$$
CHEMBL204_lig4137
                    3D
 Schrodinger Suite 2021-1.
 57 59  0  0  1  0            999 V2000
   17.7795  -13.4621   22.2227 N   0  3  0  0  0  0
   18.3866  -12.6861   21.2724 C   0  0  0  0  0  0
   18.8915  -16.2163   25.7826 C   0  0  0  0  0  0
   18.3075  -14.6427   22.6777 C   0  0  0  0  0  0
   17.7889  -11.2968   20.9341 C   0  0  0  0  0  0
   19.5779  -13.1569   20.6768 C   0  0  0  0  0  0
   20.8045  -11.8807   18.7484 N   0  0  0  0  0  0
   20.2642  -12.4454   19.6019 C   0  0  0  0  0  0
   16.6874  -13.0528   22.7195 O   0  5  0  0  0  0
   17.6298  -15.3998   23.7006 N   0  0  0  0  0  0
   20.0880  -15.2587   25.6541 C   0  0  0  0  0  0
   18.1915  -16.5495   24.4379 C   0  0  0  0  0  0
   16.4895  -11.2462   20.0910 C   0  0  2  0  0  0
   19.8193  -13.9298   25.7960 N   0  0  0  0  0  0
   15.3398  -11.3739   20.9645 N   0  0  1  0  0  0
   19.5163  -15.0879   22.1262 C   0  0  0  0  0  0
   20.1365  -14.3557   21.1200 C   0  0  0  0  0  0
   13.1386  -10.5776   21.6662 C   0  0  0  0  0  0
   14.1607  -10.6382   20.5399 C   0  0  0  0  0  0
   18.0212  -15.7239   26.6683 F   0  0  0  0  0  0
   19.3318  -17.3609   26.3105 F   0  0  0  0  0  0
   12.2388  -11.6255   21.9422 C   0  0  0  0  0  0
   16.5339  -12.1516   19.0163 O   0  0  0  0  0  0
   12.8162  -14.0067   21.9210 N   0  0  0  0  0  0
   12.2395  -12.9250   21.1444 C   0  0  0  0  0  0
   20.8524  -13.0535   25.7338 C   0  0  0  0  0  0
   21.3891  -15.7334   25.4318 C   0  0  0  0  0  0
   13.1196   -9.4275   22.4634 C   0  0  0  0  0  0
   11.3193  -11.4756   22.9898 C   0  0  0  0  0  0
   22.1724  -13.4544   25.5213 C   0  0  0  0  0  0
   22.4393  -14.8153   25.3673 C   0  0  0  0  0  0
   12.2204   -9.3050   23.5196 C   0  0  0  0  0  0
   11.3099  -10.3257   23.7763 C   0  0  0  0  0  0
   18.5288  -10.6832   20.4247 H   0  0  0  0  0  0
   17.6420  -10.7621   21.8738 H   0  0  0  0  0  0
   16.7210  -15.0513   23.9950 H   0  0  0  0  0  0
   17.3420  -17.2052   24.6292 H   0  0  0  0  0  0
   18.8540  -17.1108   23.7828 H   0  0  0  0  0  0
   16.4597  -10.2490   19.6524 H   0  0  0  0  0  0
   15.1606  -12.3534   21.1455 H   0  0  0  0  0  0
   19.9918  -16.0016   22.4469 H   0  0  0  0  0  0
   21.0595  -14.7306   20.6945 H   0  0  0  0  0  0
   13.7248  -11.0564   19.6330 H   0  0  0  0  0  0
   14.4405   -9.6081   20.3209 H   0  0  0  0  0  0
   15.7485  -12.0156   18.4829 H   0  0  0  0  0  0
   13.6691  -13.7189   22.3828 H   0  0  0  0  0  0
   12.1571  -14.2541   22.6563 H   0  0  0  0  0  0
   11.2161  -13.1851   20.8732 H   0  0  0  0  0  0
   12.7882  -12.8323   20.2099 H   0  0  0  0  0  0
   20.6047  -12.0098   25.8690 H   0  0  0  0  0  0
   21.5871  -16.7906   25.3275 H   0  0  0  0  0  0
   13.8234   -8.6285   22.2829 H   0  0  0  0  0  0
   10.6017  -12.2538   23.2055 H   0  0  0  0  0  0
   22.9725  -12.7293   25.4890 H   0  0  0  0  0  0
   23.4531  -15.1554   25.2125 H   0  0  0  0  0  0
   12.2234   -8.4181   24.1356 H   0  0  0  0  0  0
   10.5939  -10.2334   24.5818 H   0  0  0  0  0  0
  1  2  1  0  0  0
  1  4  2  0  0  0
  1  9  1  0  0  0
  2  5  1  0  0  0
  2  6  2  0  0  0
  3 12  1  0  0  0
  3 11  1  0  0  0
  3 20  1  0  0  0
  3 21  1  0  0  0
  4 10  1  0  0  0
  4 16  1  0  0  0
  5 13  1  0  0  0
  5 34  1  0  0  0
  5 35  1  0  0  0
  6  8  1  0  0  0
  6 17  1  0  0  0
  7  8  3  0  0  0
 10 12  1  0  0  0
 10 36  1  0  0  0
 11 14  2  0  0  0
 11 27  1  0  0  0
 12 37  1  0  0  0
 12 38  1  0  0  0
 13 15  1  0  0  0
 13 23  1  0  0  0
 13 39  1  0  0  0
 14 26  1  0  0  0
 15 19  1  0  0  0
 15 40  1  0  0  0
 16 17  2  0  0  0
 16 41  1  0  0  0
 17 42  1  0  0  0
 18 19  1  0  0  0
 18 22  1  0  0  0
 18 28  2  0  0  0
 19 43  1  0  0  0
 19 44  1  0  0  0
 22 25  1  0  0  0
 22 29  2  0  0  0
 23 45  1  0  0  0
 24 25  1  0  0  0
 24 46  1  0  0  0
 24 47  1  0  0  0
 25 48  1  0  0  0
 25 49  1  0  0  0
 26 30  2  0  0  0
 26 50  1  0  0  0
 27 31  2  0  0  0
 27 51  1  0  0  0
 28 32  1  0  0  0
 28 52  1  0  0  0
 29 33  1  0  0  0
 29 53  1  0  0  0
 30 31  1  0  0  0
 30 54  1  0  0  0
 31 55  1  0  0  0
 32 33  2  0  0  0
 32 56  1  0  0  0
 33 57  1  0  0  0
M  CHG  2   1   1   9  -1
M  END
> <s_m_entry_id>
35154

> <s_m_entry_name>
dock_pv.4

> <s_m_Source_Path>
/home/csk/Desktop/cluster/DUD-E-result/thrb

> <s_m_Source_File>
dock_pv.maegz

> <i_m_Source_File_Index>
4

> <chembl_id>
CHEMBL196702

> <chembl_pref_name>
None

> <i_lp_mmshare_version>
53161

> <r_lp_tautomer_probability>
1

> <s_lp_Force_Field>
OPLS_2005

> <r_lp_Energy>
28.487998

> <b_lp_Chiralities_Consistent>
1

> <s_lp_Variant>
CHEMBL204_lig4137-1

> <s_i_glide_gridfile>
glide-grid_1ype

> <i_i_glide_lignum>
5751

> <i_i_glide_rotatable_bonds>
11

> <r_i_docking_score>
-9.7563797948748

> <r_i_glide_ligand_efficiency>
-0.295647872571964

> <r_i_glide_ligand_efficiency_sa>
-0.948300699759558

> <r_i_glide_ligand_efficiency_ln>
-2.16976835054913

> <r_i_glide_gscore>
-9.7563797948748

> <r_i_glide_lipo>
-3.62041267620425

> <r_i_glide_hbond>
-0.746879360043123

> <r_i_glide_metal>
0

> <r_i_glide_rewards>
-1.64234807503689

> <r_i_glide_evdw>
-48.9853553771973

> <r_i_glide_ecoul>
-13.7246055603027

> <r_i_glide_erotb>
0.777801022447382

> <r_i_glide_esite>
-0.0165821031326502

> <r_i_glide_emodel>
-93.5148715364657

> <r_i_glide_energy>
-62.7099609375

> <r_i_glide_einternal>
9.21608543395996

> <i_i_glide_confnum>
87

> <i_i_glide_posenum>
356

> <r_i_glide_eff_state_penalty>
0

> <s_user_duplicate_titles>
CHEMBL204_lig4137,326343

> <i_f3d_flags>
0

> <s_m_subgroup_title>
dock_pv

> <s_m_subgroupid>
dock_pv

> <b_m_subgroup_collapsed>
1

$$$$
CHEMBL204_lig4145
                    3D
 Schrodinger Suite 2021-1.
 55 57  0  0  1  0            999 V2000
   17.8901  -13.4535   22.1924 N   0  3  0  0  0  0
   18.4530  -12.6862   21.2055 C   0  0  0  0  0  0
   18.9607  -16.1238   25.8201 C   0  0  0  0  0  0
   18.4566  -14.6107   22.6590 C   0  0  0  0  0  0
   17.7585  -11.3658   20.7858 C   0  0  0  0  0  0
   19.6631  -13.1213   20.6211 C   0  0  0  0  0  0
   16.3536  -11.5625   20.2015 C   0  0  0  0  0  0
   20.8164  -11.8530   18.6431 N   0  0  0  0  0  0
   20.3098  -12.4144   19.5189 C   0  0  0  0  0  0
   16.8085  -13.0531   22.7197 O   0  5  0  0  0  0
   17.7907  -15.3805   23.6788 N   0  0  0  0  0  0
   13.0451  -10.6480   21.5958 C   0  0  0  0  0  0
   20.1644  -15.1738   25.7374 C   0  0  0  0  0  0
   18.3679  -16.5048   24.4394 C   0  0  0  0  0  0
   15.3771  -10.8014   20.7210 N   0  0  0  0  0  0
   21.2843  -15.6697   25.1371 N   0  0  0  0  0  0
   12.0574  -11.5705   22.0019 C   0  0  0  0  0  0
   19.6792  -15.0218   22.1145 C   0  0  0  0  0  0
   13.9527  -10.9060   20.3925 C   0  0  0  0  0  0
   13.2049   -9.4560   22.3188 C   0  0  0  0  0  0
   20.2718  -14.2849   21.0941 C   0  0  0  0  0  0
   16.1729  -12.3790   19.2977 O   0  0  0  0  0  0
   18.0155  -15.5912   26.6007 F   0  0  0  0  0  0
   19.3618  -17.2365   26.4380 F   0  0  0  0  0  0
   11.2750  -11.2923   23.1294 C   0  0  0  0  0  0
   12.4155   -9.1891   23.4371 C   0  0  0  0  0  0
   11.4567  -10.1123   23.8470 C   0  0  0  0  0  0
   12.6413   -7.7254   24.3216 Cl  0  0  0  0  0  0
   12.8153  -13.8604   21.5232 N   0  0  0  0  0  0
   11.7897  -12.8692   21.2505 C   0  0  0  0  0  0
   22.3731  -14.8650   25.0404 C   0  0  0  0  0  0
   20.1100  -13.8642   26.2367 C   0  0  0  0  0  0
   22.3916  -13.5543   25.5212 C   0  0  0  0  0  0
   21.2370  -13.0510   26.1241 C   0  0  0  0  0  0
   18.3308  -10.7983   20.0567 H   0  0  0  0  0  0
   17.7154  -10.7217   21.6642 H   0  0  0  0  0  0
   16.8741  -15.0465   23.9595 H   0  0  0  0  0  0
   17.5388  -17.1964   24.5874 H   0  0  0  0  0  0
   19.0957  -17.0349   23.8287 H   0  0  0  0  0  0
   15.6416  -10.0555   21.3466 H   0  0  0  0  0  0
   20.1810  -15.9169   22.4481 H   0  0  0  0  0  0
   13.7498  -11.8683   19.9266 H   0  0  0  0  0  0
   13.6954  -10.1783   19.6259 H   0  0  0  0  0  0
   13.9514   -8.7344   22.0220 H   0  0  0  0  0  0
   21.2058  -14.6352   20.6727 H   0  0  0  0  0  0
   10.5093  -11.9873   23.4518 H   0  0  0  0  0  0
   10.8363   -9.9126   24.7110 H   0  0  0  0  0  0
   12.6453  -14.2406   22.4476 H   0  0  0  0  0  0
   12.7112  -14.6383   20.8865 H   0  0  0  0  0  0
   10.8170  -13.2675   21.5354 H   0  0  0  0  0  0
   11.7309  -12.6734   20.1793 H   0  0  0  0  0  0
   23.2491  -15.2920   24.5734 H   0  0  0  0  0  0
   19.2178  -13.4787   26.7078 H   0  0  0  0  0  0
   23.2795  -12.9438   25.4333 H   0  0  0  0  0  0
   21.2154  -12.0394   26.5054 H   0  0  0  0  0  0
  1  2  1  0  0  0
  1  4  2  0  0  0
  1 10  1  0  0  0
  2  5  1  0  0  0
  2  6  2  0  0  0
  3 14  1  0  0  0
  3 13  1  0  0  0
  3 23  1  0  0  0
  3 24  1  0  0  0
  4 11  1  0  0  0
  4 18  1  0  0  0
  5  7  1  0  0  0
  5 35  1  0  0  0
  5 36  1  0  0  0
  6  9  1  0  0  0
  6 21  1  0  0  0
  7 15  1  0  0  0
  7 22  2  0  0  0
  8  9  3  0  0  0
 11 14  1  0  0  0
 11 37  1  0  0  0
 12 19  1  0  0  0
 12 17  1  0  0  0
 12 20  2  0  0  0
 13 16  2  0  0  0
 13 32  1  0  0  0
 14 38  1  0  0  0
 14 39  1  0  0  0
 15 19  1  0  0  0
 15 40  1  0  0  0
 16 31  1  0  0  0
 17 25  2  0  0  0
 17 30  1  0  0  0
 18 21  2  0  0  0
 18 41  1  0  0  0
 19 42  1  0  0  0
 19 43  1  0  0  0
 20 26  1  0  0  0
 20 44  1  0  0  0
 21 45  1  0  0  0
 25 27  1  0  0  0
 25 46  1  0  0  0
 26 27  2  0  0  0
 26 28  1  0  0  0
 27 47  1  0  0  0
 29 30  1  0  0  0
 29 48  1  0  0  0
 29 49  1  0  0  0
 30 50  1  0  0  0
 30 51  1  0  0  0
 31 33  2  0  0  0
 31 52  1  0  0  0
 32 34  2  0  0  0
 32 53  1  0  0  0
 33 34  1  0  0  0
 33 54  1  0  0  0
 34 55  1  0  0  0
M  CHG  2   1   1  10  -1
M  END
> <s_m_entry_id>
35155

> <s_m_entry_name>
dock_pv.5

> <s_m_Source_Path>
/home/csk/Desktop/cluster/DUD-E-result/thrb

> <s_m_Source_File>
dock_pv.maegz

> <i_m_Source_File_Index>
5

> <chembl_id>
CHEMBL382542

> <chembl_pref_name>
None

> <i_lp_mmshare_version>
53161

> <r_lp_tautomer_probability>
1

> <s_lp_Force_Field>
OPLS_2005

> <r_lp_Energy>
14.360326

> <b_lp_Chiralities_Consistent>
1

> <s_lp_Variant>
CHEMBL204_lig4145-1

> <s_i_glide_gridfile>
glide-grid_1ype

> <i_i_glide_lignum>
5762

> <i_i_glide_rotatable_bonds>
10

> <r_i_docking_score>
-9.63644288947647

> <r_i_glide_ligand_efficiency>
-0.283424790866955

> <r_i_glide_ligand_efficiency_sa>
-0.918186296187905

> <r_i_glide_ligand_efficiency_ln>
-2.12896052735297

> <r_i_glide_gscore>
-9.63644288947647

> <r_i_glide_lipo>
-4.03072190332587

> <r_i_glide_hbond>
-0.357381103298541

> <r_i_glide_metal>
0

> <r_i_glide_rewards>
-1.45508896423961

> <r_i_glide_evdw>
-55.1488037109375

> <r_i_glide_ecoul>
-11.4232730865479

> <r_i_glide_erotb>
0.685882924120907

> <r_i_glide_esite>
-0.00820269420430191

> <r_i_glide_emodel>
-100.935804088977

> <r_i_glide_energy>
-66.5720767974854

> <r_i_glide_einternal>
5.37764072418213

> <i_i_glide_confnum>
52

> <i_i_glide_posenum>
103

> <r_i_glide_eff_state_penalty>
0

> <s_user_duplicate_titles>
CHEMBL204_lig4145,325871

> <i_f3d_flags>
0

> <s_m_subgroup_title>
dock_pv

> <s_m_subgroupid>
dock_pv

> <b_m_subgroup_collapsed>
1

$$$$
CHEMBL204_lig4143
                    3D
 Schrodinger Suite 2021-1.
 55 58  0  0  1  0            999 V2000
   17.8806  -13.4261   22.1285 N   0  3  0  0  0  0
   12.4348  -11.7833   21.2569 N   0  0  0  0  0  0
   18.5569  -12.6535   21.2234 C   0  0  0  0  0  0
   12.4733  -10.5185   20.8077 N   0  0  0  0  0  0
   12.1301   -9.7233   21.8825 N   0  0  0  0  0  0
   11.8391  -10.5191   22.9836 N   0  0  0  0  0  0
   18.8406  -16.0480   25.8360 C   0  0  0  0  0  0
   18.4045  -14.5664   22.6784 C   0  0  0  0  0  0
   12.7194  -12.9210   20.4464 C   0  0  0  0  0  0
   13.6831  -12.9484   19.4078 C   0  0  0  0  0  0
   12.0171  -11.7460   22.5709 C   0  0  0  0  0  0
   17.9060  -11.3511   20.7146 C   0  0  0  0  0  0
   19.8110  -13.1008   20.7558 C   0  0  0  0  0  0
   16.9048  -11.6236   19.5954 C   0  0  0  0  0  0
   21.1477  -11.8532   18.8842 N   0  0  0  0  0  0
   20.5589  -12.4049   19.7145 C   0  0  0  0  0  0
   16.7181  -13.0515   22.4740 O   0  5  0  0  0  0
   17.6676  -15.3053   23.6752 N   0  0  0  0  0  0
   20.0843  -15.1523   25.7309 C   0  0  0  0  0  0
   12.0174  -14.0998   20.7421 C   0  0  0  0  0  0
   18.1993  -16.4288   24.4724 C   0  0  0  0  0  0
   15.6039  -11.4638   19.8875 N   0  0  0  0  0  0
   14.5025  -11.7371   18.9678 C   0  0  0  0  0  0
   13.9135  -14.1476   18.7204 C   0  0  0  0  0  0
   21.1830  -15.7004   25.1399 N   0  0  0  0  0  0
   19.6685  -14.9906   22.2483 C   0  0  0  0  0  0
   20.3628  -14.2695   21.2812 C   0  0  0  0  0  0
   17.3160  -11.9738   18.4873 O   0  0  0  0  0  0
   19.2006  -17.1652   26.4695 F   0  0  0  0  0  0
   17.9342  -15.4581   26.6188 F   0  0  0  0  0  0
   13.1994  -15.3030   19.0272 C   0  0  0  0  0  0
   12.2515  -15.2790   20.0401 C   0  0  0  0  0  0
   13.4849  -16.7586   18.1447 Cl  0  0  0  0  0  0
   22.3034  -14.9390   25.0356 C   0  0  0  0  0  0
   20.0866  -13.8367   26.2184 C   0  0  0  0  0  0
   22.3725  -13.6226   25.4966 C   0  0  0  0  0  0
   21.2404  -13.0657   26.0936 C   0  0  0  0  0  0
   11.8756  -12.6531   23.1418 H   0  0  0  0  0  0
   17.4220  -10.8286   21.5391 H   0  0  0  0  0  0
   18.6472  -10.6423   20.3512 H   0  0  0  0  0  0
   16.7342  -14.9700   23.8956 H   0  0  0  0  0  0
   11.2690  -14.1186   21.5190 H   0  0  0  0  0  0
   18.8886  -17.0122   23.8640 H   0  0  0  0  0  0
   17.3401  -17.0763   24.6483 H   0  0  0  0  0  0
   15.3481  -11.1982   20.8272 H   0  0  0  0  0  0
   13.8792  -10.8574   18.8394 H   0  0  0  0  0  0
   14.8677  -11.9110   17.9528 H   0  0  0  0  0  0
   14.6505  -14.1928   17.9307 H   0  0  0  0  0  0
   20.1339  -15.8861   22.6291 H   0  0  0  0  0  0
   21.3260  -14.6293   20.9451 H   0  0  0  0  0  0
   11.6876  -16.1678   20.2815 H   0  0  0  0  0  0
   23.1617  -15.4057   24.5755 H   0  0  0  0  0  0
   19.2163  -13.4204   26.6971 H   0  0  0  0  0  0
   23.2815  -13.0490   25.3962 H   0  0  0  0  0  0
   21.2567  -12.0504   26.4643 H   0  0  0  0  0  0
  1  3  1  0  0  0
  1  8  2  0  0  0
  1 17  1  0  0  0
  2  9  1  0  0  0
  2  4  1  0  0  0
  2 11  1  0  0  0
  3 12  1  0  0  0
  3 13  2  0  0  0
  4  5  2  0  0  0
  5  6  1  0  0  0
  6 11  2  0  0  0
  7 21  1  0  0  0
  7 19  1  0  0  0
  7 29  1  0  0  0
  7 30  1  0  0  0
  8 18  1  0  0  0
  8 26  1  0  0  0
  9 10  1  0  0  0
  9 20  2  0  0  0
 10 23  1  0  0  0
 10 24  2  0  0  0
 11 38  1  0  0  0
 12 14  1  0  0  0
 12 39  1  0  0  0
 12 40  1  0  0  0
 13 16  1  0  0  0
 13 27  1  0  0  0
 14 22  1  0  0  0
 14 28  2  0  0  0
 15 16  3  0  0  0
 18 21  1  0  0  0
 18 41  1  0  0  0
 19 25  2  0  0  0
 19 35  1  0  0  0
 20 32  1  0  0  0
 20 42  1  0  0  0
 21 43  1  0  0  0
 21 44  1  0  0  0
 22 23  1  0  0  0
 22 45  1  0  0  0
 23 46  1  0  0  0
 23 47  1  0  0  0
 24 31  1  0  0  0
 24 48  1  0  0  0
 25 34  1  0  0  0
 26 27  2  0  0  0
 26 49  1  0  0  0
 27 50  1  0  0  0
 31 32  2  0  0  0
 31 33  1  0  0  0
 32 51  1  0  0  0
 34 36  2  0  0  0
 34 52  1  0  0  0
 35 37  2  0  0  0
 35 53  1  0  0  0
 36 37  1  0  0  0
 36 54  1  0  0  0
 37 55  1  0  0  0
M  CHG  2   1   1  17  -1
M  END
> <s_m_entry_id>
35156

> <s_m_entry_name>
dock_pv.6

> <s_m_Source_Path>
/home/csk/Desktop/cluster/DUD-E-result/thrb

> <s_m_Source_File>
dock_pv.maegz

> <i_m_Source_File_Index>
6

> <chembl_id>
CHEMBL196030

> <chembl_pref_name>
None

> <i_lp_mmshare_version>
53161

> <r_lp_tautomer_probability>
1

> <s_lp_Force_Field>
OPLS_2005

> <r_lp_Energy>
27.466884

> <b_lp_Chiralities_Consistent>
1

> <s_lp_Variant>
CHEMBL204_lig4143-1

> <s_i_glide_gridfile>
glide-grid_1ype

> <i_i_glide_lignum>
5760

> <i_i_glide_rotatable_bonds>
10

> <r_i_docking_score>
-9.2368020035649

> <r_i_glide_ligand_efficiency>
-0.249643297393646

> <r_i_glide_ligand_efficiency_sa>
-0.831866849690788

> <r_i_glide_ligand_efficiency_ln>
-2.00324581321116

> <r_i_glide_gscore>
-9.2368020035649

> <r_i_glide_lipo>
-3.12379821297807

> <r_i_glide_hbond>
-0.37158521278849

> <r_i_glide_metal>
0

> <r_i_glide_rewards>
-1.99029567067306

> <r_i_glide_evdw>
-55.8473129272461

> <r_i_glide_ecoul>
-10.7560634613037

> <r_i_glide_erotb>
0.669890901434933

> <r_i_glide_esite>
-0.0152386430023455

> <r_i_glide_emodel>
-101.951509556909

> <r_i_glide_energy>
-66.6033763885498

> <r_i_glide_einternal>
3.62627410888672

> <i_i_glide_confnum>
5

> <i_i_glide_posenum>
264

> <r_i_glide_eff_state_penalty>
0

> <s_user_duplicate_titles>
CHEMBL204_lig4143,325830

> <i_f3d_flags>
0

> <s_m_subgroup_title>
dock_pv

> <s_m_subgroupid>
dock_pv

> <b_m_subgroup_collapsed>
1

$$$$
CHEMBL204_lig4134
                    3D
 Schrodinger Suite 2021-1.
 54 57  0  0  1  0            999 V2000
   17.7071  -13.4114   22.0359 N   0  3  0  0  0  0
   18.2935  -12.5618   21.1369 C   0  0  0  0  0  0
   12.7664  -12.7890   21.0986 N   0  0  0  0  0  0
   18.8053  -16.3420   25.4662 C   0  0  0  0  0  0
   18.2663  -14.6070   22.4059 C   0  0  0  0  0  0
   13.1950  -14.8871   20.5558 N   0  0  0  0  0  0
   17.6617  -11.1858   20.8591 C   0  0  0  0  0  0
   12.8023  -12.8154   19.7610 N   0  0  0  0  0  0
   12.4907  -11.6286   21.8587 C   0  0  0  0  0  0
   13.1054  -10.3767   21.6429 C   0  0  0  0  0  0
   12.9960  -14.0634   21.5500 C   0  0  0  0  0  0
   16.2466  -11.2109   20.2616 C   0  0  0  0  0  0
   13.0720  -14.0796   19.5167 C   0  0  0  0  0  0
   16.6233  -13.0441   22.5865 O   0  5  0  0  0  0
   17.6161  -15.4414   23.3845 N   0  0  0  0  0  0
   19.5066  -12.9418   20.5346 C   0  0  0  0  0  0
   19.9253  -15.2878   25.4975 C   0  0  0  0  0  0
   18.2187  -16.6141   24.0551 C   0  0  0  0  0  0
   12.8722   -9.3101   22.4597 N   0  0  0  0  0  0
   15.4330  -10.2531   20.7212 N   0  0  0  0  0  0
   21.0709  -15.5945   24.8265 N   0  0  0  0  0  0
   14.0131  -10.0493   20.4591 C   0  0  0  0  0  0
   19.4820  -14.9842   21.8165 C   0  0  0  0  0  0
   15.9263  -12.0335   19.4059 O   0  0  0  0  0  0
   20.0905  -14.1573   20.8789 C   0  0  0  0  0  0
   17.8240  -15.9872   26.2998 F   0  0  0  0  0  0
   19.3115  -17.4748   25.9570 F   0  0  0  0  0  0
   20.3317  -11.9384   19.3876 Cl  0  0  0  0  0  0
   11.5890  -11.7326   22.9265 C   0  0  0  0  0  0
   12.0161   -9.4529   23.5003 C   0  0  0  0  0  0
   22.0844  -14.6902   24.8415 C   0  0  0  0  0  0
   19.7681  -14.0724   26.1767 C   0  0  0  0  0  0
   11.3404  -10.6402   23.7555 C   0  0  0  0  0  0
   21.9991  -13.4625   25.5013 C   0  0  0  0  0  0
   20.8153  -13.1488   26.1704 C   0  0  0  0  0  0
   18.2789  -10.5785   20.2076 H   0  0  0  0  0  0
   17.6541  -10.6532   21.8102 H   0  0  0  0  0  0
   13.0003  -14.2848   22.6080 H   0  0  0  0  0  0
   13.1941  -14.4450   18.5068 H   0  0  0  0  0  0
   16.7136  -15.1169   23.7215 H   0  0  0  0  0  0
   17.4122  -17.3427   24.1350 H   0  0  0  0  0  0
   18.9641  -17.0723   23.4095 H   0  0  0  0  0  0
   15.8346   -9.6106   21.3912 H   0  0  0  0  0  0
   13.6826  -10.5349   19.5428 H   0  0  0  0  0  0
   13.8966   -8.9778   20.2946 H   0  0  0  0  0  0
   19.9808  -15.9071   22.0642 H   0  0  0  0  0  0
   21.0283  -14.4561   20.4311 H   0  0  0  0  0  0
   11.0644  -12.6526   23.1211 H   0  0  0  0  0  0
   11.8603   -8.5857   24.1251 H   0  0  0  0  0  0
   22.9832  -14.9707   24.3131 H   0  0  0  0  0  0
   18.8536  -13.8521   26.7061 H   0  0  0  0  0  0
   10.6322  -10.7174   24.5708 H   0  0  0  0  0  0
   22.8299  -12.7719   25.4980 H   0  0  0  0  0  0
   20.7152  -12.2056   26.6897 H   0  0  0  0  0  0
  1  2  1  0  0  0
  1  5  2  0  0  0
  1 14  1  0  0  0
  2  7  1  0  0  0
  2 16  2  0  0  0
  3  9  1  0  0  0
  3  8  1  0  0  0
  3 11  1  0  0  0
  4 18  1  0  0  0
  4 17  1  0  0  0
  4 26  1  0  0  0
  4 27  1  0  0  0
  5 15  1  0  0  0
  5 23  1  0  0  0
  6 11  2  0  0  0
  6 13  1  0  0  0
  7 12  1  0  0  0
  7 36  1  0  0  0
  7 37  1  0  0  0
  8 13  2  0  0  0
  9 10  1  0  0  0
  9 29  2  0  0  0
 10 22  1  0  0  0
 10 19  2  0  0  0
 11 38  1  0  0  0
 12 20  1  0  0  0
 12 24  2  0  0  0
 13 39  1  0  0  0
 15 18  1  0  0  0
 15 40  1  0  0  0
 16 28  1  0  0  0
 16 25  1  0  0  0
 17 21  2  0  0  0
 17 32  1  0  0  0
 18 41  1  0  0  0
 18 42  1  0  0  0
 19 30  1  0  0  0
 20 22  1  0  0  0
 20 43  1  0  0  0
 21 31  1  0  0  0
 22 44  1  0  0  0
 22 45  1  0  0  0
 23 25  2  0  0  0
 23 46  1  0  0  0
 25 47  1  0  0  0
 29 33  1  0  0  0
 29 48  1  0  0  0
 30 33  2  0  0  0
 30 49  1  0  0  0
 31 34  2  0  0  0
 31 50  1  0  0  0
 32 35  2  0  0  0
 32 51  1  0  0  0
 33 52  1  0  0  0
 34 35  1  0  0  0
 34 53  1  0  0  0
 35 54  1  0  0  0
M  CHG  2   1   1  14  -1
M  END
> <s_m_entry_id>
35157

> <s_m_entry_name>
dock_pv.7

> <s_m_Source_Path>
/home/csk/Desktop/cluster/DUD-E-result/thrb

> <s_m_Source_File>
dock_pv.maegz

> <i_m_Source_File_Index>
7

> <chembl_id>
CHEMBL370050

> <chembl_pref_name>
None

> <i_lp_mmshare_version>
53161

> <r_lp_tautomer_probability>
0.9999999999682

> <s_lp_Force_Field>
OPLS_2005

> <r_lp_Energy>
25.623014

> <b_lp_Chiralities_Consistent>
1

> <s_lp_Variant>
CHEMBL204_lig4134-1

> <s_i_glide_gridfile>
glide-grid_1ype

> <i_i_glide_lignum>
5748

> <i_i_glide_rotatable_bonds>
10

> <r_i_docking_score>
-9.03326242657179

> <r_i_glide_ligand_efficiency>
-0.258093212187765

> <r_i_glide_ligand_efficiency_sa>
-0.844240010275232

> <r_i_glide_ligand_efficiency_ln>
-1.98300158509036

> <r_i_glide_gscore>
-9.03326242657179

> <r_i_glide_lipo>
-3.44876211877807

> <r_i_glide_hbond>
-0.551360656953092

> <r_i_glide_metal>
0

> <r_i_glide_rewards>
-1.4612918776822

> <r_i_glide_evdw>
-51.6752166748047

> <r_i_glide_ecoul>
-11.3765478134155

> <r_i_glide_erotb>
0.732612242245949

> <r_i_glide_esite>
-0.0142170096518163

> <r_i_glide_emodel>
-92.0771607121169

> <r_i_glide_energy>
-63.0517644882202

> <r_i_glide_einternal>
9.82992553710938

> <i_i_glide_confnum>
46

> <i_i_glide_posenum>
381

> <r_i_glide_eff_state_penalty>
0

> <s_user_duplicate_titles>
CHEMBL204_lig4134,326014

> <i_f3d_flags>
0

> <s_m_subgroup_title>
dock_pv

> <s_m_subgroupid>
dock_pv

> <b_m_subgroup_collapsed>
1

$$$$
CHEMBL204_lig1758
                    3D
 Schrodinger Suite 2021-1.
 59 62  0  0  1  0            999 V2000
   18.1016  -15.5804   26.7032 C   0  0  0  0  0  0
   17.7217  -16.7050   25.9218 O   0  0  0  0  0  0
   18.4629  -16.8804   24.7183 C   0  0  0  0  0  0
   18.1524  -15.7952   23.6778 C   0  0  0  0  0  0
   16.9910  -15.9487   22.9101 C   0  0  0  0  0  0
   16.6107  -15.0020   21.9420 C   0  0  0  0  0  0
   17.4489  -13.8979   21.7377 C   0  0  0  0  0  0
   18.6134  -13.7329   22.4833 C   0  0  0  0  0  0
   18.9754  -14.6677   23.4595 C   0  0  0  0  0  0
   20.1639  -14.4356   24.1969 N   0  0  0  0  0  0
   20.1582  -13.3953   25.1086 C   0  0  0  0  0  0
   21.2050  -13.0536   25.8810 C   0  0  0  0  0  0
   22.4054  -13.8513   25.7223 C   0  0  0  0  0  0
   22.4564  -14.8734   24.8320 C   0  0  0  0  0  0
   23.7214  -15.7339   24.6942 C   0  0  0  0  0  0
   24.9998  -14.9578   24.3292 C   0  0  0  0  0  0
   24.8165  -14.2517   23.1210 O   0  0  0  0  0  0
   21.2974  -15.1994   23.9716 C   0  0  0  0  0  0
   21.3377  -16.1013   23.1282 O   0  0  0  0  0  0
   15.4171  -15.1297   21.1775 N   0  0  0  0  0  0
   15.1293  -14.3578   19.9752 C   0  0  0  0  0  0
   13.7767  -14.8571   19.5099 C   0  0  2  0  0  0
   12.7132  -13.7699   19.2374 C   0  0  0  0  0  0
   12.4005  -12.9276   20.3989 N   0  0  0  0  0  0
   12.8361  -11.6689   20.5828 C   0  0  0  0  0  0
   13.5639  -11.0855   19.7751 O   0  0  0  0  0  0
   12.3939  -11.0487   21.8108 C   0  0  0  0  0  0
   11.5013  -11.5279   22.7767 C   0  0  0  0  0  0
   11.2730  -10.6202   23.8184 C   0  0  0  0  0  0
   12.0097   -9.4529   23.6805 C   0  0  0  0  0  0
   12.0293   -8.0850   24.7210 Cl  0  0  0  0  0  0
   12.9525   -9.4531   22.2281 S   0  0  0  0  0  0
   13.3431  -15.6698   20.5733 O   0  0  0  0  0  0
   14.2811  -15.8927   21.5125 C   0  0  0  0  0  0
   14.0607  -16.6588   22.4493 O   0  0  0  0  0  0
   17.6161  -15.6115   27.6779 H   0  0  0  0  0  0
   19.1775  -15.5544   26.8828 H   0  0  0  0  0  0
   17.8033  -14.6518   26.2183 H   0  0  0  0  0  0
   18.1749  -17.8460   24.3025 H   0  0  0  0  0  0
   19.5241  -16.9789   24.9464 H   0  0  0  0  0  0
   16.3801  -16.8180   23.0925 H   0  0  0  0  0  0
   17.2008  -13.1414   21.0078 H   0  0  0  0  0  0
   19.2333  -12.8657   22.2997 H   0  0  0  0  0  0
   19.2163  -12.8671   25.1558 H   0  0  0  0  0  0
   21.1491  -12.2337   26.5876 H   0  0  0  0  0  0
   23.2753  -13.6346   26.3207 H   0  0  0  0  0  0
   23.8825  -16.2349   25.6480 H   0  0  0  0  0  0
   23.5959  -16.5435   23.9726 H   0  0  0  0  0  0
   25.2703  -14.2594   25.1207 H   0  0  0  0  0  0
   25.8443  -15.6418   24.2175 H   0  0  0  0  0  0
   25.5866  -13.6848   22.9827 H   0  0  0  0  0  0
   15.9000  -14.5503   19.2271 H   0  0  0  0  0  0
   15.0984  -13.3005   20.2445 H   0  0  0  0  0  0
   13.9117  -15.4874   18.6276 H   0  0  0  0  0  0
   11.7842  -14.2498   18.9248 H   0  0  0  0  0  0
   13.0316  -13.1640   18.3866 H   0  0  0  0  0  0
   11.8003  -13.3399   21.1003 H   0  0  0  0  0  0
   11.0080  -12.4878   22.7264 H   0  0  0  0  0  0
   10.5955  -10.8076   24.6393 H   0  0  0  0  0  0
  1  2  1  0  0  0
  1 36  1  0  0  0
  1 37  1  0  0  0
  1 38  1  0  0  0
  2  3  1  0  0  0
  3  4  1  0  0  0
  3 39  1  0  0  0
  3 40  1  0  0  0
  4  5  2  0  0  0
  4  9  1  0  0  0
  5  6  1  0  0  0
  5 41  1  0  0  0
  6  7  2  0  0  0
  6 20  1  0  0  0
  7  8  1  0  0  0
  7 42  1  0  0  0
  8  9  2  0  0  0
  8 43  1  0  0  0
  9 10  1  0  0  0
 10 11  1  0  0  0
 10 18  1  0  0  0
 11 12  2  0  0  0
 11 44  1  0  0  0
 12 13  1  0  0  0
 12 45  1  0  0  0
 13 14  2  0  0  0
 13 46  1  0  0  0
 14 15  1  0  0  0
 14 18  1  0  0  0
 15 16  1  0  0  0
 15 47  1  0  0  0
 15 48  1  0  0  0
 16 17  1  0  0  0
 16 49  1  0  0  0
 16 50  1  0  0  0
 17 51  1  0  0  0
 18 19  2  0  0  0
 20 21  1  0  0  0
 20 34  1  0  0  0
 21 22  1  0  0  0
 21 52  1  0  0  0
 21 53  1  0  0  0
 22 23  1  0  0  0
 22 33  1  0  0  0
 22 54  1  0  0  0
 23 24  1  0  0  0
 23 55  1  0  0  0
 23 56  1  0  0  0
 24 25  1  0  0  0
 24 57  1  0  0  0
 25 26  2  0  0  0
 25 27  1  0  0  0
 27 28  2  0  0  0
 27 32  1  0  0  0
 28 29  1  0  0  0
 28 58  1  0  0  0
 29 30  2  0  0  0
 29 59  1  0  0  0
 30 31  1  0  0  0
 30 32  1  0  0  0
 33 34  1  0  0  0
 34 35  2  0  0  0
M  END
> <s_m_entry_id>
35158

> <s_m_entry_name>
dock_pv.8

> <s_m_Source_Path>
/home/csk/Desktop/cluster/DUD-E-result/thrb

> <s_m_Source_File>
dock_pv.maegz

> <i_m_Source_File_Index>
8

> <chembl_id>
CHEMBL3659627

> <chembl_pref_name>
None

> <i_lp_mmshare_version>
53161

> <r_lp_tautomer_probability>
1

> <s_lp_Force_Field>
OPLS_2005

> <r_lp_Energy>
50.933051

> <b_lp_Chiralities_Consistent>
1

> <s_lp_Variant>
CHEMBL204_lig1758-1

> <s_i_glide_gridfile>
glide-grid_1ype

> <i_i_glide_lignum>
2551

> <i_i_glide_rotatable_bonds>
11

> <r_i_docking_score>
-9.0292125938456

> <r_i_glide_ligand_efficiency>
-0.257977502681303

> <r_i_glide_ligand_efficiency_sa>
-0.843861516807322

> <r_i_glide_ligand_efficiency_ln>
-1.98211255692576

> <r_i_glide_gscore>
-9.0292125938456

> <r_i_glide_lipo>
-3.45456937675869

> <r_i_glide_hbond>
-0.864

> <r_i_glide_metal>
0

> <r_i_glide_rewards>
-0.616557186986814

> <r_i_glide_evdw>
-53.2103042602539

> <r_i_glide_ecoul>
-13.5648727416992

> <r_i_glide_erotb>
0.612300641676698

> <r_i_glide_esite>
-0.0111405475092117

> <r_i_glide_emodel>
-100.610996932069

> <r_i_glide_energy>
-66.7751770019531

> <r_i_glide_einternal>
6.97471618652344

> <i_i_glide_confnum>
2

> <i_i_glide_posenum>
42

> <r_i_glide_eff_state_penalty>
0

> <s_user_duplicate_titles>
CHEMBL204_lig1758

> <i_f3d_flags>
0

> <s_m_subgroup_title>
dock_pv

> <s_m_subgroupid>
dock_pv

> <b_m_subgroup_collapsed>
1

$$$$
CHEMBL204_lig4153
                    3D
 Schrodinger Suite 2021-1.
 57 59  0  0  1  0            999 V2000
   17.9715  -13.4277   22.2299 N   0  3  0  0  0  0
   18.6318  -12.6215   21.3416 C   0  0  0  0  0  0
   18.9405  -16.1060   25.8323 C   0  0  0  0  0  0
   18.4977  -14.6006   22.7101 C   0  0  0  0  0  0
   18.0038  -11.2836   20.8889 C   0  0  0  0  0  0
   13.1932  -11.0684   21.3779 C   0  0  0  0  0  0
   12.2472  -12.0478   21.7741 C   0  0  0  0  0  0
   16.6970  -11.4860   20.1132 C   0  0  0  0  0  0
   16.8340  -13.0535   22.6493 O   0  5  0  0  0  0
   17.7746  -15.3854   23.6767 N   0  0  0  0  0  0
   19.8852  -13.0363   20.8563 C   0  0  0  0  0  0
   20.1665  -15.1840   25.7208 C   0  0  0  0  0  0
   18.3281  -16.5048   24.4649 C   0  0  0  0  0  0
   11.3684  -11.7509   22.8232 C   0  0  0  0  0  0
   15.5855  -11.0291   20.7038 N   0  0  0  0  0  0
   21.2988  -15.7424   25.2078 N   0  0  0  0  0  0
   14.2204  -11.2897   20.2624 C   0  0  0  0  0  0
   13.2168   -9.8354   22.0482 C   0  0  0  0  0  0
   19.7550  -15.0062   22.2422 C   0  0  0  0  0  0
   16.7059  -12.0687   19.0304 O   0  0  0  0  0  0
   20.4362  -14.2307   21.3106 C   0  0  0  0  0  0
   18.0162  -15.5287   26.6054 F   0  0  0  0  0  0
   19.3129  -17.2170   26.4745 F   0  0  0  0  0  0
   12.1419  -13.4586   21.1715 C   0  0  1  0  0  0
   12.3609   -9.5833   23.1158 C   0  0  0  0  0  0
   11.4304  -10.5394   23.5040 C   0  0  0  0  0  0
   20.7923  -12.1060   19.7126 Cl  0  0  0  0  0  0
   12.0228  -13.4699   19.7257 N   0  0  0  0  0  0
   12.4629   -8.0956   23.9777 Cl  0  0  0  0  0  0
   22.4061  -14.9652   25.0957 C   0  0  0  0  0  0
   20.1172  -13.8390   26.1165 C   0  0  0  0  0  0
   13.2644  -14.3973   21.6343 C   0  0  0  0  0  0
   22.4284  -13.6217   25.4748 C   0  0  0  0  0  0
   21.2622  -13.0536   25.9868 C   0  0  0  0  0  0
   18.6727  -10.6953   20.2653 H   0  0  0  0  0  0
   17.8389  -10.6589   21.7660 H   0  0  0  0  0  0
   16.8474  -15.0522   23.9220 H   0  0  0  0  0  0
   17.4836  -17.1743   24.6310 H   0  0  0  0  0  0
   19.0396  -17.0642   23.8614 H   0  0  0  0  0  0
   10.6274  -12.4699   23.1362 H   0  0  0  0  0  0
   15.6868  -10.4505   21.5214 H   0  0  0  0  0  0
   14.1821  -12.2895   19.8340 H   0  0  0  0  0  0
   13.9656  -10.6175   19.4423 H   0  0  0  0  0  0
   13.9312   -9.0748   21.7650 H   0  0  0  0  0  0
   20.2228  -15.9199   22.5750 H   0  0  0  0  0  0
   21.4031  -14.5529   20.9494 H   0  0  0  0  0  0
   11.2161  -13.9047   21.5179 H   0  0  0  0  0  0
   10.7480  -10.3480   24.3221 H   0  0  0  0  0  0
   11.8521  -14.4149   19.4080 H   0  0  0  0  0  0
   11.2109  -12.9323   19.4642 H   0  0  0  0  0  0
   23.2904  -15.4440   24.6976 H   0  0  0  0  0  0
   19.2164  -13.4052   26.5216 H   0  0  0  0  0  0
   13.2186  -14.5179   22.7182 H   0  0  0  0  0  0
   13.1610  -15.3924   21.1975 H   0  0  0  0  0  0
   14.2566  -14.0220   21.3798 H   0  0  0  0  0  0
   23.3304  -13.0387   25.3773 H   0  0  0  0  0  0
   21.2415  -12.0167   26.2953 H   0  0  0  0  0  0
  1  2  1  0  0  0
  1  4  2  0  0  0
  1  9  1  0  0  0
  2  5  1  0  0  0
  2 11  2  0  0  0
  3 13  1  0  0  0
  3 12  1  0  0  0
  3 22  1  0  0  0
  3 23  1  0  0  0
  4 10  1  0  0  0
  4 19  1  0  0  0
  5  8  1  0  0  0
  5 35  1  0  0  0
  5 36  1  0  0  0
  6 17  1  0  0  0
  6  7  1  0  0  0
  6 18  2  0  0  0
  7 14  2  0  0  0
  7 24  1  0  0  0
  8 15  1  0  0  0
  8 20  2  0  0  0
 10 13  1  0  0  0
 10 37  1  0  0  0
 11 27  1  0  0  0
 11 21  1  0  0  0
 12 16  2  0  0  0
 12 31  1  0  0  0
 13 38  1  0  0  0
 13 39  1  0  0  0
 14 26  1  0  0  0
 14 40  1  0  0  0
 15 17  1  0  0  0
 15 41  1  0  0  0
 16 30  1  0  0  0
 17 42  1  0  0  0
 17 43  1  0  0  0
 18 25  1  0  0  0
 18 44  1  0  0  0
 19 21  2  0  0  0
 19 45  1  0  0  0
 21 46  1  0  0  0
 24 28  1  0  0  0
 24 32  1  0  0  0
 24 47  1  0  0  0
 25 26  2  0  0  0
 25 29  1  0  0  0
 26 48  1  0  0  0
 28 49  1  0  0  0
 28 50  1  0  0  0
 30 33  2  0  0  0
 30 51  1  0  0  0
 31 34  2  0  0  0
 31 52  1  0  0  0
 32 53  1  0  0  0
 32 54  1  0  0  0
 32 55  1  0  0  0
 33 34  1  0  0  0
 33 56  1  0  0  0
 34 57  1  0  0  0
M  CHG  2   1   1   9  -1
M  END
> <s_m_entry_id>
35159

> <s_m_entry_name>
dock_pv.9

> <s_m_Source_Path>
/home/csk/Desktop/cluster/DUD-E-result/thrb

> <s_m_Source_File>
dock_pv.maegz

> <i_m_Source_File_Index>
9

> <chembl_id>
CHEMBL193814

> <chembl_pref_name>
None

> <i_lp_mmshare_version>
53161

> <r_lp_tautomer_probability>
0.9999999999682

> <s_lp_Force_Field>
OPLS_2005

> <r_lp_Energy>
15.87067

> <b_lp_Chiralities_Consistent>
1

> <s_lp_Variant>
CHEMBL204_lig4153-1

> <s_i_glide_gridfile>
glide-grid_1ype

> <i_i_glide_lignum>
5770

> <i_i_glide_rotatable_bonds>
10

> <r_i_docking_score>
-8.96503701895688

> <r_i_glide_ligand_efficiency>
-0.263677559381085

> <r_i_glide_ligand_efficiency_sa>
-0.854212932098919

> <r_i_glide_ligand_efficiency_ln>
-1.98062813825841

> <r_i_glide_gscore>
-8.96503701895688

> <r_i_glide_lipo>
-4.27963934032799

> <r_i_glide_hbond>
-0.296865374655123

> <r_i_glide_metal>
0

> <r_i_glide_rewards>
-0.973324242967297

> <r_i_glide_evdw>
-51.6372985839844

> <r_i_glide_ecoul>
-9.69000148773193

> <r_i_glide_erotb>
0.629199454819771

> <r_i_glide_esite>
-0.00904236346723198

> <r_i_glide_emodel>
-89.7554241691525

> <r_i_glide_energy>
-61.3273000717163

> <r_i_glide_einternal>
9.07801151275635

> <i_i_glide_confnum>
41

> <i_i_glide_posenum>
39

> <r_i_glide_eff_state_penalty>
0

> <s_user_duplicate_titles>
CHEMBL204_lig4153,325904

> <i_f3d_flags>
0

> <s_m_subgroup_title>
dock_pv

> <s_m_subgroupid>
dock_pv

> <b_m_subgroup_collapsed>
1

$$$$
CHEMBL204_lig537
                    3D
 Schrodinger Suite 2021-1.
 69 73  0  0  1  0            999 V2000
   20.5620  -14.1650   24.4782 C   0  0  0  0  0  0
   21.7013  -15.2166   24.6306 C   0  0  0  0  0  0
   19.2428  -12.4558   19.0941 N   0  0  0  0  0  0
   23.0006  -14.8250   24.7178 N   0  0  0  0  0  0
   17.9441  -12.2525   18.6911 C   0  0  0  0  0  0
   17.2244  -12.8988   20.9718 N   0  0  0  0  0  0
   16.9494  -12.5265   19.7685 C   0  0  0  0  0  0
   18.5775  -13.0760   21.3375 C   0  0  0  0  0  0
   19.6186  -12.8596   20.4099 C   0  0  0  0  0  0
   19.4853  -14.3322   25.5605 C   0  0  0  0  0  0
   20.4488  -13.1890   25.6499 C   0  0  0  0  0  0
   20.2020  -13.7067   23.0463 C   0  0  0  0  0  0
   24.1422  -15.7444   24.5152 C   0  0  2  0  0  0
   24.3084  -16.9006   25.5181 C   0  0  0  0  0  0
   18.8722  -13.4910   22.6408 C   0  0  0  0  0  0
   11.6286  -10.6531   23.4056 C   0  0  0  0  0  0
   20.9415  -13.0534   20.8155 C   0  0  0  0  0  0
   24.0520  -16.6530   26.8145 N   0  0  0  0  0  0
   15.4687  -12.4091   19.3473 C   0  0  0  0  0  0
   21.3907  -16.4074   24.5912 O   0  0  0  0  0  0
   17.6347  -11.8702   17.5568 O   0  0  0  0  0  0
   25.6701  -17.8101   28.3631 C   0  0  0  0  0  0
   12.5781  -11.1124   22.3404 C   0  0  0  0  0  0
   11.6184   -9.4590   23.8062 N   0  0  0  0  0  0
   21.2226  -13.4744   22.1120 C   0  0  0  0  0  0
   24.6931  -17.9896   25.0985 O   0  0  0  0  0  0
   26.0906  -18.8471   28.8281 O   0  0  0  0  0  0
   24.2097  -17.6637   27.8792 C   0  0  0  0  0  0
   12.6612  -12.4584   21.9324 C   0  0  0  0  0  0
   13.4599  -10.2006   21.7283 C   0  0  0  0  0  0
   10.8159  -11.6319   23.9195 N   0  0  0  0  0  0
   23.4666  -13.4427   24.8205 C   0  0  0  0  0  0
   14.4686  -11.9586   20.4125 C   0  0  0  0  0  0
   20.3255  -12.2539   18.1129 C   0  0  0  0  0  0
   26.3877  -16.6534   28.2642 O   0  0  0  0  0  0
   13.5923  -12.8771   20.9864 C   0  0  0  0  0  0
   14.3933  -10.6159   20.7809 C   0  0  0  0  0  0
   25.3789  -14.8304   24.5289 C   0  0  0  0  0  0
   24.8546  -13.4459   24.2011 C   0  0  0  0  0  0
   18.4392  -14.1072   25.3601 H   0  0  0  0  0  0
   19.5692  -15.1471   26.2813 H   0  0  0  0  0  0
   21.1739  -13.1960   26.4638 H   0  0  0  0  0  0
   20.0894  -12.1786   25.4473 H   0  0  0  0  0  0
   24.0262  -16.1727   23.5170 H   0  0  0  0  0  0
   18.0511  -13.6599   23.3193 H   0  0  0  0  0  0
   21.7669  -12.9018   20.1364 H   0  0  0  0  0  0
   23.7231  -15.7338   27.0789 H   0  0  0  0  0  0
   15.3471  -11.7085   18.5181 H   0  0  0  0  0  0
   15.1466  -13.3702   18.9427 H   0  0  0  0  0  0
   10.9263   -9.3361   24.5323 H   0  0  0  0  0  0
   22.2566  -13.6281   22.3729 H   0  0  0  0  0  0
   23.8389  -18.6381   27.5512 H   0  0  0  0  0  0
   23.6158  -17.3782   28.7434 H   0  0  0  0  0  0
   12.0177  -13.2157   22.3533 H   0  0  0  0  0  0
   13.4391   -9.1550   22.0005 H   0  0  0  0  0  0
   10.0683  -11.3901   24.5619 H   0  0  0  0  0  0
   10.8008  -12.5624   23.5262 H   0  0  0  0  0  0
   23.5207  -13.1732   25.8763 H   0  0  0  0  0  0
   22.8312  -12.7250   24.3119 H   0  0  0  0  0  0
   19.9755  -11.9846   17.1168 H   0  0  0  0  0  0
   20.9979  -11.4663   18.4528 H   0  0  0  0  0  0
   20.9083  -13.1706   18.0090 H   0  0  0  0  0  0
   25.8646  -15.9218   27.9210 H   0  0  0  0  0  0
   13.6339  -13.9201   20.7069 H   0  0  0  0  0  0
   15.0653   -9.8957   20.3352 H   0  0  0  0  0  0
   25.8365  -14.8184   25.5200 H   0  0  0  0  0  0
   26.1484  -15.1559   23.8289 H   0  0  0  0  0  0
   25.4938  -12.6438   24.5698 H   0  0  0  0  0  0
   24.7719  -13.3345   23.1214 H   0  0  0  0  0  0
  1  2  1  0  0  0
  1 10  1  0  0  0
  1 11  1  0  0  0
  1 12  1  0  0  0
  2  4  1  0  0  0
  2 20  2  0  0  0
  3  9  1  0  0  0
  3  5  1  0  0  0
  3 34  1  0  0  0
  4 13  1  0  0  0
  4 32  1  0  0  0
  5 21  2  0  0  0
  5  7  1  0  0  0
  6  8  1  0  0  0
  6  7  2  0  0  0
  7 19  1  0  0  0
  8 15  2  0  0  0
  8  9  1  0  0  0
  9 17  2  0  0  0
 10 11  1  0  0  0
 10 40  1  0  0  0
 10 41  1  0  0  0
 11 42  1  0  0  0
 11 43  1  0  0  0
 12 15  1  0  0  0
 12 25  2  0  0  0
 13 14  1  0  0  0
 13 38  1  0  0  0
 13 44  1  0  0  0
 14 18  1  0  0  0
 14 26  2  0  0  0
 15 45  1  0  0  0
 16 23  1  0  0  0
 16 24  2  0  0  0
 16 31  1  0  0  0
 17 25  1  0  0  0
 17 46  1  0  0  0
 18 28  1  0  0  0
 18 47  1  0  0  0
 19 33  1  0  0  0
 19 48  1  0  0  0
 19 49  1  0  0  0
 22 28  1  0  0  0
 22 27  2  0  0  0
 22 35  1  0  0  0
 23 30  2  0  0  0
 23 29  1  0  0  0
 24 50  1  0  0  0
 25 51  1  0  0  0
 28 52  1  0  0  0
 28 53  1  0  0  0
 29 36  2  0  0  0
 29 54  1  0  0  0
 30 37  1  0  0  0
 30 55  1  0  0  0
 31 56  1  0  0  0
 31 57  1  0  0  0
 32 39  1  0  0  0
 32 58  1  0  0  0
 32 59  1  0  0  0
 33 36  1  0  0  0
 33 37  2  0  0  0
 34 60  1  0  0  0
 34 61  1  0  0  0
 34 62  1  0  0  0
 35 63  1  0  0  0
 36 64  1  0  0  0
 37 65  1  0  0  0
 38 39  1  0  0  0
 38 66  1  0  0  0
 38 67  1  0  0  0
 39 68  1  0  0  0
 39 69  1  0  0  0
M  END
> <s_m_entry_id>
35160

> <s_m_entry_name>
dock_pv.10

> <s_m_Source_Path>
/home/csk/Desktop/cluster/DUD-E-result/thrb

> <s_m_Source_File>
dock_pv.maegz

> <i_m_Source_File_Index>
10

> <chembl_id>
CHEMBL76068

> <chembl_pref_name>
None

> <i_lp_mmshare_version>
53161

> <r_lp_tautomer_probability>
1

> <s_lp_Force_Field>
OPLS_2005

> <r_lp_Energy>
40.427822

> <b_lp_Chiralities_Consistent>
1

> <s_lp_Variant>
CHEMBL204_lig537-1

> <s_i_glide_gridfile>
glide-grid_1ype

> <i_i_glide_lignum>
741

> <i_i_glide_rotatable_bonds>
11

> <r_i_docking_score>
-8.96163380999626

> <r_i_glide_ligand_efficiency>
-0.229785482307596

> <r_i_glide_ligand_efficiency_sa>
-0.779251156088439

> <r_i_glide_ligand_efficiency_ln>
-1.92162867996687

> <r_i_glide_gscore>
-8.96163380999626

> <r_i_glide_lipo>
-4.24293039805729

> <r_i_glide_hbond>
-0.087649215642413

> <r_i_glide_metal>
0

> <r_i_glide_rewards>
-0.586095435813943

> <r_i_glide_evdw>
-56.4342079162598

> <r_i_glide_ecoul>
-11.8387622833252

> <r_i_glide_erotb>
0.659060164625421

> <r_i_glide_esite>
-0.106494186796265

> <r_i_glide_emodel>
-100.324312257336

> <r_i_glide_energy>
-68.272970199585

> <r_i_glide_einternal>
9.09321880340576

> <i_i_glide_confnum>
9

> <i_i_glide_posenum>
131

> <r_i_glide_eff_state_penalty>
0

> <s_user_duplicate_titles>
CHEMBL204_lig537,119077

> <i_f3d_flags>
0

> <s_m_subgroup_title>
dock_pv

> <s_m_subgroupid>
dock_pv

> <b_m_subgroup_collapsed>
1

$$$$
CHEMBL204_lig3412
                    3D
 Schrodinger Suite 2021-1.
 68 71  0  0  1  0            999 V2000
   17.4635  -17.3940   24.0716 S   0  0  0  0  0  0
   20.3966  -11.8975   17.6255 N   0  3  0  0  0  0
   16.5160  -16.2526   23.1243 N   0  0  2  0  0  0
   17.0854  -15.5750   21.9229 C   0  0  1  0  0  0
   12.0672  -10.7671   22.3940 N   0  0  0  0  0  0
   11.3608  -10.6531   23.6346 C   0  0  0  0  0  0
   18.7722  -16.4141   24.7904 C   0  0  0  0  0  0
   15.8985  -15.2007   21.0069 C   0  0  0  0  0  0
   19.8073  -12.4648   18.8520 C   0  0  0  0  0  0
   16.6150  -17.8546   25.1750 O   0  0  0  0  0  0
   18.0755  -18.3462   23.1391 O   0  0  0  0  0  0
   14.9727  -14.3699   21.5186 N   0  0  0  0  0  0
   20.0541  -16.4756   24.2424 C   0  0  0  0  0  0
   19.6916  -11.8530   16.6232 O   0  5  0  0  0  0
   11.2158   -9.5881   24.2867 N   0  0  0  0  0  0
   12.1768  -12.0028   21.6007 C   0  0  0  0  0  0
   21.5361  -11.4569   17.6639 O   0  0  0  0  0  0
   17.9515  -14.3245   22.2898 C   0  0  0  0  0  0
   21.0568  -15.5767   24.6723 C   0  0  0  0  0  0
   15.8834  -15.5819   19.8366 O   0  0  0  0  0  0
   18.4831  -15.5170   25.8191 C   0  0  0  0  0  0
   10.8159  -11.8506   24.1289 N   0  0  0  0  0  0
   13.6619  -12.2638   21.2953 C   0  0  1  0  0  0
   20.7516  -14.6364   25.7042 C   0  0  0  0  0  0
   19.4598  -14.6428   26.2890 C   0  0  0  0  0  0
   20.5785  -13.2359   19.7294 C   0  0  0  0  0  0
   18.4539  -12.2537   19.1314 C   0  0  0  0  0  0
   13.9061  -13.7047   20.7750 C   0  0  0  0  0  0
   18.6291  -13.6374   21.1027 C   0  0  0  0  0  0
   12.4439   -9.5960   21.5867 C   0  0  0  0  0  0
   19.9885  -13.8351   20.8420 C   0  0  0  0  0  0
   17.8795  -12.8140   20.2631 C   0  0  0  0  0  0
   13.8996   -9.7361   21.0875 C   0  0  0  0  0  0
   14.1727  -11.1013   20.4100 C   0  0  0  0  0  0
   22.3492  -15.5744   24.0900 C   0  0  0  0  0  0
   21.7506  -13.7204   26.1107 C   0  0  0  0  0  0
   23.3119  -14.6682   24.5233 C   0  0  0  0  0  0
   23.0120  -13.7507   25.5217 C   0  0  0  0  0  0
   15.8082  -15.7209   23.6462 H   0  0  0  0  0  0
   17.6902  -16.3082   21.3852 H   0  0  0  0  0  0
   14.9519  -14.2523   22.5242 H   0  0  0  0  0  0
   20.2784  -17.1645   23.4404 H   0  0  0  0  0  0
   10.6211   -9.7375   25.0941 H   0  0  0  0  0  0
   11.7740  -12.8613   22.1378 H   0  0  0  0  0  0
   11.6153  -11.9594   20.6702 H   0  0  0  0  0  0
   17.3449  -13.5823   22.8115 H   0  0  0  0  0  0
   18.7271  -14.5734   23.0043 H   0  0  0  0  0  0
   17.4886  -15.4800   26.2404 H   0  0  0  0  0  0
   10.1501  -11.8354   24.8930 H   0  0  0  0  0  0
   10.8165  -12.7154   23.6006 H   0  0  0  0  0  0
   14.1873  -12.1443   22.2462 H   0  0  0  0  0  0
   19.2311  -13.9498   27.0902 H   0  0  0  0  0  0
   21.6257  -13.4066   19.5267 H   0  0  0  0  0  0
   17.8377  -11.6584   18.4725 H   0  0  0  0  0  0
   13.0143  -14.3226   20.8845 H   0  0  0  0  0  0
   14.1097  -13.6843   19.7020 H   0  0  0  0  0  0
   11.7536   -9.5083   20.7457 H   0  0  0  0  0  0
   12.3483   -8.6755   22.1655 H   0  0  0  0  0  0
   20.5877  -14.4596   21.4893 H   0  0  0  0  0  0
   16.8352  -12.6429   20.4636 H   0  0  0  0  0  0
   14.1002   -8.9268   20.3883 H   0  0  0  0  0  0
   14.5817   -9.5588   21.9192 H   0  0  0  0  0  0
   13.6914  -11.1486   19.4324 H   0  0  0  0  0  0
   15.2349  -11.2067   20.2004 H   0  0  0  0  0  0
   22.5844  -16.2829   23.3083 H   0  0  0  0  0  0
   21.5330  -13.0033   26.8901 H   0  0  0  0  0  0
   24.3009  -14.6808   24.0881 H   0  0  0  0  0  0
   23.7725  -13.0659   25.8628 H   0  0  0  0  0  0
  1  3  1  0  0  0
  1  7  1  0  0  0
  1 10  2  0  0  0
  1 11  2  0  0  0
  2  9  1  0  0  0
  2 14  1  0  0  0
  2 17  2  0  0  0
  3  4  1  0  0  0
  3 39  1  0  0  0
  4  8  1  0  0  0
  4 18  1  0  0  0
  4 40  1  0  0  0
  5  6  1  0  0  0
  5 16  1  0  0  0
  5 30  1  0  0  0
  6 15  2  0  0  0
  6 22  1  0  0  0
  7 13  2  0  0  0
  7 21  1  0  0  0
  8 12  1  0  0  0
  8 20  2  0  0  0
  9 26  1  0  0  0
  9 27  2  0  0  0
 12 28  1  0  0  0
 12 41  1  0  0  0
 13 19  1  0  0  0
 13 42  1  0  0  0
 15 43  1  0  0  0
 16 23  1  0  0  0
 16 44  1  0  0  0
 16 45  1  0  0  0
 18 29  1  0  0  0
 18 46  1  0  0  0
 18 47  1  0  0  0
 19 24  1  0  0  0
 19 35  2  0  0  0
 21 25  2  0  0  0
 21 48  1  0  0  0
 22 49  1  0  0  0
 22 50  1  0  0  0
 23 28  1  0  0  0
 23 34  1  0  0  0
 23 51  1  0  0  0
 24 25  1  0  0  0
 24 36  2  0  0  0
 25 52  1  0  0  0
 26 31  2  0  0  0
 26 53  1  0  0  0
 27 32  1  0  0  0
 27 54  1  0  0  0
 28 55  1  0  0  0
 28 56  1  0  0  0
 29 31  1  0  0  0
 29 32  2  0  0  0
 30 33  1  0  0  0
 30 57  1  0  0  0
 30 58  1  0  0  0
 31 59  1  0  0  0
 32 60  1  0  0  0
 33 34  1  0  0  0
 33 61  1  0  0  0
 33 62  1  0  0  0
 34 63  1  0  0  0
 34 64  1  0  0  0
 35 37  1  0  0  0
 35 65  1  0  0  0
 36 38  1  0  0  0
 36 66  1  0  0  0
 37 38  2  0  0  0
 37 67  1  0  0  0
 38 68  1  0  0  0
M  CHG  2   2   1  14  -1
M  END
> <s_m_entry_id>
35161

> <s_m_entry_name>
dock_pv.11

> <s_m_Source_Path>
/home/csk/Desktop/cluster/DUD-E-result/thrb

> <s_m_Source_File>
dock_pv.maegz

> <i_m_Source_File_Index>
11

> <chembl_id>
CHEMBL544130

> <chembl_pref_name>
None

> <i_lp_mmshare_version>
53161

> <r_lp_tautomer_probability>
1

> <s_lp_Force_Field>
OPLS_2005

> <r_lp_Energy>
22.016726

> <b_lp_Chiralities_Consistent>
1

> <s_lp_Variant>
CHEMBL204_lig3412-2

> <s_i_glide_gridfile>
glide-grid_1ype

> <i_i_glide_lignum>
4760

> <i_i_glide_rotatable_bonds>
11

> <r_i_docking_score>
-8.65167971401224

> <r_i_glide_ligand_efficiency>
-0.227675781947691

> <r_i_glide_ligand_efficiency_sa>
-0.765440378703741

> <r_i_glide_ligand_efficiency_ln>
-1.86555665297282

> <r_i_glide_gscore>
-8.65167971401224

> <r_i_glide_lipo>
-3.80989444048707

> <r_i_glide_hbond>
-0.798196836557335

> <r_i_glide_metal>
0

> <r_i_glide_rewards>
-0.140210032150257

> <r_i_glide_evdw>
-48.3822326660156

> <r_i_glide_ecoul>
-12.3501329421997

> <r_i_glide_erotb>
0.569812109988063

> <r_i_glide_esite>
-0.201558940174906

> <r_i_glide_emodel>
-79.8939413369909

> <r_i_glide_energy>
-60.7323656082153

> <r_i_glide_einternal>
19.9784412384033

> <i_i_glide_confnum>
2

> <i_i_glide_posenum>
255

> <r_i_glide_eff_state_penalty>
0

> <s_user_duplicate_titles>
CHEMBL204_lig3412,547066

> <i_f3d_flags>
0

> <s_m_subgroup_title>
dock_pv

> <s_m_subgroupid>
dock_pv

> <b_m_subgroup_collapsed>
1

$$$$
CHEMBL204_lig4969
                    3D
 Schrodinger Suite 2021-1.
 69 72  0  0  1  0            999 V2000
   12.1337  -17.3312   19.8359 C   0  0  0  0  0  0
   13.4272  -17.8839   19.8788 C   0  0  0  0  0  0
   14.4129  -17.3893   20.7316 C   0  0  0  0  0  0
   14.0762  -16.4020   21.6668 C   0  0  0  0  0  0
   12.8162  -15.8188   21.6281 C   0  0  0  0  0  0
   11.8637  -16.2687   20.7196 C   0  0  0  0  0  0
   15.7057  -17.7970   20.4747 O   0  0  0  0  0  0
   16.8214  -16.9697   20.8418 C   0  0  0  0  0  0
   16.7998  -15.5172   20.3212 C   0  0  0  0  0  0
   12.3315  -10.6997   22.4823 C   0  0  0  0  0  0
   12.4439  -11.7990   21.5975 C   0  0  0  0  0  0
   13.3504  -11.8068   20.5268 C   0  0  0  0  0  0
   14.1641  -10.6868   20.3396 C   0  0  0  0  0  0
   14.0634   -9.5831   21.1768 C   0  0  0  0  0  0
   13.1574   -9.5900   22.2284 C   0  0  0  0  0  0
   13.3841  -12.9199   19.7006 O   0  0  0  0  0  0
   14.3945  -13.0545   18.6846 C   0  0  0  0  0  0
   15.6812  -13.6131   19.2878 C   0  0  0  0  0  0
   21.7810  -14.2044   24.2488 C   0  0  0  0  0  0
   21.5440  -13.8398   22.9106 C   0  0  0  0  0  0
   20.2845  -13.4532   22.4563 C   0  0  0  0  0  0
   19.2139  -13.4553   23.3581 C   0  0  0  0  0  0
   19.4012  -13.8510   24.6769 C   0  0  0  0  0  0
   20.6693  -14.2107   25.1174 C   0  0  0  0  0  0
   20.1850  -13.0782   21.1298 O   0  0  0  0  0  0
   19.0184  -12.3918   20.6656 C   0  0  0  0  0  0
   17.8644  -13.3260   20.3070 C   0  0  0  0  0  0
   17.8661  -14.6816   20.6601 C   0  0  0  0  0  0
   15.7540  -14.9781   19.5574 C   0  0  0  0  0  0
   16.7572  -12.7944   19.6387 C   0  0  0  0  0  0
   11.1251  -17.8454   18.8658 C   0  0  0  0  0  0
   10.0160  -17.0527   18.7209 N   0  0  0  0  0  0
   11.3035  -18.9287   18.2482 N   0  0  0  0  0  0
   23.1585  -14.5409   24.7068 C   0  0  0  0  0  0
   24.1571  -14.4189   23.9432 N   0  0  0  0  0  0
   23.2210  -14.9636   26.0094 N   0  0  0  0  0  0
   11.3910  -10.6701   23.6451 C   0  0  0  0  0  0
   10.7469  -11.8522   23.9152 N   0  0  0  0  0  0
   11.2165   -9.6209   24.3210 N   0  0  0  0  0  0
   13.7112  -18.6514   19.1731 H   0  0  0  0  0  0
   14.8133  -16.0029   22.3469 H   0  0  0  0  0  0
   12.5779  -15.0148   22.3101 H   0  0  0  0  0  0
   10.8934  -15.7968   20.7447 H   0  0  0  0  0  0
   16.9145  -16.9598   21.9298 H   0  0  0  0  0  0
   17.7189  -17.4550   20.4566 H   0  0  0  0  0  0
   11.8219  -12.6721   21.7278 H   0  0  0  0  0  0
   14.8831  -10.6529   19.5431 H   0  0  0  0  0  0
   14.7000   -8.7241   21.0204 H   0  0  0  0  0  0
   13.1186   -8.7178   22.8687 H   0  0  0  0  0  0
   14.5672  -12.1464   18.1067 H   0  0  0  0  0  0
   14.0155  -13.7663   17.9493 H   0  0  0  0  0  0
   22.3547  -13.8242   22.1957 H   0  0  0  0  0  0
   18.2208  -13.1680   23.0489 H   0  0  0  0  0  0
   18.5685  -13.8542   25.3647 H   0  0  0  0  0  0
   20.7638  -14.4767   26.1593 H   0  0  0  0  0  0
   19.3133  -11.8497   19.7660 H   0  0  0  0  0  0
   18.6880  -11.6336   21.3794 H   0  0  0  0  0  0
   18.6968  -15.1067   21.2019 H   0  0  0  0  0  0
   14.9334  -15.5818   19.2115 H   0  0  0  0  0  0
   16.7352  -11.7402   19.4105 H   0  0  0  0  0  0
    9.2399  -17.3856   18.1606 H   0  0  0  0  0  0
    9.9542  -16.1499   19.1653 H   0  0  0  0  0  0
   10.5273  -19.1239   17.6343 H   0  0  0  0  0  0
   25.0160  -14.6703   24.4108 H   0  0  0  0  0  0
   24.1160  -15.0550   26.4757 H   0  0  0  0  0  0
   22.3817  -15.0679   26.5545 H   0  0  0  0  0  0
    9.9479  -11.8379   24.5479 H   0  0  0  0  0  0
   10.9490  -12.7277   23.4506 H   0  0  0  0  0  0
   10.5117   -9.7692   25.0368 H   0  0  0  0  0  0
  1  2  2  0  0  0
  1  6  1  0  0  0
  1 31  1  0  0  0
  2  3  1  0  0  0
  2 40  1  0  0  0
  3  4  2  0  0  0
  3  7  1  0  0  0
  4  5  1  0  0  0
  4 41  1  0  0  0
  5  6  2  0  0  0
  5 42  1  0  0  0
  6 43  1  0  0  0
  7  8  1  0  0  0
  8  9  1  0  0  0
  8 44  1  0  0  0
  8 45  1  0  0  0
  9 28  1  0  0  0
  9 29  2  0  0  0
 10 11  2  0  0  0
 10 15  1  0  0  0
 10 37  1  0  0  0
 11 12  1  0  0  0
 11 46  1  0  0  0
 12 13  2  0  0  0
 12 16  1  0  0  0
 13 14  1  0  0  0
 13 47  1  0  0  0
 14 15  2  0  0  0
 14 48  1  0  0  0
 15 49  1  0  0  0
 16 17  1  0  0  0
 17 18  1  0  0  0
 17 50  1  0  0  0
 17 51  1  0  0  0
 18 29  1  0  0  0
 18 30  2  0  0  0
 19 20  2  0  0  0
 19 24  1  0  0  0
 19 34  1  0  0  0
 20 21  1  0  0  0
 20 52  1  0  0  0
 21 22  2  0  0  0
 21 25  1  0  0  0
 22 23  1  0  0  0
 22 53  1  0  0  0
 23 24  2  0  0  0
 23 54  1  0  0  0
 24 55  1  0  0  0
 25 26  1  0  0  0
 26 27  1  0  0  0
 26 56  1  0  0  0
 26 57  1  0  0  0
 27 28  2  0  0  0
 27 30  1  0  0  0
 28 58  1  0  0  0
 29 59  1  0  0  0
 30 60  1  0  0  0
 31 32  1  0  0  0
 31 33  2  0  0  0
 32 61  1  0  0  0
 32 62  1  0  0  0
 33 63  1  0  0  0
 34 35  2  0  0  0
 34 36  1  0  0  0
 35 64  1  0  0  0
 36 65  1  0  0  0
 36 66  1  0  0  0
 37 38  1  0  0  0
 37 39  2  0  0  0
 38 67  1  0  0  0
 38 68  1  0  0  0
 39 69  1  0  0  0
M  END
> <s_m_entry_id>
35162

> <s_m_entry_name>
dock_pv.12

> <s_m_Source_Path>
/home/csk/Desktop/cluster/DUD-E-result/thrb

> <s_m_Source_File>
dock_pv.maegz

> <i_m_Source_File_Index>
12

> <chembl_id>
CHEMBL3245421

> <chembl_pref_name>
None

> <i_lp_mmshare_version>
53161

> <r_lp_tautomer_probability>
1

> <s_lp_Force_Field>
OPLS_2005

> <r_lp_Energy>
22.962387

> <b_lp_Chiralities_Consistent>
1

> <s_lp_Variant>
CHEMBL204_lig4969-1

> <s_i_glide_gridfile>
glide-grid_1ype

> <i_i_glide_lignum>
6776

> <i_i_glide_rotatable_bonds>
12

> <r_i_docking_score>
-8.59160290900145

> <r_i_glide_ligand_efficiency>
-0.220297510487217

> <r_i_glide_ligand_efficiency_sa>
-0.747075437519464

> <r_i_glide_ligand_efficiency_ln>
-1.84228355084182

> <r_i_glide_gscore>
-8.59160290900145

> <r_i_glide_lipo>
-3.45398266152389

> <r_i_glide_hbond>
-1.15356318159127

> <r_i_glide_metal>
0

> <r_i_glide_rewards>
-0.351245658564103

> <r_i_glide_evdw>
-52.0682106018066

> <r_i_glide_ecoul>
-10.7418146133423

> <r_i_glide_erotb>
0.677694156121868

> <r_i_glide_esite>
-0.0958228413523809

> <r_i_glide_emodel>
-92.5764513735656

> <r_i_glide_energy>
-62.8100252151489

> <r_i_glide_einternal>
11.9818916320801

> <i_i_glide_confnum>
111

> <i_i_glide_posenum>
40

> <r_i_glide_eff_state_penalty>
0

> <s_user_duplicate_titles>
CHEMBL204_lig4969

> <i_f3d_flags>
0

> <s_m_subgroup_title>
dock_pv

> <s_m_subgroupid>
dock_pv

> <b_m_subgroup_collapsed>
1

$$$$
CHEMBL204_lig5134 
                    3D
 Schrodinger Suite 2021-1.
 62 64  0  0  1  0            999 V2000
   21.3781  -12.9340   26.3676 C   0  0  0  0  0  0
   20.0654  -13.6890   26.0621 C   0  0  0  0  0  0
   19.9738  -14.1025   24.5743 C   0  0  0  0  0  0
   21.1731  -15.0346   24.2830 C   0  0  0  0  0  0
   22.4971  -14.2673   24.4504 C   0  0  0  0  0  0
   22.6333  -13.7010   25.8797 C   0  0  0  0  0  0
   18.6094  -14.7686   24.2520 C   0  0  0  0  0  0
   18.2679  -14.9482   22.7460 C   0  0  2  0  0  0
   18.0433  -13.5884   22.0180 C   0  0  0  0  0  0
   17.0477  -12.9225   22.3210 O   0  0  0  0  0  0
   18.9376  -13.1768   21.0791 N   0  0  0  0  0  0
   18.7453  -11.9416   20.2901 C   0  0  1  0  0  0
   20.0694  -11.7589   19.5196 C   0  0  0  0  0  0
   21.0581  -12.7186   20.1553 C   0  0  0  0  0  0
   20.1796  -13.8399   20.6853 C   0  0  0  0  0  0
   17.5107  -12.0369   19.3709 C   0  0  0  0  0  0
   17.5710  -12.6530   18.3071 O   0  0  0  0  0  0
   16.4001  -11.4598   19.8416 N   0  0  0  0  0  0
   15.0584  -11.6979   19.3215 C   0  0  0  0  0  0
   14.0053  -11.4356   20.3903 C   0  0  0  0  0  0
   13.1093  -12.4412   20.7454 C   0  0  0  0  0  0
   12.2026  -12.2337   21.7791 C   0  0  0  0  0  0
   12.1617  -11.0175   22.4899 C   0  0  0  0  0  0
   13.0489  -10.0037   22.0858 C   0  0  0  0  0  0
   13.9607  -10.2082   21.0551 C   0  0  0  0  0  0
   11.2329  -10.7931   23.6376 C   0  0  0  0  0  0
   11.2162   -9.7098   24.2800 N   0  0  0  0  0  0
   10.4160  -11.8530   23.9210 N   0  0  0  0  0  0
   17.0254  -15.7301   22.5954 N   0  0  0  0  0  0
   21.4573  -12.7581   27.4405 H   0  0  0  0  0  0
   21.3398  -11.9411   25.9210 H   0  0  0  0  0  0
   19.9628  -14.5647   26.7056 H   0  0  0  0  0  0
   19.2163  -13.0565   26.3196 H   0  0  0  0  0  0
   20.0768  -13.1997   23.9691 H   0  0  0  0  0  0
   21.1205  -15.4435   23.2773 H   0  0  0  0  0  0
   21.1332  -15.9202   24.9199 H   0  0  0  0  0  0
   23.3410  -14.9216   24.2280 H   0  0  0  0  0  0
   22.5440  -13.4523   23.7256 H   0  0  0  0  0  0
   22.8359  -14.5239   26.5666 H   0  0  0  0  0  0
   23.5090  -13.0536   25.9202 H   0  0  0  0  0  0
   18.5861  -15.7460   24.7375 H   0  0  0  0  0  0
   17.8047  -14.2010   24.7250 H   0  0  0  0  0  0
   19.0528  -15.5364   22.2754 H   0  0  0  0  0  0
   18.6276  -11.1097   20.9888 H   0  0  0  0  0  0
   20.4213  -10.7310   19.5738 H   0  0  0  0  0  0
   19.9678  -12.0107   18.4636 H   0  0  0  0  0  0
   21.5631  -12.2428   20.9957 H   0  0  0  0  0  0
   21.8236  -13.0538   19.4581 H   0  0  0  0  0  0
   20.6961  -14.3439   21.4955 H   0  0  0  0  0  0
   19.9586  -14.5713   19.9067 H   0  0  0  0  0  0
   16.4537  -10.9652   20.7211 H   0  0  0  0  0  0
   14.8787  -11.0531   18.4643 H   0  0  0  0  0  0
   14.9680  -12.7192   18.9416 H   0  0  0  0  0  0
   13.1274  -13.3984   20.2441 H   0  0  0  0  0  0
   11.5427  -13.0530   22.0241 H   0  0  0  0  0  0
   13.0572   -9.0488   22.5924 H   0  0  0  0  0  0
   14.6500   -9.4180   20.7935 H   0  0  0  0  0  0
   10.4913   -9.7358   24.9875 H   0  0  0  0  0  0
    9.6580  -11.7423   24.5953 H   0  0  0  0  0  0
   10.5532  -12.7741   23.5212 H   0  0  0  0  0  0
   17.0810  -16.5892   23.1222 H   0  0  0  0  0  0
   16.2569  -15.2135   23.0146 H   0  0  0  0  0  0
  1  2  1  0  0  0
  1  6  1  0  0  0
  1 30  1  0  0  0
  1 31  1  0  0  0
  2  3  1  0  0  0
  2 32  1  0  0  0
  2 33  1  0  0  0
  3  4  1  0  0  0
  3  7  1  0  0  0
  3 34  1  0  0  0
  4  5  1  0  0  0
  4 35  1  0  0  0
  4 36  1  0  0  0
  5  6  1  0  0  0
  5 37  1  0  0  0
  5 38  1  0  0  0
  6 39  1  0  0  0
  6 40  1  0  0  0
  7  8  1  0  0  0
  7 41  1  0  0  0
  7 42  1  0  0  0
  8  9  1  0  0  0
  8 29  1  0  0  0
  8 43  1  0  0  0
  9 10  2  0  0  0
  9 11  1  0  0  0
 11 12  1  0  0  0
 11 15  1  0  0  0
 12 13  1  0  0  0
 12 16  1  0  0  0
 12 44  1  0  0  0
 13 14  1  0  0  0
 13 45  1  0  0  0
 13 46  1  0  0  0
 14 15  1  0  0  0
 14 47  1  0  0  0
 14 48  1  0  0  0
 15 49  1  0  0  0
 15 50  1  0  0  0
 16 17  2  0  0  0
 16 18  1  0  0  0
 18 19  1  0  0  0
 18 51  1  0  0  0
 19 20  1  0  0  0
 19 52  1  0  0  0
 19 53  1  0  0  0
 20 21  2  0  0  0
 20 25  1  0  0  0
 21 22  1  0  0  0
 21 54  1  0  0  0
 22 23  2  0  0  0
 22 55  1  0  0  0
 23 24  1  0  0  0
 23 26  1  0  0  0
 24 25  2  0  0  0
 24 56  1  0  0  0
 25 57  1  0  0  0
 26 27  2  0  0  0
 26 28  1  0  0  0
 27 58  1  0  0  0
 28 59  1  0  0  0
 28 60  1  0  0  0
 29 61  1  0  0  0
 29 62  1  0  0  0
M  END
> <s_m_entry_id>
35163

> <s_m_entry_name>
dock_pv.13

> <s_m_Source_Path>
/home/csk/Desktop/cluster/DUD-E-result/thrb

> <s_m_Source_File>
dock_pv.maegz

> <i_m_Source_File_Index>
13

> <chembl_id>
CHEMBL4448453

> <chembl_pref_name>
None

> <i_lp_mmshare_version>
53161

> <r_lp_tautomer_probability>
1

> <s_lp_Force_Field>
OPLS_2005

> <r_lp_Energy>
22.213089

> <b_lp_Chiralities_Consistent>
1

> <s_lp_Variant>
CHEMBL204_lig5134 -1

> <s_i_glide_gridfile>
glide-grid_1ype

> <i_i_glide_lignum>
7032

> <i_i_glide_rotatable_bonds>
9

> <r_i_docking_score>
-8.5889829155598

> <r_i_glide_ligand_efficiency>
-0.296171824674476

> <r_i_glide_ligand_efficiency_sa>
-0.909933679220132

> <r_i_glide_ligand_efficiency_ln>
-1.96665928984856

> <r_i_glide_gscore>
-8.5889829155598

> <r_i_glide_lipo>
-3.80424709027718

> <r_i_glide_hbond>
-0.375112978104872

> <r_i_glide_metal>
0

> <r_i_glide_rewards>
-1.36922412445523

> <r_i_glide_evdw>
-44.1278648376465

> <r_i_glide_ecoul>
-10.3959693908691

> <r_i_glide_erotb>
0.85931758919383

> <r_i_glide_esite>
-0.133927661403651

> <r_i_glide_emodel>
-77.3835321666196

> <r_i_glide_energy>
-54.5238342285156

> <r_i_glide_einternal>
8.42290782928467

> <i_i_glide_confnum>
36

> <i_i_glide_posenum>
39

> <r_i_glide_eff_state_penalty>
0

> <s_user_duplicate_titles>
CHEMBL204_lig5134 

> <i_f3d_flags>
0

> <s_m_subgroup_title>
dock_pv

> <s_m_subgroupid>
dock_pv

> <b_m_subgroup_collapsed>
1

$$$$
CHEMBL204_lig4984
                    3D
 Schrodinger Suite 2021-1.
 67 70  0  0  1  0            999 V2000
   19.8325  -13.4265   23.3902 C   0  0  2  0  0  0
   21.0968  -13.9854   22.6709 C   0  0  0  0  0  0
   22.3060  -14.0424   23.6249 C   0  0  0  0  0  0
   21.9677  -14.7945   24.9266 C   0  0  2  0  0  0
   20.8486  -14.0170   25.6512 C   0  0  0  0  0  0
   19.5565  -14.0084   24.8084 C   0  0  0  0  0  0
   18.6037  -13.4614   22.4467 C   0  0  0  0  0  0
   17.5615  -13.9963   22.8290 O   0  0  0  0  0  0
   18.7329  -12.8235   21.2590 N   0  0  0  0  0  0
   23.2174  -14.9430   25.8038 C   0  0  0  0  0  0
   17.7841  -12.6873   20.2262 C   0  0  0  0  0  0
   16.4035  -12.8381   20.4088 C   0  0  0  0  0  0
   15.5202  -12.6725   19.3347 C   0  0  0  0  0  0
   16.0143  -12.3672   18.0716 C   0  0  0  0  0  0
   17.3941  -12.1923   17.8668 C   0  0  0  0  0  0
   18.2650  -12.3530   18.9557 C   0  0  0  0  0  0
   17.9387  -11.8529   16.6422 O   0  0  0  0  0  0
   17.1247  -11.7405   15.5358 C   0  0  0  0  0  0
   16.5644  -10.5094   15.2107 C   0  0  0  0  0  0
   15.7001  -10.4028   14.1197 C   0  0  0  0  0  0
   15.3982  -11.5210   13.3091 C   0  0  0  0  0  0
   15.9780  -12.7493   13.6672 C   0  0  0  0  0  0
   16.8180  -12.8623   14.7696 C   0  0  0  0  0  0
   14.5003  -11.4415   12.1187 C   0  0  0  0  0  0
   13.8530  -10.2532   11.9597 N   0  0  0  0  0  0
   14.3492  -12.4085   11.3271 N   0  0  0  0  0  0
   14.1603  -12.7924   19.4990 O   0  0  0  0  0  0
   13.5473  -12.0660   20.4924 C   0  0  0  0  0  0
   12.5889  -12.6921   21.2778 C   0  0  0  0  0  0
   11.9937  -11.9989   22.3216 C   0  0  0  0  0  0
   12.3171  -10.6555   22.6049 C   0  0  0  0  0  0
   13.2521  -10.0301   21.7634 C   0  0  0  0  0  0
   13.8698  -10.7268   20.7314 C   0  0  0  0  0  0
   11.7087   -9.9099   23.7431 C   0  0  0  0  0  0
   10.8198  -10.6398   24.4787 N   0  0  0  0  0  0
   12.0169   -8.7142   23.9963 N   0  0  0  0  0  0
   20.0305  -12.3663   23.5245 H   0  0  0  0  0  0
   20.9342  -15.0162   22.3509 H   0  0  0  0  0  0
   21.4022  -13.3635   21.8270 H   0  0  0  0  0  0
   22.6813  -13.0442   23.8475 H   0  0  0  0  0  0
   23.1408  -14.5402   23.1298 H   0  0  0  0  0  0
   21.5964  -15.7897   24.6736 H   0  0  0  0  0  0
   21.1749  -13.0033   25.8937 H   0  0  0  0  0  0
   20.6504  -14.4779   26.6218 H   0  0  0  0  0  0
   18.8268  -13.4072   25.3529 H   0  0  0  0  0  0
   19.2282  -15.0478   24.7483 H   0  0  0  0  0  0
   19.6454  -12.4515   21.0529 H   0  0  0  0  0  0
   23.5969  -13.9715   26.1267 H   0  0  0  0  0  0
   23.0058  -15.5344   26.6945 H   0  0  0  0  0  0
   24.0224  -15.4539   25.2684 H   0  0  0  0  0  0
   15.9754  -13.0701   21.3761 H   0  0  0  0  0  0
   15.3050  -12.2596   17.2672 H   0  0  0  0  0  0
   19.3235  -12.2216   18.7872 H   0  0  0  0  0  0
   16.7766   -9.6382   15.8110 H   0  0  0  0  0  0
   15.2805   -9.4302   13.9197 H   0  0  0  0  0  0
   15.7649  -13.6584   13.1164 H   0  0  0  0  0  0
   17.2090  -13.8330   15.0352 H   0  0  0  0  0  0
   13.2335  -10.1652   11.1720 H   0  0  0  0  0  0
   14.2580   -9.4011   12.3410 H   0  0  0  0  0  0
   14.8490  -13.2347   11.6080 H   0  0  0  0  0  0
   12.3273  -13.7234   21.0941 H   0  0  0  0  0  0
   11.2746  -12.5506   22.9066 H   0  0  0  0  0  0
   13.5527   -9.0026   21.9130 H   0  0  0  0  0  0
   14.6222  -10.2517   20.1219 H   0  0  0  0  0  0
   10.1969  -10.1531   25.1195 H   0  0  0  0  0  0
   10.4532  -11.5035   24.1129 H   0  0  0  0  0  0
   12.7033   -8.3476   23.3605 H   0  0  0  0  0  0
  1  2  1  0  0  0
  1  6  1  0  0  0
  1  7  1  0  0  0
  1 37  1  0  0  0
  2  3  1  0  0  0
  2 38  1  0  0  0
  2 39  1  0  0  0
  3  4  1  0  0  0
  3 40  1  0  0  0
  3 41  1  0  0  0
  4  5  1  0  0  0
  4 10  1  0  0  0
  4 42  1  0  0  0
  5  6  1  0  0  0
  5 43  1  0  0  0
  5 44  1  0  0  0
  6 45  1  0  0  0
  6 46  1  0  0  0
  7  8  2  0  0  0
  7  9  1  0  0  0
  9 11  1  0  0  0
  9 47  1  0  0  0
 10 48  1  0  0  0
 10 49  1  0  0  0
 10 50  1  0  0  0
 11 12  1  0  0  0
 11 16  2  0  0  0
 12 13  2  0  0  0
 12 51  1  0  0  0
 13 14  1  0  0  0
 13 27  1  0  0  0
 14 15  2  0  0  0
 14 52  1  0  0  0
 15 16  1  0  0  0
 15 17  1  0  0  0
 16 53  1  0  0  0
 17 18  1  0  0  0
 18 19  1  0  0  0
 18 23  2  0  0  0
 19 20  2  0  0  0
 19 54  1  0  0  0
 20 21  1  0  0  0
 20 55  1  0  0  0
 21 22  2  0  0  0
 21 24  1  0  0  0
 22 23  1  0  0  0
 22 56  1  0  0  0
 23 57  1  0  0  0
 24 25  1  0  0  0
 24 26  2  0  0  0
 25 58  1  0  0  0
 25 59  1  0  0  0
 26 60  1  0  0  0
 27 28  1  0  0  0
 28 29  1  0  0  0
 28 33  2  0  0  0
 29 30  2  0  0  0
 29 61  1  0  0  0
 30 31  1  0  0  0
 30 62  1  0  0  0
 31 32  2  0  0  0
 31 34  1  0  0  0
 32 33  1  0  0  0
 32 63  1  0  0  0
 33 64  1  0  0  0
 34 35  1  0  0  0
 34 36  2  0  0  0
 35 65  1  0  0  0
 35 66  1  0  0  0
 36 67  1  0  0  0
M  END
> <s_m_entry_id>
35164

> <s_m_entry_name>
dock_pv.14

> <s_m_Source_Path>
/home/csk/Desktop/cluster/DUD-E-result/thrb

> <s_m_Source_File>
dock_pv.maegz

> <i_m_Source_File_Index>
14

> <chembl_id>
CHEMBL3289031

> <chembl_pref_name>
None

> <i_lp_mmshare_version>
53161

> <r_lp_tautomer_probability>
1

> <s_lp_Force_Field>
OPLS_2005

> <r_lp_Energy>
33.196689

> <b_lp_Chiralities_Consistent>
1

> <s_lp_Variant>
CHEMBL204_lig4984-1

> <s_i_glide_gridfile>
glide-grid_1ype

> <i_i_glide_lignum>
6796

> <i_i_glide_rotatable_bonds>
9

> <r_i_docking_score>
-8.57991942446525

> <r_i_glide_ligand_efficiency>
-0.238331095124035

> <r_i_glide_ligand_efficiency_sa>
-0.786951936308928

> <r_i_glide_ligand_efficiency_ln>
-1.87190661578356

> <r_i_glide_gscore>
-8.57991942446525

> <r_i_glide_lipo>
-3.25520641388155

> <r_i_glide_hbond>
-0.438421926575625

> <r_i_glide_metal>
0

> <r_i_glide_rewards>
-0.867155602310719

> <r_i_glide_evdw>
-56.243480682373

> <r_i_glide_ecoul>
-11.4344549179077

> <r_i_glide_erotb>
0.603144381423396

> <r_i_glide_esite>
-0.0949375913159415

> <r_i_glide_emodel>
-90.0369895175276

> <r_i_glide_energy>
-67.6779356002808

> <r_i_glide_einternal>
12.4075708389282

> <i_i_glide_confnum>
7

> <i_i_glide_posenum>
59

> <r_i_glide_eff_state_penalty>
0

> <s_user_duplicate_titles>
CHEMBL204_lig4984

> <i_f3d_flags>
0

> <s_m_subgroup_title>
dock_pv

> <s_m_subgroupid>
dock_pv

> <b_m_subgroup_collapsed>
1

$$$$
CHEMBL204_lig1774
                    3D
 Schrodinger Suite 2021-1.
 65 69  0  0  1  0            999 V2000
   21.1192  -12.1523   19.0252 C   0  0  0  0  0  0
   19.7742  -11.8515   19.3863 O   0  0  0  0  0  0
   19.1964  -12.5878   20.3998 C   0  0  0  0  0  0
   19.8208  -13.5709   21.1797 C   0  0  0  0  0  0
   19.1267  -14.2858   22.1681 C   0  0  0  0  0  0
   17.7607  -14.0582   22.3998 C   0  0  0  0  0  0
   17.1160  -13.0729   21.6415 C   0  0  0  0  0  0
   15.8135  -12.6531   21.6415 N   0  0  0  0  0  0
   15.7991  -11.7276   20.7066 C   0  0  0  0  0  0
   14.7403  -11.0707   20.1514 N   0  0  0  0  0  0
   13.3123  -11.3696   20.2661 C   0  0  1  0  0  0
   12.9803  -12.7853   19.7381 C   0  0  0  0  0  0
   13.5357  -13.0548   18.5562 F   0  0  0  0  0  0
   12.7285  -11.0095   21.6432 C   0  0  0  0  0  0
   11.8218  -11.8531   22.3048 C   0  0  0  0  0  0
   11.2142  -11.4530   23.4924 C   0  0  0  0  0  0
   11.5039  -10.2100   24.0403 C   0  0  0  0  0  0
   12.4156   -9.3670   23.4112 C   0  0  0  0  0  0
   12.8157   -7.8524   24.1327 Cl  0  0  0  0  0  0
   13.0146   -9.7592   22.2148 C   0  0  0  0  0  0
   16.9913  -11.4727   20.0926 O   0  0  0  0  0  0
   17.8444  -12.3565   20.6772 C   0  0  0  0  0  0
   19.8735  -15.3031   22.9896 C   0  0  0  0  0  0
   19.6109  -16.4966   22.8329 O   0  0  0  0  0  0
   20.8507  -14.8488   23.8226 N   0  0  0  0  0  0
   21.0165  -13.4116   24.1504 C   0  0  0  0  0  0
   21.0892  -13.2640   25.6892 C   0  0  1  0  0  0
   19.7198  -13.3834   26.3741 C   0  0  0  0  0  0
   22.0391  -14.1646   26.2474 O   0  0  0  0  0  0
   21.8025  -15.5357   25.9297 C   0  0  0  0  0  0
   21.8328  -15.7872   24.4133 C   0  0  2  0  0  0
   23.2315  -15.7112   23.7615 C   0  0  2  0  0  0
   24.4042  -16.5251   24.3137 C   0  0  0  0  0  0
   25.3191  -15.3403   23.9395 C   0  0  1  0  0  0
   26.0228  -15.4530   22.7237 O   0  0  0  0  0  0
   24.0812  -14.4375   23.8838 C   0  0  0  0  0  0
   21.4207  -11.5236   18.1864 H   0  0  0  0  0  0
   21.8079  -11.9605   19.8481 H   0  0  0  0  0  0
   21.2192  -13.1920   18.7081 H   0  0  0  0  0  0
   20.8670  -13.7934   21.0210 H   0  0  0  0  0  0
   17.2111  -14.6180   23.1444 H   0  0  0  0  0  0
   14.9520  -10.4838   19.3555 H   0  0  0  0  0  0
   12.8228  -10.6729   19.5831 H   0  0  0  0  0  0
   13.3324  -13.5542   20.4258 H   0  0  0  0  0  0
   11.9062  -12.9172   19.6138 H   0  0  0  0  0  0
   11.5491  -12.8207   21.9096 H   0  0  0  0  0  0
   10.4958  -12.1033   23.9760 H   0  0  0  0  0  0
   11.0132   -9.9067   24.9540 H   0  0  0  0  0  0
   13.7018   -9.0812   21.7265 H   0  0  0  0  0  0
   21.9331  -13.0455   23.6963 H   0  0  0  0  0  0
   20.1934  -12.7857   23.8079 H   0  0  0  0  0  0
   21.4386  -12.2567   25.9208 H   0  0  0  0  0  0
   19.0279  -12.6829   25.9201 H   0  0  0  0  0  0
   19.2658  -14.3684   26.2856 H   0  0  0  0  0  0
   19.7945  -13.1345   27.4317 H   0  0  0  0  0  0
   20.8398  -15.8564   26.3209 H   0  0  0  0  0  0
   22.5324  -16.1521   26.4513 H   0  0  0  0  0  0
   21.5007  -16.8177   24.2739 H   0  0  0  0  0  0
   23.0603  -15.9814   22.7222 H   0  0  0  0  0  0
   24.6134  -17.4567   23.7903 H   0  0  0  0  0  0
   24.4007  -16.6725   25.3945 H   0  0  0  0  0  0
   26.0160  -15.0755   24.7320 H   0  0  0  0  0  0
   26.5840  -14.6723   22.6316 H   0  0  0  0  0  0
   23.9789  -13.8913   24.8215 H   0  0  0  0  0  0
   24.0243  -13.7542   23.0381 H   0  0  0  0  0  0
  1  2  1  0  0  0
  1 37  1  0  0  0
  1 38  1  0  0  0
  1 39  1  0  0  0
  2  3  1  0  0  0
  3  4  2  0  0  0
  3 22  1  0  0  0
  4  5  1  0  0  0
  4 40  1  0  0  0
  5  6  2  0  0  0
  5 23  1  0  0  0
  6  7  1  0  0  0
  6 41  1  0  0  0
  7  8  1  0  0  0
  7 22  2  0  0  0
  8  9  2  0  0  0
  9 10  1  0  0  0
  9 21  1  0  0  0
 10 11  1  0  0  0
 10 42  1  0  0  0
 11 12  1  0  0  0
 11 14  1  0  0  0
 11 43  1  0  0  0
 12 13  1  0  0  0
 12 44  1  0  0  0
 12 45  1  0  0  0
 14 15  2  0  0  0
 14 20  1  0  0  0
 15 16  1  0  0  0
 15 46  1  0  0  0
 16 17  2  0  0  0
 16 47  1  0  0  0
 17 18  1  0  0  0
 17 48  1  0  0  0
 18 19  1  0  0  0
 18 20  2  0  0  0
 20 49  1  0  0  0
 21 22  1  0  0  0
 23 24  2  0  0  0
 23 25  1  0  0  0
 25 26  1  0  0  0
 25 31  1  0  0  0
 26 27  1  0  0  0
 26 50  1  0  0  0
 26 51  1  0  0  0
 27 28  1  0  0  0
 27 29  1  0  0  0
 27 52  1  0  0  0
 28 53  1  0  0  0
 28 54  1  0  0  0
 28 55  1  0  0  0
 29 30  1  0  0  0
 30 31  1  0  0  0
 30 56  1  0  0  0
 30 57  1  0  0  0
 31 32  1  0  0  0
 31 58  1  0  0  0
 32 33  1  0  0  0
 32 36  1  0  0  0
 32 59  1  0  0  0
 33 34  1  0  0  0
 33 60  1  0  0  0
 33 61  1  0  0  0
 34 35  1  0  0  0
 34 36  1  0  0  0
 34 62  1  0  0  0
 35 63  1  0  0  0
 36 64  1  0  0  0
 36 65  1  0  0  0
M  END
> <s_m_entry_id>
35165

> <s_m_entry_name>
dock_pv.15

> <s_m_Source_Path>
/home/csk/Desktop/cluster/DUD-E-result/thrb

> <s_m_Source_File>
dock_pv.maegz

> <i_m_Source_File_Index>
15

> <chembl_id>
CHEMBL3944800

> <chembl_pref_name>
None

> <i_lp_mmshare_version>
53161

> <r_lp_tautomer_probability>
1

> <s_lp_Force_Field>
OPLS_2005

> <r_lp_Energy>
47.284639

> <b_lp_Chiralities_Consistent>
1

> <s_lp_Variant>
CHEMBL204_lig1774-16

> <s_i_glide_gridfile>
glide-grid_1ype

> <i_i_glide_lignum>
2624

> <i_i_glide_rotatable_bonds>
9

> <r_i_docking_score>
-8.57268229327436

> <r_i_glide_ligand_efficiency>
-0.238130063702066

> <r_i_glide_ligand_efficiency_sa>
-0.786288145179638

> <r_i_glide_ligand_efficiency_ln>
-1.8703276692824

> <r_i_glide_gscore>
-8.57268229327436

> <r_i_glide_lipo>
-4.05359437192318

> <r_i_glide_hbond>
-0.838826642374343

> <r_i_glide_metal>
0

> <r_i_glide_rewards>
-0.419950433963931

> <r_i_glide_evdw>
-52.9369201660156

> <r_i_glide_ecoul>
-7.15133285522461

> <r_i_glide_erotb>
0.459235091571562

> <r_i_glide_esite>
0

> <r_i_glide_emodel>
-81.126633693445

> <r_i_glide_energy>
-60.0882530212402

> <r_i_glide_einternal>
21.1909084320068

> <i_i_glide_confnum>
70

> <i_i_glide_posenum>
185

> <r_i_glide_eff_state_penalty>
0

> <s_user_duplicate_titles>
CHEMBL204_lig1774,CHEMBL204_lig1777,CHEMBL204_lig1780

> <i_f3d_flags>
0

> <s_m_subgroup_title>
dock_pv

> <s_m_subgroupid>
dock_pv

> <b_m_subgroup_collapsed>
1

$$$$
CHEMBL204_lig4346
                    3D
 Schrodinger Suite 2021-1.
 83 85  0  0  1  0            999 V2000
   16.7199  -12.3495   19.4172 C   0  0  1  0  0  0
   16.3886  -11.7322   18.0348 C   0  0  0  0  0  0
   17.4236  -11.4273   20.3396 N   0  0  1  0  0  0
   15.4956  -12.5896   17.1066 C   0  0  0  0  0  0
   15.6330  -12.2041   15.6338 C   0  0  0  0  0  0
   16.3447  -13.0276   14.7505 C   0  0  0  0  0  0
   16.4881  -12.6491   13.4154 C   0  0  0  0  0  0
   15.9311  -11.4489   12.9723 C   0  0  0  0  0  0
   15.2281  -10.6531   13.8772 C   0  0  0  0  0  0
   15.0936  -11.0471   15.1600 N   0  3  0  0  0  0
   14.4164  -10.3050   15.9208 O   0  5  0  0  0  0
   18.8297  -11.7325   20.5881 C   0  0  0  0  0  0
   19.1097  -13.0312   21.3727 C   0  0  0  0  0  0
   14.4750  -12.1904   20.5667 N   0  0  0  0  0  0
   13.3390  -12.7086   21.3589 C   0  0  1  0  0  0
   12.4047  -11.4962   21.5414 C   0  0  0  0  0  0
   13.3027  -10.2866   21.3543 C   0  0  0  0  0  0
   14.2849  -10.7626   20.2945 C   0  0  0  0  0  0
   12.8025  -16.7983   19.4473 C   0  0  0  0  0  0
   14.1627  -17.1230   19.3381 C   0  0  0  0  0  0
   14.6891  -17.5970   18.1393 C   0  0  0  0  0  0
   13.8534  -17.7710   17.0395 C   0  0  0  0  0  0
   12.5023  -17.4534   17.1358 C   0  0  0  0  0  0
   11.9598  -16.9342   18.3245 C   0  0  0  0  0  0
   10.4855  -16.5109   18.4036 C   0  0  0  0  0  0
    9.8576  -16.2528   17.1206 N   0  0  0  0  0  0
   16.3700  -17.9745   18.0164 Cl  0  0  0  0  0  0
   12.2771  -16.3506   20.8139 C   0  0  0  0  0  0
   12.8094  -15.0809   21.2975 N   0  0  0  0  0  0
   12.6394  -13.8990   20.6881 C   0  0  0  0  0  0
   12.0158  -13.7300   19.6420 O   0  0  0  0  0  0
   15.5322  -12.9686   20.2047 C   0  0  0  0  0  0
   15.6248  -14.1649   20.4924 O   0  0  0  0  0  0
   18.3096  -13.5079   22.1800 O   0  0  0  0  0  0
   20.3121  -13.5548   21.0482 O   0  0  0  0  0  0
   20.7627  -14.8021   21.5762 C   0  0  0  0  0  0
   21.1832  -14.7454   23.0612 C   0  0  0  0  0  0
   22.1734  -13.6128   23.3975 C   0  0  0  0  0  0
   22.7401  -13.6589   24.8343 C   0  0  0  0  0  0
   21.6945  -13.7228   25.9668 C   0  0  0  0  0  0
   20.7057  -12.5482   25.9988 C   0  0  0  0  0  0
   17.3694  -13.1928   19.1647 H   0  0  0  0  0  0
   16.0004  -10.7196   18.1157 H   0  0  0  0  0  0
   17.3479  -11.5954   17.5313 H   0  0  0  0  0  0
   17.3048  -10.4567   20.0915 H   0  0  0  0  0  0
   15.7439  -13.6475   17.2247 H   0  0  0  0  0  0
   14.4493  -12.5073   17.4047 H   0  0  0  0  0  0
   16.7741  -13.9607   15.0897 H   0  0  0  0  0  0
   17.0197  -13.2913   12.7253 H   0  0  0  0  0  0
   16.0255  -11.1515   11.9375 H   0  0  0  0  0  0
   14.7580   -9.7199   13.6103 H   0  0  0  0  0  0
   19.2165  -10.9008   21.1667 H   0  0  0  0  0  0
   19.3756  -11.7519   19.6439 H   0  0  0  0  0  0
   13.7334  -13.0061   22.3325 H   0  0  0  0  0  0
   11.9149  -11.4982   22.5164 H   0  0  0  0  0  0
   11.6170  -11.4795   20.7872 H   0  0  0  0  0  0
   13.8360  -10.0859   22.2833 H   0  0  0  0  0  0
   12.7602   -9.3842   21.0734 H   0  0  0  0  0  0
   15.1945  -10.1671   20.3338 H   0  0  0  0  0  0
   13.8465  -10.6561   19.3020 H   0  0  0  0  0  0
   14.8160  -17.0048   20.1902 H   0  0  0  0  0  0
   14.2515  -18.1400   16.1048 H   0  0  0  0  0  0
   11.8877  -17.5957   16.2615 H   0  0  0  0  0  0
    9.9056  -17.2599   18.9470 H   0  0  0  0  0  0
   10.4182  -15.5818   18.9687 H   0  0  0  0  0  0
   10.5519  -15.8881   16.4716 H   0  0  0  0  0  0
    9.5331  -17.1295   16.7326 H   0  0  0  0  0  0
   12.5722  -17.1196   21.5307 H   0  0  0  0  0  0
   11.1870  -16.3329   20.8695 H   0  0  0  0  0  0
   13.3645  -15.1006   22.1413 H   0  0  0  0  0  0
   21.6163  -15.1167   20.9734 H   0  0  0  0  0  0
   19.9971  -15.5670   21.4325 H   0  0  0  0  0  0
   21.6221  -15.7066   23.3335 H   0  0  0  0  0  0
   20.2888  -14.6437   23.6753 H   0  0  0  0  0  0
   21.6863  -12.6530   23.2286 H   0  0  0  0  0  0
   23.0126  -13.6408   22.7021 H   0  0  0  0  0  0
   23.3792  -12.7888   24.9901 H   0  0  0  0  0  0
   23.3990  -14.5233   24.9232 H   0  0  0  0  0  0
   22.2214  -13.7571   26.9213 H   0  0  0  0  0  0
   21.1404  -14.6615   25.9097 H   0  0  0  0  0  0
   20.0244  -12.6519   26.8441 H   0  0  0  0  0  0
   20.1012  -12.5001   25.0912 H   0  0  0  0  0  0
   21.2170  -11.5912   26.1099 H   0  0  0  0  0  0
  1  3  1  0  0  0
  1  2  1  0  0  0
  1 32  1  0  0  0
  1 42  1  0  0  0
  2  4  1  0  0  0
  2 43  1  0  0  0
  2 44  1  0  0  0
  3 12  1  0  0  0
  3 45  1  0  0  0
  4  5  1  0  0  0
  4 46  1  0  0  0
  4 47  1  0  0  0
  5  6  2  0  0  0
  5 10  1  0  0  0
  6  7  1  0  0  0
  6 48  1  0  0  0
  7  8  2  0  0  0
  7 49  1  0  0  0
  8  9  1  0  0  0
  8 50  1  0  0  0
  9 10  2  0  0  0
  9 51  1  0  0  0
 10 11  1  0  0  0
 12 13  1  0  0  0
 12 52  1  0  0  0
 12 53  1  0  0  0
 13 34  2  0  0  0
 13 35  1  0  0  0
 14 15  1  0  0  0
 14 32  1  0  0  0
 14 18  1  0  0  0
 15 30  1  0  0  0
 15 16  1  0  0  0
 15 54  1  0  0  0
 16 17  1  0  0  0
 16 55  1  0  0  0
 16 56  1  0  0  0
 17 18  1  0  0  0
 17 57  1  0  0  0
 17 58  1  0  0  0
 18 59  1  0  0  0
 18 60  1  0  0  0
 19 24  1  0  0  0
 19 28  1  0  0  0
 19 20  2  0  0  0
 20 21  1  0  0  0
 20 61  1  0  0  0
 21 22  2  0  0  0
 21 27  1  0  0  0
 22 23  1  0  0  0
 22 62  1  0  0  0
 23 24  2  0  0  0
 23 63  1  0  0  0
 24 25  1  0  0  0
 25 26  1  0  0  0
 25 64  1  0  0  0
 25 65  1  0  0  0
 26 66  1  0  0  0
 26 67  1  0  0  0
 28 29  1  0  0  0
 28 68  1  0  0  0
 28 69  1  0  0  0
 29 30  1  0  0  0
 29 70  1  0  0  0
 30 31  2  0  0  0
 32 33  2  0  0  0
 35 36  1  0  0  0
 36 37  1  0  0  0
 36 71  1  0  0  0
 36 72  1  0  0  0
 37 38  1  0  0  0
 37 73  1  0  0  0
 37 74  1  0  0  0
 38 39  1  0  0  0
 38 75  1  0  0  0
 38 76  1  0  0  0
 39 40  1  0  0  0
 39 77  1  0  0  0
 39 78  1  0  0  0
 40 41  1  0  0  0
 40 79  1  0  0  0
 40 80  1  0  0  0
 41 81  1  0  0  0
 41 82  1  0  0  0
 41 83  1  0  0  0
M  CHG  2  10   1  11  -1
M  END
> <s_m_entry_id>
35168

> <s_m_entry_name>
dock_pv.18

> <s_m_Source_Path>
/home/csk/Desktop/cluster/DUD-E-result/thrb

> <s_m_Source_File>
dock_pv.maegz

> <i_m_Source_File_Index>
18

> <chembl_id>
CHEMBL228341

> <chembl_pref_name>
None

> <i_lp_mmshare_version>
53161

> <r_lp_tautomer_probability>
1

> <s_lp_Force_Field>
OPLS_2005

> <r_lp_Energy>
25.264945

> <b_lp_Chiralities_Consistent>
1

> <s_lp_Variant>
CHEMBL204_lig4346-1

> <s_i_glide_gridfile>
glide-grid_1ype

> <i_i_glide_lignum>
5995

> <i_i_glide_rotatable_bonds>
19

> <r_i_docking_score>
-8.56853441595637

> <r_i_glide_ligand_efficiency>
-0.208988644291619

> <r_i_glide_ligand_efficiency_sa>
-0.720638245398526

> <r_i_glide_ligand_efficiency_ln>
-1.81784309112036

> <r_i_glide_gscore>
-8.56853441595637

> <r_i_glide_lipo>
-2.8140713224699

> <r_i_glide_hbond>
-0.288143618923901

> <r_i_glide_metal>
0

> <r_i_glide_rewards>
-0.957404459308806

> <r_i_glide_evdw>
-53.3977165222168

> <r_i_glide_ecoul>
-18.0059413909912

> <r_i_glide_erotb>
0.861862019505766

> <r_i_glide_esite>
0

> <r_i_glide_emodel>
-100.413648602319

> <r_i_glide_energy>
-71.403657913208

> <r_i_glide_einternal>
10.4876756668091

> <i_i_glide_confnum>
12

> <i_i_glide_posenum>
397

> <r_i_glide_eff_state_penalty>
0

> <s_user_duplicate_titles>
CHEMBL204_lig4346

> <i_f3d_flags>
0

> <s_m_subgroup_title>
dock_pv

> <s_m_subgroupid>
dock_pv

> <b_m_subgroup_collapsed>
1

$$$$
CHEMBL204_lig1920
                    3D
 Schrodinger Suite 2021-1.
 64 66  0  0  1  0            999 V2000
   13.1260  -14.9959   19.5676 C   0  0  2  0  0  0
   15.9836  -15.4541   20.8685 C   0  0  0  0  0  0
   14.8185  -15.1105   21.4691 N   0  0  0  0  0  0
   12.4245  -16.0287   18.6526 C   0  0  0  0  0  0
   13.4686  -15.5080   21.0234 C   0  0  2  0  0  0
   11.6162  -10.6157   23.4489 C   0  0  0  0  0  0
   12.4571  -11.0203   22.2905 C   0  0  0  0  0  0
   12.4282  -13.6070   19.4729 C   0  0  0  0  0  0
   17.2775  -15.1644   21.6040 C   0  0  0  0  0  0
   20.9995  -14.5881   23.7779 C   0  0  0  0  0  0
   11.6725   -9.4542   23.9286 N   0  0  0  0  0  0
   19.7147  -14.7724   23.0129 C   0  0  0  0  0  0
   16.0176  -16.0380   19.7835 O   0  0  0  0  0  0
   12.1496  -12.1472   21.5062 C   0  0  0  0  0  0
   13.0838  -16.7901   17.9438 O   0  0  0  0  0  0
   22.1366  -15.3796   23.5210 C   0  0  0  0  0  0
   12.9174  -12.5031   20.3947 C   0  0  0  0  0  0
   17.3115  -14.4110   22.7804 C   0  0  0  0  0  0
   18.4843  -15.6848   21.1209 C   0  0  0  0  0  0
   18.5003  -14.2518   23.4880 C   0  0  0  0  0  0
   19.6816  -15.4750   21.7990 C   0  0  0  0  0  0
   10.8153  -11.6163   23.9314 N   0  0  0  0  0  0
   11.0747  -15.9983   18.7247 O   0  0  0  0  0  0
   23.3352  -15.2025   24.2224 C   0  0  0  0  0  0
   25.5376  -15.3597   23.1211 N   0  0  0  0  0  0
   13.5916  -10.2741   21.9208 C   0  0  0  0  0  0
   21.1108  -13.6160   24.7873 C   0  0  0  0  0  0
   14.3977  -10.6550   20.8476 C   0  0  0  0  0  0
   22.2887  -13.4530   25.5109 C   0  0  0  0  0  0
   13.2983  -17.0298   21.2825 C   0  0  0  0  0  0
   14.0602  -11.7676   20.0813 C   0  0  0  0  0  0
   24.5546  -16.0654   23.9281 C   0  0  0  0  0  0
   23.4010  -14.2336   25.2203 C   0  0  0  0  0  0
   10.2866  -16.8568   17.9152 C   0  0  0  0  0  0
   14.0712  -14.8777   19.0409 H   0  0  0  0  0  0
   14.8663  -14.6727   22.3803 H   0  0  0  0  0  0
   12.7452  -15.0480   21.7006 H   0  0  0  0  0  0
   11.3501  -13.6973   19.6175 H   0  0  0  0  0  0
   12.5405  -13.2219   18.4600 H   0  0  0  0  0  0
   11.0299   -9.3634   24.7034 H   0  0  0  0  0  0
   11.2654  -12.7341   21.7165 H   0  0  0  0  0  0
   22.1117  -16.1493   22.7673 H   0  0  0  0  0  0
   16.4164  -13.9610   23.1715 H   0  0  0  0  0  0
   18.5076  -16.2647   20.2108 H   0  0  0  0  0  0
   18.4498  -13.7150   24.4216 H   0  0  0  0  0  0
   20.5797  -15.8817   21.3609 H   0  0  0  0  0  0
   10.0894  -11.4089   24.6098 H   0  0  0  0  0  0
   10.8164  -12.5394   23.5220 H   0  0  0  0  0  0
   25.9025  -14.5687   23.6399 H   0  0  0  0  0  0
   26.3363  -15.9641   22.9711 H   0  0  0  0  0  0
   13.8713   -9.3959   22.4867 H   0  0  0  0  0  0
   20.2938  -12.9558   25.0311 H   0  0  0  0  0  0
   15.2740  -10.0722   20.6015 H   0  0  0  0  0  0
   22.3398  -12.7038   26.2858 H   0  0  0  0  0  0
   12.2813  -17.3619   21.0694 H   0  0  0  0  0  0
   13.9554  -17.6239   20.6465 H   0  0  0  0  0  0
   13.5070  -17.2878   22.3207 H   0  0  0  0  0  0
   14.6658  -12.0372   19.2277 H   0  0  0  0  0  0
   25.0102  -16.3833   24.8673 H   0  0  0  0  0  0
   24.2506  -16.9798   23.4151 H   0  0  0  0  0  0
   24.3139  -14.0904   25.7771 H   0  0  0  0  0  0
    9.2302  -16.6524   18.0864 H   0  0  0  0  0  0
   10.4939  -16.7017   16.8550 H   0  0  0  0  0  0
   10.4746  -17.9041   18.1559 H   0  0  0  0  0  0
  1  4  1  0  0  0
  1  5  1  0  0  0
  1  8  1  0  0  0
  1 35  1  0  0  0
  2  3  1  0  0  0
  2  9  1  0  0  0
  2 13  2  0  0  0
  3  5  1  0  0  0
  3 36  1  0  0  0
  4 15  2  0  0  0
  4 23  1  0  0  0
  5 30  1  0  0  0
  5 37  1  0  0  0
  6  7  1  0  0  0
  6 11  2  0  0  0
  6 22  1  0  0  0
  7 14  1  0  0  0
  7 26  2  0  0  0
  8 17  1  0  0  0
  8 38  1  0  0  0
  8 39  1  0  0  0
  9 18  1  0  0  0
  9 19  2  0  0  0
 10 12  1  0  0  0
 10 16  1  0  0  0
 10 27  2  0  0  0
 11 40  1  0  0  0
 12 21  2  0  0  0
 12 20  1  0  0  0
 14 17  2  0  0  0
 14 41  1  0  0  0
 16 24  2  0  0  0
 16 42  1  0  0  0
 17 31  1  0  0  0
 18 20  2  0  0  0
 18 43  1  0  0  0
 19 21  1  0  0  0
 19 44  1  0  0  0
 20 45  1  0  0  0
 21 46  1  0  0  0
 22 47  1  0  0  0
 22 48  1  0  0  0
 23 34  1  0  0  0
 24 32  1  0  0  0
 24 33  1  0  0  0
 25 32  1  0  0  0
 25 49  1  0  0  0
 25 50  1  0  0  0
 26 28  1  0  0  0
 26 51  1  0  0  0
 27 29  1  0  0  0
 27 52  1  0  0  0
 28 31  2  0  0  0
 28 53  1  0  0  0
 29 33  2  0  0  0
 29 54  1  0  0  0
 30 55  1  0  0  0
 30 56  1  0  0  0
 30 57  1  0  0  0
 31 58  1  0  0  0
 32 59  1  0  0  0
 32 60  1  0  0  0
 33 61  1  0  0  0
 34 62  1  0  0  0
 34 63  1  0  0  0
 34 64  1  0  0  0
M  END
> <s_m_entry_id>
35169

> <s_m_entry_name>
dock_pv.19

> <s_m_Source_Path>
/home/csk/Desktop/cluster/DUD-E-result/thrb

> <s_m_Source_File>
dock_pv.maegz

> <i_m_Source_File_Index>
19

> <chembl_id>
CHEMBL110419

> <chembl_pref_name>
None

> <i_lp_mmshare_version>
53161

> <r_lp_tautomer_probability>
1

> <s_lp_Force_Field>
OPLS_2005

> <r_lp_Energy>
22.959091

> <b_lp_Chiralities_Consistent>
1

> <s_lp_Variant>
CHEMBL204_lig1920-3

> <s_i_glide_gridfile>
glide-grid_1ype

> <i_i_glide_lignum>
2866

> <i_i_glide_rotatable_bonds>
11

> <r_i_docking_score>
-8.55025975931788

> <r_i_glide_ligand_efficiency>
-0.251478228215232

> <r_i_glide_ligand_efficiency_sa>
-0.814691834932785

> <r_i_glide_ligand_efficiency_ln>
-1.8889922074961

> <r_i_glide_gscore>
-8.55025975931788

> <r_i_glide_lipo>
-3.46042502205745

> <r_i_glide_hbond>
-1.0128167821522

> <r_i_glide_metal>
0

> <r_i_glide_rewards>
-0.460438361501121

> <r_i_glide_evdw>
-46.9545822143555

> <r_i_glide_ecoul>
-12.9328584671021

> <r_i_glide_erotb>
0.765250629783201

> <r_i_glide_esite>
-0.0941723426072295

> <r_i_glide_emodel>
-84.2042101531707

> <r_i_glide_energy>
-59.8874406814575

> <r_i_glide_einternal>
12.3694696426392

> <i_i_glide_confnum>
18

> <i_i_glide_posenum>
145

> <r_i_glide_eff_state_penalty>
0

> <s_user_duplicate_titles>
CHEMBL204_lig1920

> <i_f3d_flags>
0

> <s_m_subgroup_title>
dock_pv

> <s_m_subgroupid>
dock_pv

> <b_m_subgroup_collapsed>
1

$$$$
CHEMBL204_lig4741
                    3D
 Schrodinger Suite 2021-1.
 58 60  0  0  1  0            999 V2000
   13.2274  -10.2797   21.6109 C   0  0  0  0  0  0
   13.1793   -9.1578   22.4446 C   0  0  0  0  0  0
   12.3444   -9.1373   23.5588 C   0  0  0  0  0  0
   11.5536  -10.2528   23.8421 C   0  0  0  0  0  0
   11.6157  -11.3845   23.0271 C   0  0  0  0  0  0
   12.4642  -11.4134   21.9070 C   0  0  0  0  0  0
   14.1178  -10.2535   20.3822 C   0  0  0  0  0  0
   15.5336  -10.3676   20.7210 N   0  0  0  0  0  0
   12.3295   -7.9305   24.4830 C   0  0  0  0  0  0
   16.3847  -11.3055   20.2818 C   0  0  0  0  0  0
   17.7613  -11.3008   20.9757 C   0  0  0  0  0  0
   18.2840  -12.6691   21.2616 N   0  0  0  0  0  0
   16.1083  -12.1353   19.4164 O   0  0  0  0  0  0
   19.4754  -13.1670   20.7184 C   0  0  0  0  0  0
   19.9725  -14.3642   21.1339 C   0  0  0  0  0  0
   19.3725  -15.1250   22.0983 N   0  0  0  0  0  0
   18.2597  -14.6958   22.5923 C   0  0  0  0  0  0
   17.5857  -13.4177   22.2097 C   0  0  0  0  0  0
   17.6159  -15.4269   23.5867 N   0  0  0  0  0  0
   18.1814  -16.5591   24.3167 C   0  0  0  0  0  0
   18.7364  -16.1664   25.6987 C   0  0  0  0  0  0
   19.9410  -15.2373   25.6423 C   0  0  0  0  0  0
   19.7954  -13.8595   25.8277 C   0  0  0  0  0  0
   20.9327  -13.0527   25.7771 C   0  0  0  0  0  0
   22.1774  -13.6368   25.5315 C   0  0  0  0  0  0
   22.2400  -15.0197   25.3492 C   0  0  0  0  0  0
   21.1448  -15.8215   25.4010 N   0  0  0  0  0  0
   20.1790  -12.3445   19.6443 C   0  0  0  0  0  0
   16.5174  -13.0529   22.7206 O   0  0  0  0  0  0
   12.6037  -12.4918   21.0547 O   0  0  0  0  0  0
   12.0160  -13.7298   21.4028 C   0  0  0  0  0  0
   13.8095   -8.3046   22.2446 H   0  0  0  0  0  0
   10.8929  -10.2523   24.6991 H   0  0  0  0  0  0
   10.9951  -12.2300   23.2851 H   0  0  0  0  0  0
   13.7853  -10.9590   19.6173 H   0  0  0  0  0  0
   13.9396   -9.2770   19.9482 H   0  0  0  0  0  0
   15.8914   -9.6755   21.3648 H   0  0  0  0  0  0
   12.4158   -8.2536   25.5195 H   0  0  0  0  0  0
   11.3965   -7.3747   24.3907 H   0  0  0  0  0  0
   13.1672   -7.2583   24.2948 H   0  0  0  0  0  0
   18.4477  -10.7185   20.3666 H   0  0  0  0  0  0
   17.6838  -10.7623   21.9206 H   0  0  0  0  0  0
   20.8912  -14.7546   20.7157 H   0  0  0  0  0  0
   16.7187  -15.0735   23.9151 H   0  0  0  0  0  0
   17.3632  -17.2626   24.4753 H   0  0  0  0  0  0
   18.9265  -17.1112   23.7404 H   0  0  0  0  0  0
   17.9475  -15.6966   26.2880 H   0  0  0  0  0  0
   19.0100  -17.0640   26.2548 H   0  0  0  0  0  0
   18.8212  -13.4272   25.9977 H   0  0  0  0  0  0
   20.8474  -11.9849   25.9249 H   0  0  0  0  0  0
   23.0724  -13.0337   25.4886 H   0  0  0  0  0  0
   23.1853  -15.5080   25.1630 H   0  0  0  0  0  0
   21.0420  -12.8743   19.2369 H   0  0  0  0  0  0
   19.5019  -12.1373   18.8139 H   0  0  0  0  0  0
   20.5416  -11.4009   20.0540 H   0  0  0  0  0  0
   12.1886  -14.4556   20.6083 H   0  0  0  0  0  0
   12.4472  -14.1266   22.3215 H   0  0  0  0  0  0
   10.9438  -13.6129   21.5210 H   0  0  0  0  0  0
  1  6  1  0  0  0
  1  2  2  0  0  0
  1  7  1  0  0  0
  2  3  1  0  0  0
  2 32  1  0  0  0
  3  9  1  0  0  0
  3  4  2  0  0  0
  4  5  1  0  0  0
  4 33  1  0  0  0
  5  6  2  0  0  0
  5 34  1  0  0  0
  6 30  1  0  0  0
  7  8  1  0  0  0
  7 35  1  0  0  0
  7 36  1  0  0  0
  8 10  1  0  0  0
  8 37  1  0  0  0
  9 38  1  0  0  0
  9 39  1  0  0  0
  9 40  1  0  0  0
 10 11  1  0  0  0
 10 13  2  0  0  0
 11 12  1  0  0  0
 11 41  1  0  0  0
 11 42  1  0  0  0
 12 18  1  0  0  0
 12 14  1  0  0  0
 14 15  2  0  0  0
 14 28  1  0  0  0
 15 16  1  0  0  0
 15 43  1  0  0  0
 16 17  2  0  0  0
 17 18  1  0  0  0
 17 19  1  0  0  0
 18 29  2  0  0  0
 19 20  1  0  0  0
 19 44  1  0  0  0
 20 21  1  0  0  0
 20 45  1  0  0  0
 20 46  1  0  0  0
 21 22  1  0  0  0
 21 47  1  0  0  0
 21 48  1  0  0  0
 22 23  2  0  0  0
 22 27  1  0  0  0
 23 24  1  0  0  0
 23 49  1  0  0  0
 24 25  2  0  0  0
 24 50  1  0  0  0
 25 26  1  0  0  0
 25 51  1  0  0  0
 26 27  2  0  0  0
 26 52  1  0  0  0
 28 53  1  0  0  0
 28 54  1  0  0  0
 28 55  1  0  0  0
 30 31  1  0  0  0
 31 56  1  0  0  0
 31 57  1  0  0  0
 31 58  1  0  0  0
M  END
> <s_m_entry_id>
35170

> <s_m_entry_name>
dock_pv.20

> <s_m_Source_Path>
/home/csk/Desktop/cluster/DUD-E-result/thrb

> <s_m_Source_File>
dock_pv.maegz

> <i_m_Source_File_Index>
20

> <chembl_id>
CHEMBL1682696

> <chembl_pref_name>
None

> <i_lp_mmshare_version>
53161

> <r_lp_tautomer_probability>
1

> <s_lp_Force_Field>
OPLS_2005

> <r_lp_Energy>
25.030952

> <b_lp_Chiralities_Consistent>
1

> <s_lp_Variant>
CHEMBL204_lig4741-1

> <s_i_glide_gridfile>
glide-grid_1ype

> <i_i_glide_lignum>
6483

> <i_i_glide_rotatable_bonds>
10

> <r_i_docking_score>
-8.461747323224

> <r_i_glide_ligand_efficiency>
-0.272959591071742

> <r_i_glide_ligand_efficiency_sa>
-0.857469977295923

> <r_i_glide_ligand_efficiency_ln>
-1.90838334279914

> <r_i_glide_gscore>
-8.461747323224

> <r_i_glide_lipo>
-3.99173254376007

> <r_i_glide_hbond>
-0.736279614707763

> <r_i_glide_metal>
0

> <r_i_glide_rewards>
-1.20706605859685

> <r_i_glide_evdw>
-47.7075347900391

> <r_i_glide_ecoul>
-6.77591943740845

> <r_i_glide_erotb>
0.891699964732867

> <r_i_glide_esite>
-0.016604415778959

> <r_i_glide_emodel>
-76.1335802303824

> <r_i_glide_energy>
-54.4834542274475

> <r_i_glide_einternal>
10.6284084320068

> <i_i_glide_confnum>
3

> <i_i_glide_posenum>
334

> <r_i_glide_eff_state_penalty>
0

> <s_user_duplicate_titles>
CHEMBL204_lig4741

> <i_f3d_flags>
0

> <s_m_subgroup_title>
dock_pv

> <s_m_subgroupid>
dock_pv

> <b_m_subgroup_collapsed>
1

$$$$
CHEMBL204_lig4557
                    3D
 Schrodinger Suite 2021-1.
 68 71  0  0  1  0            999 V2000
   11.8990   -9.5273   23.7407 C   0  0  0  0  0  0
   12.7997   -9.2533   22.7172 C   0  0  0  0  0  0
   13.0283  -10.2007   21.7250 C   0  0  0  0  0  0
   12.3846  -11.4481   21.7736 C   0  0  0  0  0  0
   11.4693  -11.6989   22.7972 C   0  0  0  0  0  0
   11.2166  -10.7392   23.7743 C   0  0  0  0  0  0
   12.6371  -12.5667   20.7561 C   0  0  0  0  0  0
   13.9804  -12.2449   19.4669 S   0  0  0  0  0  0
   15.3796  -11.8462   20.4569 N   0  0  0  0  0  0
   13.6162  -11.0412   18.7211 O   0  0  0  0  0  0
   14.2607  -13.4932   18.7496 O   0  0  0  0  0  0
   16.6768  -12.3665   20.2880 C   0  0  0  0  0  0
   17.3304  -12.7794   21.5380 C   0  0  0  0  0  0
   18.6714  -13.1277   21.4328 N   0  0  0  0  0  0
   19.3116  -13.1813   20.1898 C   0  0  0  0  0  0
   18.6808  -12.8642   19.0401 C   0  0  0  0  0  0
   17.3041  -12.4281   19.0948 C   0  0  0  0  0  0
   16.6846  -12.8285   22.5921 O   0  0  0  0  0  0
   20.7621  -13.6536   20.1659 C   0  0  0  0  0  0
   19.3416  -13.4577   22.7164 C   0  0  0  0  0  0
   18.8964  -14.7680   23.3605 C   0  0  0  0  0  0
   18.3641  -15.9585   22.8503 C   0  0  0  0  0  0
   18.0955  -16.8230   23.8147 N   0  0  0  0  0  0
   18.4346  -16.2215   24.9243 C   0  0  0  0  0  0
   18.9334  -14.9601   24.7258 N   0  0  0  0  0  0
   18.0719  -16.3414   21.4144 C   0  0  0  0  0  0
   19.4029  -14.0389   25.7600 C   0  0  0  0  0  0
   20.9289  -13.9443   25.9198 C   0  0  0  0  0  0
   21.3997  -13.0493   26.6182 O   0  0  0  0  0  0
   21.6953  -14.8582   25.2935 N   0  0  0  0  0  0
   23.1583  -14.9114   25.2847 C   0  0  2  0  0  0
   23.8024  -13.9900   24.2073 C   0  0  0  0  0  0
   25.2156  -14.2502   23.9210 N   0  0  1  0  0  0
   25.6158  -15.6461   23.7994 C   0  0  0  0  0  0
   25.2068  -16.4209   25.0580 C   0  0  0  0  0  0
   23.6927  -16.3607   25.2827 C   0  0  0  0  0  0
   11.7100   -8.7870   24.5047 H   0  0  0  0  0  0
   13.3200   -8.3078   22.6959 H   0  0  0  0  0  0
   13.7179   -9.9402   20.9382 H   0  0  0  0  0  0
   10.9416  -12.6403   22.8350 H   0  0  0  0  0  0
   10.4912  -10.9363   24.5512 H   0  0  0  0  0  0
   11.7207  -12.7872   20.2084 H   0  0  0  0  0  0
   12.9324  -13.4713   21.2862 H   0  0  0  0  0  0
   15.2099  -11.2081   21.2379 H   0  0  0  0  0  0
   19.1909  -12.9294   18.0903 H   0  0  0  0  0  0
   16.7932  -12.1142   18.1945 H   0  0  0  0  0  0
   21.1361  -13.7562   19.1471 H   0  0  0  0  0  0
   21.4102  -12.9399   20.6768 H   0  0  0  0  0  0
   20.8671  -14.6281   20.6455 H   0  0  0  0  0  0
   19.1669  -12.6255   23.3978 H   0  0  0  0  0  0
   20.4223  -13.4548   22.6064 H   0  0  0  0  0  0
   18.3485  -16.6208   25.9243 H   0  0  0  0  0  0
   18.8792  -16.0530   20.7415 H   0  0  0  0  0  0
   17.9281  -17.4156   21.2880 H   0  0  0  0  0  0
   17.1627  -15.8559   21.0515 H   0  0  0  0  0  0
   18.9750  -14.3482   26.7156 H   0  0  0  0  0  0
   18.9993  -13.0525   25.5435 H   0  0  0  0  0  0
   21.2346  -15.4886   24.6548 H   0  0  0  0  0  0
   23.4775  -14.4749   26.2343 H   0  0  0  0  0  0
   23.7006  -12.9468   24.5056 H   0  0  0  0  0  0
   23.2601  -14.0993   23.2690 H   0  0  0  0  0  0
   25.6406  -13.6521   23.2142 H   0  0  0  0  0  0
   25.1287  -16.0781   22.9247 H   0  0  0  0  0  0
   26.6899  -15.7127   23.6276 H   0  0  0  0  0  0
   25.5237  -17.4612   24.9635 H   0  0  0  0  0  0
   25.7454  -16.0254   25.9246 H   0  0  0  0  0  0
   23.2257  -16.9133   24.4654 H   0  0  0  0  0  0
   23.4406  -16.8645   26.2169 H   0  0  0  0  0  0
  1  6  1  0  0  0
  1  2  2  0  0  0
  1 37  1  0  0  0
  2  3  1  0  0  0
  2 38  1  0  0  0
  3  4  2  0  0  0
  3 39  1  0  0  0
  4  5  1  0  0  0
  4  7  1  0  0  0
  5  6  2  0  0  0
  5 40  1  0  0  0
  6 41  1  0  0  0
  7  8  1  0  0  0
  7 42  1  0  0  0
  7 43  1  0  0  0
  8  9  1  0  0  0
  8 10  2  0  0  0
  8 11  2  0  0  0
  9 12  1  0  0  0
  9 44  1  0  0  0
 12 13  1  0  0  0
 12 17  2  0  0  0
 13 18  2  0  0  0
 13 14  1  0  0  0
 14 20  1  0  0  0
 14 15  1  0  0  0
 15 19  1  0  0  0
 15 16  2  0  0  0
 16 17  1  0  0  0
 16 45  1  0  0  0
 17 46  1  0  0  0
 19 47  1  0  0  0
 19 48  1  0  0  0
 19 49  1  0  0  0
 20 21  1  0  0  0
 20 50  1  0  0  0
 20 51  1  0  0  0
 21 22  2  0  0  0
 21 25  1  0  0  0
 22 23  1  0  0  0
 22 26  1  0  0  0
 23 24  2  0  0  0
 24 25  1  0  0  0
 24 52  1  0  0  0
 25 27  1  0  0  0
 26 53  1  0  0  0
 26 54  1  0  0  0
 26 55  1  0  0  0
 27 28  1  0  0  0
 27 56  1  0  0  0
 27 57  1  0  0  0
 28 29  2  0  0  0
 28 30  1  0  0  0
 30 31  1  0  0  0
 30 58  1  0  0  0
 31 32  1  0  0  0
 31 36  1  0  0  0
 31 59  1  0  0  0
 32 33  1  0  0  0
 32 60  1  0  0  0
 32 61  1  0  0  0
 33 34  1  0  0  0
 33 62  1  0  0  0
 34 35  1  0  0  0
 34 63  1  0  0  0
 34 64  1  0  0  0
 35 36  1  0  0  0
 35 65  1  0  0  0
 35 66  1  0  0  0
 36 67  1  0  0  0
 36 68  1  0  0  0
M  END
> <s_m_entry_id>
35171

> <s_m_entry_name>
dock_pv.21

> <s_m_Source_Path>
/home/csk/Desktop/cluster/DUD-E-result/thrb

> <s_m_Source_File>
dock_pv.maegz

> <i_m_Source_File_Index>
21

> <chembl_id>
CHEMBL402095

> <chembl_pref_name>
None

> <i_lp_mmshare_version>
53161

> <r_lp_tautomer_probability>
1

> <s_lp_Force_Field>
OPLS_2005

> <r_lp_Energy>
28.184243

> <b_lp_Chiralities_Consistent>
1

> <s_lp_Variant>
CHEMBL204_lig4557-1

> <s_i_glide_gridfile>
glide-grid_1ype

> <i_i_glide_lignum>
6225

> <i_i_glide_rotatable_bonds>
10

> <r_i_docking_score>
-8.45963612512876

> <r_i_glide_ligand_efficiency>
-0.234989892364688

> <r_i_glide_ligand_efficiency_sa>
-0.775919527886938

> <r_i_glide_ligand_efficiency_ln>
-1.84566404954754

> <r_i_glide_gscore>
-8.45963612512876

> <r_i_glide_lipo>
-3.13294038049066

> <r_i_glide_hbond>
-0.57248786609441

> <r_i_glide_metal>
0

> <r_i_glide_rewards>
-1.55097502798783

> <r_i_glide_evdw>
-54.1156349182129

> <r_i_glide_ecoul>
-7.44134521484375

> <r_i_glide_erotb>
0.624109771453631

> <r_i_glide_esite>
-0.00535909387228404

> <r_i_glide_emodel>
-85.1692032124066

> <r_i_glide_energy>
-61.5569801330566

> <r_i_glide_einternal>
14.1803159713745

> <i_i_glide_confnum>
21

> <i_i_glide_posenum>
345

> <r_i_glide_eff_state_penalty>
0

> <s_user_duplicate_titles>
CHEMBL204_lig4557

> <i_f3d_flags>
0

> <s_m_subgroup_title>
dock_pv

> <s_m_subgroupid>
dock_pv

> <b_m_subgroup_collapsed>
1

$$$$
CHEMBL204_lig4714
                    3D
 Schrodinger Suite 2021-1.
 56 58  0  0  1  0            999 V2000
   16.8162  -16.3733   24.0674 N   0  0  0  0  0  0
   18.0424  -16.1462   23.2753 C   0  0  2  0  0  0
   19.3071  -16.4684   24.1296 C   0  0  0  0  0  0
   20.0204  -15.3065   24.8073 C   0  0  0  0  0  0
   19.4408  -14.6630   25.9208 C   0  0  0  0  0  0
   20.0566  -13.5458   26.4675 C   0  0  0  0  0  0
   21.2308  -13.0496   25.9190 C   0  0  0  0  0  0
   21.8037  -13.6635   24.8127 C   0  0  0  0  0  0
   21.1999  -14.7750   24.2431 C   0  0  0  0  0  0
   17.9829  -14.7213   22.6275 C   0  0  0  0  0  0
   17.2569  -13.8532   23.1213 O   0  0  0  0  0  0
   18.7637  -14.4775   21.5467 N   0  0  0  0  0  0
   19.6553  -15.4275   20.8908 C   0  0  0  0  0  0
   20.7247  -14.5617   20.2469 C   0  0  0  0  0  0
   19.9674  -13.3103   19.8472 C   0  0  0  0  0  0
   18.8445  -13.1531   20.8962 C   0  0  1  0  0  0
   17.5247  -12.6990   20.2446 C   0  0  0  0  0  0
   17.0504  -13.3540   19.3176 O   0  0  0  0  0  0
   16.9853  -11.5666   20.7205 N   0  0  0  0  0  0
   15.8458  -10.8745   20.1187 C   0  0  0  0  0  0
   14.5997  -10.8479   20.9919 C   0  0  0  0  0  0
   13.9331  -12.0272   21.3253 C   0  0  0  0  0  0
   12.8244  -11.9869   22.1706 C   0  0  0  0  0  0
   12.3756  -10.7713   22.7209 C   0  0  0  0  0  0
   13.0300   -9.5938   22.3179 C   0  0  0  0  0  0
   14.1168   -9.6264   21.4571 C   0  0  0  0  0  0
   11.2739  -10.6918   23.7209 C   0  0  0  0  0  0
   11.0375   -9.6139   24.3210 N   0  0  0  0  0  0
   10.5716  -11.8529   23.9212 N   0  0  0  0  0  0
   17.0183  -16.3317   25.0560 H   0  0  0  0  0  0
   16.1520  -15.6162   23.9064 H   0  0  0  0  0  0
   17.9858  -16.8773   22.4683 H   0  0  0  0  0  0
   20.0415  -16.9967   23.5237 H   0  0  0  0  0  0
   19.0531  -17.1891   24.9080 H   0  0  0  0  0  0
   18.5144  -15.0234   26.3438 H   0  0  0  0  0  0
   19.6170  -13.0528   27.3225 H   0  0  0  0  0  0
   21.6950  -12.1793   26.3553 H   0  0  0  0  0  0
   22.7127  -13.2645   24.3872 H   0  0  0  0  0  0
   21.6411  -15.2277   23.3681 H   0  0  0  0  0  0
   20.1195  -16.1617   21.5410 H   0  0  0  0  0  0
   19.0722  -15.9654   20.1446 H   0  0  0  0  0  0
   21.4859  -14.3052   20.9862 H   0  0  0  0  0  0
   21.2159  -15.0512   19.4069 H   0  0  0  0  0  0
   20.6204  -12.4374   19.8031 H   0  0  0  0  0  0
   19.5623  -13.4530   18.8436 H   0  0  0  0  0  0
   19.1594  -12.4353   21.6549 H   0  0  0  0  0  0
   17.4231  -11.1147   21.5106 H   0  0  0  0  0  0
   16.1845   -9.8574   19.9217 H   0  0  0  0  0  0
   15.5661  -11.2984   19.1512 H   0  0  0  0  0  0
   14.2909  -12.9786   20.9565 H   0  0  0  0  0  0
   12.3579  -12.9266   22.4315 H   0  0  0  0  0  0
   12.7144   -8.6318   22.6953 H   0  0  0  0  0  0
   14.6137   -8.7015   21.1981 H   0  0  0  0  0  0
   10.2260   -9.7094   24.9274 H   0  0  0  0  0  0
    9.7502  -11.8283   24.5249 H   0  0  0  0  0  0
   10.8161  -12.7452   23.5076 H   0  0  0  0  0  0
  1  2  1  0  0  0
  1 30  1  0  0  0
  1 31  1  0  0  0
  2  3  1  0  0  0
  2 10  1  0  0  0
  2 32  1  0  0  0
  3  4  1  0  0  0
  3 33  1  0  0  0
  3 34  1  0  0  0
  4  5  2  0  0  0
  4  9  1  0  0  0
  5  6  1  0  0  0
  5 35  1  0  0  0
  6  7  2  0  0  0
  6 36  1  0  0  0
  7  8  1  0  0  0
  7 37  1  0  0  0
  8  9  2  0  0  0
  8 38  1  0  0  0
  9 39  1  0  0  0
 10 11  2  0  0  0
 10 12  1  0  0  0
 12 13  1  0  0  0
 12 16  1  0  0  0
 13 14  1  0  0  0
 13 40  1  0  0  0
 13 41  1  0  0  0
 14 15  1  0  0  0
 14 42  1  0  0  0
 14 43  1  0  0  0
 15 16  1  0  0  0
 15 44  1  0  0  0
 15 45  1  0  0  0
 16 17  1  0  0  0
 16 46  1  0  0  0
 17 18  2  0  0  0
 17 19  1  0  0  0
 19 20  1  0  0  0
 19 47  1  0  0  0
 20 21  1  0  0  0
 20 48  1  0  0  0
 20 49  1  0  0  0
 21 22  2  0  0  0
 21 26  1  0  0  0
 22 23  1  0  0  0
 22 50  1  0  0  0
 23 24  2  0  0  0
 23 51  1  0  0  0
 24 25  1  0  0  0
 24 27  1  0  0  0
 25 26  2  0  0  0
 25 52  1  0  0  0
 26 53  1  0  0  0
 27 28  2  0  0  0
 27 29  1  0  0  0
 28 54  1  0  0  0
 29 55  1  0  0  0
 29 56  1  0  0  0
M  END
> <s_m_entry_id>
35172

> <s_m_entry_name>
dock_pv.22

> <s_m_Source_Path>
/home/csk/Desktop/cluster/DUD-E-result/thrb

> <s_m_Source_File>
dock_pv.maegz

> <i_m_Source_File_Index>
22

> <chembl_id>
CHEMBL603888

> <chembl_pref_name>
None

> <i_lp_mmshare_version>
53161

> <r_lp_tautomer_probability>
1

> <s_lp_Force_Field>
OPLS_2005

> <r_lp_Energy>
22.043249

> <b_lp_Chiralities_Consistent>
1

> <s_lp_Variant>
CHEMBL204_lig4714-1

> <s_i_glide_gridfile>
glide-grid_1ype

> <i_i_glide_lignum>
6455

> <i_i_glide_rotatable_bonds>
9

> <r_i_docking_score>
-8.41765871503015

> <r_i_glide_ligand_efficiency>
-0.290264093621729

> <r_i_glide_ligand_efficiency_sa>
-0.891783257725525

> <r_i_glide_ligand_efficiency_ln>
-1.92743039233415

> <r_i_glide_gscore>
-8.41765871503015

> <r_i_glide_lipo>
-3.41710790330885

> <r_i_glide_hbond>
-0.932590217044916

> <r_i_glide_metal>
0

> <r_i_glide_rewards>
-1.12476587131327

> <r_i_glide_evdw>
-38.1853446960449

> <r_i_glide_ecoul>
-12.0042934417725

> <r_i_glide_erotb>
0.883217731384977

> <r_i_glide_esite>
-0.116501203679976

> <r_i_glide_emodel>
-74.7399162477404

> <r_i_glide_energy>
-50.1896381378174

> <r_i_glide_einternal>
6.2431321144104

> <i_i_glide_confnum>
16

> <i_i_glide_posenum>
359

> <r_i_glide_eff_state_penalty>
0

> <s_user_duplicate_titles>
CHEMBL204_lig4714,CHEMBL204_lig5024,CHEMBL204_lig3444,126025

> <i_f3d_flags>
0

> <s_m_subgroup_title>
dock_pv

> <s_m_subgroupid>
dock_pv

> <b_m_subgroup_collapsed>
1

$$$$
CHEMBL204_lig4397
                    3D
 Schrodinger Suite 2021-1.
 59 61  0  0  1  0            999 V2000
   20.7267  -14.5826   22.4875 C   0  0  0  0  0  0
   19.9302  -13.8694   21.4058 C   0  0  0  0  0  0
   20.4566  -12.8876   20.5755 C   0  0  0  0  0  0
   19.3274  -12.2764   19.4187 S   0  0  0  0  0  0
   18.1024  -13.3678   20.0007 C   0  0  0  0  0  0
   18.5909  -14.1526   21.0635 C   0  0  0  0  0  0
   17.7006  -15.3939   21.8733 Cl  0  0  0  0  0  0
   16.8359  -13.4489   19.3031 C   0  0  0  0  0  0
   15.8004  -13.8227   20.0801 N   0  0  0  0  0  0
   16.7430  -13.2130   18.0956 O   0  0  0  0  0  0
   14.5470  -14.2770   19.6243 C   0  0  0  0  0  0
   13.3689  -13.5746   19.9748 C   0  0  0  0  0  0
   12.1287  -14.1254   19.6256 C   0  0  0  0  0  0
   12.0458  -15.3228   18.9237 C   0  0  0  0  0  0
   13.2059  -15.9927   18.5553 C   0  0  0  0  0  0
   14.4685  -15.4903   18.9033 C   0  0  0  0  0  0
   13.4078  -12.2184   20.6481 C   0  0  0  0  0  0
   14.2252  -11.3754   20.2691 O   0  0  0  0  0  0
   12.5139  -12.0279   21.6461 N   0  0  0  0  0  0
   10.5070  -15.9593   18.4686 Cl  0  0  0  0  0  0
   12.3600  -10.8870   22.4548 C   0  0  0  0  0  0
   13.1408   -9.7786   22.2855 N   0  0  0  0  0  0
   12.9665   -8.7285   23.1210 C   0  0  0  0  0  0
   12.0161   -8.7213   24.1356 C   0  0  0  0  0  0
   11.2158   -9.8532   24.3077 C   0  0  0  0  0  0
   11.3846  -10.9488   23.4582 C   0  0  0  0  0  0
   11.8424   -7.3189   25.1210 Cl  0  0  0  0  0  0
   15.6456  -16.1595   18.6094 O   0  0  0  0  0  0
   15.6150  -17.3313   17.8016 C   0  0  0  0  0  0
   20.8105  -13.8858   23.7974 N   0  0  0  0  0  0
   19.6605  -13.0524   24.1780 C   0  0  0  0  0  0
   21.8198  -14.0901   24.6912 C   0  0  0  0  0  0
   21.9344  -13.4530   25.7427 O   0  0  0  0  0  0
   22.6544  -15.1048   24.3938 N   0  0  0  0  0  0
   23.9305  -15.3805   25.0513 C   0  0  0  0  0  0
   25.0847  -14.5125   24.5255 C   0  0  0  0  0  0
   25.2215  -14.6530   23.1211 O   0  0  0  0  0  0
   20.3108  -15.5737   22.6688 H   0  0  0  0  0  0
   21.7317  -14.7582   22.1003 H   0  0  0  0  0  0
   21.4630  -12.4934   20.5991 H   0  0  0  0  0  0
   15.9619  -13.8958   21.0732 H   0  0  0  0  0  0
   11.2149  -13.6067   19.8711 H   0  0  0  0  0  0
   13.0981  -16.9130   18.0032 H   0  0  0  0  0  0
   11.9077  -12.8013   21.8766 H   0  0  0  0  0  0
   13.6164   -7.8791   22.9723 H   0  0  0  0  0  0
   10.4502   -9.8860   25.0701 H   0  0  0  0  0  0
   10.7552  -11.8197   23.5832 H   0  0  0  0  0  0
   16.6350  -17.6791   17.6393 H   0  0  0  0  0  0
   15.0657  -18.1377   18.2875 H   0  0  0  0  0  0
   15.1708  -17.1308   16.8251 H   0  0  0  0  0  0
   19.5994  -12.1967   23.5097 H   0  0  0  0  0  0
   18.7367  -13.6277   24.0949 H   0  0  0  0  0  0
   19.7152  -12.6661   25.1977 H   0  0  0  0  0  0
   22.4394  -15.6772   23.5922 H   0  0  0  0  0  0
   23.8305  -15.2373   26.1301 H   0  0  0  0  0  0
   24.1801  -16.4346   24.9298 H   0  0  0  0  0  0
   24.8822  -13.4583   24.7183 H   0  0  0  0  0  0
   26.0164  -14.7718   25.0258 H   0  0  0  0  0  0
   25.9435  -14.0665   22.8423 H   0  0  0  0  0  0
  1 30  1  0  0  0
  1  2  1  0  0  0
  1 38  1  0  0  0
  1 39  1  0  0  0
  2  3  2  0  0  0
  2  6  1  0  0  0
  3  4  1  0  0  0
  3 40  1  0  0  0
  4  5  1  0  0  0
  5  8  1  0  0  0
  5  6  2  0  0  0
  6  7  1  0  0  0
  8  9  1  0  0  0
  8 10  2  0  0  0
  9 11  1  0  0  0
  9 41  1  0  0  0
 11 12  2  0  0  0
 11 16  1  0  0  0
 12 13  1  0  0  0
 12 17  1  0  0  0
 13 14  2  0  0  0
 13 42  1  0  0  0
 14 15  1  0  0  0
 14 20  1  0  0  0
 15 16  2  0  0  0
 15 43  1  0  0  0
 16 28  1  0  0  0
 17 18  2  0  0  0
 17 19  1  0  0  0
 19 21  1  0  0  0
 19 44  1  0  0  0
 21 22  2  0  0  0
 21 26  1  0  0  0
 22 23  1  0  0  0
 23 24  2  0  0  0
 23 45  1  0  0  0
 24 25  1  0  0  0
 24 27  1  0  0  0
 25 26  2  0  0  0
 25 46  1  0  0  0
 26 47  1  0  0  0
 28 29  1  0  0  0
 29 48  1  0  0  0
 29 49  1  0  0  0
 29 50  1  0  0  0
 30 31  1  0  0  0
 30 32  1  0  0  0
 31 51  1  0  0  0
 31 52  1  0  0  0
 31 53  1  0  0  0
 32 33  2  0  0  0
 32 34  1  0  0  0
 34 35  1  0  0  0
 34 54  1  0  0  0
 35 36  1  0  0  0
 35 55  1  0  0  0
 35 56  1  0  0  0
 36 37  1  0  0  0
 36 57  1  0  0  0
 36 58  1  0  0  0
 37 59  1  0  0  0
M  END
> <s_m_entry_id>
35173

> <s_m_entry_name>
dock_pv.23

> <s_m_Source_Path>
/home/csk/Desktop/cluster/DUD-E-result/thrb

> <s_m_Source_File>
dock_pv.maegz

> <i_m_Source_File_Index>
23

> <chembl_id>
CHEMBL227359

> <chembl_pref_name>
None

> <i_lp_mmshare_version>
53161

> <r_lp_tautomer_probability>
1

> <s_lp_Force_Field>
OPLS_2005

> <r_lp_Energy>
39.954776

> <b_lp_Chiralities_Consistent>
1

> <s_lp_Variant>
CHEMBL204_lig4397-1

> <s_i_glide_gridfile>
glide-grid_1ype

> <i_i_glide_lignum>
6057

> <i_i_glide_rotatable_bonds>
14

> <r_i_docking_score>
-8.40826543468657

> <r_i_glide_ligand_efficiency>
-0.227250417153691

> <r_i_glide_ligand_efficiency_sa>
-0.757248804923733

> <r_i_glide_ligand_efficiency_ln>
-1.82355565507448

> <r_i_glide_gscore>
-8.40826543468657

> <r_i_glide_lipo>
-3.13299712576508

> <r_i_glide_hbond>
-0.608

> <r_i_glide_metal>
0

> <r_i_glide_rewards>
-0.621590301452094

> <r_i_glide_evdw>
-55.5622940063477

> <r_i_glide_ecoul>
-12.6086072921753

> <r_i_glide_erotb>
0.623727786674278

> <r_i_glide_esite>
0

> <r_i_glide_emodel>
-97.6230988254154

> <r_i_glide_energy>
-68.1709012985229

> <r_i_glide_einternal>
8.8222074508667

> <i_i_glide_confnum>
287

> <i_i_glide_posenum>
121

> <r_i_glide_eff_state_penalty>
0

> <s_user_duplicate_titles>
CHEMBL204_lig4397

> <i_f3d_flags>
0

> <s_m_subgroup_title>
dock_pv

> <s_m_subgroupid>
dock_pv

> <b_m_subgroup_collapsed>
1

$$$$
CHEMBL204_lig4521
                    3D
 Schrodinger Suite 2021-1.
 64 69  0  0  1  0            999 V2000
   19.0616  -14.2017   23.3208 C   0  0  0  0  0  0
   19.0337  -14.4191   24.7046 C   0  0  0  0  0  0
   20.1469  -14.1523   25.4986 C   0  0  0  0  0  0
   21.3135  -13.6713   24.9132 C   0  0  0  0  0  0
   21.3614  -13.4533   23.5379 C   0  0  0  0  0  0
   20.2418  -13.7006   22.7332 C   0  0  0  0  0  0
   17.8201  -14.4747   22.5579 C   0  0  0  0  0  0
   17.4729  -15.7628   22.1462 C   0  0  0  0  0  0
   15.6890  -13.6904   21.7492 C   0  0  0  0  0  0
   16.9179  -13.4423   22.3378 C   0  0  0  0  0  0
   13.2166  -14.4621   20.1003 C   0  0  0  0  0  0
   13.8557  -13.4677   19.2763 C   0  0  0  0  0  0
   12.0165  -14.6554   19.8924 O   0  0  0  0  0  0
   14.5505  -13.6942   18.0956 C   0  0  0  0  0  0
   14.9558  -12.4449   17.6223 C   0  0  0  0  0  0
   14.5695  -11.5057   18.4524 N   0  0  0  0  0  0
   13.9295  -12.0949   19.4828 N   0  0  0  0  0  0
   15.7331  -12.0801   16.3697 C   0  0  0  0  0  0
   15.9641  -13.1491   15.6080 F   0  0  0  0  0  0
   15.0668  -11.1911   15.6307 F   0  0  0  0  0  0
   16.9160  -11.5442   16.6764 F   0  0  0  0  0  0
   13.5117  -11.2683   20.5740 C   0  0  0  0  0  0
   14.2515  -10.1074   20.8763 C   0  0  0  0  0  0
   13.8935   -9.2352   21.8983 C   0  0  0  0  0  0
   12.4179  -11.6193   21.3867 C   0  0  0  0  0  0
   12.1048  -10.8005   22.4841 C   0  0  0  0  0  0
   12.8141   -9.6124   22.6854 C   0  0  0  0  0  0
   12.3244   -8.9391   23.7622 O   0  0  0  0  0  0
   11.3075   -9.7237   24.3185 N   0  0  0  0  0  0
   11.2192  -10.8138   23.5934 C   0  0  0  0  0  0
   10.4160  -11.8530   23.9209 N   0  0  0  0  0  0
   20.4018  -13.4166   20.9586 S   0  0  0  0  0  0
   20.7206  -15.1374   20.3219 C   0  0  0  0  0  0
   19.1224  -12.9451   20.4207 O   0  0  0  0  0  0
   21.6155  -12.6309   20.7215 O   0  0  0  0  0  0
   15.3300  -14.9712   21.3063 C   0  0  0  0  0  0
   16.2324  -16.0315   21.5421 C   0  0  0  0  0  0
   15.7625  -17.4417   21.2077 C   0  0  2  0  0  0
   14.3589  -17.5992   21.8100 C   0  0  0  0  0  0
   13.3485  -16.5637   21.2551 C   0  0  0  0  0  0
   13.9807  -15.2539   20.9238 N   0  0  0  0  0  0
   16.6288  -18.4919   21.5903 O   0  0  0  0  0  0
   18.1314  -14.7873   25.1729 H   0  0  0  0  0  0
   20.1043  -14.3167   26.5657 H   0  0  0  0  0  0
   22.1807  -13.4657   25.5243 H   0  0  0  0  0  0
   22.2773  -13.0808   23.1021 H   0  0  0  0  0  0
   18.1573  -16.5737   22.3489 H   0  0  0  0  0  0
   14.9865  -12.8812   21.7315 H   0  0  0  0  0  0
   17.1472  -12.4462   22.6857 H   0  0  0  0  0  0
   14.7200  -14.6494   17.6167 H   0  0  0  0  0  0
   15.1416   -9.8551   20.3209 H   0  0  0  0  0  0
   14.4534   -8.3366   22.1076 H   0  0  0  0  0  0
   11.8286  -12.5057   21.2117 H   0  0  0  0  0  0
   10.5033  -12.7812   23.5196 H   0  0  0  0  0  0
    9.6536  -11.7304   24.5903 H   0  0  0  0  0  0
   20.8834  -15.0529   19.2500 H   0  0  0  0  0  0
   21.6100  -15.5367   20.8075 H   0  0  0  0  0  0
   19.8528  -15.7607   20.5257 H   0  0  0  0  0  0
   15.6784  -17.5186   20.1218 H   0  0  0  0  0  0
   14.4231  -17.5325   22.8972 H   0  0  0  0  0  0
   13.9727  -18.6014   21.6191 H   0  0  0  0  0  0
   12.4931  -16.3987   21.9124 H   0  0  0  0  0  0
   12.8990  -16.9715   20.3456 H   0  0  0  0  0  0
   16.6174  -18.5599   22.5475 H   0  0  0  0  0  0
  1  7  1  0  0  0
  1  6  1  0  0  0
  1  2  2  0  0  0
  2  3  1  0  0  0
  2 43  1  0  0  0
  3  4  2  0  0  0
  3 44  1  0  0  0
  4  5  1  0  0  0
  4 45  1  0  0  0
  5  6  2  0  0  0
  5 46  1  0  0  0
  6 32  1  0  0  0
  7 10  1  0  0  0
  7  8  2  0  0  0
  8 37  1  0  0  0
  8 47  1  0  0  0
  9 10  2  0  0  0
  9 36  1  0  0  0
  9 48  1  0  0  0
 10 49  1  0  0  0
 11 41  1  0  0  0
 11 12  1  0  0  0
 11 13  2  0  0  0
 12 14  2  0  0  0
 12 17  1  0  0  0
 14 15  1  0  0  0
 14 50  1  0  0  0
 15 16  2  0  0  0
 15 18  1  0  0  0
 16 17  1  0  0  0
 17 22  1  0  0  0
 18 20  1  0  0  0
 18 21  1  0  0  0
 18 19  1  0  0  0
 22 23  2  0  0  0
 22 25  1  0  0  0
 23 24  1  0  0  0
 23 51  1  0  0  0
 24 27  2  0  0  0
 24 52  1  0  0  0
 25 26  2  0  0  0
 25 53  1  0  0  0
 26 27  1  0  0  0
 26 30  1  0  0  0
 27 28  1  0  0  0
 28 29  1  0  0  0
 29 30  2  0  0  0
 30 31  1  0  0  0
 31 54  1  0  0  0
 31 55  1  0  0  0
 32 33  1  0  0  0
 32 34  2  0  0  0
 32 35  2  0  0  0
 33 56  1  0  0  0
 33 57  1  0  0  0
 33 58  1  0  0  0
 36 37  2  0  0  0
 36 41  1  0  0  0
 37 38  1  0  0  0
 38 39  1  0  0  0
 38 42  1  0  0  0
 38 59  1  0  0  0
 39 40  1  0  0  0
 39 60  1  0  0  0
 39 61  1  0  0  0
 40 41  1  0  0  0
 40 62  1  0  0  0
 40 63  1  0  0  0
 42 64  1  0  0  0
M  END
> <s_m_entry_id>
35174

> <s_m_entry_name>
dock_pv.24

> <s_m_Source_Path>
/home/csk/Desktop/cluster/DUD-E-result/thrb

> <s_m_Source_File>
dock_pv.maegz

> <i_m_Source_File_Index>
24

> <chembl_id>
CHEMBL398518

> <chembl_pref_name>
None

> <i_lp_mmshare_version>
53161

> <r_lp_tautomer_probability>
1

> <s_lp_Force_Field>
OPLS_2005

> <r_lp_Energy>
68.790116

> <b_lp_Chiralities_Consistent>
1

> <s_lp_Variant>
CHEMBL204_lig4521-1

> <s_i_glide_gridfile>
glide-grid_1ype

> <i_i_glide_lignum>
6188

> <i_i_glide_rotatable_bonds>
7

> <r_i_docking_score>
-8.4039427659857

> <r_i_glide_ligand_efficiency>
-0.200093875380612

> <r_i_glide_ligand_efficiency_sa>
-0.69553164143504

> <r_i_glide_ligand_efficiency_ln>
-1.77385580741081

> <r_i_glide_gscore>
-8.4039427659857

> <r_i_glide_lipo>
-3.33297433226

> <r_i_glide_hbond>
-0.456

> <r_i_glide_metal>
0

> <r_i_glide_rewards>
-0.867070626552186

> <r_i_glide_evdw>
-53.5601615905762

> <r_i_glide_ecoul>
-6.78897142410278

> <r_i_glide_erotb>
0.120411811420717

> <r_i_glide_esite>
-0.171955825450007

> <r_i_glide_emodel>
-82.6006734953223

> <r_i_glide_energy>
-60.349133014679

> <r_i_glide_einternal>
10.5919599533081

> <i_i_glide_confnum>
8

> <i_i_glide_posenum>
395

> <r_i_glide_eff_state_penalty>
0

> <s_user_duplicate_titles>
CHEMBL204_lig4521

> <i_f3d_flags>
0

> <s_m_subgroup_title>
dock_pv

> <s_m_subgroupid>
dock_pv

> <b_m_subgroup_collapsed>
1

$$$$
CHEMBL204_lig4135
                    3D
 Schrodinger Suite 2021-1.
 55 58  0  0  1  0            999 V2000
   18.2920  -13.4793   21.8198 N   0  3  0  0  0  0
   18.8098  -12.6733   20.8418 C   0  0  0  0  0  0
   12.4992  -13.4423   20.9107 N   0  0  0  0  0  0
   18.7119  -15.7045   25.5838 C   0  0  0  0  0  0
   18.8001  -14.7237   22.0987 C   0  0  0  0  0  0
   12.7032  -15.6223   20.6825 N   0  0  0  0  0  0
   18.1258  -11.3199   20.5595 C   0  0  0  0  0  0
   12.1692  -13.6940   19.6401 N   0  0  0  0  0  0
   12.4731  -12.1443   21.4538 C   0  0  0  0  0  0
   19.8784  -13.1539   20.0564 C   0  0  0  0  0  0
   13.3036  -11.1090   20.9800 C   0  0  0  0  0  0
   12.8164  -14.6249   21.5205 C   0  0  0  0  0  0
   16.8163  -11.5224   19.7911 C   0  0  0  0  0  0
   20.8172  -11.8533   17.9909 N   0  0  0  0  0  0
   12.3203  -15.0010   19.5783 C   0  0  0  0  0  0
   20.4069  -12.4275   18.9071 C   0  0  0  0  0  0
   17.2621  -13.0648   22.4325 O   0  5  0  0  0  0
   18.2749  -15.6235   23.0824 N   0  0  0  0  0  0
   20.0847  -15.0193   25.5791 C   0  0  0  0  0  0
   17.8126  -15.2145   24.4247 C   0  0  0  0  0  0
   13.2759   -9.8583   21.5249 N   0  0  0  0  0  0
   15.7044  -11.0465   20.3608 N   0  0  0  0  0  0
   20.0942  -13.7059   25.9389 N   0  0  0  0  0  0
   14.3467  -11.3113   19.8857 C   0  0  0  0  0  0
   19.8794  -15.1932   21.3465 C   0  0  0  0  0  0
   20.4153  -14.4101   20.3314 C   0  0  0  0  0  0
   16.8228  -12.1163   18.7135 O   0  0  0  0  0  0
   18.1190  -15.4514   26.7505 F   0  0  0  0  0  0
   18.8702  -17.0325   25.5312 F   0  0  0  0  0  0
   11.6166  -11.8733   22.5266 C   0  0  0  0  0  0
   12.4287   -9.6222   22.5604 C   0  0  0  0  0  0
   21.2762  -13.0441   25.9211 C   0  0  0  0  0  0
   21.2515  -15.6899   25.1845 C   0  0  0  0  0  0
   11.5999  -10.6028   23.0977 C   0  0  0  0  0  0
   22.4745  -13.6414   25.5296 C   0  0  0  0  0  0
   22.4592  -14.9877   25.1597 C   0  0  0  0  0  0
   18.7623  -10.6526   19.9882 H   0  0  0  0  0  0
   17.9504  -10.8037   21.5048 H   0  0  0  0  0  0
   13.1014  -14.6526   22.5612 H   0  0  0  0  0  0
   12.1287  -15.5432   18.6630 H   0  0  0  0  0  0
   18.5623  -16.5890   23.0120 H   0  0  0  0  0  0
   17.7013  -14.1320   24.4735 H   0  0  0  0  0  0
   16.8165  -15.6415   24.5290 H   0  0  0  0  0  0
   15.7881  -10.4275   21.1530 H   0  0  0  0  0  0
   14.3043  -12.3111   19.4556 H   0  0  0  0  0  0
   14.0993  -10.6539   19.0563 H   0  0  0  0  0  0
   20.3094  -16.1693   21.5284 H   0  0  0  0  0  0
   21.2274  -14.8104   19.7411 H   0  0  0  0  0  0
   10.9675  -12.6414   22.9197 H   0  0  0  0  0  0
   12.4365   -8.6243   22.9724 H   0  0  0  0  0  0
   21.2474  -12.0075   26.2277 H   0  0  0  0  0  0
   21.2260  -16.7293   24.8924 H   0  0  0  0  0  0
   10.9346  -10.3834   23.9224 H   0  0  0  0  0  0
   23.3973  -13.0816   25.5221 H   0  0  0  0  0  0
   23.3719  -15.4812   24.8626 H   0  0  0  0  0  0
  1  2  1  0  0  0
  1  5  2  0  0  0
  1 17  1  0  0  0
  2  7  1  0  0  0
  2 10  2  0  0  0
  3  9  1  0  0  0
  3  8  1  0  0  0
  3 12  1  0  0  0
  4 20  1  0  0  0
  4 19  1  0  0  0
  4 28  1  0  0  0
  4 29  1  0  0  0
  5 18  1  0  0  0
  5 25  1  0  0  0
  6 12  2  0  0  0
  6 15  1  0  0  0
  7 13  1  0  0  0
  7 37  1  0  0  0
  7 38  1  0  0  0
  8 15  2  0  0  0
  9 11  1  0  0  0
  9 30  2  0  0  0
 10 16  1  0  0  0
 10 26  1  0  0  0
 11 24  1  0  0  0
 11 21  2  0  0  0
 12 39  1  0  0  0
 13 22  1  0  0  0
 13 27  2  0  0  0
 14 16  3  0  0  0
 15 40  1  0  0  0
 18 20  1  0  0  0
 18 41  1  0  0  0
 19 23  2  0  0  0
 19 33  1  0  0  0
 20 42  1  0  0  0
 20 43  1  0  0  0
 21 31  1  0  0  0
 22 24  1  0  0  0
 22 44  1  0  0  0
 23 32  1  0  0  0
 24 45  1  0  0  0
 24 46  1  0  0  0
 25 26  2  0  0  0
 25 47  1  0  0  0
 26 48  1  0  0  0
 30 34  1  0  0  0
 30 49  1  0  0  0
 31 34  2  0  0  0
 31 50  1  0  0  0
 32 35  2  0  0  0
 32 51  1  0  0  0
 33 36  2  0  0  0
 33 52  1  0  0  0
 34 53  1  0  0  0
 35 36  1  0  0  0
 35 54  1  0  0  0
 36 55  1  0  0  0
M  CHG  2   1   1  17  -1
M  END
> <s_m_entry_id>
35176

> <s_m_entry_name>
dock_pv.26

> <s_m_Source_Path>
/home/csk/Desktop/cluster/DUD-E-result/thrb

> <s_m_Source_File>
dock_pv.maegz

> <i_m_Source_File_Index>
26

> <chembl_id>
CHEMBL194120

> <chembl_pref_name>
None

> <i_lp_mmshare_version>
53161

> <r_lp_tautomer_probability>
1

> <s_lp_Force_Field>
OPLS_2005

> <r_lp_Energy>
27.481912

> <b_lp_Chiralities_Consistent>
1

> <s_lp_Variant>
CHEMBL204_lig4135-1

> <s_i_glide_gridfile>
glide-grid_1ype

> <i_i_glide_lignum>
5749

> <i_i_glide_rotatable_bonds>
10

> <r_i_docking_score>
-8.39269136089295

> <r_i_glide_ligand_efficiency>
-0.23313031558036

> <r_i_glide_ligand_efficiency_sa>
-0.769779340638687

> <r_i_glide_ligand_efficiency_ln>
-1.83105851062981

> <r_i_glide_gscore>
-8.39269136089295

> <r_i_glide_lipo>
-3.18338251733367

> <r_i_glide_hbond>
0

> <r_i_glide_metal>
0

> <r_i_glide_rewards>
-1.67190391819936

> <r_i_glide_evdw>
-58.9689636230469

> <r_i_glide_ecoul>
-8.98363876342773

> <r_i_glide_erotb>
0.758589070306585

> <r_i_glide_esite>
0

> <r_i_glide_emodel>
-96.7792020420557

> <r_i_glide_energy>
-67.9526023864746

> <r_i_glide_einternal>
9.65105438232422

> <i_i_glide_confnum>
43

> <i_i_glide_posenum>
332

> <r_i_glide_eff_state_penalty>
0

> <s_user_duplicate_titles>
CHEMBL204_lig4135,326276

> <i_f3d_flags>
0

> <s_m_subgroup_title>
dock_pv

> <s_m_subgroupid>
dock_pv

> <b_m_subgroup_collapsed>
1

$$$$
CHEMBL204_lig4754
                    3D
 Schrodinger Suite 2021-1.
 56 58  0  0  1  0            999 V2000
   21.2034  -14.0658   23.1114 C   0  0  0  0  0  0
   22.5432  -13.6845   23.2128 C   0  0  0  0  0  0
   23.1671  -13.5876   24.4523 C   0  0  0  0  0  0
   22.4522  -13.8808   25.6087 C   0  0  0  0  0  0
   21.1079  -14.2357   25.5235 C   0  0  0  0  0  0
   20.4657  -14.3467   24.2759 C   0  0  0  0  0  0
   20.5982  -14.2395   21.7217 C   0  0  0  0  0  0
   19.5701  -13.2469   21.4320 N   0  0  0  0  0  0
   19.5234  -12.4491   20.3537 C   0  0  0  0  0  0
   18.3393  -11.4781   20.2928 C   0  0  0  0  0  0
   17.1071  -12.2031   19.9075 N   0  0  0  0  0  0
   20.3716  -12.4387   19.4622 O   0  0  0  0  0  0
   16.6936  -12.3771   18.5876 C   0  0  0  0  0  0
   15.4991  -12.9525   18.2943 C   0  0  0  0  0  0
   14.6343  -13.3757   19.2660 N   0  0  0  0  0  0
   15.0169  -13.2621   20.4961 C   0  0  0  0  0  0
   16.3247  -12.6894   20.9483 C   0  0  0  0  0  0
   14.1608  -13.6332   21.5210 N   0  0  0  0  0  0
   12.7448  -13.9443   21.3953 C   0  0  0  0  0  0
   11.8548  -12.7354   21.0273 C   0  0  0  0  0  0
   12.0291  -11.4985   21.9149 C   0  0  0  0  0  0
   11.3262  -11.3887   23.1211 C   0  0  0  0  0  0
   11.4915  -10.2539   23.9189 C   0  0  0  0  0  0
   12.3732   -9.2488   23.5211 C   0  0  0  0  0  0
   13.0581   -9.3912   22.3156 C   0  0  0  0  0  0
   12.8632  -10.4836   21.5486 N   0  3  0  0  0  0
   17.7873  -11.8530   17.2967 Cl  0  0  0  0  0  0
   16.6691  -12.6534   22.1392 O   0  0  0  0  0  0
   13.4680  -10.5133   20.4401 O   0  5  0  0  0  0
   19.1393  -14.7178   24.1230 O   0  0  0  0  0  0
   24.8160  -13.0933   24.5455 Cl  0  0  0  0  0  0
   18.3708  -15.1707   25.2441 C   0  0  0  0  0  0
   18.6697  -16.6378   25.6293 C   0  0  0  0  0  0
   17.9916  -16.9813   26.7215 F   0  0  0  0  0  0
   18.3071  -17.4713   24.6539 F   0  0  0  0  0  0
   19.9547  -16.8673   25.8960 F   0  0  0  0  0  0
   23.1075  -13.4530   22.3224 H   0  0  0  0  0  0
   22.9363  -13.8427   26.5734 H   0  0  0  0  0  0
   20.5921  -14.4414   26.4480 H   0  0  0  0  0  0
   21.3778  -14.2892   20.9567 H   0  0  0  0  0  0
   20.1057  -15.2129   21.6863 H   0  0  0  0  0  0
   18.7915  -13.2160   22.0801 H   0  0  0  0  0  0
   18.2364  -11.0041   21.2711 H   0  0  0  0  0  0
   18.5539  -10.6545   19.6194 H   0  0  0  0  0  0
   15.1880  -13.0902   17.2679 H   0  0  0  0  0  0
   14.5361  -13.6986   22.4609 H   0  0  0  0  0  0
   12.6041  -14.7324   20.6531 H   0  0  0  0  0  0
   12.4159  -14.3786   22.3373 H   0  0  0  0  0  0
   12.0076  -12.4668   19.9815 H   0  0  0  0  0  0
   10.8177  -13.0530   21.0989 H   0  0  0  0  0  0
   10.6403  -12.1653   23.4345 H   0  0  0  0  0  0
   10.9306  -10.1602   24.8391 H   0  0  0  0  0  0
   12.5171   -8.3749   24.1407 H   0  0  0  0  0  0
   13.7512   -8.6584   21.9292 H   0  0  0  0  0  0
   18.4766  -14.5020   26.0990 H   0  0  0  0  0  0
   17.3196  -15.0930   24.9631 H   0  0  0  0  0  0
  1  6  1  0  0  0
  1  2  2  0  0  0
  1  7  1  0  0  0
  2  3  1  0  0  0
  2 37  1  0  0  0
  3  4  2  0  0  0
  3 31  1  0  0  0
  4  5  1  0  0  0
  4 38  1  0  0  0
  5  6  2  0  0  0
  5 39  1  0  0  0
  6 30  1  0  0  0
  7  8  1  0  0  0
  7 40  1  0  0  0
  7 41  1  0  0  0
  8  9  1  0  0  0
  8 42  1  0  0  0
  9 10  1  0  0  0
  9 12  2  0  0  0
 10 11  1  0  0  0
 10 43  1  0  0  0
 10 44  1  0  0  0
 11 13  1  0  0  0
 11 17  1  0  0  0
 13 27  1  0  0  0
 13 14  2  0  0  0
 14 15  1  0  0  0
 14 45  1  0  0  0
 15 16  2  0  0  0
 16 18  1  0  0  0
 16 17  1  0  0  0
 17 28  2  0  0  0
 18 19  1  0  0  0
 18 46  1  0  0  0
 19 20  1  0  0  0
 19 47  1  0  0  0
 19 48  1  0  0  0
 20 21  1  0  0  0
 20 49  1  0  0  0
 20 50  1  0  0  0
 21 22  2  0  0  0
 21 26  1  0  0  0
 22 23  1  0  0  0
 22 51  1  0  0  0
 23 24  2  0  0  0
 23 52  1  0  0  0
 24 25  1  0  0  0
 24 53  1  0  0  0
 25 26  2  0  0  0
 25 54  1  0  0  0
 26 29  1  0  0  0
 30 32  1  0  0  0
 32 33  1  0  0  0
 32 55  1  0  0  0
 32 56  1  0  0  0
 33 34  1  0  0  0
 33 35  1  0  0  0
 33 36  1  0  0  0
M  CHG  2  26   1  29  -1
M  END
> <s_m_entry_id>
35178

> <s_m_entry_name>
dock_pv.28

> <s_m_Source_Path>
/home/csk/Desktop/cluster/DUD-E-result/thrb

> <s_m_Source_File>
dock_pv.maegz

> <i_m_Source_File_Index>
28

> <chembl_id>
CHEMBL1682765

> <chembl_pref_name>
None

> <i_lp_mmshare_version>
53161

> <r_lp_tautomer_probability>
1

> <s_lp_Force_Field>
OPLS_2005

> <r_lp_Energy>
23.311383

> <b_lp_Chiralities_Consistent>
1

> <s_lp_Variant>
CHEMBL204_lig4754-1

> <s_i_glide_gridfile>
glide-grid_1ype

> <i_i_glide_lignum>
6499

> <i_i_glide_rotatable_bonds>
12

> <r_i_docking_score>
-8.36744708077167

> <r_i_glide_ligand_efficiency>
-0.232429085576991

> <r_i_glide_ligand_efficiency_sa>
-0.767463930185586

> <r_i_glide_ligand_efficiency_ln>
-1.82555089072897

> <r_i_glide_gscore>
-8.36744708077167

> <r_i_glide_lipo>
-3.5038668664013

> <r_i_glide_hbond>
-0.271059891463909

> <r_i_glide_metal>
0

> <r_i_glide_rewards>
-1.190265691929

> <r_i_glide_evdw>
-52.1792526245117

> <r_i_glide_ecoul>
-9.91424942016602

> <r_i_glide_erotb>
0.693845413273034

> <r_i_glide_esite>
0

> <r_i_glide_emodel>
-89.8116821263672

> <r_i_glide_energy>
-62.0935020446777

> <r_i_glide_einternal>
7.35385322570801

> <i_i_glide_confnum>
131

> <i_i_glide_posenum>
340

> <r_i_glide_eff_state_penalty>
0

> <s_user_duplicate_titles>
CHEMBL204_lig4754

> <i_f3d_flags>
0

> <s_m_subgroup_title>
dock_pv

> <s_m_subgroupid>
dock_pv

> <b_m_subgroup_collapsed>
1

$$$$
CHEMBL204_lig4148
                    3D
 Schrodinger Suite 2021-1.
 40 42  0  0  1  0            999 V2000
   17.6841  -13.5086   21.9132 N   0  3  0  0  0  0
   12.5921  -12.5488   21.2444 N   0  0  0  0  0  0
   18.2946  -12.7279   20.9662 C   0  0  0  0  0  0
   12.4161  -12.5767   19.9207 N   0  0  0  0  0  0
   12.5604  -13.9005   19.5535 N   0  0  0  0  0  0
   12.8153  -14.6781   20.6763 N   0  0  0  0  0  0
   12.4703  -11.3720   22.0146 C   0  0  0  0  0  0
   13.2329  -10.2075   21.7747 C   0  0  0  0  0  0
   12.8184  -13.8334   21.6747 C   0  0  0  0  0  0
   17.7185  -11.3252   20.6513 C   0  0  0  0  0  0
   18.1513  -14.7471   22.2616 C   0  0  0  0  0  0
   19.4727  -13.2117   20.3509 C   0  0  0  0  0  0
   16.2421  -11.2932   20.2226 C   0  0  0  0  0  0
   20.8122  -11.8542   18.5546 N   0  0  0  0  0  0
   20.2211  -12.4553   19.3484 C   0  0  0  0  0  0
   16.6658  -13.0495   22.5170 O   0  5  0  0  0  0
   11.5672  -11.3916   23.0858 C   0  0  0  0  0  0
   15.5321  -10.2720   20.7210 N   0  0  0  0  0  0
   14.1104   -9.9976   20.5399 C   0  0  0  0  0  0
   13.1032   -9.1277   22.6561 C   0  0  0  0  0  0
   19.3045  -15.2429   21.6528 C   0  0  0  0  0  0
   19.9661  -14.4697   20.7050 C   0  0  0  0  0  0
   15.7866  -12.1280   19.4432 O   0  0  0  0  0  0
   17.5076  -15.5584   23.2393 N   0  0  0  0  0  0
   12.1946   -9.1512   23.7064 C   0  0  0  0  0  0
   11.4214  -10.2840   23.9181 C   0  0  0  0  0  0
   12.0320   -7.7695   24.7273 Cl  0  0  0  0  0  0
   12.9555  -14.0503   22.7204 H   0  0  0  0  0  0
   17.8642  -10.7078   21.5359 H   0  0  0  0  0  0
   18.2680  -10.8176   19.8653 H   0  0  0  0  0  0
   10.9436  -12.2528   23.2727 H   0  0  0  0  0  0
   16.0301   -9.6253   21.3195 H   0  0  0  0  0  0
   14.0322   -8.9329   20.3209 H   0  0  0  0  0  0
   13.7046  -10.4941   19.6601 H   0  0  0  0  0  0
   13.7229   -8.2568   22.5377 H   0  0  0  0  0  0
   19.7017  -16.2146   21.9069 H   0  0  0  0  0  0
   20.8639  -14.8637   20.2472 H   0  0  0  0  0  0
   17.8746  -16.4626   23.4895 H   0  0  0  0  0  0
   16.6566  -15.2103   23.6689 H   0  0  0  0  0  0
   10.7114  -10.3177   24.7294 H   0  0  0  0  0  0
  1  3  1  0  0  0
  1 11  2  0  0  0
  1 16  1  0  0  0
  2  7  1  0  0  0
  2  4  1  0  0  0
  2  9  1  0  0  0
  3 10  1  0  0  0
  3 12  2  0  0  0
  4  5  2  0  0  0
  5  6  1  0  0  0
  6  9  2  0  0  0
  7  8  1  0  0  0
  7 17  2  0  0  0
  8 19  1  0  0  0
  8 20  2  0  0  0
  9 28  1  0  0  0
 10 13  1  0  0  0
 10 29  1  0  0  0
 10 30  1  0  0  0
 11 21  1  0  0  0
 11 24  1  0  0  0
 12 15  1  0  0  0
 12 22  1  0  0  0
 13 18  1  0  0  0
 13 23  2  0  0  0
 14 15  3  0  0  0
 17 26  1  0  0  0
 17 31  1  0  0  0
 18 19  1  0  0  0
 18 32  1  0  0  0
 19 33  1  0  0  0
 19 34  1  0  0  0
 20 25  1  0  0  0
 20 35  1  0  0  0
 21 22  2  0  0  0
 21 36  1  0  0  0
 22 37  1  0  0  0
 24 38  1  0  0  0
 24 39  1  0  0  0
 25 26  2  0  0  0
 25 27  1  0  0  0
 26 40  1  0  0  0
M  CHG  2   1   1  16  -1
M  END
> <s_m_entry_id>
35179

> <s_m_entry_name>
dock_pv.29

> <s_m_Source_Path>
/home/csk/Desktop/cluster/DUD-E-result/thrb

> <s_m_Source_File>
dock_pv.maegz

> <i_m_Source_File_Index>
29

> <chembl_id>
CHEMBL193500

> <chembl_pref_name>
None

> <i_lp_mmshare_version>
53161

> <r_lp_tautomer_probability>
1

> <s_lp_Force_Field>
OPLS_2005

> <r_lp_Energy>
23.120245

> <b_lp_Chiralities_Consistent>
1

> <s_lp_Variant>
CHEMBL204_lig4148-1

> <s_i_glide_gridfile>
glide-grid_1ype

> <i_i_glide_lignum>
5765

> <i_i_glide_rotatable_bonds>
6

> <r_i_docking_score>
-8.36729565110827

> <r_i_glide_ligand_efficiency>
-0.309899838929936

> <r_i_glide_ligand_efficiency_sa>
-0.929699515768428

> <r_i_glide_ligand_efficiency_ln>
-1.94776848192816

> <r_i_glide_gscore>
-8.36729565110827

> <r_i_glide_lipo>
-2.54625738369289

> <r_i_glide_hbond>
-0.589355646743363

> <r_i_glide_metal>
0

> <r_i_glide_rewards>
-1.98494623545139

> <r_i_glide_evdw>
-45.5514030456543

> <r_i_glide_ecoul>
-11.6171884536743

> <r_i_glide_erotb>
0.788063334361008

> <r_i_glide_esite>
-0.0146512992477669

> <r_i_glide_emodel>
-81.1618860447156

> <r_i_glide_energy>
-57.1685914993286

> <r_i_glide_einternal>
3.30666255950928

> <i_i_glide_confnum>
34

> <i_i_glide_posenum>
399

> <r_i_glide_eff_state_penalty>
0

> <s_user_duplicate_titles>
CHEMBL204_lig4148,326221

> <i_f3d_flags>
0

> <s_m_subgroup_title>
dock_pv

> <s_m_subgroupid>
dock_pv

> <b_m_subgroup_collapsed>
1

$$$$
CHEMBL204_lig3445
                    3D
 Schrodinger Suite 2021-1.
 48 50  0  0  1  0            999 V2000
   23.6141  -14.5744   25.6091 N   0  0  0  0  0  0
   22.2596  -14.0862   23.9456 C   0  0  0  0  0  0
   11.3279  -10.6531   23.7856 C   0  0  0  0  0  0
   17.6459  -13.3318   20.4777 C   0  0  0  0  0  0
   12.0279  -10.8602   22.4886 C   0  0  0  0  0  0
   23.4981  -13.8486   23.5201 N   0  0  0  0  0  0
   12.1620  -12.1306   21.8908 C   0  0  0  0  0  0
   24.2977  -14.1421   24.5112 C   0  0  0  0  0  0
   12.8135  -12.3176   20.6696 C   0  0  0  0  0  0
   22.2916  -14.5353   25.2659 C   0  0  0  0  0  0
   21.0615  -13.8794   23.0621 C   0  0  0  0  0  0
   18.8253  -13.5253   21.3948 C   0  0  0  0  0  0
   11.2164   -9.5178   24.3189 N   0  0  0  0  0  0
   13.3532  -11.2066   20.0112 C   0  0  0  0  0  0
   17.6419  -12.4258   19.6409 O   0  0  0  0  0  0
   12.5755   -9.7706   21.7959 C   0  0  0  0  0  0
   20.1127  -13.2739   20.9130 C   0  0  0  0  0  0
   18.6603  -13.9454   22.7224 C   0  0  0  0  0  0
   21.2159  -13.4532   21.7385 C   0  0  0  0  0  0
   19.7708  -14.1176   23.5474 C   0  0  0  0  0  0
   13.2243   -9.9389   20.5767 C   0  0  0  0  0  0
   16.6538  -14.2315   20.6063 N   0  0  0  0  0  0
   10.8158  -11.8029   24.3204 N   0  0  0  0  0  0
   14.0158  -11.3423   18.8194 O   0  0  0  0  0  0
   12.9220  -13.7394   20.1154 C   0  0  0  0  0  0
   15.4405  -14.2666   19.7903 C   0  0  0  0  0  0
   14.1683  -14.4931   20.6321 C   0  0  0  0  0  0
   24.0114  -14.8358   26.5047 H   0  0  0  0  0  0
   11.7620  -13.0124   22.3693 H   0  0  0  0  0  0
   25.3759  -14.0639   24.5286 H   0  0  0  0  0  0
   21.5212  -14.8233   25.9661 H   0  0  0  0  0  0
   10.6312   -9.5724   25.1424 H   0  0  0  0  0  0
   12.4971   -8.7707   22.2001 H   0  0  0  0  0  0
   20.2692  -12.9466   19.8945 H   0  0  0  0  0  0
   17.6764  -14.1332   23.1297 H   0  0  0  0  0  0
   22.1977  -13.2548   21.3386 H   0  0  0  0  0  0
   19.6196  -14.4409   24.5663 H   0  0  0  0  0  0
   13.6156   -9.0650   20.0849 H   0  0  0  0  0  0
   16.7833  -14.9896   21.2593 H   0  0  0  0  0  0
   10.1047  -11.7081   25.0395 H   0  0  0  0  0  0
   10.8236  -12.6820   23.8170 H   0  0  0  0  0  0
   14.7158  -10.6939   18.7022 H   0  0  0  0  0  0
   12.0281  -14.2857   20.4233 H   0  0  0  0  0  0
   12.8734  -13.7369   19.0251 H   0  0  0  0  0  0
   15.5447  -15.0574   19.0446 H   0  0  0  0  0  0
   15.3531  -13.3432   19.2220 H   0  0  0  0  0  0
   14.3365  -14.2364   21.6807 H   0  0  0  0  0  0
   13.9576  -15.5635   20.6378 H   0  0  0  0  0  0
  1  8  1  0  0  0
  1 10  1  0  0  0
  1 28  1  0  0  0
  2 10  2  0  0  0
  2 11  1  0  0  0
  2  6  1  0  0  0
  3  5  1  0  0  0
  3 13  2  0  0  0
  3 23  1  0  0  0
  4 12  1  0  0  0
  4 15  2  0  0  0
  4 22  1  0  0  0
  5  7  2  0  0  0
  5 16  1  0  0  0
  6  8  2  0  0  0
  7  9  1  0  0  0
  7 29  1  0  0  0
  8 30  1  0  0  0
  9 25  1  0  0  0
  9 14  2  0  0  0
 10 31  1  0  0  0
 11 19  2  0  0  0
 11 20  1  0  0  0
 12 18  1  0  0  0
 12 17  2  0  0  0
 13 32  1  0  0  0
 14 21  1  0  0  0
 14 24  1  0  0  0
 16 21  2  0  0  0
 16 33  1  0  0  0
 17 19  1  0  0  0
 17 34  1  0  0  0
 18 20  2  0  0  0
 18 35  1  0  0  0
 19 36  1  0  0  0
 20 37  1  0  0  0
 21 38  1  0  0  0
 22 26  1  0  0  0
 22 39  1  0  0  0
 23 40  1  0  0  0
 23 41  1  0  0  0
 24 42  1  0  0  0
 25 27  1  0  0  0
 25 43  1  0  0  0
 25 44  1  0  0  0
 26 27  1  0  0  0
 26 45  1  0  0  0
 26 46  1  0  0  0
 27 47  1  0  0  0
 27 48  1  0  0  0
M  END
> <s_m_entry_id>
35180

> <s_m_entry_name>
dock_pv.30

> <s_m_Source_Path>
/home/csk/Desktop/cluster/DUD-E-result/thrb

> <s_m_Source_File>
dock_pv.maegz

> <i_m_Source_File_Index>
30

> <chembl_id>
CHEMBL303211

> <chembl_pref_name>
None

> <i_lp_mmshare_version>
53161

> <r_lp_tautomer_probability>
0.499999999999999

> <s_lp_Force_Field>
OPLS_2005

> <r_lp_Energy>
12.871629

> <b_lp_Chiralities_Consistent>
1

> <s_lp_Variant>
CHEMBL204_lig3445-1

> <s_i_glide_gridfile>
glide-grid_1ype

> <i_i_glide_lignum>
4798

> <i_i_glide_rotatable_bonds>
9

> <r_i_docking_score>
-8.35880287010068

> <r_i_glide_ligand_efficiency>
-0.30958529148521

> <r_i_glide_ligand_efficiency_sa>
-0.928755873435288

> <r_i_glide_ligand_efficiency_ln>
-1.94579150252403

> <r_i_glide_gscore>
-8.35880287010068

> <r_i_glide_lipo>
-3.09826837350815

> <r_i_glide_hbond>
-0.765805351140265

> <r_i_glide_metal>
0

> <r_i_glide_rewards>
-1.98791298768827

> <r_i_glide_evdw>
-40.4053230285645

> <r_i_glide_ecoul>
-9.37637424468994

> <r_i_glide_erotb>
1.01834601324262

> <r_i_glide_esite>
-0.0984398828748965

> <r_i_glide_emodel>
-72.1943174440835

> <r_i_glide_energy>
-49.7816972732544

> <r_i_glide_einternal>
5.47225522994995

> <i_i_glide_confnum>
2

> <i_i_glide_posenum>
162

> <r_i_glide_eff_state_penalty>
0

> <s_user_duplicate_titles>
CHEMBL204_lig3445

> <i_f3d_flags>
0

> <s_m_subgroup_title>
dock_pv

> <s_m_subgroupid>
dock_pv

> <b_m_subgroup_collapsed>
1

$$$$
CHEMBL204_lig4358
                    3D
 Schrodinger Suite 2021-1.
 61 62  0  0  1  0            999 V2000
   14.8836   -9.4709   14.3209 O   0  0  0  0  0  0
   15.8827  -10.2283   14.8529 C   0  0  0  0  0  0
   15.3307  -11.4461   15.5882 C   0  0  0  0  0  0
   16.3653  -12.2665   16.9415 S   0  0  0  0  0  0
   17.0788   -9.9947   14.7121 O   0  0  0  0  0  0
   17.7638  -11.8524   16.7807 O   0  0  0  0  0  0
   16.0083  -13.6885   16.9532 O   0  0  0  0  0  0
   15.7683  -11.5268   18.4400 N   0  0  1  0  0  0
   20.4477  -15.2880   24.4894 C   0  0  0  0  0  0
   21.7173  -14.7318   24.2883 C   0  0  0  0  0  0
   22.1785  -13.6941   25.0919 C   0  0  0  0  0  0
   21.3636  -13.1857   26.0993 C   0  0  0  0  0  0
   20.1064  -13.7420   26.3216 C   0  0  0  0  0  0
   19.6399  -14.8051   25.5408 C   0  0  0  0  0  0
   23.7595  -13.0530   24.8334 Cl  0  0  0  0  0  0
   18.2763  -15.4021   25.8787 C   0  0  0  0  0  0
   18.4168  -16.5388   26.7710 N   0  0  0  0  0  0
   20.0297  -16.4444   23.5767 C   0  0  0  0  0  0
   18.8088  -16.2963   22.7787 N   0  0  0  0  0  0
   18.3596  -15.1962   22.1507 C   0  0  0  0  0  0
   17.1917  -15.4544   21.1922 C   0  0  0  0  0  0
   18.8451  -14.0746   22.2921 O   0  0  0  0  0  0
   16.3709  -14.2726   20.9321 N   0  0  0  0  0  0
   16.6460  -13.3103   20.0326 C   0  0  0  0  0  0
   15.4839  -12.3310   19.6785 C   0  0  2  0  0  0
   17.7611  -13.1980   19.5214 O   0  0  0  0  0  0
   14.0901  -13.0189   19.5873 C   0  0  0  0  0  0
   12.8725  -12.0755   19.5622 C   0  0  0  0  0  0
   12.5106  -11.4665   20.9231 C   0  0  0  0  0  0
   12.7237  -10.1475   21.1847 N   0  3  0  0  0  0
   12.3986   -9.5696   22.3603 C   0  0  0  0  0  0
   11.7726  -10.3167   23.3556 C   0  0  0  0  0  0
   11.5212  -11.6662   23.1199 C   0  0  0  0  0  0
   11.9041  -12.2519   21.9122 C   0  0  0  0  0  0
   13.2160   -9.4009   20.2993 O   0  5  0  0  0  0
   15.2349   -8.8025   13.7164 H   0  0  0  0  0  0
   15.2168  -12.2146   14.8267 H   0  0  0  0  0  0
   14.3442  -11.2662   16.0003 H   0  0  0  0  0  0
   16.2221  -10.6346   18.6475 H   0  0  0  0  0  0
   22.3562  -15.1043   23.5004 H   0  0  0  0  0  0
   21.7023  -12.3690   26.7188 H   0  0  0  0  0  0
   19.4994  -13.3509   27.1235 H   0  0  0  0  0  0
   17.6524  -14.6536   26.3676 H   0  0  0  0  0  0
   17.7365  -15.6990   24.9815 H   0  0  0  0  0  0
   18.9937  -17.2523   26.3509 H   0  0  0  0  0  0
   18.8591  -16.2544   27.6328 H   0  0  0  0  0  0
   19.8972  -17.3252   24.2059 H   0  0  0  0  0  0
   20.8407  -16.7067   22.8942 H   0  0  0  0  0  0
   18.3326  -17.1605   22.5680 H   0  0  0  0  0  0
   16.5450  -16.2274   21.6087 H   0  0  0  0  0  0
   17.5883  -15.8485   20.2564 H   0  0  0  0  0  0
   15.4735  -14.2600   21.3926 H   0  0  0  0  0  0
   15.4772  -11.6212   20.5074 H   0  0  0  0  0  0
   13.9300  -13.7162   20.4102 H   0  0  0  0  0  0
   14.0628  -13.6360   18.6873 H   0  0  0  0  0  0
   12.0198  -12.6730   19.2433 H   0  0  0  0  0  0
   12.9875  -11.3144   18.7887 H   0  0  0  0  0  0
   12.6243   -8.5196   22.4550 H   0  0  0  0  0  0
   11.4707   -9.8613   24.2892 H   0  0  0  0  0  0
   11.0106  -12.2505   23.8722 H   0  0  0  0  0  0
   11.6902  -13.2992   21.7407 H   0  0  0  0  0  0
  1  2  1  0  0  0
  1 36  1  0  0  0
  2  3  1  0  0  0
  2  5  2  0  0  0
  3  4  1  0  0  0
  3 37  1  0  0  0
  3 38  1  0  0  0
  4  6  2  0  0  0
  4  7  2  0  0  0
  4  8  1  0  0  0
  8 25  1  0  0  0
  8 39  1  0  0  0
  9 18  1  0  0  0
  9 10  2  0  0  0
  9 14  1  0  0  0
 10 11  1  0  0  0
 10 40  1  0  0  0
 11 12  2  0  0  0
 11 15  1  0  0  0
 12 13  1  0  0  0
 12 41  1  0  0  0
 13 14  2  0  0  0
 13 42  1  0  0  0
 14 16  1  0  0  0
 16 17  1  0  0  0
 16 43  1  0  0  0
 16 44  1  0  0  0
 17 45  1  0  0  0
 17 46  1  0  0  0
 18 19  1  0  0  0
 18 47  1  0  0  0
 18 48  1  0  0  0
 19 20  1  0  0  0
 19 49  1  0  0  0
 20 21  1  0  0  0
 20 22  2  0  0  0
 21 23  1  0  0  0
 21 50  1  0  0  0
 21 51  1  0  0  0
 23 24  1  0  0  0
 23 52  1  0  0  0
 24 25  1  0  0  0
 24 26  2  0  0  0
 25 27  1  0  0  0
 25 53  1  0  0  0
 27 28  1  0  0  0
 27 54  1  0  0  0
 27 55  1  0  0  0
 28 29  1  0  0  0
 28 56  1  0  0  0
 28 57  1  0  0  0
 29 30  2  0  0  0
 29 34  1  0  0  0
 30 31  1  0  0  0
 30 35  1  0  0  0
 31 32  2  0  0  0
 31 58  1  0  0  0
 32 33  1  0  0  0
 32 59  1  0  0  0
 33 34  2  0  0  0
 33 60  1  0  0  0
 34 61  1  0  0  0
M  CHG  2  30   1  35  -1
M  END
> <s_m_entry_id>
35181

> <s_m_entry_name>
dock_pv.31

> <s_m_Source_Path>
/home/csk/Desktop/cluster/DUD-E-result/thrb

> <s_m_Source_File>
dock_pv.maegz

> <i_m_Source_File_Index>
31

> <chembl_id>
CHEMBL231494

> <chembl_pref_name>
None

> <i_lp_mmshare_version>
53161

> <r_lp_tautomer_probability>
1

> <s_lp_Force_Field>
OPLS_2005

> <r_lp_Energy>
5.228798

> <b_lp_Chiralities_Consistent>
1

> <s_lp_Variant>
CHEMBL204_lig4358-1

> <s_i_glide_gridfile>
glide-grid_1ype

> <i_i_glide_lignum>
6010

> <i_i_glide_rotatable_bonds>
16

> <r_i_docking_score>
-8.33823655291431

> <r_i_glide_ligand_efficiency>
-0.238235330083266

> <r_i_glide_ligand_efficiency_sa>
-0.779283561208488

> <r_i_glide_ligand_efficiency_ln>
-1.83042798055437

> <r_i_glide_gscore>
-8.33823655291431

> <r_i_glide_lipo>
-3.29009711779821

> <r_i_glide_hbond>
-0.158724318929405

> <r_i_glide_metal>
0

> <r_i_glide_rewards>
-0.695090142104162

> <r_i_glide_evdw>
-50.9601631164551

> <r_i_glide_ecoul>
-17.1888771057129

> <r_i_glide_erotb>
0.960610777069992

> <r_i_glide_esite>
-0.0285960294728395

> <r_i_glide_emodel>
-97.2044896959942

> <r_i_glide_energy>
-68.149040222168

> <r_i_glide_einternal>
11.3994598388672

> <i_i_glide_confnum>
179

> <i_i_glide_posenum>
290

> <r_i_glide_eff_state_penalty>
0

> <s_user_duplicate_titles>
CHEMBL204_lig4358

> <i_f3d_flags>
0

> <s_m_subgroup_title>
dock_pv

> <s_m_subgroupid>
dock_pv

> <b_m_subgroup_collapsed>
1

$$$$
CHEMBL204_lig4189
                    3D
 Schrodinger Suite 2021-1.
 49 52  0  0  1  0            999 V2000
   17.0486  -12.8861   21.3292 N   0  0  0  0  0  0
   17.5341  -12.1918   20.2220 C   0  0  0  0  0  0
   16.5996  -11.2997   19.8257 N   0  0  0  0  0  0
   15.6346  -11.4855   20.7037 C   0  0  0  0  0  0
   17.7701  -13.8864   21.9365 C   0  0  0  0  0  0
   15.8116  -12.4203   21.6235 N   0  0  0  0  0  0
   18.7371  -12.4448   19.6950 N   0  0  0  0  0  0
   19.0252  -14.1699   21.3879 C   0  0  0  0  0  0
   14.5554  -10.6491   20.6513 N   0  0  0  0  0  0
   19.4635  -13.4316   20.2861 C   0  0  0  0  0  0
   13.4987  -10.5909   21.5724 C   0  0  0  0  0  0
   13.3875   -9.4175   22.3210 C   0  0  0  0  0  0
   17.2161  -14.5848   23.0236 N   0  0  0  0  0  0
   12.5686  -11.6280   21.7736 C   0  0  0  0  0  0
   11.5743  -11.4731   22.7461 C   0  0  0  0  0  0
   12.4162   -9.2844   23.3111 C   0  0  0  0  0  0
   11.5031  -10.3147   23.5205 C   0  0  0  0  0  0
   12.4160   -7.8794   24.3210 Cl  0  0  0  0  0  0
   17.8355  -15.7472   23.6571 C   0  0  0  0  0  0
   19.8083  -14.7537   25.0447 C   0  0  0  0  0  0
   20.8169  -13.7014   19.6636 C   0  0  0  0  0  0
   12.5822  -12.9017   20.9386 C   0  0  0  0  0  0
   18.4672  -15.4821   25.0413 C   0  0  0  0  0  0
   20.0093  -13.6853   25.9228 C   0  0  0  0  0  0
   20.8618  -15.1888   24.2337 C   0  0  0  0  0  0
   22.0939  -14.5386   24.2793 C   0  0  0  0  0  0
   21.2425  -13.0464   25.9797 C   0  0  0  0  0  0
   22.2793  -13.4686   25.1528 C   0  0  0  0  0  0
   19.6581  -14.9388   21.7956 H   0  0  0  0  0  0
   14.7828   -9.7388   20.2846 H   0  0  0  0  0  0
   14.1063   -8.6237   22.1859 H   0  0  0  0  0  0
   16.3126  -14.2764   23.3743 H   0  0  0  0  0  0
   10.8466  -12.2532   22.9136 H   0  0  0  0  0  0
   10.7405  -10.2256   24.2836 H   0  0  0  0  0  0
   18.5021  -16.3012   22.9965 H   0  0  0  0  0  0
   17.0011  -16.4322   23.8122 H   0  0  0  0  0  0
   21.2148  -14.6670   19.9777 H   0  0  0  0  0  0
   20.7542  -13.7068   18.5751 H   0  0  0  0  0  0
   21.5253  -12.9279   19.9599 H   0  0  0  0  0  0
   11.6145  -13.4089   20.9555 H   0  0  0  0  0  0
   12.7950  -12.6730   19.8927 H   0  0  0  0  0  0
   13.3448  -13.5912   21.3034 H   0  0  0  0  0  0
   18.6249  -16.4402   25.5398 H   0  0  0  0  0  0
   17.7444  -14.9502   25.6645 H   0  0  0  0  0  0
   19.2159  -13.3540   26.5755 H   0  0  0  0  0  0
   20.7331  -16.0369   23.5779 H   0  0  0  0  0  0
   22.9052  -14.8722   23.6500 H   0  0  0  0  0  0
   21.3895  -12.2229   26.6642 H   0  0  0  0  0  0
   23.2374  -12.9715   25.1971 H   0  0  0  0  0  0
  1  2  1  0  0  0
  1  5  1  0  0  0
  1  6  1  0  0  0
  2  3  2  0  0  0
  2  7  1  0  0  0
  3  4  1  0  0  0
  4  6  2  0  0  0
  4  9  1  0  0  0
  5  8  2  0  0  0
  5 13  1  0  0  0
  7 10  2  0  0  0
  8 10  1  0  0  0
  8 29  1  0  0  0
  9 11  1  0  0  0
  9 30  1  0  0  0
 10 21  1  0  0  0
 11 12  2  0  0  0
 11 14  1  0  0  0
 12 16  1  0  0  0
 12 31  1  0  0  0
 13 19  1  0  0  0
 13 32  1  0  0  0
 14 15  2  0  0  0
 14 22  1  0  0  0
 15 17  1  0  0  0
 15 33  1  0  0  0
 16 18  1  0  0  0
 16 17  2  0  0  0
 17 34  1  0  0  0
 19 23  1  0  0  0
 19 35  1  0  0  0
 19 36  1  0  0  0
 20 23  1  0  0  0
 20 24  1  0  0  0
 20 25  2  0  0  0
 21 37  1  0  0  0
 21 38  1  0  0  0
 21 39  1  0  0  0
 22 40  1  0  0  0
 22 41  1  0  0  0
 22 42  1  0  0  0
 23 43  1  0  0  0
 23 44  1  0  0  0
 24 27  2  0  0  0
 24 45  1  0  0  0
 25 26  1  0  0  0
 25 46  1  0  0  0
 26 28  2  0  0  0
 26 47  1  0  0  0
 27 28  1  0  0  0
 27 48  1  0  0  0
 28 49  1  0  0  0
M  END
> <s_m_entry_id>
35182

> <s_m_entry_name>
dock_pv.32

> <s_m_Source_Path>
/home/csk/Desktop/cluster/DUD-E-result/thrb

> <s_m_Source_File>
dock_pv.maegz

> <i_m_Source_File_Index>
32

> <chembl_id>
CHEMBL372477

> <chembl_pref_name>
None

> <i_lp_mmshare_version>
53161

> <r_lp_tautomer_probability>
1

> <s_lp_Force_Field>
OPLS_2005

> <r_lp_Energy>
17.279373

> <b_lp_Chiralities_Consistent>
1

> <s_lp_Variant>
CHEMBL204_lig4189-1

> <s_i_glide_gridfile>
glide-grid_1ype

> <i_i_glide_lignum>
5822

> <i_i_glide_rotatable_bonds>
6

> <r_i_docking_score>
-8.33608669654531

> <r_i_glide_ligand_efficiency>
-0.297717382019475

> <r_i_glide_ligand_efficiency_sa>
-0.904045317971878

> <r_i_glide_ligand_efficiency_ln>
-1.92421356770347

> <r_i_glide_gscore>
-8.33608669654531

> <r_i_glide_lipo>
-3.77289184162162

> <r_i_glide_hbond>
-0.472301414080788

> <r_i_glide_metal>
0

> <r_i_glide_rewards>
-1.52226310360548

> <r_i_glide_evdw>
-48.9228096008301

> <r_i_glide_ecoul>
-4.91485357284546

> <r_i_glide_erotb>
0.632595867061353

> <r_i_glide_esite>
-0.0178576883304508

> <r_i_glide_emodel>
-76.039588777664

> <r_i_glide_energy>
-53.8376631736755

> <r_i_glide_einternal>
10.3161573410034

> <i_i_glide_confnum>
51

> <i_i_glide_posenum>
60

> <r_i_glide_eff_state_penalty>
0

> <s_user_duplicate_titles>
CHEMBL204_lig4189,329947

> <i_f3d_flags>
0

> <s_m_subgroup_title>
dock_pv

> <s_m_subgroupid>
dock_pv

> <b_m_subgroup_collapsed>
1

$$$$
CHEMBL204_lig1982
                    3D
 Schrodinger Suite 2021-1.
 80 84  0  0  1  0            999 V2000
   15.9382  -16.3646   21.7287 S   0  0  0  0  0  0
   18.5305  -13.2906   20.7678 N   0  0  0  0  0  0
   17.7375  -13.5485   21.8410 C   0  0  0  0  0  0
   18.0607  -14.7443   22.7691 C   0  0  2  0  0  0
   12.7309   -9.9062   22.4406 C   0  0  0  0  0  0
   16.8338  -15.5622   23.0168 N   0  0  1  0  0  0
   18.2729  -12.2235   19.7726 C   0  0  2  0  0  0
   11.2108  -10.4779   23.9224 N   0  0  0  0  0  0
   16.8684  -12.3167   19.1406 C   0  0  0  0  0  0
   11.8785  -10.9346   22.8218 C   0  0  0  0  0  0
   11.6213   -9.2731   24.3212 N   0  0  0  0  0  0
   15.9463  -11.4703   19.6293 N   0  0  0  0  0  0
   12.5421   -8.9446   23.4444 C   0  0  0  0  0  0
   15.1399  -17.4138   22.3726 O   0  0  0  0  0  0
   16.8951  -16.6893   20.6650 O   0  0  0  0  0  0
   18.5990  -14.1994   24.1114 C   0  0  0  0  0  0
   16.7889  -12.8204   22.1412 O   0  0  0  0  0  0
   13.6780  -10.0227   21.2527 C   0  0  0  0  0  0
   14.7446  -15.0464   21.0982 C   0  0  0  0  0  0
   16.6331  -13.1809   18.2978 O   0  0  0  0  0  0
   11.6665  -12.2498   22.0999 C   0  0  0  0  0  0
   19.7694  -14.0057   20.4570 C   0  0  0  0  0  0
   14.5052  -11.6401   19.4493 C   0  0  0  0  0  0
   13.7485  -11.5125   20.7930 C   0  0  2  0  0  0
   12.3224  -12.1133   20.7071 C   0  0  0  0  0  0
   13.6980  -15.6067   20.1516 C   0  0  0  0  0  0
   19.4398  -15.1762   24.9629 C   0  0  0  0  0  0
   19.4109  -12.3968   18.7430 C   0  0  0  0  0  0
   20.5264  -13.0906   19.5067 C   0  0  0  0  0  0
   13.9927  -15.7468   18.7937 C   0  0  0  0  0  0
   12.4415  -15.9744   20.6412 C   0  0  0  0  0  0
   20.8620  -15.4543   24.4068 C   0  0  0  0  0  0
   19.5708  -14.6636   26.4138 C   0  0  0  0  0  0
   11.4776  -16.4740   19.7690 C   0  0  0  0  0  0
   13.0292  -16.2483   17.9230 C   0  0  0  0  0  0
   20.4250  -13.3789   26.4925 C   0  0  0  0  0  0
   21.8004  -14.2235   24.4989 C   0  0  0  0  0  0
   21.8358  -13.6126   25.9201 C   0  0  0  0  0  0
   11.7749  -16.6074   18.4138 C   0  0  0  0  0  0
   18.7862  -15.4205   22.3265 H   0  0  0  0  0  0
   16.2299  -15.2086   23.7717 H   0  0  0  0  0  0
   18.3916  -11.2665   20.2842 H   0  0  0  0  0  0
   10.4606  -10.9691   24.3941 H   0  0  0  0  0  0
   16.2337  -10.7908   20.3178 H   0  0  0  0  0  0
   13.0824   -8.0139   23.5295 H   0  0  0  0  0  0
   19.1961  -13.3002   23.9429 H   0  0  0  0  0  0
   17.7475  -13.8634   24.7082 H   0  0  0  0  0  0
   14.6672   -9.6451   21.5206 H   0  0  0  0  0  0
   13.3099   -9.3857   20.4465 H   0  0  0  0  0  0
   15.3334  -14.2868   20.5933 H   0  0  0  0  0  0
   14.2800  -14.5873   21.9708 H   0  0  0  0  0  0
   10.6111  -12.5156   22.0207 H   0  0  0  0  0  0
   12.1528  -13.0533   22.6547 H   0  0  0  0  0  0
   20.3815  -14.2191   21.3358 H   0  0  0  0  0  0
   19.5217  -14.9487   19.9709 H   0  0  0  0  0  0
   14.1224  -10.9275   18.7193 H   0  0  0  0  0  0
   14.2652  -12.6067   18.9977 H   0  0  0  0  0  0
   14.3225  -12.0739   21.5330 H   0  0  0  0  0  0
   11.7167  -11.5353   20.0182 H   0  0  0  0  0  0
   12.3602  -13.1057   20.2578 H   0  0  0  0  0  0
   18.9158  -16.1302   25.0150 H   0  0  0  0  0  0
   19.7469  -11.4531   18.3216 H   0  0  0  0  0  0
   19.1071  -13.0474   17.9210 H   0  0  0  0  0  0
   21.0929  -12.3548   20.0799 H   0  0  0  0  0  0
   21.2197  -13.6261   18.8583 H   0  0  0  0  0  0
   14.9615  -15.4611   18.4123 H   0  0  0  0  0  0
   12.2069  -15.8613   21.6900 H   0  0  0  0  0  0
   21.3126  -16.2813   24.9567 H   0  0  0  0  0  0
   20.8130  -15.7797   23.3666 H   0  0  0  0  0  0
   18.5851  -14.4652   26.8328 H   0  0  0  0  0  0
   20.0150  -15.4403   27.0378 H   0  0  0  0  0  0
   10.5007  -16.7457   20.1395 H   0  0  0  0  0  0
   13.2425  -16.3520   16.8673 H   0  0  0  0  0  0
   20.4959  -13.0378   27.5210 H   0  0  0  0  0  0
   19.9393  -12.5643   25.9552 H   0  0  0  0  0  0
   22.8091  -14.5099   24.2008 H   0  0  0  0  0  0
   21.4862  -13.4641   23.7838 H   0  0  0  0  0  0
   22.3840  -14.2703   26.5959 H   0  0  0  0  0  0
   22.3918  -12.6735   25.9151 H   0  0  0  0  0  0
   11.0255  -16.9869   17.7362 H   0  0  0  0  0  0
  1  6  1  0  0  0
  1 14  2  0  0  0
  1 15  2  0  0  0
  1 19  1  0  0  0
  2  3  1  0  0  0
  2  7  1  0  0  0
  2 22  1  0  0  0
  3  4  1  0  0  0
  3 17  2  0  0  0
  4  6  1  0  0  0
  4 16  1  0  0  0
  4 40  1  0  0  0
  5 10  2  0  0  0
  5 13  1  0  0  0
  5 18  1  0  0  0
  6 41  1  0  0  0
  7  9  1  0  0  0
  7 28  1  0  0  0
  7 42  1  0  0  0
  8 11  1  0  0  0
  8 43  1  0  0  0
  8 10  1  0  0  0
  9 12  1  0  0  0
  9 20  2  0  0  0
 10 21  1  0  0  0
 11 13  2  0  0  0
 12 23  1  0  0  0
 12 44  1  0  0  0
 13 45  1  0  0  0
 16 27  1  0  0  0
 16 46  1  0  0  0
 16 47  1  0  0  0
 18 24  1  0  0  0
 18 48  1  0  0  0
 18 49  1  0  0  0
 19 26  1  0  0  0
 19 50  1  0  0  0
 19 51  1  0  0  0
 21 25  1  0  0  0
 21 52  1  0  0  0
 21 53  1  0  0  0
 22 29  1  0  0  0
 22 54  1  0  0  0
 22 55  1  0  0  0
 23 24  1  0  0  0
 23 56  1  0  0  0
 23 57  1  0  0  0
 24 25  1  0  0  0
 24 58  1  0  0  0
 25 59  1  0  0  0
 25 60  1  0  0  0
 26 30  2  0  0  0
 26 31  1  0  0  0
 27 32  1  0  0  0
 27 33  1  0  0  0
 27 61  1  0  0  0
 28 29  1  0  0  0
 28 62  1  0  0  0
 28 63  1  0  0  0
 29 64  1  0  0  0
 29 65  1  0  0  0
 30 35  1  0  0  0
 30 66  1  0  0  0
 31 34  2  0  0  0
 31 67  1  0  0  0
 32 37  1  0  0  0
 32 68  1  0  0  0
 32 69  1  0  0  0
 33 36  1  0  0  0
 33 70  1  0  0  0
 33 71  1  0  0  0
 34 39  1  0  0  0
 34 72  1  0  0  0
 35 39  2  0  0  0
 35 73  1  0  0  0
 36 38  1  0  0  0
 36 74  1  0  0  0
 36 75  1  0  0  0
 37 38  1  0  0  0
 37 76  1  0  0  0
 37 77  1  0  0  0
 38 78  1  0  0  0
 38 79  1  0  0  0
 39 80  1  0  0  0
M  END
> <s_m_entry_id>
35183

> <s_m_entry_name>
dock_pv.33

> <s_m_Source_Path>
/home/csk/Desktop/cluster/DUD-E-result/thrb

> <s_m_Source_File>
dock_pv.maegz

> <i_m_Source_File_Index>
33

> <chembl_id>
CHEMBL164915

> <chembl_pref_name>
None

> <i_lp_mmshare_version>
53161

> <r_lp_tautomer_probability>
0.5

> <s_lp_Force_Field>
OPLS_2005

> <r_lp_Energy>
25.210566

> <b_lp_Chiralities_Consistent>
1

> <s_lp_Variant>
CHEMBL204_lig1982-3

> <s_i_glide_gridfile>
glide-grid_1ype

> <i_i_glide_lignum>
2954

> <i_i_glide_rotatable_bonds>
12

> <r_i_docking_score>
-8.33356511413169

> <r_i_glide_ligand_efficiency>
-0.213681156772607

> <r_i_glide_ligand_efficiency_sa>
-0.724637983118852

> <r_i_glide_ligand_efficiency_ln>
-1.78695292278335

> <r_i_glide_gscore>
-8.33356511413169

> <r_i_glide_lipo>
-4.14115334252229

> <r_i_glide_hbond>
-0.32

> <r_i_glide_metal>
0

> <r_i_glide_rewards>
-0.527426564469012

> <r_i_glide_evdw>
-54.1096458435059

> <r_i_glide_ecoul>
-7.3280177116394

> <r_i_glide_erotb>
0.530143491994844

> <r_i_glide_esite>
-0.0704437502140273

> <r_i_glide_emodel>
-87.8546591424087

> <r_i_glide_energy>
-61.4376635551453

> <r_i_glide_einternal>
10.6675357818604

> <i_i_glide_confnum>
1

> <i_i_glide_posenum>
152

> <r_i_glide_eff_state_penalty>
0

> <s_user_duplicate_titles>
CHEMBL204_lig1982,276405

> <i_f3d_flags>
0

> <s_m_subgroup_title>
dock_pv

> <s_m_subgroupid>
dock_pv

> <b_m_subgroup_collapsed>
1

$$$$
CHEMBL204_lig4639
                    3D
 Schrodinger Suite 2021-1.
 65 68  0  0  1  0            999 V2000
   19.7788  -14.2071   23.2107 C   0  0  0  0  0  0
   20.8758  -14.0702   22.3493 C   0  0  0  0  0  0
   20.7206  -13.5673   21.0621 C   0  0  0  0  0  0
   18.5028  -13.8492   22.7392 C   0  0  0  0  0  0
   18.3533  -13.3695   21.4385 C   0  0  0  0  0  0
   19.4542  -13.2022   20.5895 C   0  0  0  0  0  0
   19.2203  -12.7518   19.2706 N   0  0  0  0  0  0
   18.0430  -12.2219   18.8288 C   0  0  0  0  0  0
   17.0108  -12.0522   19.9972 C   0  0  2  0  0  0
   17.0837  -13.1280   20.9582 O   0  0  0  0  0  0
   20.3464  -12.8304   18.3202 C   0  0  0  0  0  0
   17.8253  -11.8531   17.6692 O   0  0  0  0  0  0
   15.5780  -11.8891   19.4257 C   0  0  0  0  0  0
   14.5294  -11.5672   20.4802 C   0  0  0  0  0  0
   13.6697  -12.5602   20.9480 C   0  0  0  0  0  0
   12.7131  -12.2551   21.9123 C   0  0  0  0  0  0
   12.5889  -10.9513   22.4323 C   0  0  0  0  0  0
   13.4507   -9.9646   21.9210 C   0  0  0  0  0  0
   14.4155  -10.2684   20.9709 C   0  0  0  0  0  0
   11.6245  -10.6083   23.5180 C   0  0  0  0  0  0
   11.6009   -9.4560   24.0214 N   0  0  0  0  0  0
   10.8159  -11.6362   23.9210 N   0  0  0  0  0  0
   19.9821  -14.6769   24.5340 N   0  0  0  0  0  0
   21.0047  -13.9788   25.3537 C   0  0  0  0  0  0
   22.4302  -14.5002   25.1615 C   0  0  0  0  0  0
   23.4167  -13.6701   24.6170 C   0  0  0  0  0  0
   24.6946  -14.1640   24.3716 C   0  0  0  0  0  0
   25.0002  -15.4781   24.7160 C   0  0  0  0  0  0
   24.0358  -16.3038   25.2931 C   0  0  0  0  0  0
   22.7500  -15.8148   25.5150 C   0  0  0  0  0  0
   19.2188  -15.6583   25.1026 C   0  0  0  0  0  0
   18.4397  -16.6610   24.2190 C   0  0  0  0  0  0
   19.1956  -15.8529   26.3200 O   0  0  0  0  0  0
   16.9458  -16.8023   24.6135 C   0  0  0  0  0  0
   16.0949  -17.4577   23.5208 C   0  0  0  0  0  0
   15.0770  -16.6531   23.1016 O   0  0  0  0  0  0
   16.3162  -18.5883   23.0963 O   0  0  0  0  0  0
   21.8625  -14.3807   22.6470 H   0  0  0  0  0  0
   21.5976  -13.4899   20.4399 H   0  0  0  0  0  0
   17.6287  -13.9533   23.3658 H   0  0  0  0  0  0
   17.3059  -11.1283   20.5006 H   0  0  0  0  0  0
   20.0736  -12.6088   17.2881 H   0  0  0  0  0  0
   21.1321  -12.1324   18.6097 H   0  0  0  0  0  0
   20.7755  -13.8340   18.3223 H   0  0  0  0  0  0
   15.5474  -11.0840   18.6873 H   0  0  0  0  0  0
   15.2849  -12.7984   18.8961 H   0  0  0  0  0  0
   13.7477  -13.5713   20.5760 H   0  0  0  0  0  0
   12.0824  -13.0602   22.2623 H   0  0  0  0  0  0
   13.4078   -8.9493   22.2879 H   0  0  0  0  0  0
   15.0870   -9.4911   20.6384 H   0  0  0  0  0  0
   10.8848   -9.3948   24.7313 H   0  0  0  0  0  0
   10.0537  -11.4517   24.5677 H   0  0  0  0  0  0
   10.8253  -12.5385   23.4679 H   0  0  0  0  0  0
   20.7759  -14.0378   26.4193 H   0  0  0  0  0  0
   20.9814  -12.9145   25.1073 H   0  0  0  0  0  0
   23.1919  -12.6530   24.3461 H   0  0  0  0  0  0
   25.4477  -13.5290   23.9279 H   0  0  0  0  0  0
   25.9983  -15.8576   24.5463 H   0  0  0  0  0  0
   24.2815  -17.3202   25.5636 H   0  0  0  0  0  0
   22.0024  -16.4607   25.9518 H   0  0  0  0  0  0
   18.5666  -16.4799   23.1522 H   0  0  0  0  0  0
   18.9311  -17.6216   24.3834 H   0  0  0  0  0  0
   16.8666  -17.4543   25.4849 H   0  0  0  0  0  0
   16.5225  -15.8530   24.9354 H   0  0  0  0  0  0
   15.0738  -15.7773   23.5209 H   0  0  0  0  0  0
  1 23  1  0  0  0
  1  2  2  0  0  0
  1  4  1  0  0  0
  2  3  1  0  0  0
  2 38  1  0  0  0
  3  6  2  0  0  0
  3 39  1  0  0  0
  4  5  2  0  0  0
  4 40  1  0  0  0
  5  6  1  0  0  0
  5 10  1  0  0  0
  6  7  1  0  0  0
  7  8  1  0  0  0
  7 11  1  0  0  0
  8  9  1  0  0  0
  8 12  2  0  0  0
  9 10  1  0  0  0
  9 13  1  0  0  0
  9 41  1  0  0  0
 11 42  1  0  0  0
 11 43  1  0  0  0
 11 44  1  0  0  0
 13 14  1  0  0  0
 13 45  1  0  0  0
 13 46  1  0  0  0
 14 19  1  0  0  0
 14 15  2  0  0  0
 15 16  1  0  0  0
 15 47  1  0  0  0
 16 17  2  0  0  0
 16 48  1  0  0  0
 17 18  1  0  0  0
 17 20  1  0  0  0
 18 19  2  0  0  0
 18 49  1  0  0  0
 19 50  1  0  0  0
 20 21  2  0  0  0
 20 22  1  0  0  0
 21 51  1  0  0  0
 22 52  1  0  0  0
 22 53  1  0  0  0
 23 24  1  0  0  0
 23 31  1  0  0  0
 24 25  1  0  0  0
 24 54  1  0  0  0
 24 55  1  0  0  0
 25 26  2  0  0  0
 25 30  1  0  0  0
 26 27  1  0  0  0
 26 56  1  0  0  0
 27 28  2  0  0  0
 27 57  1  0  0  0
 28 29  1  0  0  0
 28 58  1  0  0  0
 29 30  2  0  0  0
 29 59  1  0  0  0
 30 60  1  0  0  0
 31 32  1  0  0  0
 31 33  2  0  0  0
 32 34  1  0  0  0
 32 61  1  0  0  0
 32 62  1  0  0  0
 34 35  1  0  0  0
 34 63  1  0  0  0
 34 64  1  0  0  0
 35 36  1  0  0  0
 35 37  2  0  0  0
 36 65  1  0  0  0
M  END
> <s_m_entry_id>
35184

> <s_m_entry_name>
dock_pv.34

> <s_m_Source_Path>
/home/csk/Desktop/cluster/DUD-E-result/thrb

> <s_m_Source_File>
dock_pv.maegz

> <i_m_Source_File_Index>
34

> <chembl_id>
CHEMBL511761

> <chembl_pref_name>
None

> <i_lp_mmshare_version>
53161

> <r_lp_tautomer_probability>
1

> <s_lp_Force_Field>
OPLS_2005

> <r_lp_Energy>
47.081012

> <b_lp_Chiralities_Consistent>
1

> <s_lp_Variant>
CHEMBL204_lig4639-1

> <s_i_glide_gridfile>
glide-grid_1ype

> <i_i_glide_lignum>
6333

> <i_i_glide_rotatable_bonds>
11

> <r_i_docking_score>
-8.28591864963557

> <r_i_glide_ligand_efficiency>
-0.223943747287448

> <r_i_glide_ligand_efficiency_sa>
-0.746230247352521

> <r_i_glide_ligand_efficiency_ln>
-1.7970215056125

> <r_i_glide_gscore>
-8.28591864963557

> <r_i_glide_lipo>
-3.7141676746231

> <r_i_glide_hbond>
-0.0891196880761241

> <r_i_glide_metal>
0

> <r_i_glide_rewards>
-0.242655631581414

> <r_i_glide_evdw>
-52.3613204956055

> <r_i_glide_ecoul>
-15.1208238601685

> <r_i_glide_erotb>
0.733531494862127

> <r_i_glide_esite>
-0.0873175464115254

> <r_i_glide_emodel>
-95.9736018115316

> <r_i_glide_energy>
-67.4821443557739

> <r_i_glide_einternal>
6.41164875030518

> <i_i_glide_confnum>
11

> <i_i_glide_posenum>
298

> <r_i_glide_eff_state_penalty>
0

> <s_user_duplicate_titles>
CHEMBL204_lig4639,488037

> <i_f3d_flags>
0

> <s_m_subgroup_title>
dock_pv

> <s_m_subgroupid>
dock_pv

> <b_m_subgroup_collapsed>
1

$$$$
CHEMBL204_lig4155
                    3D
 Schrodinger Suite 2021-1.
 58 60  0  0  1  0            999 V2000
   18.7316  -13.5639   21.6113 N   0  3  0  0  0  0
   18.2088  -13.2168   20.3991 C   0  0  0  0  0  0
   21.1568  -14.1537   25.5350 C   0  0  0  0  0  0
   16.6886  -13.1965   20.2122 C   0  0  0  0  0  0
   20.0797  -13.6736   21.8144 C   0  0  0  0  0  0
   16.0872  -11.8279   20.5152 C   0  0  0  0  0  0
   12.9351  -10.5863   22.0630 C   0  0  0  0  0  0
   14.8029  -11.8206   20.8967 N   0  0  0  0  0  0
   13.9568  -10.6316   20.9271 C   0  0  1  0  0  0
   17.9269  -13.8420   22.5499 O   0  5  0  0  0  0
   20.6820  -14.1197   23.0286 N   0  0  0  0  0  0
   19.0750  -12.8502   19.3538 C   0  0  0  0  0  0
   22.6356  -14.4741   25.2344 C   0  0  0  0  0  0
   20.3814  -13.5196   24.3434 C   0  0  0  0  0  0
   23.3820  -13.4529   24.7268 N   0  0  0  0  0  0
   12.0817  -11.6558   22.4393 C   0  0  0  0  0  0
   12.8569   -9.3693   22.7576 C   0  0  0  0  0  0
   20.9475  -13.3782   20.7627 C   0  0  0  0  0  0
   16.7366  -10.7996   20.3208 O   0  0  0  0  0  0
   20.4485  -12.9446   19.5413 C   0  0  0  0  0  0
   21.1352  -13.3223   26.5779 F   0  0  0  0  0  0
   20.5226  -15.2642   25.9208 F   0  0  0  0  0  0
   11.2159  -11.4531   23.5209 C   0  0  0  0  0  0
   12.0161   -9.2082   23.8499 C   0  0  0  0  0  0
   18.4920  -12.2530   17.8370 Cl  0  0  0  0  0  0
   11.1994  -10.2586   24.2350 C   0  0  0  0  0  0
   12.0086   -7.7172   24.7210 Cl  0  0  0  0  0  0
   12.3815  -13.2749   20.4477 N   0  0  0  0  0  0
   13.2772  -10.3854   19.5711 C   0  0  0  0  0  0
   12.8160   -9.0530   19.5210 O   0  0  0  0  0  0
   12.0450  -13.0775   21.8455 C   0  0  0  0  0  0
   24.6488  -13.7181   24.3209 C   0  0  0  0  0  0
   23.1525  -15.7708   25.3706 C   0  0  0  0  0  0
   25.2159  -14.9893   24.3984 C   0  0  0  0  0  0
   24.4582  -16.0242   24.9464 C   0  0  0  0  0  0
   16.2107  -13.9692   20.8165 H   0  0  0  0  0  0
   16.4396  -13.4467   19.1817 H   0  0  0  0  0  0
   14.2888  -12.6935   20.9329 H   0  0  0  0  0  0
   14.6380   -9.7899   21.0925 H   0  0  0  0  0  0
   21.6211  -14.4861   22.9535 H   0  0  0  0  0  0
   20.6349  -12.4631   24.2538 H   0  0  0  0  0  0
   19.3078  -13.5745   24.5219 H   0  0  0  0  0  0
   13.4893   -8.5394   22.4788 H   0  0  0  0  0  0
   22.0160  -13.4526   20.8886 H   0  0  0  0  0  0
   21.1306  -12.6881   18.7433 H   0  0  0  0  0  0
   10.5521  -12.2434   23.8446 H   0  0  0  0  0  0
   10.5272  -10.1538   25.0748 H   0  0  0  0  0  0
   12.4071  -14.2693   20.2640 H   0  0  0  0  0  0
   11.6161  -12.9305   19.8867 H   0  0  0  0  0  0
   13.9281  -10.6528   18.7356 H   0  0  0  0  0  0
   12.4133  -11.0212   19.4454 H   0  0  0  0  0  0
   11.9120   -9.0649   19.1690 H   0  0  0  0  0  0
   12.6769  -13.7216   22.4595 H   0  0  0  0  0  0
   11.0265  -13.4529   21.9210 H   0  0  0  0  0  0
   25.2139  -12.8881   23.9217 H   0  0  0  0  0  0
   22.5527  -16.5757   25.7702 H   0  0  0  0  0  0
   26.2271  -15.1646   24.0607 H   0  0  0  0  0  0
   24.8769  -17.0163   25.0333 H   0  0  0  0  0  0
  1  2  1  0  0  0
  1  5  2  0  0  0
  1 10  1  0  0  0
  2  4  1  0  0  0
  2 12  2  0  0  0
  3 14  1  0  0  0
  3 13  1  0  0  0
  3 21  1  0  0  0
  3 22  1  0  0  0
  4  6  1  0  0  0
  4 36  1  0  0  0
  4 37  1  0  0  0
  5 11  1  0  0  0
  5 18  1  0  0  0
  6  8  1  0  0  0
  6 19  2  0  0  0
  7  9  1  0  0  0
  7 16  1  0  0  0
  7 17  2  0  0  0
  8  9  1  0  0  0
  8 38  1  0  0  0
  9 29  1  0  0  0
  9 39  1  0  0  0
 11 14  1  0  0  0
 11 40  1  0  0  0
 12 25  1  0  0  0
 12 20  1  0  0  0
 13 15  2  0  0  0
 13 33  1  0  0  0
 14 41  1  0  0  0
 14 42  1  0  0  0
 15 32  1  0  0  0
 16 23  2  0  0  0
 16 31  1  0  0  0
 17 24  1  0  0  0
 17 43  1  0  0  0
 18 20  2  0  0  0
 18 44  1  0  0  0
 20 45  1  0  0  0
 23 26  1  0  0  0
 23 46  1  0  0  0
 24 26  2  0  0  0
 24 27  1  0  0  0
 26 47  1  0  0  0
 28 31  1  0  0  0
 28 48  1  0  0  0
 28 49  1  0  0  0
 29 30  1  0  0  0
 29 50  1  0  0  0
 29 51  1  0  0  0
 30 52  1  0  0  0
 31 53  1  0  0  0
 31 54  1  0  0  0
 32 34  2  0  0  0
 32 55  1  0  0  0
 33 35  2  0  0  0
 33 56  1  0  0  0
 34 35  1  0  0  0
 34 57  1  0  0  0
 35 58  1  0  0  0
M  CHG  2   1   1  10  -1
M  END
> <s_m_entry_id>
35185

> <s_m_entry_name>
dock_pv.35

> <s_m_Source_Path>
/home/csk/Desktop/cluster/DUD-E-result/thrb

> <s_m_Source_File>
dock_pv.maegz

> <i_m_Source_File_Index>
35

> <chembl_id>
CHEMBL195313

> <chembl_pref_name>
None

> <i_lp_mmshare_version>
53161

> <r_lp_tautomer_probability>
0.9999999999682

> <s_lp_Force_Field>
OPLS_2005

> <r_lp_Energy>
19.630658

> <b_lp_Chiralities_Consistent>
1

> <s_lp_Variant>
CHEMBL204_lig4155-2

> <s_i_glide_gridfile>
glide-grid_1ype

> <i_i_glide_lignum>
5773

> <i_i_glide_rotatable_bonds>
12

> <r_i_docking_score>
-8.28084820330475

> <r_i_glide_ligand_efficiency>
-0.236595662951564

> <r_i_glide_ligand_efficiency_sa>
-0.773920101300412

> <r_i_glide_ligand_efficiency_ln>
-1.81782996414927

> <r_i_glide_gscore>
-8.28084820330475

> <r_i_glide_lipo>
-3.82429327824518

> <r_i_glide_hbond>
-0.601559896402573

> <r_i_glide_metal>
0

> <r_i_glide_rewards>
-0.623205599351907

> <r_i_glide_evdw>
-52.3277893066406

> <r_i_glide_ecoul>
-8.56134796142578

> <r_i_glide_erotb>
0.668802230240806

> <r_i_glide_esite>
0

> <r_i_glide_emodel>
-83.8830573195207

> <r_i_glide_energy>
-60.8891372680664

> <r_i_glide_einternal>
13.6997814178467

> <i_i_glide_confnum>
119

> <i_i_glide_posenum>
300

> <r_i_glide_eff_state_penalty>
0

> <s_user_duplicate_titles>
CHEMBL204_lig4155

> <i_f3d_flags>
0

> <s_m_subgroup_title>
dock_pv

> <s_m_subgroupid>
dock_pv

> <b_m_subgroup_collapsed>
1

$$$$
CHEMBL204_lig4568
                    3D
 Schrodinger Suite 2021-1.
 54 57  0  0  1  0            999 V2000
   24.9528  -15.1360   24.4191 C   0  0  0  0  0  0
   24.4855  -13.8254   24.3188 C   0  0  0  0  0  0
   23.2473  -13.4533   24.7322 N   0  0  0  0  0  0
   22.4255  -14.4021   25.2663 C   0  0  0  0  0  0
   22.8295  -15.7393   25.3989 C   0  0  0  0  0  0
   24.1090  -16.1020   24.9706 C   0  0  0  0  0  0
   21.0237  -13.9289   25.6845 C   0  0  0  0  0  0
   20.2429  -13.2923   24.5098 C   0  0  0  0  0  0
   20.3188  -14.9392   26.2032 F   0  0  0  0  0  0
   21.1843  -13.0346   26.6619 F   0  0  0  0  0  0
   19.9241  -14.2312   23.4300 N   0  0  0  0  0  0
   19.9689  -13.7481   22.1134 C   0  0  0  0  0  0
   18.8311  -13.7712   21.2977 C   0  0  0  0  0  0
   18.8870  -13.2910   19.9765 C   0  0  0  0  0  0
   20.0982  -12.7509   19.4914 C   0  0  0  0  0  0
   21.2159  -12.7109   20.3213 C   0  0  0  0  0  0
   21.1625  -13.2343   21.6067 C   0  0  0  0  0  0
   17.6449  -13.4533   19.0907 C   0  0  0  0  0  0
   16.5728  -12.3706   19.2278 C   0  0  0  0  0  0
   15.3415  -12.7783   18.8841 N   0  0  0  0  0  0
   16.8529  -11.2158   19.5469 O   0  0  0  0  0  0
   14.1429  -11.9551   18.8228 C   0  0  0  0  0  0
   13.5349  -11.6074   20.1702 C   0  0  0  0  0  0
   17.6719  -14.2835   21.7803 F   0  0  0  0  0  0
   20.2732  -12.2528   18.1328 C   0  0  0  0  0  0
   20.4170  -11.8530   17.0546 N   0  0  0  0  0  0
   12.6059  -12.4858   20.7425 C   0  0  0  0  0  0
   11.9271  -12.1684   21.9185 C   0  0  0  0  0  0
   13.8217  -10.3770   20.7698 C   0  0  0  0  0  0
   13.1244  -10.0660   21.9382 C   0  0  0  0  0  0
   12.1835  -10.9274   22.5177 C   0  0  0  0  0  0
   11.7368  -10.1926   23.6479 C   0  0  0  0  0  0
   12.3213   -9.0204   23.7444 N   0  0  0  0  0  0
   13.2281   -8.9263   22.6799 O   0  0  0  0  0  0
   10.8161  -10.6529   24.5310 N   0  0  0  0  0  0
   25.9524  -15.3936   24.0975 H   0  0  0  0  0  0
   25.1164  -13.0462   23.9141 H   0  0  0  0  0  0
   22.1702  -16.4830   25.8202 H   0  0  0  0  0  0
   24.4440  -17.1240   25.0678 H   0  0  0  0  0  0
   19.3075  -12.8763   24.8818 H   0  0  0  0  0  0
   20.8143  -12.4425   24.1378 H   0  0  0  0  0  0
   19.1782  -14.8796   23.6391 H   0  0  0  0  0  0
   22.1489  -12.2935   19.9733 H   0  0  0  0  0  0
   22.0486  -13.2160   22.2230 H   0  0  0  0  0  0
   17.9177  -13.4641   18.0379 H   0  0  0  0  0  0
   17.1953  -14.4252   19.3009 H   0  0  0  0  0  0
   15.2090  -13.7605   18.6890 H   0  0  0  0  0  0
   14.3333  -11.0531   18.2388 H   0  0  0  0  0  0
   13.3933  -12.5250   18.2752 H   0  0  0  0  0  0
   12.3823  -13.4261   20.2587 H   0  0  0  0  0  0
   11.1956  -12.8499   22.3237 H   0  0  0  0  0  0
   14.5429   -9.6928   20.3494 H   0  0  0  0  0  0
   10.3468  -11.5342   24.3719 H   0  0  0  0  0  0
   10.2762  -10.0224   25.1171 H   0  0  0  0  0  0
  1  6  1  0  0  0
  1  2  2  0  0  0
  1 36  1  0  0  0
  2  3  1  0  0  0
  2 37  1  0  0  0
  3  4  2  0  0  0
  4  5  1  0  0  0
  4  7  1  0  0  0
  5  6  2  0  0  0
  5 38  1  0  0  0
  6 39  1  0  0  0
  7  9  1  0  0  0
  7 10  1  0  0  0
  7  8  1  0  0  0
  8 11  1  0  0  0
  8 40  1  0  0  0
  8 41  1  0  0  0
 11 12  1  0  0  0
 11 42  1  0  0  0
 12 17  1  0  0  0
 12 13  2  0  0  0
 13 24  1  0  0  0
 13 14  1  0  0  0
 14 18  1  0  0  0
 14 15  2  0  0  0
 15 25  1  0  0  0
 15 16  1  0  0  0
 16 17  2  0  0  0
 16 43  1  0  0  0
 17 44  1  0  0  0
 18 19  1  0  0  0
 18 45  1  0  0  0
 18 46  1  0  0  0
 19 20  1  0  0  0
 19 21  2  0  0  0
 20 22  1  0  0  0
 20 47  1  0  0  0
 22 23  1  0  0  0
 22 48  1  0  0  0
 22 49  1  0  0  0
 23 27  2  0  0  0
 23 29  1  0  0  0
 25 26  3  0  0  0
 27 28  1  0  0  0
 27 50  1  0  0  0
 28 31  2  0  0  0
 28 51  1  0  0  0
 29 30  2  0  0  0
 29 52  1  0  0  0
 30 31  1  0  0  0
 30 34  1  0  0  0
 31 32  1  0  0  0
 32 33  2  0  0  0
 32 35  1  0  0  0
 33 34  1  0  0  0
 35 53  1  0  0  0
 35 54  1  0  0  0
M  END
> <s_m_entry_id>
35186

> <s_m_entry_name>
dock_pv.36

> <s_m_Source_Path>
/home/csk/Desktop/cluster/DUD-E-result/thrb

> <s_m_Source_File>
dock_pv.maegz

> <i_m_Source_File_Index>
36

> <chembl_id>
CHEMBL256091

> <chembl_pref_name>
None

> <i_lp_mmshare_version>
53161

> <r_lp_tautomer_probability>
1

> <s_lp_Force_Field>
OPLS_2005

> <r_lp_Energy>
22.525412

> <b_lp_Chiralities_Consistent>
1

> <s_lp_Variant>
CHEMBL204_lig4568-1

> <s_i_glide_gridfile>
glide-grid_1ype

> <i_i_glide_lignum>
6239

> <i_i_glide_rotatable_bonds>
9

> <r_i_docking_score>
-8.27973126375195

> <r_i_glide_ligand_efficiency>
-0.236563750392913

> <r_i_glide_ligand_efficiency_sa>
-0.773815713205059

> <r_i_glide_ligand_efficiency_ln>
-1.81758477112829

> <r_i_glide_gscore>
-8.27973126375195

> <r_i_glide_lipo>
-4.15002287248333

> <r_i_glide_hbond>
-0.131387327074574

> <r_i_glide_metal>
0

> <r_i_glide_rewards>
-1.27527467318307

> <r_i_glide_evdw>
-53.5887985229492

> <r_i_glide_ecoul>
-4.32528686523438

> <r_i_glide_erotb>
0.702840035039115

> <r_i_glide_esite>
-0.0976534701174756

> <r_i_glide_emodel>
-80.3190403416079

> <r_i_glide_energy>
-57.9140853881836

> <r_i_glide_einternal>
9.55043601989746

> <i_i_glide_confnum>
8

> <i_i_glide_posenum>
103

> <r_i_glide_eff_state_penalty>
0

> <s_user_duplicate_titles>
CHEMBL204_lig4568,426049

> <i_f3d_flags>
0

> <s_m_subgroup_title>
dock_pv

> <s_m_subgroupid>
dock_pv

> <b_m_subgroup_collapsed>
1

$$$$
CHEMBL204_lig4169
                    3D
 Schrodinger Suite 2021-1.
 55 59  0  0  1  0            999 V2000
   17.2429  -13.2264   21.4284 C   0  0  0  0  0  0
   16.0138  -12.6479   21.5952 N   0  0  0  0  0  0
   16.0176  -11.6564   20.7207 C   0  0  0  0  0  0
   12.9910  -12.9136   20.6939 N   0  0  0  0  0  0
   17.1524  -11.5388   19.9660 O   0  0  0  0  0  0
   17.9445  -12.5431   20.4224 C   0  0  0  0  0  0
   13.7120  -10.6407   21.3937 C   0  0  0  0  0  0
   13.2107  -15.0357   20.1318 N   0  0  0  0  0  0
   12.8190  -11.7345   21.4564 C   0  0  0  0  0  0
   13.2240  -12.9080   19.3753 N   0  0  0  0  0  0
   17.8802  -14.3095   22.0589 C   0  0  0  0  0  0
   12.9703  -14.2159   21.1229 C   0  0  0  0  0  0
   13.3649  -14.1946   19.1220 C   0  0  0  0  0  0
   14.9459  -10.6060   20.4842 C   0  0  0  0  0  0
   19.1387  -14.6803   21.6787 N   0  0  0  0  0  0
   11.7378  -11.6975   22.3445 C   0  0  0  0  0  0
   13.4681   -9.5251   22.2116 C   0  0  0  0  0  0
   20.7037  -14.8522   24.3225 N   0  0  2  0  0  0
   17.2161  -15.0013   23.0893 N   0  0  0  0  0  0
   19.2383  -12.8961   20.0245 C   0  0  0  0  0  0
   12.4145   -9.5178   23.1219 C   0  0  0  0  0  0
   11.5513  -10.6049   23.1903 C   0  0  0  0  0  0
   19.7836  -13.9894   20.7023 C   0  0  0  0  0  0
   19.5739  -14.3389   25.1042 C   0  0  1  0  0  0
   17.8818  -15.9754   23.9514 C   0  0  0  0  0  0
   18.4286  -15.3681   25.2606 C   0  0  0  0  0  0
   12.2179   -8.1909   24.2096 Cl  0  0  0  0  0  0
   21.8070  -13.9014   24.1708 C   0  0  0  0  0  0
   20.0557  -13.8462   26.4906 C   0  0  0  0  0  0
   22.3280  -13.4102   25.5348 C   0  0  0  0  0  0
   21.1976  -12.8209   26.3906 C   0  0  0  0  0  0
   12.8161  -14.4618   22.1629 H   0  0  0  0  0  0
   13.6157  -14.5549   18.1327 H   0  0  0  0  0  0
   15.4234   -9.6301   20.5719 H   0  0  0  0  0  0
   14.6055  -10.6531   19.4523 H   0  0  0  0  0  0
   11.0383  -12.5169   22.3907 H   0  0  0  0  0  0
   14.1351   -8.6759   22.1863 H   0  0  0  0  0  0
   20.3560  -15.0875   23.3994 H   0  0  0  0  0  0
   16.3153  -14.6529   23.3995 H   0  0  0  0  0  0
   19.7716  -12.3648   19.2519 H   0  0  0  0  0  0
   10.7336  -10.6054   23.8971 H   0  0  0  0  0  0
   20.7779  -14.3326   20.4569 H   0  0  0  0  0  0
   19.1815  -13.4876   24.5485 H   0  0  0  0  0  0
   18.6937  -16.4554   23.4019 H   0  0  0  0  0  0
   17.1785  -16.7804   24.1728 H   0  0  0  0  0  0
   18.7735  -16.1848   25.8963 H   0  0  0  0  0  0
   17.6029  -14.8992   25.7976 H   0  0  0  0  0  0
   22.6094  -14.3847   23.6115 H   0  0  0  0  0  0
   21.4624  -13.0572   23.5706 H   0  0  0  0  0  0
   20.4162  -14.7006   27.0613 H   0  0  0  0  0  0
   19.2188  -13.4515   27.0639 H   0  0  0  0  0  0
   22.8258  -14.2304   26.0524 H   0  0  0  0  0  0
   23.1060  -12.6662   25.3780 H   0  0  0  0  0  0
   21.5676  -12.5593   27.3816 H   0  0  0  0  0  0
   20.8260  -11.8970   25.9423 H   0  0  0  0  0  0
  1  2  1  0  0  0
  1  6  2  0  0  0
  1 11  1  0  0  0
  2  3  2  0  0  0
  3 14  1  0  0  0
  3  5  1  0  0  0
  4  9  1  0  0  0
  4 10  1  0  0  0
  4 12  1  0  0  0
  5  6  1  0  0  0
  6 20  1  0  0  0
  7 14  1  0  0  0
  7  9  1  0  0  0
  7 17  2  0  0  0
  8 12  2  0  0  0
  8 13  1  0  0  0
  9 16  2  0  0  0
 10 13  2  0  0  0
 11 15  2  0  0  0
 11 19  1  0  0  0
 12 32  1  0  0  0
 13 33  1  0  0  0
 14 34  1  0  0  0
 14 35  1  0  0  0
 15 23  1  0  0  0
 16 22  1  0  0  0
 16 36  1  0  0  0
 17 21  1  0  0  0
 17 37  1  0  0  0
 18 24  1  0  0  0
 18 28  1  0  0  0
 18 38  1  0  0  0
 19 25  1  0  0  0
 19 39  1  0  0  0
 20 23  2  0  0  0
 20 40  1  0  0  0
 21 22  2  0  0  0
 21 27  1  0  0  0
 22 41  1  0  0  0
 23 42  1  0  0  0
 24 26  1  0  0  0
 24 29  1  0  0  0
 24 43  1  0  0  0
 25 26  1  0  0  0
 25 44  1  0  0  0
 25 45  1  0  0  0
 26 46  1  0  0  0
 26 47  1  0  0  0
 28 30  1  0  0  0
 28 48  1  0  0  0
 28 49  1  0  0  0
 29 31  1  0  0  0
 29 50  1  0  0  0
 29 51  1  0  0  0
 30 31  1  0  0  0
 30 52  1  0  0  0
 30 53  1  0  0  0
 31 54  1  0  0  0
 31 55  1  0  0  0
M  END
> <s_m_entry_id>
35187

> <s_m_entry_name>
dock_pv.37

> <s_m_Source_Path>
/home/csk/Desktop/cluster/DUD-E-result/thrb

> <s_m_Source_File>
dock_pv.maegz

> <i_m_Source_File_Index>
37

> <chembl_id>
CHEMBL426101

> <chembl_pref_name>
None

> <i_lp_mmshare_version>
53161

> <r_lp_tautomer_probability>
1

> <s_lp_Force_Field>
OPLS_2005

> <r_lp_Energy>
29.86412

> <b_lp_Chiralities_Consistent>
1

> <s_lp_Variant>
CHEMBL204_lig4169-2

> <s_i_glide_gridfile>
glide-grid_1ype

> <i_i_glide_lignum>
5794

> <i_i_glide_rotatable_bonds>
7

> <r_i_docking_score>
-8.27925366953701

> <r_i_glide_ligand_efficiency>
-0.267072699017323

> <r_i_glide_ligand_efficiency_sa>
-0.838977008514622

> <r_i_glide_ligand_efficiency_ln>
-1.86722543113391

> <r_i_glide_gscore>
-8.27925366953701

> <r_i_glide_lipo>
-4.29548901306393

> <r_i_glide_hbond>
-0.32

> <r_i_glide_metal>
0

> <r_i_glide_rewards>
-0.939985270912829

> <r_i_glide_evdw>
-50.809211730957

> <r_i_glide_ecoul>
-5.18780899047852

> <r_i_glide_erotb>
0.624016307826605

> <r_i_glide_esite>
-0.0291637582672258

> <r_i_glide_emodel>
-82.8148379955014

> <r_i_glide_energy>
-55.9970207214355

> <r_i_glide_einternal>
1.30708003044128

> <i_i_glide_confnum>
60

> <i_i_glide_posenum>
145

> <r_i_glide_eff_state_penalty>
0

> <s_user_duplicate_titles>
CHEMBL204_lig4169,330005

> <i_f3d_flags>
0

> <s_m_subgroup_title>
dock_pv

> <s_m_subgroupid>
dock_pv

> <b_m_subgroup_collapsed>
1

$$$$
CHEMBL204_lig3861
                    3D
 Schrodinger Suite 2021-1.
 70 74  0  0  1  0            999 V2000
   15.1350  -12.1380   20.2617 N   0  0  0  0  0  0
   17.2147  -12.6344   20.3380 N   0  0  0  0  0  0
   16.1156  -12.5071   21.1013 C   0  0  0  0  0  0
   15.6098  -11.8341   19.0369 C   0  0  0  0  0  0
   16.9420  -11.9662   19.1415 N   0  0  0  0  0  0
   13.7181  -12.4776   20.5929 C   0  0  1  0  0  0
   18.6127  -12.5089   20.8700 C   0  0  1  0  0  0
   13.0095  -11.1505   20.9932 C   0  0  0  0  0  0
   18.9594  -13.6903   21.8041 C   0  0  0  0  0  0
   12.2224  -11.1333   22.0914 N   0  0  0  0  0  0
   22.8418  -14.0453   25.5838 N   0  0  0  0  0  0
   12.9219  -13.2950   19.5443 C   0  0  0  0  0  0
   21.5156  -13.8484   25.3629 C   0  0  0  0  0  0
   14.9756  -11.4554   18.0489 O   0  0  0  0  0  0
   16.0320  -12.6530   22.3209 O   0  0  0  0  0  0
   19.0352  -13.4216   23.1188 N   0  0  0  0  0  0
   20.7929  -14.5870   24.4099 C   0  0  0  0  0  0
   23.4763  -15.0028   24.8678 C   0  0  0  0  0  0
   19.6260  -12.3499   19.7380 C   0  0  0  0  0  0
   13.2159  -10.1265   20.3358 O   0  0  0  0  0  0
   13.7518  -14.7596   18.8460 S   0  0  0  0  0  0
   19.3026  -14.3906   24.1759 C   0  0  0  0  0  0
   19.2688  -12.2534   18.4519 C   0  0  0  0  0  0
   17.8192  -12.3241   18.0049 C   0  0  0  0  0  0
   19.0991  -14.8234   21.3387 O   0  0  0  0  0  0
   21.4720  -15.5780   23.6910 C   0  0  0  0  0  0
   14.0030  -15.8960   20.1724 C   0  0  0  0  0  0
   24.8260  -15.1904   25.1210 N   0  0  0  0  0  0
   22.8314  -15.7908   23.9180 C   0  0  0  0  0  0
   14.4197  -17.7162   22.2242 C   0  0  0  0  0  0
   14.6736  -18.8434   23.5089 Cl  0  0  0  0  0  0
   15.2194  -15.9005   20.8571 C   0  0  0  0  0  0
   12.9984  -16.8031   20.5007 C   0  0  0  0  0  0
   13.2163  -17.7257   21.5210 C   0  0  0  0  0  0
   15.4239  -16.8035   21.8975 C   0  0  0  0  0  0
   11.8098  -12.3116   22.8600 C   0  0  0  0  0  0
   11.6637   -9.8913   22.6253 C   0  0  0  0  0  0
   20.8797  -12.7569   26.2138 C   0  0  0  0  0  0
   11.2130  -10.2988   24.0265 C   0  0  0  0  0  0
   10.8166  -11.7579   23.8884 C   0  0  0  0  0  0
   13.7434  -13.1106   21.4828 H   0  0  0  0  0  0
   18.6512  -11.6042   21.4829 H   0  0  0  0  0  0
   12.6569  -12.6508   18.7107 H   0  0  0  0  0  0
   11.9743  -13.6249   19.9746 H   0  0  0  0  0  0
   18.9330  -12.4632   23.4141 H   0  0  0  0  0  0
   20.6799  -12.3022   19.9801 H   0  0  0  0  0  0
   18.8113  -14.0520   25.0887 H   0  0  0  0  0  0
   18.8442  -15.3527   23.9366 H   0  0  0  0  0  0
   20.0521  -12.1706   17.7108 H   0  0  0  0  0  0
   17.5690  -13.3179   17.6287 H   0  0  0  0  0  0
   17.6399  -11.6182   17.1925 H   0  0  0  0  0  0
   20.9555  -16.1744   22.9526 H   0  0  0  0  0  0
   25.3133  -15.9690   24.7044 H   0  0  0  0  0  0
   25.1838  -14.7530   25.9642 H   0  0  0  0  0  0
   23.3634  -16.5493   23.3648 H   0  0  0  0  0  0
   16.0100  -15.2193   20.5844 H   0  0  0  0  0  0
   12.0655  -16.8069   19.9574 H   0  0  0  0  0  0
   12.4479  -18.4408   21.7709 H   0  0  0  0  0  0
   16.3595  -16.7989   22.4371 H   0  0  0  0  0  0
   11.3099  -13.0521   22.2336 H   0  0  0  0  0  0
   12.6578  -12.7650   23.3738 H   0  0  0  0  0  0
   12.4010   -9.0888   22.6728 H   0  0  0  0  0  0
   10.8195   -9.5917   22.0111 H   0  0  0  0  0  0
   20.1187  -13.1772   26.8699 H   0  0  0  0  0  0
   21.6145  -12.2539   26.8441 H   0  0  0  0  0  0
   20.4154  -11.9996   25.5823 H   0  0  0  0  0  0
   12.0485  -10.2081   24.7211 H   0  0  0  0  0  0
   10.4165   -9.6624   24.4077 H   0  0  0  0  0  0
    9.7966  -11.8532   23.5207 H   0  0  0  0  0  0
   10.8156  -12.3049   24.8305 H   0  0  0  0  0  0
  1  3  1  0  0  0
  1  4  1  0  0  0
  1  6  1  0  0  0
  2  3  1  0  0  0
  2  7  1  0  0  0
  2  5  1  0  0  0
  3 15  2  0  0  0
  4  5  1  0  0  0
  4 14  2  0  0  0
  5 24  1  0  0  0
  6  8  1  0  0  0
  6 12  1  0  0  0
  6 41  1  0  0  0
  7  9  1  0  0  0
  7 19  1  0  0  0
  7 42  1  0  0  0
  8 10  1  0  0  0
  8 20  2  0  0  0
  9 16  1  0  0  0
  9 25  2  0  0  0
 10 36  1  0  0  0
 10 37  1  0  0  0
 11 13  1  0  0  0
 11 18  2  0  0  0
 12 21  1  0  0  0
 12 43  1  0  0  0
 12 44  1  0  0  0
 13 17  2  0  0  0
 13 38  1  0  0  0
 16 22  1  0  0  0
 16 45  1  0  0  0
 17 22  1  0  0  0
 17 26  1  0  0  0
 18 29  1  0  0  0
 18 28  1  0  0  0
 19 23  2  0  0  0
 19 46  1  0  0  0
 21 27  1  0  0  0
 22 47  1  0  0  0
 22 48  1  0  0  0
 23 24  1  0  0  0
 23 49  1  0  0  0
 24 50  1  0  0  0
 24 51  1  0  0  0
 26 29  2  0  0  0
 26 52  1  0  0  0
 27 32  2  0  0  0
 27 33  1  0  0  0
 28 53  1  0  0  0
 28 54  1  0  0  0
 29 55  1  0  0  0
 30 34  1  0  0  0
 30 31  1  0  0  0
 30 35  2  0  0  0
 32 35  1  0  0  0
 32 56  1  0  0  0
 33 34  2  0  0  0
 33 57  1  0  0  0
 34 58  1  0  0  0
 35 59  1  0  0  0
 36 40  1  0  0  0
 36 60  1  0  0  0
 36 61  1  0  0  0
 37 39  1  0  0  0
 37 62  1  0  0  0
 37 63  1  0  0  0
 38 64  1  0  0  0
 38 65  1  0  0  0
 38 66  1  0  0  0
 39 40  1  0  0  0
 39 67  1  0  0  0
 39 68  1  0  0  0
 40 69  1  0  0  0
 40 70  1  0  0  0
M  END
> <s_m_entry_id>
35188

> <s_m_entry_name>
dock_pv.38

> <s_m_Source_Path>
/home/csk/Desktop/cluster/DUD-E-result/thrb

> <s_m_Source_File>
dock_pv.maegz

> <i_m_Source_File_Index>
38

> <chembl_id>
CHEMBL33927

> <chembl_pref_name>
None

> <i_lp_mmshare_version>
53161

> <r_lp_tautomer_probability>
0.999999772200052

> <s_lp_Force_Field>
OPLS_2005

> <r_lp_Energy>
38.344986

> <b_lp_Chiralities_Consistent>
1

> <s_lp_Variant>
CHEMBL204_lig3861-4

> <s_i_glide_gridfile>
glide-grid_1ype

> <i_i_glide_lignum>
5315

> <i_i_glide_rotatable_bonds>
10

> <r_i_docking_score>
-8.2684751777913

> <r_i_glide_ligand_efficiency>
-0.206711879444782

> <r_i_glide_ligand_efficiency_sa>
-0.706944682616544

> <r_i_glide_ligand_efficiency_ln>
-1.76342242506079

> <r_i_glide_gscore>
-8.2684751777913

> <r_i_glide_lipo>
-2.1594076204307

> <r_i_glide_hbond>
-0.640519262414275

> <r_i_glide_metal>
0

> <r_i_glide_rewards>
-1.7424183290811

> <r_i_glide_evdw>
-59.3768157958984

> <r_i_glide_ecoul>
-7.98666572570801

> <r_i_glide_erotb>
0.448721187278838

> <r_i_glide_esite>
-0.00801050449293059

> <r_i_glide_emodel>
-93.2251031016855

> <r_i_glide_energy>
-67.3634815216064

> <r_i_glide_einternal>
14.5745573043823

> <i_i_glide_confnum>
38

> <i_i_glide_posenum>
10

> <r_i_glide_eff_state_penalty>
0

> <s_user_duplicate_titles>
CHEMBL204_lig3861

> <i_f3d_flags>
0

> <s_m_subgroup_title>
dock_pv

> <s_m_subgroupid>
dock_pv

> <b_m_subgroup_collapsed>
1

$$$$
CHEMBL204_lig544
                    3D
 Schrodinger Suite 2021-1.
 48 51  0  0  1  0            999 V2000
   19.3052  -12.6241   19.2364 N   0  0  0  0  0  0
   20.0825  -14.2946   24.7083 C   0  0  0  0  0  0
   18.0656  -12.2540   18.7638 C   0  0  0  0  0  0
   17.1543  -12.7477   21.0120 N   0  0  0  0  0  0
   16.9919  -12.3714   19.7916 C   0  0  0  0  0  0
   18.4486  -13.0996   21.4472 C   0  0  0  0  0  0
   19.5556  -13.0643   20.5738 C   0  0  0  0  0  0
   18.9808  -14.9777   25.5183 C   0  0  0  0  0  0
   20.1644  -15.7777   25.0534 C   0  0  0  0  0  0
   19.8752  -13.8732   23.2527 C   0  0  0  0  0  0
   21.0121  -13.4218   25.5763 C   0  0  0  0  0  0
   18.6121  -13.5025   22.7738 C   0  0  0  0  0  0
   11.6153  -10.8157   23.4263 C   0  0  0  0  0  0
   20.8137  -13.4521   21.0539 C   0  0  0  0  0  0
   15.5668  -12.0428   19.2960 C   0  0  0  0  0  0
   17.8616  -11.8557   17.6110 O   0  0  0  0  0  0
   12.5806  -11.1469   22.3355 C   0  0  0  0  0  0
   11.5767   -9.6601   23.9244 N   0  0  0  0  0  0
   20.9684  -13.8529   22.3804 C   0  0  0  0  0  0
   22.1637  -13.7254   25.8775 O   0  0  0  0  0  0
   12.6693  -12.4286   21.7583 C   0  0  0  0  0  0
   13.4728  -10.1641   21.8690 C   0  0  0  0  0  0
   10.8159  -11.8530   23.8414 N   0  0  0  0  0  0
   14.5117  -11.7320   20.3592 C   0  0  0  0  0  0
   20.4549  -12.5722   18.3153 C   0  0  0  0  0  0
   20.4162  -12.2525   25.9214 O   0  0  0  0  0  0
   14.4293  -10.4527   20.9039 C   0  0  0  0  0  0
   13.6214  -12.7185   20.7832 C   0  0  0  0  0  0
   18.0119  -15.1669   25.0544 H   0  0  0  0  0  0
   18.8741  -14.7548   26.5821 H   0  0  0  0  0  0
   20.8876  -16.1301   25.7913 H   0  0  0  0  0  0
   20.0296  -16.5010   24.2483 H   0  0  0  0  0  0
   17.7564  -13.5208   23.4323 H   0  0  0  0  0  0
   21.6804  -13.4445   20.4141 H   0  0  0  0  0  0
   15.5906  -11.1856   18.6209 H   0  0  0  0  0  0
   15.2091  -12.8711   18.6821 H   0  0  0  0  0  0
   10.8676   -9.6063   24.6429 H   0  0  0  0  0  0
   21.9473  -14.1438   22.7342 H   0  0  0  0  0  0
   12.0131  -13.2297   22.0667 H   0  0  0  0  0  0
   13.4552   -9.1631   22.2778 H   0  0  0  0  0  0
   10.0578  -11.6680   24.4908 H   0  0  0  0  0  0
   10.8928  -12.7972   23.4811 H   0  0  0  0  0  0
   20.1997  -12.2509   17.3046 H   0  0  0  0  0  0
   21.2124  -11.8855   18.6957 H   0  0  0  0  0  0
   20.9102  -13.5600   18.2313 H   0  0  0  0  0  0
   21.0020  -11.6958   26.4411 H   0  0  0  0  0  0
   15.1219   -9.6821   20.5995 H   0  0  0  0  0  0
   13.6718  -13.7155   20.3701 H   0  0  0  0  0  0
  1  3  1  0  0  0
  1  7  1  0  0  0
  1 25  1  0  0  0
  2 10  1  0  0  0
  2  8  1  0  0  0
  2  9  1  0  0  0
  2 11  1  0  0  0
  3  5  1  0  0  0
  3 16  2  0  0  0
  4  6  1  0  0  0
  4  5  2  0  0  0
  5 15  1  0  0  0
  6  7  1  0  0  0
  6 12  2  0  0  0
  7 14  2  0  0  0
  8  9  1  0  0  0
  8 29  1  0  0  0
  8 30  1  0  0  0
  9 31  1  0  0  0
  9 32  1  0  0  0
 10 19  2  0  0  0
 10 12  1  0  0  0
 11 20  2  0  0  0
 11 26  1  0  0  0
 12 33  1  0  0  0
 13 17  1  0  0  0
 13 18  2  0  0  0
 13 23  1  0  0  0
 14 19  1  0  0  0
 14 34  1  0  0  0
 15 24  1  0  0  0
 15 35  1  0  0  0
 15 36  1  0  0  0
 17 21  2  0  0  0
 17 22  1  0  0  0
 18 37  1  0  0  0
 19 38  1  0  0  0
 21 28  1  0  0  0
 21 39  1  0  0  0
 22 27  2  0  0  0
 22 40  1  0  0  0
 23 41  1  0  0  0
 23 42  1  0  0  0
 24 27  1  0  0  0
 24 28  2  0  0  0
 25 43  1  0  0  0
 25 44  1  0  0  0
 25 45  1  0  0  0
 26 46  1  0  0  0
 27 47  1  0  0  0
 28 48  1  0  0  0
M  END
> <s_m_entry_id>
35189

> <s_m_entry_name>
dock_pv.39

> <s_m_Source_Path>
/home/csk/Desktop/cluster/DUD-E-result/thrb

> <s_m_Source_File>
dock_pv.maegz

> <i_m_Source_File_Index>
39

> <chembl_id>
CHEMBL421494

> <chembl_pref_name>
None

> <i_lp_mmshare_version>
53161

> <r_lp_tautomer_probability>
1

> <s_lp_Force_Field>
OPLS_2005

> <r_lp_Energy>
33.102634

> <b_lp_Chiralities_Consistent>
1

> <s_lp_Variant>
CHEMBL204_lig544-1

> <s_i_glide_gridfile>
glide-grid_1ype

> <i_i_glide_lignum>
750

> <i_i_glide_rotatable_bonds>
6

> <r_i_docking_score>
-8.25072780713453

> <r_i_glide_ligand_efficiency>
-0.294668850254805

> <r_i_glide_ligand_efficiency_sa>
-0.894788180045148

> <r_i_glide_ligand_efficiency_ln>
-1.90451022978157

> <r_i_glide_gscore>
-8.25072780713453

> <r_i_glide_lipo>
-3.08742294564604

> <r_i_glide_hbond>
-0.41750670049078

> <r_i_glide_metal>
0

> <r_i_glide_rewards>
-1.56360967074687

> <r_i_glide_evdw>
-46.1715545654297

> <r_i_glide_ecoul>
-8.83281993865967

> <r_i_glide_erotb>
0.546496207156362

> <r_i_glide_esite>
-0.0951839783367642

> <r_i_glide_emodel>
-80.9320187174

> <r_i_glide_energy>
-55.0043745040894

> <r_i_glide_einternal>
4.54785442352295

> <i_i_glide_confnum>
54

> <i_i_glide_posenum>
219

> <r_i_glide_eff_state_penalty>
0

> <s_user_duplicate_titles>
CHEMBL204_lig544

> <i_f3d_flags>
0

> <s_m_subgroup_title>
dock_pv

> <s_m_subgroupid>
dock_pv

> <b_m_subgroup_collapsed>
1

$$$$
CHEMBL204_lig4360
                    3D
 Schrodinger Suite 2021-1.
 64 65  0  0  1  0            999 V2000
   11.6148  -10.2403   22.8311 C   0  0  0  0  0  0
   11.8760  -11.7324   22.5761 C   0  0  0  0  0  0
   13.2957  -12.0180   22.0514 C   0  0  0  0  0  0
   13.4599  -11.7156   20.1941 S   0  0  0  0  0  0
   13.1251  -10.3204   19.8930 O   0  0  0  0  0  0
   12.8098  -12.8215   19.4864 O   0  0  0  0  0  0
   15.1910  -11.8620   19.9437 N   0  0  1  0  0  0
   21.0370  -14.6568   23.6415 C   0  0  0  0  0  0
   19.9387  -15.0053   24.4376 C   0  0  0  0  0  0
   19.8637  -14.6003   25.7671 C   0  0  0  0  0  0
   20.8994  -13.8544   26.3208 C   0  0  0  0  0  0
   22.0266  -13.5557   25.5571 C   0  0  0  0  0  0
   22.1174  -13.9587   24.2214 C   0  0  0  0  0  0
   18.4902  -15.0322   26.7212 Cl  0  0  0  0  0  0
   23.3730  -13.5745   23.4403 C   0  0  0  0  0  0
   24.4100  -14.5889   23.5240 N   0  0  0  0  0  0
   21.0320  -15.0961   22.1768 C   0  0  0  0  0  0
   20.7013  -14.0135   21.2459 N   0  0  0  0  0  0
   19.4824  -13.4526   21.1647 C   0  0  0  0  0  0
   19.3222  -12.2652   20.2138 C   0  0  0  0  0  0
   18.5260  -13.8371   21.8434 O   0  0  0  0  0  0
   17.8945  -12.1440   19.9229 N   0  0  0  0  0  0
   17.3200  -12.2253   18.7078 C   0  0  0  0  0  0
   15.7580  -12.3303   18.6355 C   0  0  2  0  0  0
   18.0094  -12.2486   17.6888 O   0  0  0  0  0  0
   15.0095  -11.7000   17.4067 C   0  0  0  0  0  0
   15.6790  -11.7145   16.0053 C   0  0  0  0  0  0
   16.0183  -13.0867   15.4070 C   0  0  0  0  0  0
   16.9429  -13.1747   14.4085 N   0  3  0  0  0  0
   17.2221  -14.3351   13.7753 C   0  0  0  0  0  0
   16.5651  -15.5095   14.1400 C   0  0  0  0  0  0
   15.6206  -15.4643   15.1630 C   0  0  0  0  0  0
   15.3417  -14.2540   15.7955 C   0  0  0  0  0  0
   17.6139  -12.1596   14.0616 O   0  5  0  0  0  0
   10.6734  -10.1016   23.3601 H   0  0  0  0  0  0
   12.3957   -9.7964   23.4503 H   0  0  0  0  0  0
   11.5565   -9.6737   21.9018 H   0  0  0  0  0  0
   11.1249  -12.1451   21.9041 H   0  0  0  0  0  0
   11.7388  -12.2630   23.5193 H   0  0  0  0  0  0
   13.5944  -13.0501   22.2356 H   0  0  0  0  0  0
   14.0213  -11.3682   22.5333 H   0  0  0  0  0  0
   15.6572  -10.9957   20.2295 H   0  0  0  0  0  0
   19.1177  -15.5663   24.0143 H   0  0  0  0  0  0
   20.8402  -13.5257   27.3471 H   0  0  0  0  0  0
   22.8336  -12.9970   26.0034 H   0  0  0  0  0  0
   23.1333  -13.3739   22.3965 H   0  0  0  0  0  0
   23.7736  -12.6533   23.8594 H   0  0  0  0  0  0
   25.3207  -14.1440   23.4576 H   0  0  0  0  0  0
   24.3944  -14.9888   24.4558 H   0  0  0  0  0  0
   20.3507  -15.9360   22.0318 H   0  0  0  0  0  0
   22.0115  -15.5040   21.9340 H   0  0  0  0  0  0
   21.4555  -13.6614   20.6733 H   0  0  0  0  0  0
   19.9293  -12.4051   19.3181 H   0  0  0  0  0  0
   19.6578  -11.3601   20.7204 H   0  0  0  0  0  0
   17.2886  -12.2130   20.7300 H   0  0  0  0  0  0
   15.5912  -13.4092   18.6019 H   0  0  0  0  0  0
   14.7964  -10.6563   17.6222 H   0  0  0  0  0  0
   14.0208  -12.1588   17.3232 H   0  0  0  0  0  0
   16.5661  -11.0826   16.0289 H   0  0  0  0  0  0
   15.0168  -11.2227   15.2944 H   0  0  0  0  0  0
   17.9669  -14.2834   12.9968 H   0  0  0  0  0  0
   16.7744  -16.4408   13.6311 H   0  0  0  0  0  0
   15.0838  -16.3592   15.4459 H   0  0  0  0  0  0
   14.5747  -14.2362   16.5539 H   0  0  0  0  0  0
  1  2  1  0  0  0
  1 35  1  0  0  0
  1 36  1  0  0  0
  1 37  1  0  0  0
  2  3  1  0  0  0
  2 38  1  0  0  0
  2 39  1  0  0  0
  3  4  1  0  0  0
  3 40  1  0  0  0
  3 41  1  0  0  0
  4  6  2  0  0  0
  4  5  2  0  0  0
  4  7  1  0  0  0
  7 24  1  0  0  0
  7 42  1  0  0  0
  8 13  1  0  0  0
  8  9  2  0  0  0
  8 17  1  0  0  0
  9 10  1  0  0  0
  9 43  1  0  0  0
 10 11  2  0  0  0
 10 14  1  0  0  0
 11 12  1  0  0  0
 11 44  1  0  0  0
 12 13  2  0  0  0
 12 45  1  0  0  0
 13 15  1  0  0  0
 15 16  1  0  0  0
 15 46  1  0  0  0
 15 47  1  0  0  0
 16 48  1  0  0  0
 16 49  1  0  0  0
 17 18  1  0  0  0
 17 50  1  0  0  0
 17 51  1  0  0  0
 18 19  1  0  0  0
 18 52  1  0  0  0
 19 20  1  0  0  0
 19 21  2  0  0  0
 20 22  1  0  0  0
 20 53  1  0  0  0
 20 54  1  0  0  0
 22 23  1  0  0  0
 22 55  1  0  0  0
 23 24  1  0  0  0
 23 25  2  0  0  0
 24 26  1  0  0  0
 24 56  1  0  0  0
 26 27  1  0  0  0
 26 57  1  0  0  0
 26 58  1  0  0  0
 27 28  1  0  0  0
 27 59  1  0  0  0
 27 60  1  0  0  0
 28 29  2  0  0  0
 28 33  1  0  0  0
 29 30  1  0  0  0
 29 34  1  0  0  0
 30 31  2  0  0  0
 30 61  1  0  0  0
 31 32  1  0  0  0
 31 62  1  0  0  0
 32 33  2  0  0  0
 32 63  1  0  0  0
 33 64  1  0  0  0
M  CHG  2  29   1  34  -1
M  END
> <s_m_entry_id>
35190

> <s_m_entry_name>
dock_pv.40

> <s_m_Source_Path>
/home/csk/Desktop/cluster/DUD-E-result/thrb

> <s_m_Source_File>
dock_pv.maegz

> <i_m_Source_File_Index>
40

> <chembl_id>
CHEMBL231292

> <chembl_pref_name>
None

> <i_lp_mmshare_version>
53161

> <r_lp_tautomer_probability>
1

> <s_lp_Force_Field>
OPLS_2005

> <r_lp_Energy>
-4.970452

> <b_lp_Chiralities_Consistent>
1

> <s_lp_Variant>
CHEMBL204_lig4360-1

> <s_i_glide_gridfile>
glide-grid_1ype

> <i_i_glide_lignum>
6014

> <i_i_glide_rotatable_bonds>
15

> <r_i_docking_score>
-8.21694727944416

> <r_i_glide_ligand_efficiency>
-0.241674919983652

> <r_i_glide_ligand_efficiency_sa>
-0.782932921931529

> <r_i_glide_ligand_efficiency_ln>
-1.81535413159361

> <r_i_glide_gscore>
-8.21694727944416

> <r_i_glide_lipo>
-2.51196373788517

> <r_i_glide_hbond>
-0.501066501272511

> <r_i_glide_metal>
0

> <r_i_glide_rewards>
-1.18917957657561

> <r_i_glide_evdw>
-45.6790542602539

> <r_i_glide_ecoul>
-17.5186595916748

> <r_i_glide_erotb>
0.938189198931695

> <r_i_glide_esite>
-0.0411750108786464

> <r_i_glide_emodel>
-89.2013139558373

> <r_i_glide_energy>
-63.1977138519287

> <r_i_glide_einternal>
9.89428615570068

> <i_i_glide_confnum>
3

> <i_i_glide_posenum>
85

> <r_i_glide_eff_state_penalty>
0

> <s_user_duplicate_titles>
CHEMBL204_lig4360

> <i_f3d_flags>
0

> <s_m_subgroup_title>
dock_pv

> <s_m_subgroupid>
dock_pv

> <b_m_subgroup_collapsed>
1

$$$$
CHEMBL204_lig4170
                    3D
 Schrodinger Suite 2021-1.
 50 54  0  0  1  0            999 V2000
   16.2740  -12.6565   21.6173 N   0  0  0  0  0  0
   16.2260  -11.6914   20.7211 C   0  0  0  0  0  0
   17.5638  -13.1194   21.5330 C   0  0  0  0  0  0
   13.1707  -13.1325   20.7898 N   0  0  0  0  0  0
   17.3917  -11.4580   20.0454 O   0  0  0  0  0  0
   18.5595  -15.7562   25.3094 C   0  0  0  0  0  0
   13.2995  -15.2918   20.3639 N   0  0  0  0  0  0
   18.2572  -12.3632   20.5723 C   0  0  0  0  0  0
   13.2761  -13.2245   19.4587 N   0  0  0  0  0  0
   12.9796  -11.9036   21.4542 C   0  0  0  0  0  0
   13.1703  -14.4000   21.3121 C   0  0  0  0  0  0
   13.8288  -10.7882   21.2706 C   0  0  0  0  0  0
   13.3576  -14.5272   19.2846 C   0  0  0  0  0  0
   15.0585  -10.7951   20.3517 C   0  0  0  0  0  0
   17.5295  -14.9597   23.1260 N   0  0  0  0  0  0
   18.2360  -14.1618   22.2078 C   0  0  0  0  0  0
   19.8984  -15.0100   25.3692 C   0  0  0  0  0  0
   18.1070  -16.0831   23.8671 C   0  0  0  0  0  0
   21.0093  -15.7405   25.0692 N   0  0  0  0  0  0
   18.6920  -16.8905   26.0022 F   0  0  0  0  0  0
   17.6164  -15.0529   25.9420 F   0  0  0  0  0  0
   19.6014  -12.5638   20.2479 C   0  0  0  0  0  0
   13.5237   -9.5946   21.9411 C   0  0  0  0  0  0
   11.8865  -11.8106   22.3258 C   0  0  0  0  0  0
   20.2573  -13.5821   20.9401 C   0  0  0  0  0  0
   19.5923  -14.3598   21.8936 C   0  0  0  0  0  0
   22.2201  -15.1317   25.1485 C   0  0  0  0  0  0
   19.9756  -13.6568   25.7245 C   0  0  0  0  0  0
   12.4277   -9.5114   22.7987 C   0  0  0  0  0  0
   11.6161  -10.6225   22.9995 C   0  0  0  0  0  0
   22.3739  -13.7962   25.5221 C   0  0  0  0  0  0
   21.2292  -13.0532   25.8151 C   0  0  0  0  0  0
   13.0627  -14.5640   22.3742 H   0  0  0  0  0  0
   13.4532  -14.9603   18.2985 H   0  0  0  0  0  0
   15.4587   -9.7833   20.3211 H   0  0  0  0  0  0
   14.7359  -11.0099   19.3336 H   0  0  0  0  0  0
   16.6070  -14.6513   23.4144 H   0  0  0  0  0  0
   18.9099  -16.5634   23.3106 H   0  0  0  0  0  0
   17.3244  -16.8407   23.9165 H   0  0  0  0  0  0
   20.1040  -11.9634   19.5052 H   0  0  0  0  0  0
   14.1486   -8.7215   21.8192 H   0  0  0  0  0  0
   11.2261  -12.6532   22.4791 H   0  0  0  0  0  0
   21.2992  -13.7834   20.7333 H   0  0  0  0  0  0
   20.1631  -15.1303   22.3870 H   0  0  0  0  0  0
   23.0803  -15.7413   24.9144 H   0  0  0  0  0  0
   19.0868  -13.0811   25.9309 H   0  0  0  0  0  0
   12.2143   -8.5901   23.3204 H   0  0  0  0  0  0
   10.7652  -10.5622   23.6659 H   0  0  0  0  0  0
   23.3548  -13.3489   25.5857 H   0  0  0  0  0  0
   21.3076  -12.0155   26.1070 H   0  0  0  0  0  0
  1  2  2  0  0  0
  1  3  1  0  0  0
  2  5  1  0  0  0
  2 14  1  0  0  0
  3  8  2  0  0  0
  3 16  1  0  0  0
  4 10  1  0  0  0
  4  9  1  0  0  0
  4 11  1  0  0  0
  5  8  1  0  0  0
  6 18  1  0  0  0
  6 17  1  0  0  0
  6 20  1  0  0  0
  6 21  1  0  0  0
  7 11  2  0  0  0
  7 13  1  0  0  0
  8 22  1  0  0  0
  9 13  2  0  0  0
 10 12  1  0  0  0
 10 24  2  0  0  0
 11 33  1  0  0  0
 12 14  1  0  0  0
 12 23  2  0  0  0
 13 34  1  0  0  0
 14 35  1  0  0  0
 14 36  1  0  0  0
 15 16  1  0  0  0
 15 18  1  0  0  0
 15 37  1  0  0  0
 16 26  2  0  0  0
 17 19  1  0  0  0
 17 28  2  0  0  0
 18 38  1  0  0  0
 18 39  1  0  0  0
 19 27  2  0  0  0
 22 25  2  0  0  0
 22 40  1  0  0  0
 23 29  1  0  0  0
 23 41  1  0  0  0
 24 30  1  0  0  0
 24 42  1  0  0  0
 25 26  1  0  0  0
 25 43  1  0  0  0
 26 44  1  0  0  0
 27 31  1  0  0  0
 27 45  1  0  0  0
 28 32  1  0  0  0
 28 46  1  0  0  0
 29 30  2  0  0  0
 29 47  1  0  0  0
 30 48  1  0  0  0
 31 32  2  0  0  0
 31 49  1  0  0  0
 32 50  1  0  0  0
M  END
> <s_m_entry_id>
35191

> <s_m_entry_name>
dock_pv.41

> <s_m_Source_Path>
/home/csk/Desktop/cluster/DUD-E-result/thrb

> <s_m_Source_File>
dock_pv.maegz

> <i_m_Source_File_Index>
41

> <chembl_id>
CHEMBL194975

> <chembl_pref_name>
None

> <i_lp_mmshare_version>
53161

> <r_lp_tautomer_probability>
1

> <s_lp_Force_Field>
OPLS_2005

> <r_lp_Energy>
28.996511

> <b_lp_Chiralities_Consistent>
1

> <s_lp_Variant>
CHEMBL204_lig4170-1

> <s_i_glide_gridfile>
glide-grid_1ype

> <i_i_glide_lignum>
5795

> <i_i_glide_rotatable_bonds>
7

> <r_i_docking_score>
-8.21530784472889

> <r_i_glide_ligand_efficiency>
-0.256728370147778

> <r_i_glide_ligand_efficiency_sa>
-0.815061768743732

> <r_i_glide_ligand_efficiency_ln>
-1.83963136726881

> <r_i_glide_gscore>
-8.21530784472889

> <r_i_glide_lipo>
-3.99105231650064

> <r_i_glide_hbond>
-0.277869794828815

> <r_i_glide_metal>
0

> <r_i_glide_rewards>
-1.28283912186888

> <r_i_glide_evdw>
-50.1612243652344

> <r_i_glide_ecoul>
-5.1936502456665

> <r_i_glide_erotb>
0.638480041116767

> <r_i_glide_esite>
-0.0149178975356372

> <r_i_glide_emodel>
-78.7761061862457

> <r_i_glide_energy>
-55.3548746109009

> <r_i_glide_einternal>
4.25929260253906

> <i_i_glide_confnum>
13

> <i_i_glide_posenum>
362

> <r_i_glide_eff_state_penalty>
0

> <s_user_duplicate_titles>
CHEMBL204_lig4170,329836

> <i_f3d_flags>
0

> <s_m_subgroup_title>
dock_pv

> <s_m_subgroupid>
dock_pv

> <b_m_subgroup_collapsed>
1

$$$$
CHEMBL204_lig1723
                    3D
 Schrodinger Suite 2021-1.
 49 52  0  0  1  0            999 V2000
   17.6143  -15.2624   24.1239 O   0  0  0  0  0  0
   18.5494  -14.8309   23.1457 C   0  0  1  0  0  0
   17.9809  -13.6247   22.3276 C   0  0  0  0  0  0
   18.6452  -13.2023   21.2122 N   0  0  0  0  0  0
   16.9567  -13.0535   22.7179 O   0  0  0  0  0  0
   17.1265  -11.7320   19.7297 C   0  0  0  0  0  0
   17.1252  -11.4534   18.5284 O   0  0  0  0  0  0
   15.9848  -11.8145   20.4339 N   0  0  0  0  0  0
   14.6511  -11.5374   19.9029 C   0  0  0  0  0  0
   13.6104  -11.2733   20.9927 C   0  0  0  0  0  0
   13.6145  -10.0274   21.6333 C   0  0  0  0  0  0
   12.7048   -9.7414   22.6522 C   0  0  0  0  0  0
   11.7352  -10.6789   23.0011 C   0  0  0  0  0  0
   11.7022  -11.9159   22.3623 C   0  0  0  0  0  0
   12.6376  -12.2242   21.3687 C   0  0  0  0  0  0
   12.8180   -8.2551   23.5214 Cl  0  0  0  0  0  0
   12.5872  -13.5145   20.8120 N   0  0  0  0  0  0
   12.8156  -14.7154   21.4359 C   0  0  0  0  0  0
   12.6464  -15.7119   20.6063 N   0  0  0  0  0  0
   12.2973  -15.1167   19.3966 N   0  0  0  0  0  0
   12.2525  -13.7420   19.5350 N   0  0  0  0  0  0
   19.8870  -14.4776   23.8130 C   0  0  0  0  0  0
   18.4659  -11.9147   20.5064 C   0  0  2  0  0  0
   19.7217  -11.8528   19.6241 C   0  0  0  0  0  0
   19.7181  -13.8857   20.7212 N   0  0  0  0  0  0
   20.3337  -13.1907   19.8621 C   0  0  0  0  0  0
   21.0753  -15.0471   23.3410 C   0  0  0  0  0  0
   22.2931  -14.7089   23.9242 C   0  0  0  0  0  0
   22.3276  -13.8065   24.9822 C   0  0  0  0  0  0
   21.1507  -13.2532   25.4791 C   0  0  0  0  0  0
   19.9328  -13.5844   24.8935 C   0  0  0  0  0  0
   23.5134  -13.4552   25.5211 F   0  0  0  0  0  0
   16.7192  -15.0483   23.8347 H   0  0  0  0  0  0
   18.6969  -15.6747   22.4681 H   0  0  0  0  0  0
   16.0373  -12.2019   21.3709 H   0  0  0  0  0  0
   14.6833  -10.6568   19.2597 H   0  0  0  0  0  0
   14.3551  -12.3522   19.2443 H   0  0  0  0  0  0
   14.3647   -9.2917   21.3771 H   0  0  0  0  0  0
   11.0190  -10.4599   23.7838 H   0  0  0  0  0  0
   10.9597  -12.6509   22.6540 H   0  0  0  0  0  0
   13.0794  -14.7535   22.4831 H   0  0  0  0  0  0
   18.4763  -11.0932   21.2267 H   0  0  0  0  0  0
   20.4004  -11.0633   19.9537 H   0  0  0  0  0  0
   19.5456  -11.7170   18.5581 H   0  0  0  0  0  0
   21.2224  -13.5531   19.3578 H   0  0  0  0  0  0
   21.0609  -15.7432   22.5135 H   0  0  0  0  0  0
   23.2098  -15.1365   23.5503 H   0  0  0  0  0  0
   21.1855  -12.5539   26.3036 H   0  0  0  0  0  0
   19.0225  -13.1485   25.2813 H   0  0  0  0  0  0
  1  2  1  0  0  0
  1 33  1  0  0  0
  2  3  1  0  0  0
  2 22  1  0  0  0
  2 34  1  0  0  0
  3  4  1  0  0  0
  3  5  2  0  0  0
  4 23  1  0  0  0
  4 25  1  0  0  0
  6 23  1  0  0  0
  6  7  2  0  0  0
  6  8  1  0  0  0
  8  9  1  0  0  0
  8 35  1  0  0  0
  9 10  1  0  0  0
  9 36  1  0  0  0
  9 37  1  0  0  0
 10 11  2  0  0  0
 10 15  1  0  0  0
 11 12  1  0  0  0
 11 38  1  0  0  0
 12 13  2  0  0  0
 12 16  1  0  0  0
 13 14  1  0  0  0
 13 39  1  0  0  0
 14 15  2  0  0  0
 14 40  1  0  0  0
 15 17  1  0  0  0
 17 18  1  0  0  0
 17 21  1  0  0  0
 18 19  2  0  0  0
 18 41  1  0  0  0
 19 20  1  0  0  0
 20 21  2  0  0  0
 22 27  2  0  0  0
 22 31  1  0  0  0
 23 24  1  0  0  0
 23 42  1  0  0  0
 24 26  1  0  0  0
 24 43  1  0  0  0
 24 44  1  0  0  0
 25 26  2  0  0  0
 26 45  1  0  0  0
 27 28  1  0  0  0
 27 46  1  0  0  0
 28 29  2  0  0  0
 28 47  1  0  0  0
 29 30  1  0  0  0
 29 32  1  0  0  0
 30 31  2  0  0  0
 30 48  1  0  0  0
 31 49  1  0  0  0
M  END
> <s_m_entry_id>
35192

> <s_m_entry_name>
dock_pv.42

> <s_m_Source_Path>
/home/csk/Desktop/cluster/DUD-E-result/thrb

> <s_m_Source_File>
dock_pv.maegz

> <i_m_Source_File_Index>
42

> <chembl_id>
CHEMBL3787587

> <chembl_pref_name>
None

> <i_lp_mmshare_version>
53161

> <r_lp_tautomer_probability>
1

> <s_lp_Force_Field>
OPLS_2005

> <r_lp_Energy>
34.309017

> <b_lp_Chiralities_Consistent>
1

> <s_lp_Variant>
CHEMBL204_lig1723-1

> <s_i_glide_gridfile>
glide-grid_1ype

> <i_i_glide_lignum>
2506

> <i_i_glide_rotatable_bonds>
9

> <r_i_docking_score>
-8.18953272435774

> <r_i_glide_ligand_efficiency>
-0.255922897636179

> <r_i_glide_ligand_efficiency_sa>
-0.8125045529222

> <r_i_glide_ligand_efficiency_ln>
-1.83385961521447

> <r_i_glide_gscore>
-8.18953272435774

> <r_i_glide_lipo>
-3.2802997658139

> <r_i_glide_hbond>
-0.152234017686556

> <r_i_glide_metal>
0

> <r_i_glide_rewards>
-1.833177555174

> <r_i_glide_evdw>
-55.3444709777832

> <r_i_glide_ecoul>
-6.16000843048096

> <r_i_glide_erotb>
0.767403427778027

> <r_i_glide_esite>
0

> <r_i_glide_emodel>
-86.3536423099151

> <r_i_glide_energy>
-61.5044794082642

> <r_i_glide_einternal>
9.82355785369873

> <i_i_glide_confnum>
179

> <i_i_glide_posenum>
277

> <r_i_glide_eff_state_penalty>
0

> <s_user_duplicate_titles>
CHEMBL204_lig1723

> <i_f3d_flags>
0

> <s_m_subgroup_title>
dock_pv

> <s_m_subgroupid>
dock_pv

> <b_m_subgroup_collapsed>
1

$$$$
CHEMBL204_lig561
                    3D
 Schrodinger Suite 2021-1.
 59 63  0  0  1  0            999 V2000
   20.3920  -14.1732   24.4013 C   0  0  0  0  0  0
   19.1497  -12.4718   19.0052 N   0  0  0  0  0  0
   17.8586  -12.2338   18.5953 C   0  0  0  0  0  0
   17.1127  -12.8108   20.8857 N   0  0  0  0  0  0
   16.8541  -12.4402   19.6787 C   0  0  0  0  0  0
   21.4056  -15.3425   24.5591 C   0  0  0  0  0  0
   18.4562  -13.0571   21.2473 C   0  0  0  0  0  0
   19.5055  -12.9029   20.3180 C   0  0  0  0  0  0
   19.3365  -14.1764   25.5134 C   0  0  0  0  0  0
   20.4189  -13.1379   25.5287 C   0  0  0  0  0  0
   20.0474  -13.7422   22.9608 C   0  0  0  0  0  0
   22.7209  -15.1087   24.8155 N   0  0  0  0  0  0
   18.7293  -13.4732   22.5545 C   0  0  0  0  0  0
   11.6174  -10.6498   23.4541 C   0  0  0  0  0  0
   20.8162  -13.1736   20.7203 C   0  0  0  0  0  0
   15.3819  -12.2239   19.2614 C   0  0  0  0  0  0
   17.5666  -11.8595   17.4529 O   0  0  0  0  0  0
   12.5423  -11.0540   22.3502 C   0  0  0  0  0  0
   11.6160   -9.4796   23.9197 N   0  0  0  0  0  0
   20.9734  -16.4859   24.3972 O   0  0  0  0  0  0
   21.0787  -13.5863   22.0235 C   0  0  0  0  0  0
   12.5222  -12.3447   21.7861 C   0  0  0  0  0  0
   13.4996  -10.1493   21.8576 C   0  0  0  0  0  0
   10.8158  -11.6574   23.9211 N   0  0  0  0  0  0
   14.3921  -11.8168   20.3541 C   0  0  0  0  0  0
   20.2420  -12.2905   18.0314 C   0  0  0  0  0  0
   13.4327  -12.7220   20.8038 C   0  0  0  0  0  0
   14.4171  -10.5271   20.8813 C   0  0  0  0  0  0
   23.6992  -16.2067   24.8093 C   0  0  0  0  0  0
   23.3621  -13.7904   24.8754 C   0  0  0  0  0  0
   24.7742  -14.0903   24.3766 C   0  0  0  0  0  0
   25.0514  -15.4935   24.8836 C   0  0  0  0  0  0
   18.3163  -13.8528   25.3233 H   0  0  0  0  0  0
   19.3551  -14.9637   26.2696 H   0  0  0  0  0  0
   21.1529  -13.1905   26.3338 H   0  0  0  0  0  0
   20.1649  -12.1047   25.2863 H   0  0  0  0  0  0
   17.9040  -13.5929   23.2364 H   0  0  0  0  0  0
   21.6479  -13.0742   20.0397 H   0  0  0  0  0  0
   15.3049  -11.4531   18.4910 H   0  0  0  0  0  0
   15.0234  -13.1349   18.7786 H   0  0  0  0  0  0
   10.9298   -9.3977   24.6570 H   0  0  0  0  0  0
   22.1025  -13.7919   22.2923 H   0  0  0  0  0  0
   11.8102  -13.0891   22.1076 H   0  0  0  0  0  0
   13.5627   -9.1458   22.2553 H   0  0  0  0  0  0
   10.0675  -11.4485   24.5743 H   0  0  0  0  0  0
   10.8274  -12.5834   23.5188 H   0  0  0  0  0  0
   19.9097  -11.9957   17.0363 H   0  0  0  0  0  0
   20.9349  -11.5251   18.3815 H   0  0  0  0  0  0
   20.7972  -13.2230   17.9205 H   0  0  0  0  0  0
   13.3927  -13.7253   20.4028 H   0  0  0  0  0  0
   15.1572   -9.8162   20.5464 H   0  0  0  0  0  0
   23.6470  -16.7610   23.8713 H   0  0  0  0  0  0
   23.5691  -16.8763   25.6606 H   0  0  0  0  0  0
   23.4408  -13.4615   25.9138 H   0  0  0  0  0  0
   22.8929  -13.0475   24.2364 H   0  0  0  0  0  0
   25.5026  -13.3540   24.7207 H   0  0  0  0  0  0
   24.7977  -14.0694   23.2865 H   0  0  0  0  0  0
   25.8314  -16.0095   24.3241 H   0  0  0  0  0  0
   25.3832  -15.4532   25.9199 H   0  0  0  0  0  0
  1  6  1  0  0  0
  1  9  1  0  0  0
  1 10  1  0  0  0
  1 11  1  0  0  0
  2  8  1  0  0  0
  2  3  1  0  0  0
  2 26  1  0  0  0
  3 17  2  0  0  0
  3  5  1  0  0  0
  4  7  1  0  0  0
  4  5  2  0  0  0
  5 16  1  0  0  0
  6 12  1  0  0  0
  6 20  2  0  0  0
  7 13  2  0  0  0
  7  8  1  0  0  0
  8 15  2  0  0  0
  9 10  1  0  0  0
  9 33  1  0  0  0
  9 34  1  0  0  0
 10 35  1  0  0  0
 10 36  1  0  0  0
 11 13  1  0  0  0
 11 21  2  0  0  0
 12 29  1  0  0  0
 12 30  1  0  0  0
 13 37  1  0  0  0
 14 18  1  0  0  0
 14 19  2  0  0  0
 14 24  1  0  0  0
 15 21  1  0  0  0
 15 38  1  0  0  0
 16 25  1  0  0  0
 16 39  1  0  0  0
 16 40  1  0  0  0
 18 23  2  0  0  0
 18 22  1  0  0  0
 19 41  1  0  0  0
 21 42  1  0  0  0
 22 27  2  0  0  0
 22 43  1  0  0  0
 23 28  1  0  0  0
 23 44  1  0  0  0
 24 45  1  0  0  0
 24 46  1  0  0  0
 25 27  1  0  0  0
 25 28  2  0  0  0
 26 47  1  0  0  0
 26 48  1  0  0  0
 26 49  1  0  0  0
 27 50  1  0  0  0
 28 51  1  0  0  0
 29 32  1  0  0  0
 29 52  1  0  0  0
 29 53  1  0  0  0
 30 31  1  0  0  0
 30 54  1  0  0  0
 30 55  1  0  0  0
 31 32  1  0  0  0
 31 56  1  0  0  0
 31 57  1  0  0  0
 32 58  1  0  0  0
 32 59  1  0  0  0
M  END
> <s_m_entry_id>
35193

> <s_m_entry_name>
dock_pv.43

> <s_m_Source_Path>
/home/csk/Desktop/cluster/DUD-E-result/thrb

> <s_m_Source_File>
dock_pv.maegz

> <i_m_Source_File_Index>
43

> <chembl_id>
CHEMBL431577

> <chembl_pref_name>
None

> <i_lp_mmshare_version>
53161

> <r_lp_tautomer_probability>
1

> <s_lp_Force_Field>
OPLS_2005

> <r_lp_Energy>
57.629665

> <b_lp_Chiralities_Consistent>
1

> <s_lp_Variant>
CHEMBL204_lig561-1

> <s_i_glide_gridfile>
glide-grid_1ype

> <i_i_glide_lignum>
767

> <i_i_glide_rotatable_bonds>
6

> <r_i_docking_score>
-8.16095152638989

> <r_i_glide_ligand_efficiency>
-0.255029735199684

> <r_i_glide_ligand_efficiency_sa>
-0.809668938942934

> <r_i_glide_ligand_efficiency_ln>
-1.82745950589543

> <r_i_glide_gscore>
-8.16095152638989

> <r_i_glide_lipo>
-3.9539806126245

> <r_i_glide_hbond>
-0.101469413389381

> <r_i_glide_metal>
0

> <r_i_glide_rewards>
-0.999944380668288

> <r_i_glide_evdw>
-51.7801551818848

> <r_i_glide_ecoul>
-6.54043674468994

> <r_i_glide_erotb>
0.538618154839272

> <r_i_glide_esite>
-0.0741020037492697

> <r_i_glide_emodel>
-84.741896833421

> <r_i_glide_energy>
-58.3205919265747

> <r_i_glide_einternal>
4.71800851821899

> <i_i_glide_confnum>
31

> <i_i_glide_posenum>
286

> <r_i_glide_eff_state_penalty>
0

> <s_user_duplicate_titles>
CHEMBL204_lig561,119646

> <i_f3d_flags>
0

> <s_m_subgroup_title>
dock_pv

> <s_m_subgroupid>
dock_pv

> <b_m_subgroup_collapsed>
1

$$$$
CHEMBL204_lig5018
                    3D
 Schrodinger Suite 2021-1.
 54 56  0  0  1  0            999 V2000
   19.1289  -13.2273   21.0771 N   0  0  0  0  0  0
   18.8556  -12.0917   20.1671 C   0  0  1  0  0  0
   20.0994  -12.0540   19.2547 C   0  0  0  0  0  0
   21.1997  -12.6892   20.0716 C   0  0  0  0  0  0
   20.4636  -13.7815   20.8359 C   0  0  0  0  0  0
   18.2512  -13.6852   22.0042 C   0  0  0  0  0  0
   17.5427  -12.2525   19.3698 C   0  0  0  0  0  0
   16.4906  -11.5544   19.8189 N   0  0  0  0  0  0
   17.4961  -13.0197   18.4089 O   0  0  0  0  0  0
   15.1218  -11.7376   19.3394 C   0  0  0  0  0  0
   14.0945  -11.4837   20.4340 C   0  0  0  0  0  0
   13.2442  -12.5087   20.8432 C   0  0  0  0  0  0
   12.3199  -12.2852   21.8574 C   0  0  0  0  0  0
   12.2179  -11.0377   22.5005 C   0  0  0  0  0  0
   13.0699  -10.0112   22.0522 C   0  0  0  0  0  0
   13.9971  -10.2281   21.0359 C   0  0  0  0  0  0
   11.2556  -10.7932   23.6177 C   0  0  0  0  0  0
   11.2165   -9.6916   24.2217 N   0  0  0  0  0  0
   10.4384  -11.8529   23.9210 N   0  0  0  0  0  0
   17.2440  -13.0526   22.3211 O   0  0  0  0  0  0
   18.4500  -15.0763   22.6316 C   0  0  0  0  0  0
   18.5820  -15.0664   24.1703 C   0  0  0  0  0  0
   19.9469  -14.6195   24.6774 C   0  0  0  0  0  0
   20.0752  -13.4364   25.4093 C   0  0  0  0  0  0
   21.3191  -13.0531   25.9014 C   0  0  0  0  0  0
   22.4353  -13.8483   25.6450 C   0  0  0  0  0  0
   22.3179  -15.0245   24.9114 C   0  0  0  0  0  0
   21.0703  -15.4126   24.4300 C   0  0  0  0  0  0
   18.8199  -11.1844   20.7748 H   0  0  0  0  0  0
   20.3756  -11.0530   18.9371 H   0  0  0  0  0  0
   19.9560  -12.6506   18.3509 H   0  0  0  0  0  0
   21.6159  -11.9588   20.7636 H   0  0  0  0  0  0
   22.0131  -13.0526   19.4514 H   0  0  0  0  0  0
   20.9922  -14.0373   21.7543 H   0  0  0  0  0  0
   20.3737  -14.6820   20.2266 H   0  0  0  0  0  0
   16.6189  -10.9249   20.5972 H   0  0  0  0  0  0
   14.9429  -11.0526   18.5150 H   0  0  0  0  0  0
   14.9750  -12.7323   18.9082 H   0  0  0  0  0  0
   13.3013  -13.4879   20.3854 H   0  0  0  0  0  0
   11.6913  -13.1152   22.1426 H   0  0  0  0  0  0
   13.0296   -9.0296   22.5059 H   0  0  0  0  0  0
   14.6457   -9.4206   20.7242 H   0  0  0  0  0  0
   10.4782   -9.7033   24.9146 H   0  0  0  0  0  0
    9.6700  -11.7289   24.5806 H   0  0  0  0  0  0
   10.5617  -12.7763   23.5220 H   0  0  0  0  0  0
   19.2786  -15.6191   22.1804 H   0  0  0  0  0  0
   17.5674  -15.6588   22.3639 H   0  0  0  0  0  0
   18.4137  -16.0766   24.5438 H   0  0  0  0  0  0
   17.7903  -14.4677   24.6231 H   0  0  0  0  0  0
   19.2159  -12.8143   25.6057 H   0  0  0  0  0  0
   21.4180  -12.1402   26.4711 H   0  0  0  0  0  0
   23.4035  -13.5536   26.0212 H   0  0  0  0  0  0
   23.1880  -15.6365   24.7212 H   0  0  0  0  0  0
   20.9785  -16.3299   23.8678 H   0  0  0  0  0  0
  1  2  1  0  0  0
  1  5  1  0  0  0
  1  6  1  0  0  0
  2  3  1  0  0  0
  2  7  1  0  0  0
  2 29  1  0  0  0
  3  4  1  0  0  0
  3 30  1  0  0  0
  3 31  1  0  0  0
  4  5  1  0  0  0
  4 32  1  0  0  0
  4 33  1  0  0  0
  5 34  1  0  0  0
  5 35  1  0  0  0
  6 20  2  0  0  0
  6 21  1  0  0  0
  7  8  1  0  0  0
  7  9  2  0  0  0
  8 10  1  0  0  0
  8 36  1  0  0  0
 10 11  1  0  0  0
 10 37  1  0  0  0
 10 38  1  0  0  0
 11 12  2  0  0  0
 11 16  1  0  0  0
 12 13  1  0  0  0
 12 39  1  0  0  0
 13 14  2  0  0  0
 13 40  1  0  0  0
 14 15  1  0  0  0
 14 17  1  0  0  0
 15 16  2  0  0  0
 15 41  1  0  0  0
 16 42  1  0  0  0
 17 18  2  0  0  0
 17 19  1  0  0  0
 18 43  1  0  0  0
 19 44  1  0  0  0
 19 45  1  0  0  0
 21 22  1  0  0  0
 21 46  1  0  0  0
 21 47  1  0  0  0
 22 23  1  0  0  0
 22 48  1  0  0  0
 22 49  1  0  0  0
 23 24  2  0  0  0
 23 28  1  0  0  0
 24 25  1  0  0  0
 24 50  1  0  0  0
 25 26  2  0  0  0
 25 51  1  0  0  0
 26 27  1  0  0  0
 26 52  1  0  0  0
 27 28  2  0  0  0
 27 53  1  0  0  0
 28 54  1  0  0  0
M  END
> <s_m_entry_id>
35194

> <s_m_entry_name>
dock_pv.44

> <s_m_Source_Path>
/home/csk/Desktop/cluster/DUD-E-result/thrb

> <s_m_Source_File>
dock_pv.maegz

> <i_m_Source_File_Index>
44

> <chembl_id>
CHEMBL3423007

> <chembl_pref_name>
None

> <i_lp_mmshare_version>
53161

> <r_lp_tautomer_probability>
1

> <s_lp_Force_Field>
OPLS_2005

> <r_lp_Energy>
12.500102

> <b_lp_Chiralities_Consistent>
1

> <s_lp_Variant>
CHEMBL204_lig5018-1

> <s_i_glide_gridfile>
glide-grid_1ype

> <i_i_glide_lignum>
6865

> <i_i_glide_rotatable_bonds>
9

> <r_i_docking_score>
-8.14967699882374

> <r_i_glide_ligand_efficiency>
-0.291059892815134

> <r_i_glide_ligand_efficiency_sa>
-0.883829259696047

> <r_i_glide_ligand_efficiency_ln>
-1.88118473624278

> <r_i_glide_gscore>
-8.14967699882374

> <r_i_glide_lipo>
-3.71242355783647

> <r_i_glide_hbond>
-0.201817528736987

> <r_i_glide_metal>
0

> <r_i_glide_rewards>
-1.49922288975868

> <r_i_glide_evdw>
-43.5489234924316

> <r_i_glide_ecoul>
-9.16711807250977

> <r_i_glide_erotb>
0.94707247041769

> <r_i_glide_esite>
-0.130771607411246

> <r_i_glide_emodel>
-76.2271944660614

> <r_i_glide_energy>
-52.7160415649414

> <r_i_glide_einternal>
5.1572413444519

> <i_i_glide_confnum>
1

> <i_i_glide_posenum>
341

> <r_i_glide_eff_state_penalty>
0

> <s_user_duplicate_titles>
CHEMBL204_lig5018,CHEMBL204_lig4706,596675

> <i_f3d_flags>
0

> <s_m_subgroup_title>
dock_pv

> <s_m_subgroupid>
dock_pv

> <b_m_subgroup_collapsed>
1

$$$$
CHEMBL204_lig938
                    3D
 Schrodinger Suite 2021-1.
 49 52  0  0  1  0            999 V2000
   16.1341  -12.4860   20.6879 N   0  0  0  0  0  0
   17.3632  -12.9384   21.0230 C   0  0  0  0  0  0
   15.9395  -11.9413   19.4590 C   0  0  0  0  0  0
   18.7401  -14.0081   22.7165 C   0  0  0  0  0  0
   18.4834  -12.8430   20.1464 C   0  0  0  0  0  0
   11.2200  -10.7807   23.6247 C   0  0  0  0  0  0
   17.5074  -13.5243   22.2909 C   0  0  0  0  0  0
   18.2570  -12.2632   18.8613 C   0  0  0  0  0  0
   18.8282  -14.6302   24.0578 C   0  0  0  0  0  0
   16.9684  -11.8293   18.5240 C   0  0  0  0  0  0
   19.7378  -13.3340   20.6049 C   0  0  0  0  0  0
   12.0774  -10.9552   22.4160 C   0  0  0  0  0  0
   11.2178   -9.7137   24.2931 N   0  0  0  0  0  0
   14.6762  -11.4532   19.1616 O   0  0  0  0  0  0
   19.8482  -13.9051   21.8718 C   0  0  0  0  0  0
   19.6733  -14.1323   25.0667 C   0  0  0  0  0  0
   12.9867   -9.9483   22.0469 C   0  0  0  0  0  0
   12.0160  -12.1063   21.6034 C   0  0  0  0  0  0
   10.4185  -11.8530   23.9213 N   0  0  0  0  0  0
   13.7623  -11.2588   20.1775 C   0  0  0  0  0  0
   12.8416  -12.2536   20.4919 C   0  0  0  0  0  0
   13.8257  -10.1002   20.9487 C   0  0  0  0  0  0
   19.4152  -12.1108   17.8863 C   0  0  0  0  0  0
   17.9951  -15.7210   24.3452 C   0  0  0  0  0  0
   20.5537  -12.9068   24.8593 C   0  0  0  0  0  0
   19.6654  -14.7353   26.3233 C   0  0  0  0  0  0
   17.9876  -16.3080   25.6071 C   0  0  0  0  0  0
   18.8226  -15.8108   26.6002 C   0  0  0  0  0  0
   16.6420  -13.5994   22.9352 H   0  0  0  0  0  0
   16.7645  -11.3835   17.5623 H   0  0  0  0  0  0
   20.6104  -13.2793   19.9707 H   0  0  0  0  0  0
   10.5231   -9.7668   25.0285 H   0  0  0  0  0  0
   20.8060  -14.2867   22.1953 H   0  0  0  0  0  0
   13.0750   -9.0439   22.6332 H   0  0  0  0  0  0
   11.3318  -12.9135   21.8241 H   0  0  0  0  0  0
    9.6735  -11.7511   24.6100 H   0  0  0  0  0  0
   10.5620  -12.7720   23.5208 H   0  0  0  0  0  0
   12.7978  -13.1565   19.9010 H   0  0  0  0  0  0
   14.5531   -9.3348   20.7209 H   0  0  0  0  0  0
   19.9188  -13.0529   17.7187 H   0  0  0  0  0  0
   19.0919  -11.7288   16.9178 H   0  0  0  0  0  0
   20.1738  -11.4530   18.3032 H   0  0  0  0  0  0
   17.3305  -16.1079   23.5859 H   0  0  0  0  0  0
   20.8563  -12.4575   25.8065 H   0  0  0  0  0  0
   21.4457  -13.1624   24.2879 H   0  0  0  0  0  0
   20.0118  -12.1326   24.3170 H   0  0  0  0  0  0
   20.3007  -14.3519   27.1089 H   0  0  0  0  0  0
   17.3292  -17.1382   25.8158 H   0  0  0  0  0  0
   18.8163  -16.2543   27.5850 H   0  0  0  0  0  0
  1  2  1  0  0  0
  1  3  2  0  0  0
  2  5  1  0  0  0
  2  7  2  0  0  0
  3 10  1  0  0  0
  3 14  1  0  0  0
  4  7  1  0  0  0
  4  9  1  0  0  0
  4 15  2  0  0  0
  5 11  2  0  0  0
  5  8  1  0  0  0
  6 12  1  0  0  0
  6 13  2  0  0  0
  6 19  1  0  0  0
  7 29  1  0  0  0
  8 10  2  0  0  0
  8 23  1  0  0  0
  9 16  2  0  0  0
  9 24  1  0  0  0
 10 30  1  0  0  0
 11 15  1  0  0  0
 11 31  1  0  0  0
 12 17  2  0  0  0
 12 18  1  0  0  0
 13 32  1  0  0  0
 14 20  1  0  0  0
 15 33  1  0  0  0
 16 25  1  0  0  0
 16 26  1  0  0  0
 17 22  1  0  0  0
 17 34  1  0  0  0
 18 21  2  0  0  0
 18 35  1  0  0  0
 19 36  1  0  0  0
 19 37  1  0  0  0
 20 21  1  0  0  0
 20 22  2  0  0  0
 21 38  1  0  0  0
 22 39  1  0  0  0
 23 40  1  0  0  0
 23 41  1  0  0  0
 23 42  1  0  0  0
 24 27  2  0  0  0
 24 43  1  0  0  0
 25 44  1  0  0  0
 25 45  1  0  0  0
 25 46  1  0  0  0
 26 28  2  0  0  0
 26 47  1  0  0  0
 27 28  1  0  0  0
 27 48  1  0  0  0
 28 49  1  0  0  0
M  END
> <s_m_entry_id>
35195

> <s_m_entry_name>
dock_pv.45

> <s_m_Source_Path>
/home/csk/Desktop/cluster/DUD-E-result/thrb

> <s_m_Source_File>
dock_pv.maegz

> <i_m_Source_File_Index>
45

> <chembl_id>
CHEMBL310033

> <chembl_pref_name>
None

> <i_lp_mmshare_version>
53161

> <r_lp_tautomer_probability>
1

> <s_lp_Force_Field>
OPLS_2005

> <r_lp_Energy>
21.086953

> <b_lp_Chiralities_Consistent>
1

> <s_lp_Variant>
CHEMBL204_lig938-1

> <s_i_glide_gridfile>
glide-grid_1ype

> <i_i_glide_lignum>
1451

> <i_i_glide_rotatable_bonds>
4

> <r_i_docking_score>
-8.1437019915345

> <r_i_glide_ligand_efficiency>
-0.290846499697661

> <r_i_glide_ligand_efficiency_sa>
-0.883181272509574

> <r_i_glide_ligand_efficiency_ln>
-1.87980552912659

> <r_i_glide_gscore>
-8.1437019915345

> <r_i_glide_lipo>
-3.7698962320537

> <r_i_glide_hbond>
-0.511494537656161

> <r_i_glide_metal>
0

> <r_i_glide_rewards>
-0.97479697584846

> <r_i_glide_evdw>
-42.4385566711426

> <r_i_glide_ecoul>
-7.07600927352905

> <r_i_glide_erotb>
0.427925942473715

> <r_i_glide_esite>
-0.132110963863402

> <r_i_glide_emodel>
-72.1283406890779

> <r_i_glide_energy>
-49.5145659446716

> <r_i_glide_einternal>
2.17014932632446

> <i_i_glide_confnum>
4

> <i_i_glide_posenum>
73

> <r_i_glide_eff_state_penalty>
0

> <s_user_duplicate_titles>
CHEMBL204_lig938,117688

> <i_f3d_flags>
0

> <s_m_subgroup_title>
dock_pv

> <s_m_subgroupid>
dock_pv

> <b_m_subgroup_collapsed>
1

$$$$
CHEMBL204_lig1906
                    3D
 Schrodinger Suite 2021-1.
 61 64  0  0  1  0            999 V2000
   15.3147  -13.5835   21.2884 C   0  0  0  0  0  0
   14.2850  -13.0914   20.5186 N   0  0  0  0  0  0
   15.8996  -14.6938   20.7709 N   0  0  0  0  0  0
   13.7184  -11.9016   21.0113 C   0  0  0  0  0  0
   11.2545  -10.6787   23.6857 C   0  0  0  0  0  0
   11.0475   -9.6145   24.3210 N   0  0  0  0  0  0
   17.3654  -14.7538   20.6830 C   0  0  0  0  0  0
   19.9685  -13.8530   21.6252 N   0  0  2  0  0  0
   12.7133  -11.9172   21.9898 C   0  0  0  0  0  0
   12.2692  -10.7204   22.5936 C   0  0  0  0  0  0
   15.7427  -13.0525   22.3208 O   0  0  0  0  0  0
   18.0822  -13.4871   20.1150 C   0  0  0  0  0  0
   18.0531  -15.3345   21.9394 C   0  0  0  0  0  0
   19.5845  -15.2428   21.8899 C   0  0  0  0  0  0
   19.6141  -13.5069   20.2513 C   0  0  0  0  0  0
   21.3734  -13.5882   21.9230 C   0  0  0  0  0  0
   10.5889  -11.8530   23.9207 N   0  0  0  0  0  0
   14.1559  -13.3774   19.0690 C   0  0  0  0  0  0
   15.1160  -15.9052   20.5191 C   0  0  0  0  0  0
   21.7163  -13.6670   23.4103 C   0  0  0  0  0  0
   14.2596  -10.6885   20.5874 C   0  0  0  0  0  0
   12.8523   -9.5191   22.1439 C   0  0  0  0  0  0
   13.8291   -9.5019   21.1541 C   0  0  0  0  0  0
   23.0512  -13.8558   23.7764 C   0  0  0  0  0  0
   20.7483  -13.4503   24.4031 C   0  0  0  0  0  0
   13.6760  -14.7957   18.6964 C   0  0  0  0  0  0
   14.6040  -15.9590   19.0787 C   0  0  0  0  0  0
   21.0965  -13.5273   25.7457 C   0  0  0  0  0  0
   23.4005  -13.9415   25.1164 C   0  0  0  0  0  0
   22.4169  -13.7966   26.0868 C   0  0  0  0  0  0
   10.2791   -9.7309   24.9778 H   0  0  0  0  0  0
   17.5889  -15.5018   19.9217 H   0  0  0  0  0  0
   12.3300  -12.8745   22.3150 H   0  0  0  0  0  0
   17.8291  -13.3652   19.0618 H   0  0  0  0  0  0
   17.7586  -12.5785   20.6245 H   0  0  0  0  0  0
   17.7280  -14.8103   22.8398 H   0  0  0  0  0  0
   17.7728  -16.3806   22.0655 H   0  0  0  0  0  0
   20.0409  -15.9268   21.1718 H   0  0  0  0  0  0
   19.9458  -15.5454   22.8735 H   0  0  0  0  0  0
   20.1086  -14.1582   19.5274 H   0  0  0  0  0  0
   19.9682  -12.4940   20.0511 H   0  0  0  0  0  0
   22.0148  -14.2553   21.3524 H   0  0  0  0  0  0
   21.6172  -12.5809   21.5903 H   0  0  0  0  0  0
    9.7874  -11.8415   24.5509 H   0  0  0  0  0  0
   10.8168  -12.7329   23.4740 H   0  0  0  0  0  0
   13.4788  -12.6520   18.6142 H   0  0  0  0  0  0
   15.1299  -13.2013   18.6089 H   0  0  0  0  0  0
   15.6868  -16.7913   20.7990 H   0  0  0  0  0  0
   14.2647  -15.9146   21.2038 H   0  0  0  0  0  0
   15.0553  -10.6680   19.8568 H   0  0  0  0  0  0
   12.5605   -8.5754   22.5801 H   0  0  0  0  0  0
   14.2886   -8.5794   20.8438 H   0  0  0  0  0  0
   23.8218  -13.9507   23.0296 H   0  0  0  0  0  0
   19.7222  -13.2381   24.1382 H   0  0  0  0  0  0
   12.6725  -14.9597   19.0934 H   0  0  0  0  0  0
   13.5945  -14.8290   17.6100 H   0  0  0  0  0  0
   15.4569  -15.9931   18.3985 H   0  0  0  0  0  0
   14.0719  -16.8987   18.9250 H   0  0  0  0  0  0
   20.3514  -13.3788   26.5138 H   0  0  0  0  0  0
   24.4265  -14.1150   25.4070 H   0  0  0  0  0  0
   22.6998  -13.8535   27.1213 H   0  0  0  0  0  0
  1  2  1  0  0  0
  1  3  1  0  0  0
  1 11  2  0  0  0
  2  4  1  0  0  0
  2 18  1  0  0  0
  3  7  1  0  0  0
  3 19  1  0  0  0
  4  9  2  0  0  0
  4 21  1  0  0  0
  5  6  2  0  0  0
  5 10  1  0  0  0
  5 17  1  0  0  0
  6 31  1  0  0  0
  7 12  1  0  0  0
  7 13  1  0  0  0
  7 32  1  0  0  0
  8 14  1  0  0  0
  8 15  1  0  0  0
  8 16  1  0  0  0
  9 10  1  0  0  0
  9 33  1  0  0  0
 10 22  2  0  0  0
 12 15  1  0  0  0
 12 34  1  0  0  0
 12 35  1  0  0  0
 13 14  1  0  0  0
 13 36  1  0  0  0
 13 37  1  0  0  0
 14 38  1  0  0  0
 14 39  1  0  0  0
 15 40  1  0  0  0
 15 41  1  0  0  0
 16 20  1  0  0  0
 16 42  1  0  0  0
 16 43  1  0  0  0
 17 44  1  0  0  0
 17 45  1  0  0  0
 18 26  1  0  0  0
 18 46  1  0  0  0
 18 47  1  0  0  0
 19 27  1  0  0  0
 19 48  1  0  0  0
 19 49  1  0  0  0
 20 24  2  0  0  0
 20 25  1  0  0  0
 21 23  2  0  0  0
 21 50  1  0  0  0
 22 23  1  0  0  0
 22 51  1  0  0  0
 23 52  1  0  0  0
 24 29  1  0  0  0
 24 53  1  0  0  0
 25 28  2  0  0  0
 25 54  1  0  0  0
 26 27  1  0  0  0
 26 55  1  0  0  0
 26 56  1  0  0  0
 27 57  1  0  0  0
 27 58  1  0  0  0
 28 30  1  0  0  0
 28 59  1  0  0  0
 29 30  2  0  0  0
 29 60  1  0  0  0
 30 61  1  0  0  0
M  END
> <s_m_entry_id>
35196

> <s_m_entry_name>
dock_pv.46

> <s_m_Source_Path>
/home/csk/Desktop/cluster/DUD-E-result/thrb

> <s_m_Source_File>
dock_pv.maegz

> <i_m_Source_File_Index>
46

> <chembl_id>
CHEMBL553840

> <chembl_pref_name>
None

> <i_lp_mmshare_version>
53161

> <r_lp_tautomer_probability>
1

> <s_lp_Force_Field>
OPLS_2005

> <r_lp_Energy>
75.582183

> <b_lp_Chiralities_Consistent>
1

> <s_lp_Variant>
CHEMBL204_lig1906-1

> <s_i_glide_gridfile>
glide-grid_1ype

> <i_i_glide_lignum>
2848

> <i_i_glide_rotatable_bonds>
5

> <r_i_docking_score>
-8.12865699092204

> <r_i_glide_ligand_efficiency>
-0.270955233030735

> <r_i_glide_ligand_efficiency_sa>
-0.841920906776888

> <r_i_glide_ligand_efficiency_ln>
-1.84691943714921

> <r_i_glide_gscore>
-8.12865699092204

> <r_i_glide_lipo>
-3.57449965125745

> <r_i_glide_hbond>
-0.920633369352271

> <r_i_glide_metal>
0

> <r_i_glide_rewards>
-0.859201204209972

> <r_i_glide_evdw>
-41.1357192993164

> <r_i_glide_ecoul>
-7.21873998641968

> <r_i_glide_erotb>
0.478018696732048

> <r_i_glide_esite>
-0.112744499905616

> <r_i_glide_emodel>
-69.4636400921853

> <r_i_glide_energy>
-48.3544592857361

> <r_i_glide_einternal>
2.41329002380371

> <i_i_glide_confnum>
18

> <i_i_glide_posenum>
139

> <r_i_glide_eff_state_penalty>
0

> <s_user_duplicate_titles>
CHEMBL204_lig1906,CHEMBL204_lig2694

> <i_f3d_flags>
0

> <s_m_subgroup_title>
dock_pv

> <s_m_subgroupid>
dock_pv

> <b_m_subgroup_collapsed>
1

$$$$
CHEMBL204_lig4203
                    3D
 Schrodinger Suite 2021-1.
 56 58  0  0  1  0            999 V2000
   17.6190  -15.1076   20.8667 C   0  0  0  0  0  0
   16.6737  -14.3695   20.1376 C   0  0  0  0  0  0
   16.9251  -13.0535   19.7416 C   0  0  0  0  0  0
   18.1411  -12.4620   20.1028 C   0  0  0  0  0  0
   19.0969  -13.1839   20.8152 C   0  0  0  0  0  0
   18.8528  -14.5169   21.1874 C   0  0  0  0  0  0
   17.4210  -16.4161   21.2770 O   0  0  0  0  0  0
   16.1518  -17.0516   21.1245 C   0  0  0  0  0  0
   19.7596  -15.3048   21.8766 O   0  0  0  0  0  0
   21.0881  -14.8484   22.1500 C   0  0  0  0  0  0
   21.2145  -14.1971   23.5273 C   0  0  0  0  0  0
   20.1081  -13.6458   24.1835 C   0  0  0  0  0  0
   20.2547  -13.0756   25.4445 C   0  0  0  0  0  0
   21.5049  -13.0552   26.0538 C   0  0  0  0  0  0
   22.6148  -13.5995   25.4107 C   0  0  0  0  0  0
   22.4692  -14.1632   24.1447 C   0  0  0  0  0  0
   15.8878  -12.2958   18.9429 C   0  0  2  0  0  0
   16.3964  -11.9625   17.5060 C   0  0  0  0  0  0
   16.8159  -12.8531   16.7762 O   0  0  0  0  0  0
   16.3199  -10.6531   17.1214 O   0  0  0  0  0  0
   15.3955  -11.1337   19.6688 N   0  0  0  0  0  0
   14.3882  -11.0819   20.6426 C   0  0  0  0  0  0
   13.7600  -12.2282   21.1284 C   0  0  0  0  0  0
   12.7711  -12.1210   22.1046 C   0  0  0  0  0  0
   12.3847  -10.8685   22.6182 C   0  0  0  0  0  0
   13.0233   -9.7281   22.0966 C   0  0  0  0  0  0
   14.0130   -9.8324   21.1243 C   0  0  0  0  0  0
   11.3610  -10.7265   23.6940 C   0  0  0  0  0  0
   11.2160   -9.6450   24.3205 N   0  0  0  0  0  0
   10.6084  -11.8525   23.9208 N   0  0  0  0  0  0
   15.1114  -16.5134   22.1221 C   0  0  0  0  0  0
   15.7337  -14.8143   19.8585 H   0  0  0  0  0  0
   18.3506  -11.4374   19.8303 H   0  0  0  0  0  0
   20.0190  -12.6877   21.0769 H   0  0  0  0  0  0
   15.7947  -16.9869   20.0970 H   0  0  0  0  0  0
   16.3038  -18.1144   21.3146 H   0  0  0  0  0  0
   21.7087  -15.7472   22.1474 H   0  0  0  0  0  0
   21.5014  -14.2063   21.3718 H   0  0  0  0  0  0
   19.1279  -13.6638   23.7307 H   0  0  0  0  0  0
   19.4004  -12.6534   25.9488 H   0  0  0  0  0  0
   21.6157  -12.6069   27.0315 H   0  0  0  0  0  0
   23.5825  -13.5831   25.8929 H   0  0  0  0  0  0
   23.3335  -14.5856   23.6536 H   0  0  0  0  0  0
   15.0360  -12.9546   18.7725 H   0  0  0  0  0  0
   15.7699  -10.1105   17.7025 H   0  0  0  0  0  0
   15.9151  -10.2746   19.5704 H   0  0  0  0  0  0
   14.0347  -13.2089   20.7717 H   0  0  0  0  0  0
   12.3284  -13.0386   22.4684 H   0  0  0  0  0  0
   12.7639   -8.7428   22.4584 H   0  0  0  0  0  0
   14.4906   -8.9339   20.7638 H   0  0  0  0  0  0
   10.4479   -9.7158   24.9773 H   0  0  0  0  0  0
    9.7993  -11.7921   24.5369 H   0  0  0  0  0  0
   10.8141  -12.7549   23.5080 H   0  0  0  0  0  0
   14.1642  -17.0435   22.0192 H   0  0  0  0  0  0
   15.4563  -16.6443   23.1491 H   0  0  0  0  0  0
   14.9116  -15.4534   21.9762 H   0  0  0  0  0  0
  1  6  1  0  0  0
  1  2  2  0  0  0
  1  7  1  0  0  0
  2  3  1  0  0  0
  2 32  1  0  0  0
  3  4  2  0  0  0
  3 17  1  0  0  0
  4  5  1  0  0  0
  4 33  1  0  0  0
  5  6  2  0  0  0
  5 34  1  0  0  0
  6  9  1  0  0  0
  7  8  1  0  0  0
  8 31  1  0  0  0
  8 35  1  0  0  0
  8 36  1  0  0  0
  9 10  1  0  0  0
 10 11  1  0  0  0
 10 37  1  0  0  0
 10 38  1  0  0  0
 11 16  1  0  0  0
 11 12  2  0  0  0
 12 13  1  0  0  0
 12 39  1  0  0  0
 13 14  2  0  0  0
 13 40  1  0  0  0
 14 15  1  0  0  0
 14 41  1  0  0  0
 15 16  2  0  0  0
 15 42  1  0  0  0
 16 43  1  0  0  0
 17 18  1  0  0  0
 17 21  1  0  0  0
 17 44  1  0  0  0
 18 19  2  0  0  0
 18 20  1  0  0  0
 20 45  1  0  0  0
 21 22  1  0  0  0
 21 46  1  0  0  0
 22 23  2  0  0  0
 22 27  1  0  0  0
 23 24  1  0  0  0
 23 47  1  0  0  0
 24 25  2  0  0  0
 24 48  1  0  0  0
 25 26  1  0  0  0
 25 28  1  0  0  0
 26 27  2  0  0  0
 26 49  1  0  0  0
 27 50  1  0  0  0
 28 29  2  0  0  0
 28 30  1  0  0  0
 29 51  1  0  0  0
 30 52  1  0  0  0
 30 53  1  0  0  0
 31 54  1  0  0  0
 31 55  1  0  0  0
 31 56  1  0  0  0
M  END
> <s_m_entry_id>
35198

> <s_m_entry_name>
dock_pv.48

> <s_m_Source_Path>
/home/csk/Desktop/cluster/DUD-E-result/thrb

> <s_m_Source_File>
dock_pv.maegz

> <i_m_Source_File_Index>
48

> <chembl_id>
CHEMBL198631

> <chembl_pref_name>
None

> <i_lp_mmshare_version>
53161

> <r_lp_tautomer_probability>
1

> <s_lp_Force_Field>
OPLS_2005

> <r_lp_Energy>
24.568886

> <b_lp_Chiralities_Consistent>
1

> <s_lp_Variant>
CHEMBL204_lig4203-1

> <s_i_glide_gridfile>
glide-grid_1ype

> <i_i_glide_lignum>
5848

> <i_i_glide_rotatable_bonds>
11

> <r_i_docking_score>
-8.12400191024392

> <r_i_glide_ligand_efficiency>
-0.262064577749804

> <r_i_glide_ligand_efficiency_sa>
-0.823244593278017

> <r_i_glide_ligand_efficiency_ln>
-1.8322114015183

> <r_i_glide_gscore>
-8.12400191024392

> <r_i_glide_lipo>
-3.70905487572972

> <r_i_glide_hbond>
-0.667560891548761

> <r_i_glide_metal>
0

> <r_i_glide_rewards>
-0.714709393589623

> <r_i_glide_evdw>
-39.463134765625

> <r_i_glide_ecoul>
-12.3076543807983

> <r_i_glide_erotb>
0.899474963815442

> <r_i_glide_esite>
-0.112846817790257

> <r_i_glide_emodel>
-77.7777946436142

> <r_i_glide_energy>
-51.7707891464233

> <r_i_glide_einternal>
2.25254797935486

> <i_i_glide_confnum>
109

> <i_i_glide_posenum>
357

> <r_i_glide_eff_state_penalty>
0

> <s_user_duplicate_titles>
CHEMBL204_lig4203

> <i_f3d_flags>
0

> <s_m_subgroup_title>
dock_pv

> <s_m_subgroupid>
dock_pv

> <b_m_subgroup_collapsed>
1

$$$$
CHEMBL204_lig1771
                    3D
 Schrodinger Suite 2021-1.
 61 64  0  0  1  0            999 V2000
   21.0966  -12.2559   19.1689 C   0  0  0  0  0  0
   19.7343  -11.9603   19.4592 O   0  0  0  0  0  0
   19.0782  -12.7569   20.3778 C   0  0  0  0  0  0
   19.6015  -13.8808   21.0410 C   0  0  0  0  0  0
   18.8331  -14.6111   21.9630 C   0  0  0  0  0  0
   17.5075  -14.2524   22.2465 C   0  0  0  0  0  0
   16.9577  -13.1628   21.5741 C   0  0  0  0  0  0
   15.6950  -12.6529   21.6207 N   0  0  0  0  0  0
   15.7330  -11.7031   20.7163 C   0  0  0  0  0  0
   14.6860  -11.0529   20.1366 N   0  0  0  0  0  0
   13.2593  -11.3595   20.2576 C   0  0  1  0  0  0
   12.9339  -12.7822   19.7392 C   0  0  0  0  0  0
   13.4945  -13.0545   18.5604 F   0  0  0  0  0  0
   12.6905  -11.0006   21.6408 C   0  0  0  0  0  0
   11.7993  -11.8486   22.3185 C   0  0  0  0  0  0
   11.2151  -11.4533   23.5203 C   0  0  0  0  0  0
   11.5160  -10.2112   24.0679 C   0  0  0  0  0  0
   12.4159   -9.3669   23.4225 C   0  0  0  0  0  0
   12.8173   -7.8530   24.1429 Cl  0  0  0  0  0  0
   12.9898   -9.7525   22.2115 C   0  0  0  0  0  0
   16.9468  -11.4714   20.1329 O   0  0  0  0  0  0
   17.7425  -12.4383   20.6643 C   0  0  0  0  0  0
   19.3943  -15.8075   22.6749 C   0  0  0  0  0  0
   18.9814  -16.9256   22.3610 O   0  0  0  0  0  0
   20.1258  -15.5698   23.7910 N   0  0  0  0  0  0
   20.0219  -16.5008   24.9326 C   0  0  0  0  0  0
   19.5553  -15.6570   26.1418 C   0  0  2  0  0  0
   18.0812  -15.2012   26.0823 C   0  0  0  0  0  0
   20.4749  -14.5784   26.3328 O   0  0  0  0  0  0
   20.5829  -13.6739   25.2391 C   0  0  0  0  0  0
   21.0424  -14.4174   23.9574 C   0  0  1  0  0  0
   22.5269  -14.8516   23.9456 C   0  0  0  0  0  0
   23.5375  -13.7078   23.7828 C   0  0  0  0  0  0
   24.8162  -14.2489   23.5201 O   0  0  0  0  0  0
   21.4730  -11.5451   18.4339 H   0  0  0  0  0  0
   21.7219  -12.1746   20.0591 H   0  0  0  0  0  0
   21.2092  -13.2549   18.7439 H   0  0  0  0  0  0
   20.6140  -14.2003   20.8406 H   0  0  0  0  0  0
   16.9024  -14.8192   22.9419 H   0  0  0  0  0  0
   14.9020  -10.5148   19.3087 H   0  0  0  0  0  0
   12.7578  -10.6693   19.5784 H   0  0  0  0  0  0
   13.2929  -13.5469   20.4286 H   0  0  0  0  0  0
   11.8615  -12.9275   19.6141 H   0  0  0  0  0  0
   11.5192  -12.8133   21.9227 H   0  0  0  0  0  0
   10.5099  -12.1049   24.0195 H   0  0  0  0  0  0
   11.0444   -9.9126   24.9927 H   0  0  0  0  0  0
   13.6689   -9.0746   21.7149 H   0  0  0  0  0  0
   20.9947  -16.9487   25.1385 H   0  0  0  0  0  0
   19.3191  -17.3163   24.7533 H   0  0  0  0  0  0
   19.6155  -16.2924   27.0249 H   0  0  0  0  0  0
   17.4115  -16.0574   26.0017 H   0  0  0  0  0  0
   17.8132  -14.6581   26.9868 H   0  0  0  0  0  0
   17.8736  -14.5528   25.2321 H   0  0  0  0  0  0
   21.2861  -12.8838   25.5017 H   0  0  0  0  0  0
   19.6308  -13.1680   25.0730 H   0  0  0  0  0  0
   20.9332  -13.7140   23.1350 H   0  0  0  0  0  0
   22.6664  -15.5546   23.1218 H   0  0  0  0  0  0
   22.7590  -15.4049   24.8559 H   0  0  0  0  0  0
   23.5490  -13.0527   24.6551 H   0  0  0  0  0  0
   23.2466  -13.0754   22.9448 H   0  0  0  0  0  0
   25.4613  -13.5364   23.4301 H   0  0  0  0  0  0
  1  2  1  0  0  0
  1 35  1  0  0  0
  1 36  1  0  0  0
  1 37  1  0  0  0
  2  3  1  0  0  0
  3  4  2  0  0  0
  3 22  1  0  0  0
  4  5  1  0  0  0
  4 38  1  0  0  0
  5  6  2  0  0  0
  5 23  1  0  0  0
  6  7  1  0  0  0
  6 39  1  0  0  0
  7  8  1  0  0  0
  7 22  2  0  0  0
  8  9  2  0  0  0
  9 10  1  0  0  0
  9 21  1  0  0  0
 10 11  1  0  0  0
 10 40  1  0  0  0
 11 12  1  0  0  0
 11 14  1  0  0  0
 11 41  1  0  0  0
 12 13  1  0  0  0
 12 42  1  0  0  0
 12 43  1  0  0  0
 14 15  2  0  0  0
 14 20  1  0  0  0
 15 16  1  0  0  0
 15 44  1  0  0  0
 16 17  2  0  0  0
 16 45  1  0  0  0
 17 18  1  0  0  0
 17 46  1  0  0  0
 18 19  1  0  0  0
 18 20  2  0  0  0
 20 47  1  0  0  0
 21 22  1  0  0  0
 23 24  2  0  0  0
 23 25  1  0  0  0
 25 26  1  0  0  0
 25 31  1  0  0  0
 26 27  1  0  0  0
 26 48  1  0  0  0
 26 49  1  0  0  0
 27 28  1  0  0  0
 27 29  1  0  0  0
 27 50  1  0  0  0
 28 51  1  0  0  0
 28 52  1  0  0  0
 28 53  1  0  0  0
 29 30  1  0  0  0
 30 31  1  0  0  0
 30 54  1  0  0  0
 30 55  1  0  0  0
 31 32  1  0  0  0
 31 56  1  0  0  0
 32 33  1  0  0  0
 32 57  1  0  0  0
 32 58  1  0  0  0
 33 34  1  0  0  0
 33 59  1  0  0  0
 33 60  1  0  0  0
 34 61  1  0  0  0
M  END
> <s_m_entry_id>
35199

> <s_m_entry_name>
dock_pv.49

> <s_m_Source_Path>
/home/csk/Desktop/cluster/DUD-E-result/thrb

> <s_m_Source_File>
dock_pv.maegz

> <i_m_Source_File_Index>
49

> <chembl_id>
CHEMBL3941250

> <chembl_pref_name>
None

> <i_lp_mmshare_version>
53161

> <r_lp_tautomer_probability>
1

> <s_lp_Force_Field>
OPLS_2005

> <r_lp_Energy>
43.45598

> <b_lp_Chiralities_Consistent>
1

> <s_lp_Variant>
CHEMBL204_lig1771-2

> <s_i_glide_gridfile>
glide-grid_1ype

> <i_i_glide_lignum>
2598

> <i_i_glide_rotatable_bonds>
10

> <r_i_docking_score>
-8.11916921272236

> <r_i_glide_ligand_efficiency>
-0.238799094491834

> <r_i_glide_ligand_efficiency_sa>
-0.773616363740773

> <r_i_glide_ligand_efficiency_ln>
-1.79375221407289

> <r_i_glide_gscore>
-8.11916921272236

> <r_i_glide_lipo>
-4.14860611371277

> <r_i_glide_hbond>
-0.850498109875514

> <r_i_glide_metal>
0

> <r_i_glide_rewards>
-0.152239681658318

> <r_i_glide_evdw>
-51.6868782043457

> <r_i_glide_ecoul>
-6.48284769058228

> <r_i_glide_erotb>
0.588945756328861

> <r_i_glide_esite>
0

> <r_i_glide_emodel>
-75.3450114884864

> <r_i_glide_energy>
-58.169725894928

> <r_i_glide_einternal>
22.1611557006836

> <i_i_glide_confnum>
17

> <i_i_glide_posenum>
203

> <r_i_glide_eff_state_penalty>
0

> <s_user_duplicate_titles>
CHEMBL204_lig1771

> <i_f3d_flags>
0

> <s_m_subgroup_title>
dock_pv

> <s_m_subgroupid>
dock_pv

> <b_m_subgroup_collapsed>
1

$$$$
CHEMBL204_lig731
                    3D
 Schrodinger Suite 2021-1.
 87 88  0  0  1  0            999 V2000
   15.7404  -11.3205   15.3792 S   0  0  0  0  0  0
   16.3227  -16.1366   21.9383 C   0  0  0  0  0  0
   17.5516  -12.1557   18.3018 C   0  0  0  0  0  0
   16.0313  -12.4585   18.0166 C   0  0  2  0  0  0
   15.7697  -12.6739   16.5429 N   0  0  1  0  0  0
   17.6813  -15.4289   22.1526 C   0  0  1  0  0  0
   15.7052  -16.0608   20.4829 C   0  0  0  0  0  0
   18.0454  -11.9061   19.5598 N   0  0  0  0  0  0
   17.7854  -14.1153   21.4588 N   0  0  0  0  0  0
   16.9463  -13.0669   21.5491 C   0  0  0  0  0  0
   11.8371  -11.4534   22.2805 C   0  0  0  0  0  0
   14.3775  -16.2644   20.4365 N   0  0  0  0  0  0
   14.4380  -10.6531   15.5184 O   0  0  0  0  0  0
   16.9733  -10.5381   15.5236 O   0  0  0  0  0  0
   17.2550  -11.7686   20.8003 C   0  0  0  0  0  0
   11.2230  -12.2391   23.2620 N   0  0  0  0  0  0
   12.1650  -16.6353   19.3773 C   0  0  0  0  0  0
   15.7452  -12.1345   13.6618 C   0  0  0  0  0  0
   15.7264  -16.7668   22.8195 O   0  0  0  0  0  0
   18.0263  -15.2862   23.6661 C   0  0  0  0  0  0
   18.3387  -12.2280   17.3549 O   0  0  0  0  0  0
   16.4155  -15.7951   19.5197 O   0  0  0  0  0  0
   16.0134  -13.0519   22.3388 O   0  0  0  0  0  0
   11.8175  -17.3248   20.3390 O   0  0  0  0  0  0
   12.1231  -11.9012   21.1289 N   0  0  0  0  0  0
   13.5930  -16.1056   19.2044 C   0  0  0  0  0  0
   12.0138  -10.1332   22.7399 N   0  0  0  0  0  0
   19.3276  -14.5835   24.0427 C   0  0  0  0  0  0
   11.3708  -16.2594   18.3592 O   0  0  0  0  0  0
   16.9063  -13.0723   13.3778 C   0  0  0  0  0  0
   14.9746  -11.4870   18.6221 C   0  0  0  0  0  0
   19.5041  -11.7751   19.7507 C   0  0  0  0  0  0
   13.0233  -11.1649   20.2589 C   0  0  0  0  0  0
   10.0109  -16.6586   18.3363 C   0  0  0  0  0  0
   20.5212  -14.7945   23.3125 C   0  0  0  0  0  0
   19.3960  -13.8544   25.2517 C   0  0  0  0  0  0
   16.8645  -14.3877   13.8457 C   0  0  0  0  0  0
   17.9711  -12.6465   12.5797 C   0  0  0  0  0  0
   13.9287  -12.1657   19.5292 C   0  0  0  0  0  0
    9.3181  -16.0414   17.1190 C   0  0  0  0  0  0
   17.8893  -15.2727   13.5211 C   0  0  0  0  0  0
   18.9920  -13.5344   12.2491 C   0  0  0  0  0  0
   21.7126  -14.2309   23.7499 C   0  0  0  0  0  0
   20.5960  -13.2988   25.6717 C   0  0  0  0  0  0
   18.9468  -14.8443   12.7207 C   0  0  0  0  0  0
   21.7494  -13.4845   24.9210 C   0  0  0  0  0  0
   15.8794  -13.4392   18.4660 H   0  0  0  0  0  0
   14.9431  -13.2645   16.4351 H   0  0  0  0  0  0
   18.4401  -16.0600   21.6936 H   0  0  0  0  0  0
   18.6040  -14.0037   20.8815 H   0  0  0  0  0  0
   13.8772  -16.4658   21.2944 H   0  0  0  0  0  0
   16.3780  -11.1340   20.7644 H   0  0  0  0  0  0
   17.8698  -11.1982   21.4982 H   0  0  0  0  0  0
   10.9791  -13.2050   23.0453 H   0  0  0  0  0  0
   10.4903  -11.8181   23.8139 H   0  0  0  0  0  0
   14.8157  -12.6809   13.5284 H   0  0  0  0  0  0
   15.7201  -11.3164   12.9430 H   0  0  0  0  0  0
   17.2170  -14.7422   24.1569 H   0  0  0  0  0  0
   18.0511  -16.2712   24.1382 H   0  0  0  0  0  0
   14.0529  -16.6448   18.3757 H   0  0  0  0  0  0
   13.5460  -15.0552   18.9224 H   0  0  0  0  0  0
   12.1958   -9.4329   22.0395 H   0  0  0  0  0  0
   11.3393   -9.8022   23.4128 H   0  0  0  0  0  0
   15.4524  -10.6531   19.1252 H   0  0  0  0  0  0
   14.4046  -10.9937   17.8454 H   0  0  0  0  0  0
   20.0392  -11.4947   18.8403 H   0  0  0  0  0  0
   19.7285  -11.0023   20.4915 H   0  0  0  0  0  0
   19.9294  -12.7171   20.1084 H   0  0  0  0  0  0
   13.6479  -10.4427   20.7921 H   0  0  0  0  0  0
   12.4290  -10.6147   19.5265 H   0  0  0  0  0  0
    9.5091  -16.3332   19.2488 H   0  0  0  0  0  0
    9.9524  -17.7471   18.2957 H   0  0  0  0  0  0
   20.5216  -15.3921   22.4132 H   0  0  0  0  0  0
   18.5107  -13.7262   25.8575 H   0  0  0  0  0  0
   16.0319  -14.7312   14.4444 H   0  0  0  0  0  0
   17.9925  -11.6396   12.1884 H   0  0  0  0  0  0
   13.3075  -12.8206   18.9165 H   0  0  0  0  0  0
   14.4173  -12.8098   20.2592 H   0  0  0  0  0  0
    8.2495  -16.2521   17.1218 H   0  0  0  0  0  0
    9.7392  -16.4286   16.1930 H   0  0  0  0  0  0
    9.4343  -14.9601   17.1210 H   0  0  0  0  0  0
   17.8583  -16.2919   13.8788 H   0  0  0  0  0  0
   19.8047  -13.2172   11.6145 H   0  0  0  0  0  0
   22.6184  -14.3840   23.1817 H   0  0  0  0  0  0
   20.6338  -12.7301   26.5909 H   0  0  0  0  0  0
   19.7364  -15.5342   12.4619 H   0  0  0  0  0  0
   22.6819  -13.0569   25.2589 H   0  0  0  0  0  0
  1  5  1  0  0  0
  1 13  2  0  0  0
  1 14  2  0  0  0
  1 18  1  0  0  0
  2  6  1  0  0  0
  2  7  1  0  0  0
  2 19  2  0  0  0
  3  4  1  0  0  0
  3  8  1  0  0  0
  3 21  2  0  0  0
  4  5  1  0  0  0
  4 31  1  0  0  0
  4 47  1  0  0  0
  5 48  1  0  0  0
  6  9  1  0  0  0
  6 20  1  0  0  0
  6 49  1  0  0  0
  7 12  1  0  0  0
  7 22  2  0  0  0
  8 15  1  0  0  0
  8 32  1  0  0  0
  9 10  1  0  0  0
  9 50  1  0  0  0
 10 15  1  0  0  0
 10 23  2  0  0  0
 11 25  2  0  0  0
 11 16  1  0  0  0
 11 27  1  0  0  0
 12 26  1  0  0  0
 12 51  1  0  0  0
 15 52  1  0  0  0
 15 53  1  0  0  0
 16 54  1  0  0  0
 16 55  1  0  0  0
 17 26  1  0  0  0
 17 24  2  0  0  0
 17 29  1  0  0  0
 18 30  1  0  0  0
 18 56  1  0  0  0
 18 57  1  0  0  0
 20 28  1  0  0  0
 20 58  1  0  0  0
 20 59  1  0  0  0
 25 33  1  0  0  0
 26 60  1  0  0  0
 26 61  1  0  0  0
 27 62  1  0  0  0
 27 63  1  0  0  0
 28 35  1  0  0  0
 28 36  2  0  0  0
 29 34  1  0  0  0
 30 37  2  0  0  0
 30 38  1  0  0  0
 31 39  1  0  0  0
 31 64  1  0  0  0
 31 65  1  0  0  0
 32 66  1  0  0  0
 32 67  1  0  0  0
 32 68  1  0  0  0
 33 39  1  0  0  0
 33 69  1  0  0  0
 33 70  1  0  0  0
 34 40  1  0  0  0
 34 71  1  0  0  0
 34 72  1  0  0  0
 35 43  2  0  0  0
 35 73  1  0  0  0
 36 44  1  0  0  0
 36 74  1  0  0  0
 37 41  1  0  0  0
 37 75  1  0  0  0
 38 42  2  0  0  0
 38 76  1  0  0  0
 39 77  1  0  0  0
 39 78  1  0  0  0
 40 79  1  0  0  0
 40 80  1  0  0  0
 40 81  1  0  0  0
 41 45  2  0  0  0
 41 82  1  0  0  0
 42 45  1  0  0  0
 42 83  1  0  0  0
 43 46  1  0  0  0
 43 84  1  0  0  0
 44 46  2  0  0  0
 44 85  1  0  0  0
 45 86  1  0  0  0
 46 87  1  0  0  0
M  END
> <s_m_entry_id>
35200

> <s_m_entry_name>
dock_pv.50

> <s_m_Source_Path>
/home/csk/Desktop/cluster/DUD-E-result/thrb

> <s_m_Source_File>
dock_pv.maegz

> <i_m_Source_File_Index>
50

> <chembl_id>
CHEMBL309068

> <chembl_pref_name>
None

> <i_lp_mmshare_version>
53161

> <r_lp_tautomer_probability>
0.99990000499975

> <s_lp_Force_Field>
OPLS_2005

> <r_lp_Energy>
17.558131

> <b_lp_Chiralities_Consistent>
1

> <s_lp_Variant>
CHEMBL204_lig731-1

> <s_i_glide_gridfile>
glide-grid_1ype

> <i_i_glide_lignum>
1089

> <i_i_glide_rotatable_bonds>
23

> <r_i_docking_score>
-8.10174970798479

> <r_i_glide_ligand_efficiency>
-0.176124993651843

> <r_i_glide_ligand_efficiency_sa>
-0.631064282731561

> <r_i_glide_ligand_efficiency_ln>
-1.67785284570429

> <r_i_glide_gscore>
-8.10174970798479

> <r_i_glide_lipo>
-2.47593489895249

> <r_i_glide_hbond>
-0.598108571747192

> <r_i_glide_metal>
0

> <r_i_glide_rewards>
-0.630480041086922

> <r_i_glide_evdw>
-56.330623626709

> <r_i_glide_ecoul>
-15.3123531341553

> <r_i_glide_erotb>
0.821384283164213

> <r_i_glide_esite>
-0.105226327903653

> <r_i_glide_emodel>
-100.797309406747

> <r_i_glide_energy>
-71.6429767608643

> <r_i_glide_einternal>
19.1542739868164

> <i_i_glide_confnum>
1

> <i_i_glide_posenum>
18

> <r_i_glide_eff_state_penalty>
0

> <s_user_duplicate_titles>
CHEMBL204_lig731

> <i_f3d_flags>
0

> <s_m_subgroup_title>
dock_pv

> <s_m_subgroupid>
dock_pv

> <b_m_subgroup_collapsed>
1

$$$$
CHEMBL204_lig542
                    3D
 Schrodinger Suite 2021-1.
 58 61  0  0  1  0            999 V2000
   16.8938  -12.5232   21.1354 N   0  0  0  0  0  0
   18.1015  -13.0653   21.4478 C   0  0  0  0  0  0
   16.7166  -11.9934   19.8941 C   0  0  0  0  0  0
   19.6114  -14.9518   24.4804 C   0  0  0  0  0  0
   19.4609  -14.2594   23.1030 C   0  0  0  0  0  0
   20.6067  -14.0878   25.3301 C   0  0  0  0  0  0
   19.1985  -13.0587   20.5330 C   0  0  0  0  0  0
   11.4949  -10.7317   23.5225 C   0  0  0  0  0  0
   18.2552  -13.6622   22.7189 C   0  0  0  0  0  0
   18.9908  -12.4624   19.2537 C   0  0  0  0  0  0
   17.7311  -11.9514   18.9436 C   0  0  0  0  0  0
   20.4189  -13.6562   20.9418 C   0  0  0  0  0  0
   12.4871  -10.9405   22.4325 C   0  0  0  0  0  0
   11.3242   -9.6038   24.0498 N   0  0  0  0  0  0
   15.4892  -11.4527   19.5586 O   0  0  0  0  0  0
   20.5271  -14.2528   22.1947 C   0  0  0  0  0  0
   20.2330  -13.3932   26.2791 O   0  0  0  0  0  0
   13.2648   -9.8603   21.9829 C   0  0  0  0  0  0
   12.7090  -12.1985   21.8393 C   0  0  0  0  0  0
   10.8122  -11.8522   23.9198 N   0  0  0  0  0  0
   14.4890  -11.2975   20.4907 C   0  0  0  0  0  0
   21.8943  -14.1864   24.9129 O   0  0  0  0  0  0
   13.6982  -12.3760   20.8767 C   0  0  0  0  0  0
   14.2612  -10.0377   21.0320 C   0  0  0  0  0  0
   20.1248  -16.4171   24.3803 C   0  0  0  0  0  0
   18.2898  -15.1838   25.2748 C   0  0  0  0  0  0
   20.1314  -12.3767   18.2489 C   0  0  0  0  0  0
   22.9285  -13.4626   25.5614 C   0  0  0  0  0  0
   19.6535  -17.1719   25.6351 C   0  0  0  0  0  0
   18.5605  -16.3085   26.2793 C   0  0  0  0  0  0
   24.1781  -13.4691   24.6744 C   0  0  0  0  0  0
   17.4033  -13.6467   23.3808 H   0  0  0  0  0  0
   17.5344  -11.5087   17.9786 H   0  0  0  0  0  0
   21.2717  -13.6725   20.2757 H   0  0  0  0  0  0
   10.5964   -9.6447   24.7526 H   0  0  0  0  0  0
   21.4657  -14.7187   22.4569 H   0  0  0  0  0  0
   13.1334   -8.8726   22.3996 H   0  0  0  0  0  0
   12.1357  -13.0648   22.1313 H   0  0  0  0  0  0
   10.0441  -11.7439   24.5751 H   0  0  0  0  0  0
   10.9442  -12.7720   23.5187 H   0  0  0  0  0  0
   13.8700  -13.3526   20.4504 H   0  0  0  0  0  0
   14.8735   -9.2009   20.7242 H   0  0  0  0  0  0
   19.6759  -16.8921   23.5041 H   0  0  0  0  0  0
   21.2015  -16.5100   24.2282 H   0  0  0  0  0  0
   17.9016  -14.2830   25.7518 H   0  0  0  0  0  0
   17.4985  -15.5214   24.6010 H   0  0  0  0  0  0
   19.7994  -11.9853   17.2867 H   0  0  0  0  0  0
   20.9167  -11.7230   18.6285 H   0  0  0  0  0  0
   20.5685  -13.3604   18.0743 H   0  0  0  0  0  0
   23.1457  -13.9221   26.5269 H   0  0  0  0  0  0
   22.6176  -12.4338   25.7505 H   0  0  0  0  0  0
   19.2749  -18.1620   25.3758 H   0  0  0  0  0  0
   20.4854  -17.3202   26.3260 H   0  0  0  0  0  0
   17.6573  -16.8797   26.5030 H   0  0  0  0  0  0
   18.9174  -15.8867   27.2218 H   0  0  0  0  0  0
   24.9706  -12.8706   25.1204 H   0  0  0  0  0  0
   23.9617  -13.0524   23.6875 H   0  0  0  0  0  0
   24.5613  -14.4833   24.5403 H   0  0  0  0  0  0
  1  2  1  0  0  0
  1  3  2  0  0  0
  2  7  1  0  0  0
  2  9  2  0  0  0
  3 11  1  0  0  0
  3 15  1  0  0  0
  4  5  1  0  0  0
  4  6  1  0  0  0
  4 25  1  0  0  0
  4 26  1  0  0  0
  5  9  1  0  0  0
  5 16  2  0  0  0
  6 17  2  0  0  0
  6 22  1  0  0  0
  7 12  2  0  0  0
  7 10  1  0  0  0
  8 13  1  0  0  0
  8 14  2  0  0  0
  8 20  1  0  0  0
  9 32  1  0  0  0
 10 11  2  0  0  0
 10 27  1  0  0  0
 11 33  1  0  0  0
 12 16  1  0  0  0
 12 34  1  0  0  0
 13 18  2  0  0  0
 13 19  1  0  0  0
 14 35  1  0  0  0
 15 21  1  0  0  0
 16 36  1  0  0  0
 18 24  1  0  0  0
 18 37  1  0  0  0
 19 23  2  0  0  0
 19 38  1  0  0  0
 20 39  1  0  0  0
 20 40  1  0  0  0
 21 23  1  0  0  0
 21 24  2  0  0  0
 22 28  1  0  0  0
 23 41  1  0  0  0
 24 42  1  0  0  0
 25 29  1  0  0  0
 25 43  1  0  0  0
 25 44  1  0  0  0
 26 30  1  0  0  0
 26 45  1  0  0  0
 26 46  1  0  0  0
 27 47  1  0  0  0
 27 48  1  0  0  0
 27 49  1  0  0  0
 28 31  1  0  0  0
 28 50  1  0  0  0
 28 51  1  0  0  0
 29 30  1  0  0  0
 29 52  1  0  0  0
 29 53  1  0  0  0
 30 54  1  0  0  0
 30 55  1  0  0  0
 31 56  1  0  0  0
 31 57  1  0  0  0
 31 58  1  0  0  0
M  END
> <s_m_entry_id>
35201

> <s_m_entry_name>
dock_pv.51

> <s_m_Source_Path>
/home/csk/Desktop/cluster/DUD-E-result/thrb

> <s_m_Source_File>
dock_pv.maegz

> <i_m_Source_File_Index>
51

> <chembl_id>
CHEMBL75828

> <chembl_pref_name>
None

> <i_lp_mmshare_version>
53161

> <r_lp_tautomer_probability>
1

> <s_lp_Force_Field>
OPLS_2005

> <r_lp_Energy>
38.884161

> <b_lp_Chiralities_Consistent>
1

> <s_lp_Variant>
CHEMBL204_lig542-1

> <s_i_glide_gridfile>
glide-grid_1ype

> <i_i_glide_lignum>
748

> <i_i_glide_rotatable_bonds>
7

> <r_i_docking_score>
-8.06547809124329

> <r_i_glide_ligand_efficiency>
-0.260176712620751

> <r_i_glide_ligand_efficiency_sa>
-0.817314090294075

> <r_i_glide_ligand_efficiency_ln>
-1.819012486794

> <r_i_glide_gscore>
-8.06547809124329

> <r_i_glide_lipo>
-3.92775395440289

> <r_i_glide_hbond>
-0.442632673692948

> <r_i_glide_metal>
0

> <r_i_glide_rewards>
-0.939123348493824

> <r_i_glide_evdw>
-48.5850372314453

> <r_i_glide_ecoul>
-5.36728477478027

> <r_i_glide_erotb>
0.566981536414656

> <r_i_glide_esite>
-0.0886050732789747

> <r_i_glide_emodel>
-79.4953274626662

> <r_i_glide_energy>
-53.9523220062256

> <r_i_glide_einternal>
3.37163901329041

> <i_i_glide_confnum>
64

> <i_i_glide_posenum>
103

> <r_i_glide_eff_state_penalty>
0

> <s_user_duplicate_titles>
CHEMBL204_lig542

> <i_f3d_flags>
0

> <s_m_subgroup_title>
dock_pv

> <s_m_subgroupid>
dock_pv

> <b_m_subgroup_collapsed>
1

$$$$
CHEMBL204_lig4219
                    3D
 Schrodinger Suite 2021-1.
 54 56  0  0  1  0            999 V2000
   18.3538  -16.1516   25.8347 C   0  0  0  0  0  0
   17.7124  -16.9597   24.2547 S   0  0  0  0  0  0
   17.2160  -15.5859   23.2558 N   0  0  0  0  0  0
   16.4878  -17.6824   24.6130 O   0  0  0  0  0  0
   18.8185  -17.6744   23.6102 O   0  0  0  0  0  0
   18.0042  -14.8567   22.3248 C   0  0  0  0  0  0
   17.4994  -13.4923   22.0877 C   0  0  0  0  0  0
   18.1668  -12.7378   21.1248 N   0  0  0  0  0  0
   19.2971  -13.2476   20.4765 C   0  0  0  0  0  0
   19.7822  -14.4835   20.7210 C   0  0  0  0  0  0
   19.0963  -15.3234   21.6765 C   0  0  0  0  0  0
   16.5322  -13.0530   22.7210 O   0  0  0  0  0  0
   20.0041  -12.3426   19.4714 C   0  0  0  0  0  0
   17.7006  -11.3261   20.9439 C   0  0  0  0  0  0
   16.2337  -11.1389   20.4900 C   0  0  0  0  0  0
   15.5668  -12.1527   19.9047 N   0  0  0  0  0  0
   15.7122  -10.0536   20.7210 O   0  0  0  0  0  0
   14.1636  -12.1164   19.4742 C   0  0  0  0  0  0
   13.1899  -11.7176   20.5762 C   0  0  0  0  0  0
   19.5667  -15.2644   25.6032 C   0  0  0  0  0  0
   19.4056  -13.8838   25.4761 C   0  0  0  0  0  0
   20.5182  -13.0651   25.3014 C   0  0  0  0  0  0
   21.7886  -13.6355   25.2417 C   0  0  0  0  0  0
   21.9544  -15.0147   25.3436 C   0  0  0  0  0  0
   20.8405  -15.8313   25.5210 C   0  0  0  0  0  0
   12.5512  -10.4948   20.8279 C   0  0  0  0  0  0
   11.7407  -10.4406   21.8692 N   0  0  0  0  0  0
   11.6553  -11.5873   22.4778 C   0  0  0  0  0  0
   12.6635  -12.8272   21.8171 S   0  0  0  0  0  0
   10.8170  -11.8530   23.5206 N   0  0  0  0  0  0
   12.6806   -9.2179   20.0348 C   0  0  0  0  0  0
   17.5260  -15.5891   26.2657 H   0  0  0  0  0  0
   18.5961  -16.9578   26.5261 H   0  0  0  0  0  0
   16.3771  -15.0951   23.5990 H   0  0  0  0  0  0
   20.6654  -14.8520   20.2167 H   0  0  0  0  0  0
   19.4589  -16.3276   21.8219 H   0  0  0  0  0  0
   20.8475  -12.8483   18.9976 H   0  0  0  0  0  0
   19.3212  -12.0405   18.6770 H   0  0  0  0  0  0
   20.4002  -11.4526   19.9617 H   0  0  0  0  0  0
   18.3363  -10.7296   20.2959 H   0  0  0  0  0  0
   17.7740  -10.8503   21.9210 H   0  0  0  0  0  0
   16.0657  -13.0090   19.7196 H   0  0  0  0  0  0
   13.9101  -13.1082   19.0976 H   0  0  0  0  0  0
   14.0776  -11.4530   18.6128 H   0  0  0  0  0  0
   18.4186  -13.4490   25.5210 H   0  0  0  0  0  0
   20.3976  -11.9943   25.2194 H   0  0  0  0  0  0
   22.6562  -13.0056   25.1136 H   0  0  0  0  0  0
   22.9428  -15.4477   25.2930 H   0  0  0  0  0  0
   20.9689  -16.9008   25.6048 H   0  0  0  0  0  0
   10.1487  -11.1670   23.8532 H   0  0  0  0  0  0
   10.6277  -12.8172   23.7822 H   0  0  0  0  0  0
   12.8160   -9.4185   18.9740 H   0  0  0  0  0  0
   11.8044   -8.5739   20.1182 H   0  0  0  0  0  0
   13.5457   -8.6530   20.3707 H   0  0  0  0  0  0
  1 20  1  0  0  0
  1  2  1  0  0  0
  1 32  1  0  0  0
  1 33  1  0  0  0
  2  5  2  0  0  0
  2  3  1  0  0  0
  2  4  2  0  0  0
  3  6  1  0  0  0
  3 34  1  0  0  0
  6 11  2  0  0  0
  6  7  1  0  0  0
  7  8  1  0  0  0
  7 12  2  0  0  0
  8  9  1  0  0  0
  8 14  1  0  0  0
  9 10  2  0  0  0
  9 13  1  0  0  0
 10 11  1  0  0  0
 10 35  1  0  0  0
 11 36  1  0  0  0
 13 37  1  0  0  0
 13 38  1  0  0  0
 13 39  1  0  0  0
 14 15  1  0  0  0
 14 40  1  0  0  0
 14 41  1  0  0  0
 15 16  1  0  0  0
 15 17  2  0  0  0
 16 18  1  0  0  0
 16 42  1  0  0  0
 18 19  1  0  0  0
 18 43  1  0  0  0
 18 44  1  0  0  0
 19 26  2  0  0  0
 19 29  1  0  0  0
 20 21  2  0  0  0
 20 25  1  0  0  0
 21 22  1  0  0  0
 21 45  1  0  0  0
 22 23  2  0  0  0
 22 46  1  0  0  0
 23 24  1  0  0  0
 23 47  1  0  0  0
 24 25  2  0  0  0
 24 48  1  0  0  0
 25 49  1  0  0  0
 26 27  1  0  0  0
 26 31  1  0  0  0
 27 28  2  0  0  0
 28 29  1  0  0  0
 28 30  1  0  0  0
 30 50  1  0  0  0
 30 51  1  0  0  0
 31 52  1  0  0  0
 31 53  1  0  0  0
 31 54  1  0  0  0
M  END
> <s_m_entry_id>
35202

> <s_m_entry_name>
dock_pv.52

> <s_m_Source_Path>
/home/csk/Desktop/cluster/DUD-E-result/thrb

> <s_m_Source_File>
dock_pv.maegz

> <i_m_Source_File_Index>
52

> <chembl_id>
CHEMBL371650

> <chembl_pref_name>
None

> <i_lp_mmshare_version>
53161

> <r_lp_tautomer_probability>
1

> <s_lp_Force_Field>
OPLS_2005

> <r_lp_Energy>
16.747463

> <b_lp_Chiralities_Consistent>
1

> <s_lp_Variant>
CHEMBL204_lig4219-1

> <s_i_glide_gridfile>
glide-grid_1ype

> <i_i_glide_lignum>
5858

> <i_i_glide_rotatable_bonds>
9

> <r_i_docking_score>
-8.0613611191586

> <r_i_glide_ligand_efficiency>
-0.260043907069632

> <r_i_glide_ligand_efficiency_sa>
-0.816896897505737

> <r_i_glide_ligand_efficiency_ln>
-1.81808398341886

> <r_i_glide_gscore>
-8.0613611191586

> <r_i_glide_lipo>
-3.25437681920405

> <r_i_glide_hbond>
-0.888304929324606

> <r_i_glide_metal>
0

> <r_i_glide_rewards>
-0.983905741102029

> <r_i_glide_evdw>
-47.4744415283203

> <r_i_glide_ecoul>
-8.10726547241211

> <r_i_glide_erotb>
0.756192248655047

> <r_i_glide_esite>
-0.101153980905131

> <r_i_glide_emodel>
-78.7583009198247

> <r_i_glide_energy>
-55.5817070007324

> <r_i_glide_einternal>
4.47017478942871

> <i_i_glide_confnum>
19

> <i_i_glide_posenum>
388

> <r_i_glide_eff_state_penalty>
0

> <s_user_duplicate_titles>
CHEMBL204_lig4219,335002

> <i_f3d_flags>
0

> <s_m_subgroup_title>
dock_pv

> <s_m_subgroupid>
dock_pv

> <b_m_subgroup_collapsed>
1

$$$$
CHEMBL204_lig4704
                    3D
 Schrodinger Suite 2021-1.
 57 59  0  0  1  0            999 V2000
   10.8160  -10.7655   24.3212 N   0  0  0  0  0  0
   11.7115   -9.8529   23.8361 C   0  0  0  0  0  0
   11.8888   -8.7007   24.3213 N   0  0  0  0  0  0
   12.5141  -10.3172   22.6696 C   0  0  0  0  0  0
   12.3678  -11.6003   22.1042 C   0  0  0  0  0  0
   13.1919  -12.0315   21.0668 C   0  0  0  0  0  0
   14.1858  -11.1885   20.5697 C   0  0  0  0  0  0
   15.1288  -11.6665   19.4751 C   0  0  0  0  0  0
   16.5283  -11.5495   19.8763 N   0  0  0  0  0  0
   17.5268  -12.2728   19.3556 C   0  0  0  0  0  0
   17.3959  -13.0355   18.3985 O   0  0  0  0  0  0
   18.8967  -12.1215   20.0461 C   0  0  2  0  0  0
   20.0669  -12.0617   19.0424 C   0  0  0  0  0  0
   21.2198  -12.7035   19.7776 C   0  0  0  0  0  0
   20.5417  -13.8244   20.5420 C   0  0  0  0  0  0
   19.2458  -13.2614   20.9251 N   0  0  0  0  0  0
   18.4875  -13.6785   21.9705 C   0  0  0  0  0  0
   17.4710  -13.0790   22.3203 O   0  0  0  0  0  0
   18.8724  -14.9594   22.7392 C   0  0  0  0  0  0
   19.0589  -14.7688   24.2650 C   0  0  0  0  0  0
   20.0526  -13.6678   24.7141 C   0  0  0  0  0  0
   20.2283  -13.6318   26.2389 C   0  0  0  0  0  0
   21.6015  -13.0061   26.4511 C   0  0  0  0  0  0
   22.4538  -13.6124   25.3414 C   0  0  0  0  0  0
   21.4901  -13.8143   24.1603 C   0  0  0  0  0  0
   14.3282   -9.9060   21.0977 C   0  0  0  0  0  0
   13.4953   -9.4737   22.1171 C   0  0  0  0  0  0
   10.1377  -10.4507   25.0098 H   0  0  0  0  0  0
   10.5706  -11.5840   23.7863 H   0  0  0  0  0  0
   12.6067   -8.1800   23.8462 H   0  0  0  0  0  0
   11.6315  -12.3005   22.4750 H   0  0  0  0  0  0
   13.0695  -13.0307   20.6747 H   0  0  0  0  0  0
   14.9710  -11.0531   18.5887 H   0  0  0  0  0  0
   14.8870  -12.6899   19.1781 H   0  0  0  0  0  0
   16.7254  -10.9428   20.6600 H   0  0  0  0  0  0
   18.9082  -11.2206   20.6631 H   0  0  0  0  0  0
   20.3212  -11.0531   18.7288 H   0  0  0  0  0  0
   19.8598  -12.6433   18.1426 H   0  0  0  0  0  0
   21.6498  -11.9892   20.4810 H   0  0  0  0  0  0
   22.0147  -13.0451   19.1201 H   0  0  0  0  0  0
   21.1684  -14.1286   21.3788 H   0  0  0  0  0  0
   20.3798  -14.6909   19.8991 H   0  0  0  0  0  0
   19.7484  -15.4530   22.3251 H   0  0  0  0  0  0
   18.0670  -15.6763   22.5775 H   0  0  0  0  0  0
   19.3672  -15.7260   24.6881 H   0  0  0  0  0  0
   18.0847  -14.5602   24.7123 H   0  0  0  0  0  0
   19.6580  -12.6996   24.3985 H   0  0  0  0  0  0
   20.2010  -14.6352   26.6670 H   0  0  0  0  0  0
   19.4501  -13.0532   26.7296 H   0  0  0  0  0  0
   21.9972  -13.2105   27.4443 H   0  0  0  0  0  0
   21.5385  -11.9229   26.3302 H   0  0  0  0  0  0
   22.8566  -14.5738   25.6683 H   0  0  0  0  0  0
   23.3040  -12.9772   25.0835 H   0  0  0  0  0  0
   21.6750  -13.0564   23.3972 H   0  0  0  0  0  0
   21.6614  -14.7867   23.6956 H   0  0  0  0  0  0
   15.0939   -9.2400   20.7240 H   0  0  0  0  0  0
   13.6655   -8.4784   22.4995 H   0  0  0  0  0  0
  1  2  1  0  0  0
  1 28  1  0  0  0
  1 29  1  0  0  0
  2  3  2  0  0  0
  2  4  1  0  0  0
  3 30  1  0  0  0
  4  5  2  0  0  0
  4 27  1  0  0  0
  5  6  1  0  0  0
  5 31  1  0  0  0
  6  7  2  0  0  0
  6 32  1  0  0  0
  7  8  1  0  0  0
  7 26  1  0  0  0
  8  9  1  0  0  0
  8 33  1  0  0  0
  8 34  1  0  0  0
  9 10  1  0  0  0
  9 35  1  0  0  0
 10 11  2  0  0  0
 10 12  1  0  0  0
 12 13  1  0  0  0
 12 16  1  0  0  0
 12 36  1  0  0  0
 13 14  1  0  0  0
 13 37  1  0  0  0
 13 38  1  0  0  0
 14 15  1  0  0  0
 14 39  1  0  0  0
 14 40  1  0  0  0
 15 16  1  0  0  0
 15 41  1  0  0  0
 15 42  1  0  0  0
 16 17  1  0  0  0
 17 18  2  0  0  0
 17 19  1  0  0  0
 19 20  1  0  0  0
 19 43  1  0  0  0
 19 44  1  0  0  0
 20 21  1  0  0  0
 20 45  1  0  0  0
 20 46  1  0  0  0
 21 22  1  0  0  0
 21 25  1  0  0  0
 21 47  1  0  0  0
 22 23  1  0  0  0
 22 48  1  0  0  0
 22 49  1  0  0  0
 23 24  1  0  0  0
 23 50  1  0  0  0
 23 51  1  0  0  0
 24 25  1  0  0  0
 24 52  1  0  0  0
 24 53  1  0  0  0
 25 54  1  0  0  0
 25 55  1  0  0  0
 26 27  2  0  0  0
 26 56  1  0  0  0
 27 57  1  0  0  0
M  END
> <s_m_entry_id>
35203

> <s_m_entry_name>
dock_pv.53

> <s_m_Source_Path>
/home/csk/Desktop/cluster/DUD-E-result/thrb

> <s_m_Source_File>
dock_pv.maegz

> <i_m_Source_File_Index>
53

> <chembl_id>
CHEMBL609619

> <chembl_pref_name>
None

> <i_lp_mmshare_version>
53161

> <r_lp_tautomer_probability>
1

> <s_lp_Force_Field>
OPLS_2005

> <r_lp_Energy>
34.349487

> <b_lp_Chiralities_Consistent>
1

> <s_lp_Variant>
CHEMBL204_lig4704-1

> <s_i_glide_gridfile>
glide-grid_1ype

> <i_i_glide_lignum>
6445

> <i_i_glide_rotatable_bonds>
9

> <r_i_docking_score>
-8.04986786355145

> <r_i_glide_ligand_efficiency>
-0.298143254205609

> <r_i_glide_ligand_efficiency_sa>
-0.894429761634197

> <r_i_glide_ligand_efficiency_ln>
-1.87387652619101

> <r_i_glide_gscore>
-8.04986786355145

> <r_i_glide_lipo>
-3.92666803611399

> <r_i_glide_hbond>
-0.149204274497859

> <r_i_glide_metal>
0

> <r_i_glide_rewards>
-1.81522742290401

> <r_i_glide_evdw>
-44.327709197998

> <r_i_glide_ecoul>
-5.5955924987793

> <r_i_glide_erotb>
0.983876029473921

> <r_i_glide_esite>
-0.0869198247927175

> <r_i_glide_emodel>
-70.4916194428495

> <r_i_glide_energy>
-49.9233016967773

> <r_i_glide_einternal>
4.3086838722229

> <i_i_glide_confnum>
12

> <i_i_glide_posenum>
248

> <r_i_glide_eff_state_penalty>
0

> <s_user_duplicate_titles>
CHEMBL204_lig4704

> <i_f3d_flags>
0

> <s_m_subgroup_title>
dock_pv

> <s_m_subgroupid>
dock_pv

> <b_m_subgroup_collapsed>
1

$$$$
CHEMBL204_lig4559
                    3D
 Schrodinger Suite 2021-1.
 65 68  0  0  1  0            999 V2000
   22.1510  -13.4535   25.5279 C   0  0  0  0  0  0
   22.3839  -14.8184   25.3814 C   0  0  0  0  0  0
   21.3263  -15.7171   25.5026 C   0  0  0  0  0  0
   20.0391  -15.2420   25.7678 C   0  0  0  0  0  0
   19.8091  -13.8702   25.8995 C   0  0  0  0  0  0
   20.8683  -12.9748   25.7905 C   0  0  0  0  0  0
   18.8861  -16.2207   25.9177 C   0  0  0  0  0  0
   18.1537  -16.7608   24.2637 S   0  0  0  0  0  0
   17.6156  -15.2403   23.5409 N   0  0  0  0  0  0
   16.9424  -17.5291   24.5671 O   0  0  0  0  0  0
   19.2185  -17.3584   23.4533 O   0  0  0  0  0  0
   18.1642  -14.5264   22.4379 C   0  0  0  0  0  0
   17.3568  -13.3499   22.0648 C   0  0  0  0  0  0
   17.7722  -12.6236   20.9569 N   0  0  0  0  0  0
   18.9517  -12.9665   20.2858 C   0  0  0  0  0  0
   19.7171  -14.0193   20.6462 C   0  0  0  0  0  0
   19.2982  -14.8350   21.7657 C   0  0  0  0  0  0
   16.3593  -13.0474   22.7206 O   0  0  0  0  0  0
   19.3941  -12.0692   19.1363 C   0  0  0  0  0  0
   16.9599  -11.4112   20.6334 C   0  0  0  0  0  0
   15.4518  -11.5802   20.3721 C   0  0  0  0  0  0
   14.3939  -10.7260   20.7199 C   0  0  0  0  0  0
   13.2171  -11.2150   20.3715 N   0  0  0  0  0  0
   13.4842  -12.3423   19.7752 C   0  0  0  0  0  0
   14.8241  -12.6280   19.7154 N   0  0  0  0  0  0
   14.4470   -9.3680   21.3802 C   0  0  0  0  0  0
   15.3888  -13.7987   19.0444 C   0  0  0  0  0  0
   15.6616  -13.6296   17.5437 C   0  0  0  0  0  0
   15.5210  -12.4105   16.9922 N   0  0  0  0  0  0
   16.0158  -14.6123   16.8972 O   0  0  0  0  0  0
   15.8309  -12.0941   15.6007 C   0  0  2  0  0  0
   17.2464  -11.5397   15.3723 C   0  0  0  0  0  0
   16.6161  -10.7327   14.2296 C   0  0  1  0  0  0
   15.3412  -10.7289   15.0895 C   0  0  0  0  0  0
   17.2160   -9.4532   13.9207 N   0  0  0  0  0  0
   22.9736  -12.7579   25.4433 H   0  0  0  0  0  0
   23.3827  -15.1779   25.1815 H   0  0  0  0  0  0
   21.5073  -16.7766   25.3924 H   0  0  0  0  0  0
   18.8162  -13.4948   26.0955 H   0  0  0  0  0  0
   20.6955  -11.9136   25.9058 H   0  0  0  0  0  0
   18.0723  -15.7905   26.4996 H   0  0  0  0  0  0
   19.2124  -17.1257   26.4289 H   0  0  0  0  0  0
   16.7249  -14.8792   23.9072 H   0  0  0  0  0  0
   20.6365  -14.2532   20.1254 H   0  0  0  0  0  0
   19.9192  -15.6687   22.0445 H   0  0  0  0  0  0
   20.3192  -12.4229   18.6817 H   0  0  0  0  0  0
   18.6383  -12.0395   18.3505 H   0  0  0  0  0  0
   19.5827  -11.0607   19.5069 H   0  0  0  0  0  0
   17.3748  -10.8846   19.7788 H   0  0  0  0  0  0
   17.1056  -10.7175   21.4672 H   0  0  0  0  0  0
   12.7627  -13.0152   19.3355 H   0  0  0  0  0  0
   14.4103   -9.4390   22.4664 H   0  0  0  0  0  0
   15.3643   -8.8381   21.1215 H   0  0  0  0  0  0
   13.6208   -8.7275   21.0725 H   0  0  0  0  0  0
   14.6856  -14.6229   19.1732 H   0  0  0  0  0  0
   16.3091  -14.1022   19.5355 H   0  0  0  0  0  0
   15.3576  -11.6311   17.6112 H   0  0  0  0  0  0
   15.6005  -12.9486   14.9511 H   0  0  0  0  0  0
   18.0180  -12.2550   15.0971 H   0  0  0  0  0  0
   17.6130  -10.9289   16.2015 H   0  0  0  0  0  0
   16.5083  -11.3086   13.3064 H   0  0  0  0  0  0
   15.3241   -9.9573   15.8630 H   0  0  0  0  0  0
   14.3956  -10.7052   14.5489 H   0  0  0  0  0  0
   16.6363   -8.9733   13.2296 H   0  0  0  0  0  0
   17.1920   -8.8550   14.7336 H   0  0  0  0  0  0
  1  6  1  0  0  0
  1  2  2  0  0  0
  1 36  1  0  0  0
  2  3  1  0  0  0
  2 37  1  0  0  0
  3  4  2  0  0  0
  3 38  1  0  0  0
  4  5  1  0  0  0
  4  7  1  0  0  0
  5  6  2  0  0  0
  5 39  1  0  0  0
  6 40  1  0  0  0
  7  8  1  0  0  0
  7 41  1  0  0  0
  7 42  1  0  0  0
  8  9  1  0  0  0
  8 10  2  0  0  0
  8 11  2  0  0  0
  9 12  1  0  0  0
  9 43  1  0  0  0
 12 17  2  0  0  0
 12 13  1  0  0  0
 13 18  2  0  0  0
 13 14  1  0  0  0
 14 20  1  0  0  0
 14 15  1  0  0  0
 15 19  1  0  0  0
 15 16  2  0  0  0
 16 17  1  0  0  0
 16 44  1  0  0  0
 17 45  1  0  0  0
 19 46  1  0  0  0
 19 47  1  0  0  0
 19 48  1  0  0  0
 20 21  1  0  0  0
 20 49  1  0  0  0
 20 50  1  0  0  0
 21 22  2  0  0  0
 21 25  1  0  0  0
 22 23  1  0  0  0
 22 26  1  0  0  0
 23 24  2  0  0  0
 24 25  1  0  0  0
 24 51  1  0  0  0
 25 27  1  0  0  0
 26 52  1  0  0  0
 26 53  1  0  0  0
 26 54  1  0  0  0
 27 28  1  0  0  0
 27 55  1  0  0  0
 27 56  1  0  0  0
 28 29  1  0  0  0
 28 30  2  0  0  0
 29 31  1  0  0  0
 29 57  1  0  0  0
 31 32  1  0  0  0
 31 34  1  0  0  0
 31 58  1  0  0  0
 32 33  1  0  0  0
 32 59  1  0  0  0
 32 60  1  0  0  0
 33 34  1  0  0  0
 33 35  1  0  0  0
 33 61  1  0  0  0
 34 62  1  0  0  0
 34 63  1  0  0  0
 35 64  1  0  0  0
 35 65  1  0  0  0
M  END
> <s_m_entry_id>
35204

> <s_m_entry_name>
dock_pv.54

> <s_m_Source_Path>
/home/csk/Desktop/cluster/DUD-E-result/thrb

> <s_m_Source_File>
dock_pv.maegz

> <i_m_Source_File_Index>
54

> <chembl_id>
CHEMBL402854

> <chembl_pref_name>
None

> <i_lp_mmshare_version>
53161

> <r_lp_tautomer_probability>
1

> <s_lp_Force_Field>
OPLS_2005

> <r_lp_Energy>
33.412153

> <b_lp_Chiralities_Consistent>
1

> <s_lp_Variant>
CHEMBL204_lig4559-2

> <s_i_glide_gridfile>
glide-grid_1ype

> <i_i_glide_lignum>
6229

> <i_i_glide_rotatable_bonds>
10

> <r_i_docking_score>
-8.04490404213864

> <r_i_glide_ligand_efficiency>
-0.229854401203961

> <r_i_glide_ligand_efficiency_sa>
-0.751868987135797

> <r_i_glide_ligand_efficiency_ln>
-1.76603498427479

> <r_i_glide_gscore>
-8.04490404213864

> <r_i_glide_lipo>
-3.34013700049708

> <r_i_glide_hbond>
-0.864

> <r_i_glide_metal>
0

> <r_i_glide_rewards>
-0.78868084900302

> <r_i_glide_evdw>
-45.7326393127441

> <r_i_glide_ecoul>
-9.90707206726074

> <r_i_glide_erotb>
0.738790875462167

> <r_i_glide_esite>
-0.0181842923743877

> <r_i_glide_emodel>
-74.9638328724508

> <r_i_glide_energy>
-55.6397113800049

> <r_i_glide_einternal>
11.2727422714233

> <i_i_glide_confnum>
55

> <i_i_glide_posenum>
98

> <r_i_glide_eff_state_penalty>
0

> <s_user_duplicate_titles>
CHEMBL204_lig4559

> <i_f3d_flags>
0

> <s_m_subgroup_title>
dock_pv

> <s_m_subgroupid>
dock_pv

> <b_m_subgroup_collapsed>
1

$$$$
CHEMBL204_lig4154
                    3D
 Schrodinger Suite 2021-1.
 57 59  0  0  1  0            999 V2000
   19.1568  -12.6674   21.3213 N   0  3  0  0  0  0
   18.8728  -12.1139   20.1017 C   0  0  0  0  0  0
   21.0621  -14.2750   25.2338 C   0  0  0  0  0  0
   20.1126  -13.6313   21.4946 C   0  0  0  0  0  0
   17.6652  -11.1787   19.9644 C   0  0  0  0  0  0
   13.1845  -11.5872   20.6378 C   0  0  0  0  0  0
   12.2935  -12.4697   21.2905 C   0  0  0  0  0  0
   16.3327  -11.9223   20.0835 C   0  0  0  0  0  0
   18.5034  -12.2535   22.3198 O   0  5  0  0  0  0
   20.4644  -14.2429   22.7474 N   0  0  0  0  0  0
   19.6361  -12.4930   18.9836 C   0  0  0  0  0  0
   22.5557  -14.5400   24.9681 C   0  0  0  0  0  0
   20.3328  -13.5728   24.0578 C   0  0  0  0  0  0
   11.6144  -12.0106   22.4263 C   0  0  0  0  0  0
   15.3304  -11.4530   19.3297 N   0  0  0  0  0  0
   23.3050  -13.4531   24.6293 N   0  0  0  0  0  0
   13.9795  -11.9983   19.3960 C   0  0  0  0  0  0
   13.4228  -10.3193   21.1972 C   0  0  0  0  0  0
   20.8166  -14.0640   20.3738 C   0  0  0  0  0  0
   16.1981  -12.8905   20.8305 O   0  0  0  0  0  0
   20.6220  -13.4541   19.1406 C   0  0  0  0  0  0
   20.9905  -13.5072   26.3217 F   0  0  0  0  0  0
   20.4404  -15.4194   25.5336 F   0  0  0  0  0  0
   12.0668  -13.9429   20.8964 C   0  0  2  0  0  0
   12.7876   -9.9181   22.3684 C   0  0  0  0  0  0
   11.8502  -10.7496   22.9641 C   0  0  0  0  0  0
   19.3776  -11.8531   17.3935 Cl  0  0  0  0  0  0
   13.2366  -14.7488   21.1955 N   0  0  0  0  0  0
   13.2166   -8.4265   23.1211 Cl  0  0  0  0  0  0
   24.6132  -13.6448   24.3186 C   0  0  0  0  0  0
   23.1018  -15.8306   25.0186 C   0  0  0  0  0  0
   11.6160  -14.2277   19.4550 C   0  0  0  0  0  0
   25.2156  -14.9023   24.3214 C   0  0  0  0  0  0
   24.4480  -16.0067   24.6907 C   0  0  0  0  0  0
   17.6751  -10.6531   19.0172 H   0  0  0  0  0  0
   17.7100  -10.4102   20.7365 H   0  0  0  0  0  0
   21.0799  -15.0440   22.7132 H   0  0  0  0  0  0
   20.7034  -12.5556   23.9302 H   0  0  0  0  0  0
   19.2693  -13.4993   24.2827 H   0  0  0  0  0  0
   10.9083  -12.6517   22.9330 H   0  0  0  0  0  0
   15.4620  -10.5950   18.8075 H   0  0  0  0  0  0
   14.0835  -13.0791   19.3408 H   0  0  0  0  0  0
   13.4234  -11.6925   18.5134 H   0  0  0  0  0  0
   14.1412   -9.6496   20.7513 H   0  0  0  0  0  0
   21.5792  -14.8297   20.4489 H   0  0  0  0  0  0
   21.2129  -13.7776   18.2930 H   0  0  0  0  0  0
   11.2610  -14.3263   21.5205 H   0  0  0  0  0  0
   11.3373  -10.4442   23.8642 H   0  0  0  0  0  0
   13.5041  -14.6198   22.1652 H   0  0  0  0  0  0
   13.0176  -15.7287   21.0747 H   0  0  0  0  0  0
   25.1824  -12.7672   24.0461 H   0  0  0  0  0  0
   22.5001  -16.6865   25.2928 H   0  0  0  0  0  0
   10.8165  -13.5614   19.1480 H   0  0  0  0  0  0
   12.4103  -14.1562   18.7205 H   0  0  0  0  0  0
   11.2191  -15.2401   19.3768 H   0  0  0  0  0  0
   26.2573  -15.0173   24.0553 H   0  0  0  0  0  0
   24.8920  -16.9901   24.7181 H   0  0  0  0  0  0
  1  2  1  0  0  0
  1  4  2  0  0  0
  1  9  1  0  0  0
  2  5  1  0  0  0
  2 11  2  0  0  0
  3 13  1  0  0  0
  3 12  1  0  0  0
  3 22  1  0  0  0
  3 23  1  0  0  0
  4 10  1  0  0  0
  4 19  1  0  0  0
  5  8  1  0  0  0
  5 35  1  0  0  0
  5 36  1  0  0  0
  6 17  1  0  0  0
  6  7  1  0  0  0
  6 18  2  0  0  0
  7 14  2  0  0  0
  7 24  1  0  0  0
  8 15  1  0  0  0
  8 20  2  0  0  0
 10 13  1  0  0  0
 10 37  1  0  0  0
 11 27  1  0  0  0
 11 21  1  0  0  0
 12 16  2  0  0  0
 12 31  1  0  0  0
 13 38  1  0  0  0
 13 39  1  0  0  0
 14 26  1  0  0  0
 14 40  1  0  0  0
 15 17  1  0  0  0
 15 41  1  0  0  0
 16 30  1  0  0  0
 17 42  1  0  0  0
 17 43  1  0  0  0
 18 25  1  0  0  0
 18 44  1  0  0  0
 19 21  2  0  0  0
 19 45  1  0  0  0
 21 46  1  0  0  0
 24 28  1  0  0  0
 24 32  1  0  0  0
 24 47  1  0  0  0
 25 26  2  0  0  0
 25 29  1  0  0  0
 26 48  1  0  0  0
 28 49  1  0  0  0
 28 50  1  0  0  0
 30 33  2  0  0  0
 30 51  1  0  0  0
 31 34  2  0  0  0
 31 52  1  0  0  0
 32 53  1  0  0  0
 32 54  1  0  0  0
 32 55  1  0  0  0
 33 34  1  0  0  0
 33 56  1  0  0  0
 34 57  1  0  0  0
M  CHG  2   1   1   9  -1
M  END
> <s_m_entry_id>
35205

> <s_m_entry_name>
dock_pv.55

> <s_m_Source_Path>
/home/csk/Desktop/cluster/DUD-E-result/thrb

> <s_m_Source_File>
dock_pv.maegz

> <i_m_Source_File_Index>
55

> <chembl_id>
CHEMBL197464

> <chembl_pref_name>
None

> <i_lp_mmshare_version>
53161

> <r_lp_tautomer_probability>
0.9999999999682

> <s_lp_Force_Field>
OPLS_2005

> <r_lp_Energy>
15.243555

> <b_lp_Chiralities_Consistent>
1

> <s_lp_Variant>
CHEMBL204_lig4154-1

> <s_i_glide_gridfile>
glide-grid_1ype

> <i_i_glide_lignum>
5771

> <i_i_glide_rotatable_bonds>
10

> <r_i_docking_score>
-8.02932491959721

> <r_i_glide_ligand_efficiency>
-0.236156615282271

> <r_i_glide_ligand_efficiency_sa>
-0.765055756918903

> <r_i_glide_ligand_efficiency_ln>
-1.77390308967448

> <r_i_glide_gscore>
-8.02932491959721

> <r_i_glide_lipo>
-3.71704670312201

> <r_i_glide_hbond>
-0.32

> <r_i_glide_metal>
0

> <r_i_glide_rewards>
-1.11569246831493

> <r_i_glide_evdw>
-48.5439529418945

> <r_i_glide_ecoul>
-7.1905837059021

> <r_i_glide_erotb>
0.629199454819771

> <r_i_glide_esite>
0

> <r_i_glide_emodel>
-81.8321434860843

> <r_i_glide_energy>
-55.7345366477966

> <r_i_glide_einternal>
6.70683336257935

> <i_i_glide_confnum>
99

> <i_i_glide_posenum>
206

> <r_i_glide_eff_state_penalty>
0

> <s_user_duplicate_titles>
CHEMBL204_lig4154,326152

> <i_f3d_flags>
0

> <s_m_subgroup_title>
dock_pv

> <s_m_subgroupid>
dock_pv

> <b_m_subgroup_collapsed>
1

$$$$
CHEMBL204_lig4525
                    3D
 Schrodinger Suite 2021-1.
 66 71  0  0  1  0            999 V2000
   14.4162  -11.8807   18.3318 N   0  0  0  0  0  0
   13.9245  -12.4608   19.4528 N   0  0  0  0  0  0
   14.0845  -13.8431   19.3699 C   0  0  0  0  0  0
   14.6894  -14.0776   18.1433 C   0  0  0  0  0  0
   14.8917  -12.8273   17.5558 C   0  0  0  0  0  0
   13.5335  -11.5832   20.5120 C   0  0  0  0  0  0
   14.3033  -10.4239   20.7248 C   0  0  0  0  0  0
   13.9647   -9.4671   21.6768 C   0  0  0  0  0  0
   12.4152  -11.8313   21.3302 C   0  0  0  0  0  0
   12.1376  -10.9466   22.3889 C   0  0  0  0  0  0
   12.8837   -9.7679   22.5035 C   0  0  0  0  0  0
   12.4270   -9.0193   23.5453 O   0  0  0  0  0  0
   11.4147   -9.7472   24.1841 N   0  0  0  0  0  0
   11.2636  -10.8681   23.5170 C   0  0  0  0  0  0
   10.4193  -11.8528   23.9206 N   0  0  0  0  0  0
   13.7601  -14.7907   20.4441 C   0  0  0  0  0  0
   12.7477  -14.7507   21.1350 O   0  0  0  0  0  0
   14.7793  -15.9032   20.7230 C   0  0  0  0  0  0
   15.9133  -15.4741   21.6630 C   0  0  0  0  0  0
   16.3461  -14.1451   21.7895 C   0  0  0  0  0  0
   17.4014  -13.8288   22.6354 C   0  0  0  0  0  0
   18.0678  -14.8327   23.3359 C   0  0  0  0  0  0
   17.6225  -16.1526   23.2406 C   0  0  0  0  0  0
   16.5544  -16.4704   22.4043 C   0  0  0  0  0  0
   15.6030  -12.4688   16.2620 C   0  0  0  0  0  0
   15.6487  -13.5079   15.4294 F   0  0  0  0  0  0
   14.9970  -11.4641   15.6264 F   0  0  0  0  0  0
   16.8596  -12.0906   16.5035 F   0  0  0  0  0  0
   19.3137  -14.5041   24.0665 C   0  0  0  0  0  0
   19.2787  -14.2222   25.4347 C   0  0  0  0  0  0
   20.4460  -13.8775   26.1161 C   0  0  0  0  0  0
   21.6631  -13.8369   25.4400 C   0  0  0  0  0  0
   21.7131  -14.1233   24.0760 C   0  0  0  0  0  0
   20.5427  -14.4442   23.3802 C   0  0  0  0  0  0
   20.6078  -14.7254   21.8788 C   0  0  0  0  0  0
   20.1324  -13.5625   21.1260 N   0  0  0  0  0  0
   21.1985  -12.7033   20.6616 C   0  0  0  0  0  0
   20.5394  -11.7357   19.6800 C   0  0  0  0  0  0
   19.3392  -12.5251   19.1541 C   0  0  0  0  0  0
   19.4455  -13.8616   19.8892 C   0  0  0  0  0  0
   14.9899  -15.0323   17.7337 H   0  0  0  0  0  0
   15.1900  -10.2508   20.1311 H   0  0  0  0  0  0
   14.5537   -8.5739   21.8213 H   0  0  0  0  0  0
   11.7697  -12.6795   21.1791 H   0  0  0  0  0  0
   10.4368  -12.7864   23.5223 H   0  0  0  0  0  0
    9.6729  -11.6711   24.5941 H   0  0  0  0  0  0
   15.2008  -16.2693   19.7873 H   0  0  0  0  0  0
   14.2495  -16.7424   21.1754 H   0  0  0  0  0  0
   15.8940  -13.3401   21.2333 H   0  0  0  0  0  0
   17.7556  -12.8085   22.6865 H   0  0  0  0  0  0
   18.1344  -16.9383   23.7775 H   0  0  0  0  0  0
   16.2381  -17.5002   22.3220 H   0  0  0  0  0  0
   18.3403  -14.2525   25.9691 H   0  0  0  0  0  0
   20.4067  -13.6409   27.1689 H   0  0  0  0  0  0
   22.5666  -13.5760   25.9721 H   0  0  0  0  0  0
   22.6600  -14.0751   23.5574 H   0  0  0  0  0  0
   19.9890  -15.6000   21.6701 H   0  0  0  0  0  0
   21.6134  -15.0229   21.5812 H   0  0  0  0  0  0
   22.0187  -13.2600   20.2120 H   0  0  0  0  0  0
   21.6196  -12.2520   21.5468 H   0  0  0  0  0  0
   21.2310  -11.4562   18.8844 H   0  0  0  0  0  0
   20.2283  -10.8194   20.1825 H   0  0  0  0  0  0
   18.3924  -12.0327   19.3797 H   0  0  0  0  0  0
   19.3856  -12.6731   18.0752 H   0  0  0  0  0  0
   18.4752  -14.3109   20.1010 H   0  0  0  0  0  0
   19.9964  -14.6140   19.3266 H   0  0  0  0  0  0
  1  5  2  0  0  0
  1  2  1  0  0  0
  2  6  1  0  0  0
  2  3  1  0  0  0
  3 16  1  0  0  0
  3  4  2  0  0  0
  4  5  1  0  0  0
  4 41  1  0  0  0
  5 25  1  0  0  0
  6  9  1  0  0  0
  6  7  2  0  0  0
  7  8  1  0  0  0
  7 42  1  0  0  0
  8 11  2  0  0  0
  8 43  1  0  0  0
  9 10  2  0  0  0
  9 44  1  0  0  0
 10 11  1  0  0  0
 10 14  1  0  0  0
 11 12  1  0  0  0
 12 13  1  0  0  0
 13 14  2  0  0  0
 14 15  1  0  0  0
 15 45  1  0  0  0
 15 46  1  0  0  0
 16 17  2  0  0  0
 16 18  1  0  0  0
 18 19  1  0  0  0
 18 47  1  0  0  0
 18 48  1  0  0  0
 19 20  2  0  0  0
 19 24  1  0  0  0
 20 21  1  0  0  0
 20 49  1  0  0  0
 21 22  2  0  0  0
 21 50  1  0  0  0
 22 23  1  0  0  0
 22 29  1  0  0  0
 23 24  2  0  0  0
 23 51  1  0  0  0
 24 52  1  0  0  0
 25 26  1  0  0  0
 25 27  1  0  0  0
 25 28  1  0  0  0
 29 30  2  0  0  0
 29 34  1  0  0  0
 30 31  1  0  0  0
 30 53  1  0  0  0
 31 32  2  0  0  0
 31 54  1  0  0  0
 32 33  1  0  0  0
 32 55  1  0  0  0
 33 34  2  0  0  0
 33 56  1  0  0  0
 34 35  1  0  0  0
 35 36  1  0  0  0
 35 57  1  0  0  0
 35 58  1  0  0  0
 36 37  1  0  0  0
 36 40  1  0  0  0
 37 38  1  0  0  0
 37 59  1  0  0  0
 37 60  1  0  0  0
 38 39  1  0  0  0
 38 61  1  0  0  0
 38 62  1  0  0  0
 39 40  1  0  0  0
 39 63  1  0  0  0
 39 64  1  0  0  0
 40 65  1  0  0  0
 40 66  1  0  0  0
M  END
> <s_m_entry_id>
35206

> <s_m_entry_name>
dock_pv.56

> <s_m_Source_Path>
/home/csk/Desktop/cluster/DUD-E-result/thrb

> <s_m_Source_File>
dock_pv.maegz

> <i_m_Source_File_Index>
56

> <chembl_id>
CHEMBL252453

> <chembl_pref_name>
None

> <i_lp_mmshare_version>
53161

> <r_lp_tautomer_probability>
0.99990000499975

> <s_lp_Force_Field>
OPLS_2005

> <r_lp_Energy>
63.329415

> <b_lp_Chiralities_Consistent>
1

> <s_lp_Variant>
CHEMBL204_lig4525-1

> <s_i_glide_gridfile>
glide-grid_1ype

> <i_i_glide_lignum>
6193

> <i_i_glide_rotatable_bonds>
8

> <r_i_docking_score>
-8.01013896632433

> <r_i_glide_ligand_efficiency>
-0.200253474158108

> <r_i_glide_ligand_efficiency_sa>
-0.684857247255499

> <r_i_glide_ligand_efficiency_ln>
-1.70832691365021

> <r_i_glide_gscore>
-8.01013896632433

> <r_i_glide_lipo>
-3.9994497959291

> <r_i_glide_hbond>
-0.456

> <r_i_glide_metal>
0

> <r_i_glide_rewards>
-0.460068404716207

> <r_i_glide_evdw>
-53.3529243469238

> <r_i_glide_ecoul>
-5.0981502532959

> <r_i_glide_erotb>
0.486959014307825

> <r_i_glide_esite>
-0.14921102464627

> <r_i_glide_emodel>
-77.6953949023444

> <r_i_glide_energy>
-58.4510746002197

> <r_i_glide_einternal>
9.99899196624756

> <i_i_glide_confnum>
14

> <i_i_glide_posenum>
136

> <r_i_glide_eff_state_penalty>
0

> <s_user_duplicate_titles>
CHEMBL204_lig4525,422658

> <i_f3d_flags>
0

> <s_m_subgroup_title>
dock_pv

> <s_m_subgroupid>
dock_pv

> <b_m_subgroup_collapsed>
1

$$$$
CHEMBL204_lig4734
                    3D
 Schrodinger Suite 2021-1.
 69 72  0  0  1  0            999 V2000
   15.6265  -18.1399   21.5123 C   0  0  0  0  0  0
   14.2540  -17.4472   21.4712 C   0  0  0  0  0  0
   14.3783  -15.9284   21.6797 C   0  0  0  0  0  0
   13.1501  -15.2328   21.3196 N   0  0  2  0  0  0
   17.7430  -18.0776   22.6857 C   0  0  0  0  0  0
   16.2852  -17.9490   22.8066 N   0  0  2  0  0  0
   18.5228  -16.8180   23.1596 C   0  0  2  0  0  0
   13.3153  -13.8235   21.6493 C   0  0  0  0  0  0
   18.6970  -16.7637   24.6946 C   0  0  0  0  0  0
   17.9319  -15.5709   22.6655 N   0  0  0  0  0  0
   19.6964  -15.6998   25.1471 C   0  0  0  0  0  0
   19.2475  -14.4446   25.5667 C   0  0  0  0  0  0
   20.1672  -13.4731   25.9539 C   0  0  0  0  0  0
   21.5299  -13.7558   25.9183 C   0  0  0  0  0  0
   21.9844  -15.0038   25.5008 C   0  0  0  0  0  0
   21.0664  -15.9775   25.1149 C   0  0  0  0  0  0
   18.5346  -14.5995   21.8780 C   0  0  0  0  0  0
   17.7684  -13.3140   21.7422 C   0  0  0  0  0  0
   18.3711  -12.3806   20.9005 N   0  0  0  0  0  0
   19.6159  -12.6756   20.3372 C   0  0  0  0  0  0
   20.2392  -13.8609   20.5671 C   0  0  0  0  0  0
   19.6817  -14.8422   21.3388 N   0  0  0  0  0  0
   20.4048  -11.4526   19.3317 Cl  0  0  0  0  0  0
   16.7091  -13.0956   22.3470 O   0  0  0  0  0  0
   17.7158  -11.0475   20.8044 C   0  0  0  0  0  0
   16.3600  -11.1094   20.0620 C   0  0  0  0  0  0
   16.2898  -11.5631   18.9204 O   0  0  0  0  0  0
   15.2992  -10.6484   20.7489 N   0  0  0  0  0  0
   13.8851  -10.7154   20.3790 C   0  0  0  0  0  0
   12.9563  -10.6193   21.5954 C   0  0  0  0  0  0
   12.0724  -11.6524   21.9651 C   0  0  0  0  0  0
   11.2203  -11.4745   23.0667 C   0  0  0  0  0  0
   11.2697  -10.3073   23.8251 C   0  0  0  0  0  0
   12.1696   -9.3008   23.4883 C   0  0  0  0  0  0
   12.9856   -9.4460   22.3638 C   0  0  0  0  0  0
   12.2919   -7.8892   24.4783 Cl  0  0  0  0  0  0
   12.0755  -13.0043   21.2582 C   0  0  0  0  0  0
   15.5290  -19.2031   21.2961 H   0  0  0  0  0  0
   16.2342  -17.7089   20.7143 H   0  0  0  0  0  0
   13.5858  -17.8815   22.2138 H   0  0  0  0  0  0
   13.8017  -17.6482   20.4981 H   0  0  0  0  0  0
   15.1927  -15.5460   21.0602 H   0  0  0  0  0  0
   14.6487  -15.7447   22.7207 H   0  0  0  0  0  0
   12.3675  -15.5964   21.8483 H   0  0  0  0  0  0
   18.0650  -18.9504   23.2557 H   0  0  0  0  0  0
   18.0456  -18.2943   21.6594 H   0  0  0  0  0  0
   15.9509  -18.6506   23.4534 H   0  0  0  0  0  0
   19.5279  -16.9275   22.7477 H   0  0  0  0  0  0
   14.1981  -13.4126   21.1592 H   0  0  0  0  0  0
   13.4849  -13.7113   22.7199 H   0  0  0  0  0  0
   17.7336  -16.5966   25.1768 H   0  0  0  0  0  0
   19.0326  -17.7261   25.0766 H   0  0  0  0  0  0
   16.9907  -15.4028   22.9949 H   0  0  0  0  0  0
   18.1904  -14.2204   25.5854 H   0  0  0  0  0  0
   19.8301  -12.5018   26.2827 H   0  0  0  0  0  0
   22.2415  -13.0002   26.2196 H   0  0  0  0  0  0
   23.0443  -15.2149   25.4766 H   0  0  0  0  0  0
   21.4194  -16.9453   24.7863 H   0  0  0  0  0  0
   21.2092  -14.0705   20.1347 H   0  0  0  0  0  0
   17.5797  -10.6532   21.8108 H   0  0  0  0  0  0
   18.3503  -10.3199   20.3073 H   0  0  0  0  0  0
   15.4789  -10.2302   21.6548 H   0  0  0  0  0  0
   13.6261   -9.8668   19.7550 H   0  0  0  0  0  0
   13.6910  -11.5841   19.7505 H   0  0  0  0  0  0
   10.5333  -12.2553   23.3637 H   0  0  0  0  0  0
   10.6171  -10.1979   24.6809 H   0  0  0  0  0  0
   13.6764   -8.6569   22.1114 H   0  0  0  0  0  0
   11.9906  -12.8927   20.1767 H   0  0  0  0  0  0
   11.1786  -13.5485   21.5392 H   0  0  0  0  0  0
  1  2  1  0  0  0
  1  6  1  0  0  0
  1 38  1  0  0  0
  1 39  1  0  0  0
  2  3  1  0  0  0
  2 40  1  0  0  0
  2 41  1  0  0  0
  3  4  1  0  0  0
  3 42  1  0  0  0
  3 43  1  0  0  0
  4  8  1  0  0  0
  4 44  1  0  0  0
  5  6  1  0  0  0
  5  7  1  0  0  0
  5 45  1  0  0  0
  5 46  1  0  0  0
  6 47  1  0  0  0
  7  9  1  0  0  0
  7 10  1  0  0  0
  7 48  1  0  0  0
  8 37  1  0  0  0
  8 49  1  0  0  0
  8 50  1  0  0  0
  9 11  1  0  0  0
  9 51  1  0  0  0
  9 52  1  0  0  0
 10 17  1  0  0  0
 10 53  1  0  0  0
 11 12  2  0  0  0
 11 16  1  0  0  0
 12 13  1  0  0  0
 12 54  1  0  0  0
 13 14  2  0  0  0
 13 55  1  0  0  0
 14 15  1  0  0  0
 14 56  1  0  0  0
 15 16  2  0  0  0
 15 57  1  0  0  0
 16 58  1  0  0  0
 17 18  1  0  0  0
 17 22  2  0  0  0
 18 19  1  0  0  0
 18 24  2  0  0  0
 19 20  1  0  0  0
 19 25  1  0  0  0
 20 21  2  0  0  0
 20 23  1  0  0  0
 21 22  1  0  0  0
 21 59  1  0  0  0
 25 26  1  0  0  0
 25 60  1  0  0  0
 25 61  1  0  0  0
 26 27  2  0  0  0
 26 28  1  0  0  0
 28 29  1  0  0  0
 28 62  1  0  0  0
 29 30  1  0  0  0
 29 63  1  0  0  0
 29 64  1  0  0  0
 30 31  2  0  0  0
 30 35  1  0  0  0
 31 32  1  0  0  0
 31 37  1  0  0  0
 32 33  2  0  0  0
 32 65  1  0  0  0
 33 34  1  0  0  0
 33 66  1  0  0  0
 34 35  2  0  0  0
 34 36  1  0  0  0
 35 67  1  0  0  0
 37 68  1  0  0  0
 37 69  1  0  0  0
M  END
> <s_m_entry_id>
35207

> <s_m_entry_name>
dock_pv.57

> <s_m_Source_Path>
/home/csk/Desktop/cluster/DUD-E-result/thrb

> <s_m_Source_File>
dock_pv.maegz

> <i_m_Source_File_Index>
57

> <chembl_id>
CHEMBL1289648

> <chembl_pref_name>
None

> <i_lp_mmshare_version>
53161

> <r_lp_tautomer_probability>
1

> <s_lp_Force_Field>
OPLS_2005

> <r_lp_Energy>
43.101334

> <b_lp_Chiralities_Consistent>
1

> <s_lp_Variant>
CHEMBL204_lig4734-1

> <s_i_glide_gridfile>
glide-grid_1ype

> <i_i_glide_lignum>
6475

> <i_i_glide_rotatable_bonds>
2

> <r_i_docking_score>
-7.99852138537064

> <r_i_glide_ligand_efficiency>
-0.216176253658666

> <r_i_glide_ligand_efficiency_sa>
-0.720347235381327

> <r_i_glide_ligand_efficiency_ln>
-1.73469177654124

> <r_i_glide_gscore>
-7.99852138537064

> <r_i_glide_lipo>
-3.9950462353832

> <r_i_glide_hbond>
-0.0615105008689604

> <r_i_glide_metal>
0

> <r_i_glide_rewards>
-0.629964966088665

> <r_i_glide_evdw>
-55.9861793518066

> <r_i_glide_ecoul>
-4.35199928283691

> <r_i_glide_erotb>
0.140109176986053

> <r_i_glide_esite>
0

> <r_i_glide_emodel>
-79.0597084560307

> <r_i_glide_energy>
-60.3381786346436

> <r_i_glide_einternal>
0.999682426452637

> <i_i_glide_confnum>
43

> <i_i_glide_posenum>
227

> <r_i_glide_eff_state_penalty>
0

> <s_user_duplicate_titles>
CHEMBL204_lig4734

> <i_f3d_flags>
0

> <s_m_subgroup_title>
dock_pv

> <s_m_subgroupid>
dock_pv

> <b_m_subgroup_collapsed>
1

$$$$
CHEMBL204_lig4743
                    3D
 Schrodinger Suite 2021-1.
 56 58  0  0  1  0            999 V2000
   13.4424  -11.0845   21.2623 C   0  0  0  0  0  0
   13.4792   -9.8206   21.8692 C   0  0  0  0  0  0
   12.6160   -9.4815   22.9150 C   0  0  0  0  0  0
   11.6467  -10.4112   23.3134 C   0  0  0  0  0  0
   11.5806  -11.6625   22.7063 C   0  0  0  0  0  0
   12.4798  -12.0172   21.6949 C   0  0  0  0  0  0
   14.4782  -11.4007   20.1701 C   0  0  0  0  0  0
   15.8249  -11.4576   20.7212 N   0  0  0  0  0  0
   12.8184   -8.2547   23.5194 O   0  0  0  0  0  0
   16.9758  -11.3585   20.0454 C   0  0  0  0  0  0
   18.2508  -11.3468   20.9066 C   0  0  0  0  0  0
   18.7834  -12.7155   21.1357 N   0  0  0  0  0  0
   17.0482  -11.2489   18.8211 O   0  0  0  0  0  0
   19.9025  -13.2220   20.4682 C   0  0  0  0  0  0
   20.3404  -14.4849   20.7219 C   0  0  0  0  0  0
   19.7224  -15.3244   21.6065 N   0  0  0  0  0  0
   18.7142  -14.8693   22.2572 C   0  0  0  0  0  0
   18.1135  -13.4965   22.0771 C   0  0  0  0  0  0
   18.1438  -15.7884   23.1272 N   0  0  0  0  0  0
   17.6758  -15.4889   24.4818 C   0  0  0  0  0  0
   18.7003  -15.8246   25.5846 C   0  0  0  0  0  0
   19.9594  -14.9675   25.5713 C   0  0  0  0  0  0
   20.0375  -13.7906   26.3211 C   0  0  0  0  0  0
   21.2185  -13.0485   26.2868 C   0  0  0  0  0  0
   22.2925  -13.5033   25.5201 C   0  0  0  0  0  0
   22.1403  -14.6901   24.8001 C   0  0  0  0  0  0
   20.9976  -15.4225   24.8184 N   0  0  0  0  0  0
   20.6055  -12.3181   19.4635 C   0  0  0  0  0  0
   17.1050  -13.1000   22.6744 O   0  0  0  0  0  0
   12.4161  -13.3720   21.1536 C   0  0  0  0  0  0
   12.3778  -14.4436   20.7190 N   0  0  0  0  0  0
   12.1337   -7.9485   24.7285 C   0  0  0  0  0  0
   14.2324   -9.1056   21.5686 H   0  0  0  0  0  0
   10.9446  -10.1936   24.1019 H   0  0  0  0  0  0
   10.8259  -12.3565   23.0498 H   0  0  0  0  0  0
   14.2800  -12.3485   19.6690 H   0  0  0  0  0  0
   14.4064  -10.6531   19.3829 H   0  0  0  0  0  0
   15.9013  -11.8393   21.6566 H   0  0  0  0  0  0
   18.9858  -10.6527   20.5056 H   0  0  0  0  0  0
   18.0150  -10.8888   21.8690 H   0  0  0  0  0  0
   21.2096  -14.8761   20.2116 H   0  0  0  0  0  0
   18.5279  -16.7190   23.0475 H   0  0  0  0  0  0
   17.3062  -14.4738   24.6151 H   0  0  0  0  0  0
   16.7996  -16.1175   24.6458 H   0  0  0  0  0  0
   18.2208  -15.7194   26.5569 H   0  0  0  0  0  0
   18.9832  -16.8771   25.5253 H   0  0  0  0  0  0
   19.2154  -13.4539   26.9291 H   0  0  0  0  0  0
   21.2956  -12.1330   26.8543 H   0  0  0  0  0  0
   23.2184  -12.9497   25.4848 H   0  0  0  0  0  0
   22.9484  -15.0787   24.1991 H   0  0  0  0  0  0
   21.4366  -12.8309   18.9778 H   0  0  0  0  0  0
   19.9140  -11.9984   18.6830 H   0  0  0  0  0  0
   21.0154  -11.4368   19.9588 H   0  0  0  0  0  0
   12.4188   -6.9508   25.0615 H   0  0  0  0  0  0
   12.4164   -8.6484   25.5123 H   0  0  0  0  0  0
   11.0488   -7.9644   24.6443 H   0  0  0  0  0  0
  1  6  1  0  0  0
  1  2  2  0  0  0
  1  7  1  0  0  0
  2  3  1  0  0  0
  2 33  1  0  0  0
  3  9  1  0  0  0
  3  4  2  0  0  0
  4  5  1  0  0  0
  4 34  1  0  0  0
  5  6  2  0  0  0
  5 35  1  0  0  0
  6 30  1  0  0  0
  7  8  1  0  0  0
  7 36  1  0  0  0
  7 37  1  0  0  0
  8 10  1  0  0  0
  8 38  1  0  0  0
  9 32  1  0  0  0
 10 11  1  0  0  0
 10 13  2  0  0  0
 11 12  1  0  0  0
 11 39  1  0  0  0
 11 40  1  0  0  0
 12 18  1  0  0  0
 12 14  1  0  0  0
 14 15  2  0  0  0
 14 28  1  0  0  0
 15 16  1  0  0  0
 15 41  1  0  0  0
 16 17  2  0  0  0
 17 18  1  0  0  0
 17 19  1  0  0  0
 18 29  2  0  0  0
 19 20  1  0  0  0
 19 42  1  0  0  0
 20 21  1  0  0  0
 20 43  1  0  0  0
 20 44  1  0  0  0
 21 22  1  0  0  0
 21 45  1  0  0  0
 21 46  1  0  0  0
 22 23  2  0  0  0
 22 27  1  0  0  0
 23 24  1  0  0  0
 23 47  1  0  0  0
 24 25  2  0  0  0
 24 48  1  0  0  0
 25 26  1  0  0  0
 25 49  1  0  0  0
 26 27  2  0  0  0
 26 50  1  0  0  0
 28 51  1  0  0  0
 28 52  1  0  0  0
 28 53  1  0  0  0
 30 31  3  0  0  0
 32 54  1  0  0  0
 32 55  1  0  0  0
 32 56  1  0  0  0
M  END
> <s_m_entry_id>
35208

> <s_m_entry_name>
dock_pv.58

> <s_m_Source_Path>
/home/csk/Desktop/cluster/DUD-E-result/thrb

> <s_m_Source_File>
dock_pv.maegz

> <i_m_Source_File_Index>
58

> <chembl_id>
CHEMBL1682698

> <chembl_pref_name>
None

> <i_lp_mmshare_version>
53161

> <r_lp_tautomer_probability>
1

> <s_lp_Force_Field>
OPLS_2005

> <r_lp_Energy>
23.043861

> <b_lp_Chiralities_Consistent>
1

> <s_lp_Variant>
CHEMBL204_lig4743-1

> <s_i_glide_gridfile>
glide-grid_1ype

> <i_i_glide_lignum>
6485

> <i_i_glide_rotatable_bonds>
10

> <r_i_docking_score>
-7.99550132133844

> <r_i_glide_ligand_efficiency>
-0.249859416291826

> <r_i_glide_ligand_efficiency_sa>
-0.793254199615208

> <r_i_glide_ligand_efficiency_ln>
-1.79041069498216

> <r_i_glide_gscore>
-7.99550132133844

> <r_i_glide_lipo>
-4.19693373654224

> <r_i_glide_hbond>
-0.0338515847631464

> <r_i_glide_metal>
0

> <r_i_glide_rewards>
-1.2245347685387

> <r_i_glide_evdw>
-55.672908782959

> <r_i_glide_ecoul>
-4.05110311508179

> <r_i_glide_erotb>
0.851129674915871

> <r_i_glide_esite>
0

> <r_i_glide_emodel>
-76.5938210523568

> <r_i_glide_energy>
-59.7240118980408

> <r_i_glide_einternal>
24.1694736480713

> <i_i_glide_confnum>
56

> <i_i_glide_posenum>
210

> <r_i_glide_eff_state_penalty>
0

> <s_user_duplicate_titles>
CHEMBL204_lig4743

> <i_f3d_flags>
0

> <s_m_subgroup_title>
dock_pv

> <s_m_subgroupid>
dock_pv

> <b_m_subgroup_collapsed>
1

$$$$
CHEMBL204_lig5051
                    3D
 Schrodinger Suite 2021-1.
 48 51  0  0  1  0            999 V2000
   20.8999  -14.0159   25.2234 C   0  0  0  0  0  0
   21.7901  -14.2100   24.1523 C   0  0  0  0  0  0
   21.2653  -14.3761   22.8605 C   0  0  0  0  0  0
   19.5134  -14.0125   25.0697 C   0  0  0  0  0  0
   19.0221  -14.1984   23.7770 C   0  0  0  0  0  0
   19.8802  -14.3752   22.6587 C   0  0  0  0  0  0
   19.0418  -14.5252   21.5110 C   0  0  0  0  0  0
   17.7267  -14.4068   21.9236 C   0  0  0  0  0  0
   17.7326  -14.2530   23.2905 N   0  0  0  0  0  0
   16.4692  -14.5006   21.1201 C   0  0  0  0  0  0
   16.3355  -15.5193   20.1763 C   0  0  0  0  0  0
   15.1771  -15.5977   19.4137 C   0  0  0  0  0  0
   14.1656  -14.6608   19.5986 C   0  0  0  0  0  0
   14.3042  -13.6350   20.5519 C   0  0  0  0  0  0
   15.4626  -13.5908   21.2807 N   0  3  0  0  0  0
   23.2557  -14.2442   24.3634 C   0  0  0  0  0  0
   23.6192  -14.8782   25.5211 N   0  0  0  0  0  0
   24.0487  -13.7467   23.5214 N   0  0  0  0  0  0
   13.1607  -12.6009   20.7429 C   0  0  0  0  0  0
   12.5922  -12.6478   22.1961 C   0  0  0  0  0  0
   11.7479  -11.4376   22.6482 C   0  0  0  0  0  0
   12.4438  -10.1028   22.3710 C   0  0  0  0  0  0
   12.7899   -9.9757   20.8829 C   0  0  0  0  0  0
   13.6330  -11.1588   20.3463 C   0  0  0  0  0  0
   12.0200  -12.8506   19.9419 O   0  0  0  0  0  0
   15.6339  -12.6556   22.1142 O   0  5  0  0  0  0
   21.2894  -13.8598   26.2189 H   0  0  0  0  0  0
   21.9232  -14.5151   22.0127 H   0  0  0  0  0  0
   18.8603  -13.8685   25.9178 H   0  0  0  0  0  0
   19.3584  -14.6809   20.4910 H   0  0  0  0  0  0
   16.8724  -14.1807   23.8176 H   0  0  0  0  0  0
   17.1234  -16.2464   20.0373 H   0  0  0  0  0  0
   15.0579  -16.3829   18.6803 H   0  0  0  0  0  0
   13.2762  -14.7407   18.9887 H   0  0  0  0  0  0
   24.5835  -14.9037   25.8202 H   0  0  0  0  0  0
   22.9156  -15.2848   26.1162 H   0  0  0  0  0  0
   25.0099  -13.8460   23.8117 H   0  0  0  0  0  0
   12.0163  -13.5640   22.3209 H   0  0  0  0  0  0
   13.3870  -12.7880   22.9232 H   0  0  0  0  0  0
   10.7947  -11.4563   22.1219 H   0  0  0  0  0  0
   11.5043  -11.5217   23.7080 H   0  0  0  0  0  0
   11.7911   -9.2815   22.6721 H   0  0  0  0  0  0
   13.3443  -10.0182   22.9771 H   0  0  0  0  0  0
   11.8586   -9.9128   20.3210 H   0  0  0  0  0  0
   13.3109   -9.0337   20.7047 H   0  0  0  0  0  0
   14.6639  -10.9990   20.6570 H   0  0  0  0  0  0
   13.7127  -11.0896   19.2605 H   0  0  0  0  0  0
   11.3592  -13.2681   20.5017 H   0  0  0  0  0  0
  1  2  2  0  0  0
  1  4  1  0  0  0
  1 27  1  0  0  0
  2  3  1  0  0  0
  2 16  1  0  0  0
  3  6  2  0  0  0
  3 28  1  0  0  0
  4  5  2  0  0  0
  4 29  1  0  0  0
  5  6  1  0  0  0
  5  9  1  0  0  0
  6  7  1  0  0  0
  7  8  2  0  0  0
  7 30  1  0  0  0
  8  9  1  0  0  0
  8 10  1  0  0  0
  9 31  1  0  0  0
 10 11  2  0  0  0
 10 15  1  0  0  0
 11 12  1  0  0  0
 11 32  1  0  0  0
 12 13  2  0  0  0
 12 33  1  0  0  0
 13 14  1  0  0  0
 13 34  1  0  0  0
 14 15  2  0  0  0
 14 19  1  0  0  0
 15 26  1  0  0  0
 16 17  1  0  0  0
 16 18  2  0  0  0
 17 35  1  0  0  0
 17 36  1  0  0  0
 18 37  1  0  0  0
 19 20  1  0  0  0
 19 24  1  0  0  0
 19 25  1  0  0  0
 20 21  1  0  0  0
 20 38  1  0  0  0
 20 39  1  0  0  0
 21 22  1  0  0  0
 21 40  1  0  0  0
 21 41  1  0  0  0
 22 23  1  0  0  0
 22 42  1  0  0  0
 22 43  1  0  0  0
 23 24  1  0  0  0
 23 44  1  0  0  0
 23 45  1  0  0  0
 24 46  1  0  0  0
 24 47  1  0  0  0
 25 48  1  0  0  0
M  CHG  2  15   1  26  -1
M  END
> <s_m_entry_id>
35209

> <s_m_entry_name>
dock_pv.59

> <s_m_Source_Path>
/home/csk/Desktop/cluster/DUD-E-result/thrb

> <s_m_Source_File>
dock_pv.maegz

> <i_m_Source_File_Index>
59

> <chembl_id>
CHEMBL3632761

> <chembl_pref_name>
None

> <i_lp_mmshare_version>
53161

> <r_lp_tautomer_probability>
1

> <s_lp_Force_Field>
OPLS_2005

> <r_lp_Energy>
26.162303

> <b_lp_Chiralities_Consistent>
1

> <s_lp_Variant>
CHEMBL204_lig5051-1

> <s_i_glide_gridfile>
glide-grid_1ype

> <i_i_glide_lignum>
6919

> <i_i_glide_rotatable_bonds>
4

> <r_i_docking_score>
-7.99537249540936

> <r_i_glide_ligand_efficiency>
-0.307514326746514

> <r_i_glide_ligand_efficiency_sa>
-0.9110099829761

> <r_i_glide_ligand_efficiency_ln>
-1.87768699558991

> <r_i_glide_gscore>
-7.99537249540936

> <r_i_glide_lipo>
-2.57290095643398

> <r_i_glide_hbond>
-0.525311300894223

> <r_i_glide_metal>
0

> <r_i_glide_rewards>
-1.48024431233885

> <r_i_glide_evdw>
-37.8575668334961

> <r_i_glide_ecoul>
-12.2299671173096

> <r_i_glide_erotb>
0.310457483528935

> <r_i_glide_esite>
0

> <r_i_glide_emodel>
-72.4128749858015

> <r_i_glide_energy>
-50.0875339508057

> <r_i_glide_einternal>
0.969796359539032

> <i_i_glide_confnum>
3

> <i_i_glide_posenum>
93

> <r_i_glide_eff_state_penalty>
0

> <s_user_duplicate_titles>
CHEMBL204_lig5051

> <i_f3d_flags>
0

> <s_m_subgroup_title>
dock_pv

> <s_m_subgroupid>
dock_pv

> <b_m_subgroup_collapsed>
1

$$$$
CHEMBL204_lig5096
                    3D
 Schrodinger Suite 2021-1.
 55 58  0  0  1  0            999 V2000
   12.8757  -14.5086   21.1192 N   0  0  0  0  0  0
   12.2888  -13.3958   20.3973 C   0  0  0  0  0  0
   12.5685  -12.0767   21.1102 C   0  0  0  0  0  0
   11.6610  -11.6785   22.1003 C   0  0  0  0  0  0
   11.8470  -10.4891   22.8002 C   0  0  0  0  0  0
   12.9421   -9.6813   22.5134 C   0  0  0  0  0  0
   13.2149   -8.2533   23.4465 Cl  0  0  0  0  0  0
   13.8484  -10.0608   21.5211 C   0  0  0  0  0  0
   13.6878  -11.2655   20.8183 C   0  0  0  0  0  0
   14.7491  -11.6693   19.7840 C   0  0  0  0  0  0
   16.1361  -11.5260   20.2437 N   0  0  0  0  0  0
   17.1272  -12.3733   19.9115 C   0  0  0  0  0  0
   16.9925  -13.3174   19.1338 O   0  0  0  0  0  0
   18.5033  -12.1309   20.5705 C   0  0  2  0  0  0
   19.6182  -12.0617   19.5074 C   0  0  0  0  0  0
   20.8663  -12.5613   20.1973 C   0  0  0  0  0  0
   20.3334  -13.5907   21.1852 C   0  0  0  0  0  0
   18.9565  -13.1927   21.5088 N   0  0  0  0  0  0
   18.1813  -13.6824   22.5261 C   0  0  0  0  0  0
   17.0423  -13.2365   22.7058 O   0  0  0  0  0  0
   18.6761  -14.8002   23.5218 C   0  0  1  0  0  0
   17.6184  -15.1548   24.4114 O   0  0  0  0  0  0
   19.1600  -16.0857   22.7970 C   0  0  0  0  0  0
   20.6537  -16.2853   23.1139 C   0  0  0  0  0  0
   20.9761  -15.2037   24.1161 C   0  0  0  0  0  0
   22.1826  -15.0387   24.7159 N   0  0  0  0  0  0
   22.3101  -14.0084   25.5928 C   0  0  0  0  0  0
   21.2628  -13.1308   25.8949 C   0  0  0  0  0  0
   20.0359  -13.3161   25.2549 C   0  0  0  0  0  0
   19.8839  -14.3626   24.3369 C   0  0  0  0  0  0
   12.3579  -14.6360   21.9813 H   0  0  0  0  0  0
   12.7413  -15.3604   20.5949 H   0  0  0  0  0  0
   11.2160  -13.5527   20.3351 H   0  0  0  0  0  0
   12.6328  -13.3774   19.3646 H   0  0  0  0  0  0
   10.8055  -12.2960   22.3417 H   0  0  0  0  0  0
   11.1412  -10.2078   23.5723 H   0  0  0  0  0  0
   14.6995   -9.4264   21.3219 H   0  0  0  0  0  0
   14.5881  -12.6907   19.4404 H   0  0  0  0  0  0
   14.6100  -11.0540   18.8965 H   0  0  0  0  0  0
   16.3441  -10.7417   20.8436 H   0  0  0  0  0  0
   18.4856  -11.1981   21.1352 H   0  0  0  0  0  0
   19.4041  -12.7161   18.6602 H   0  0  0  0  0  0
   19.7612  -11.0530   19.1221 H   0  0  0  0  0  0
   21.6073  -12.9706   19.5073 H   0  0  0  0  0  0
   21.3430  -11.7342   20.7210 H   0  0  0  0  0  0
   20.3238  -14.5698   20.7067 H   0  0  0  0  0  0
   20.9936  -13.6220   22.0474 H   0  0  0  0  0  0
   16.7815  -14.8472   24.0339 H   0  0  0  0  0  0
   18.6150  -16.9623   23.1524 H   0  0  0  0  0  0
   18.9774  -16.0763   21.7212 H   0  0  0  0  0  0
   20.8357  -17.2814   23.5194 H   0  0  0  0  0  0
   21.2638  -16.1891   22.2155 H   0  0  0  0  0  0
   23.2744  -13.8989   26.0677 H   0  0  0  0  0  0
   21.3950  -12.3281   26.6071 H   0  0  0  0  0  0
   19.2164  -12.6536   25.4853 H   0  0  0  0  0  0
  1  2  1  0  0  0
  1 31  1  0  0  0
  1 32  1  0  0  0
  2  3  1  0  0  0
  2 33  1  0  0  0
  2 34  1  0  0  0
  3  4  2  0  0  0
  3  9  1  0  0  0
  4  5  1  0  0  0
  4 35  1  0  0  0
  5  6  2  0  0  0
  5 36  1  0  0  0
  6  7  1  0  0  0
  6  8  1  0  0  0
  8  9  2  0  0  0
  8 37  1  0  0  0
  9 10  1  0  0  0
 10 11  1  0  0  0
 10 38  1  0  0  0
 10 39  1  0  0  0
 11 12  1  0  0  0
 11 40  1  0  0  0
 12 13  2  0  0  0
 12 14  1  0  0  0
 14 15  1  0  0  0
 14 18  1  0  0  0
 14 41  1  0  0  0
 15 16  1  0  0  0
 15 42  1  0  0  0
 15 43  1  0  0  0
 16 17  1  0  0  0
 16 44  1  0  0  0
 16 45  1  0  0  0
 17 18  1  0  0  0
 17 46  1  0  0  0
 17 47  1  0  0  0
 18 19  1  0  0  0
 19 20  2  0  0  0
 19 21  1  0  0  0
 21 22  1  0  0  0
 21 23  1  0  0  0
 21 30  1  0  0  0
 22 48  1  0  0  0
 23 24  1  0  0  0
 23 49  1  0  0  0
 23 50  1  0  0  0
 24 25  1  0  0  0
 24 51  1  0  0  0
 24 52  1  0  0  0
 25 26  2  0  0  0
 25 30  1  0  0  0
 26 27  1  0  0  0
 27 28  2  0  0  0
 27 53  1  0  0  0
 28 29  1  0  0  0
 28 54  1  0  0  0
 29 30  2  0  0  0
 29 55  1  0  0  0
M  END
> <s_m_entry_id>
35210

> <s_m_entry_name>
dock_pv.60

> <s_m_Source_Path>
/home/csk/Desktop/cluster/DUD-E-result/thrb

> <s_m_Source_File>
dock_pv.maegz

> <i_m_Source_File_Index>
60

> <chembl_id>
CHEMBL3942477

> <chembl_pref_name>
None

> <i_lp_mmshare_version>
53161

> <r_lp_tautomer_probability>
1

> <s_lp_Force_Field>
OPLS_2005

> <r_lp_Energy>
34.179111

> <b_lp_Chiralities_Consistent>
1

> <s_lp_Variant>
CHEMBL204_lig5096-1

> <s_i_glide_gridfile>
glide-grid_1ype

> <i_i_glide_lignum>
6974

> <i_i_glide_rotatable_bonds>
8

> <r_i_docking_score>
-7.99239336728443

> <r_i_glide_ligand_efficiency>
-0.266413112242814

> <r_i_glide_ligand_efficiency_sa>
-0.827807481434694

> <r_i_glide_ligand_efficiency_ln>
-1.81595885714765

> <r_i_glide_gscore>
-7.99239336728443

> <r_i_glide_lipo>
-4.05124944128321

> <r_i_glide_hbond>
-0.127641510750431

> <r_i_glide_metal>
0

> <r_i_glide_rewards>
-1.1945837705528

> <r_i_glide_evdw>
-46.8947677612305

> <r_i_glide_ecoul>
-6.14778327941895

> <r_i_glide_erotb>
0.647987235276376

> <r_i_glide_esite>
0

> <r_i_glide_emodel>
-75.8519455997257

> <r_i_glide_energy>
-53.0425510406494

> <r_i_glide_einternal>
2.74448132514954

> <i_i_glide_confnum>
13

> <i_i_glide_posenum>
228

> <r_i_glide_eff_state_penalty>
0

> <s_user_duplicate_titles>
CHEMBL204_lig5096

> <i_f3d_flags>
0

> <s_m_subgroup_title>
dock_pv

> <s_m_subgroupid>
dock_pv

> <b_m_subgroup_collapsed>
1

$$$$
CHEMBL204_lig1147
                    3D
 Schrodinger Suite 2021-1.
 77 79  0  0  1  0            999 V2000
   15.4299  -13.4381   16.7101 N   0  0  0  0  0  0
   15.0165  -14.5877   17.1934 C   0  0  0  0  0  0
   16.0047  -13.5318   15.5177 C   0  0  0  0  0  0
   18.5668  -13.4898   21.1092 N   0  0  0  0  0  0
   17.9336  -13.7549   22.2904 C   0  0  0  0  0  0
   14.4145  -14.8215   18.5130 C   0  0  0  0  0  0
   16.6101  -12.4443   19.6900 C   0  0  0  0  0  0
   15.2658  -15.9282   16.1129 S   0  0  0  0  0  0
   18.0874  -12.4511   20.1516 C   0  0  2  0  0  0
   16.0160  -14.8285   15.0017 C   0  0  0  0  0  0
   15.8548  -13.5352   19.9138 N   0  0  0  0  0  0
   16.5940  -12.3451   14.8982 C   0  0  0  0  0  0
   14.4346  -13.6970   19.5548 C   0  0  2  0  0  0
   11.6144  -10.7661   23.4800 C   0  0  0  0  0  0
   18.2586  -15.0460   23.1473 C   0  0  1  0  0  0
   11.4351   -9.6499   24.3116 N   0  0  0  0  0  0
   16.9770  -13.0538   22.6407 O   0  0  0  0  0  0
   13.9016  -15.9105   18.7845 O   0  0  0  0  0  0
   16.2047  -11.4529   19.0854 O   0  0  0  0  0  0
   19.7334  -15.5560   23.2754 C   0  0  0  0  0  0
   17.5603  -12.3997   14.1304 O   0  0  0  0  0  0
   12.4186  -10.7531   22.4947 N   0  0  0  0  0  0
   10.8159  -11.8469   23.9208 N   0  0  0  0  0  0
   17.6161  -14.8692   24.4820 N   0  0  2  0  0  0
   19.8204  -14.0659   20.6102 C   0  0  0  0  0  0
   15.9521  -11.1985   15.2542 O   0  0  0  0  0  0
   20.8140  -14.6868   23.9215 C   0  0  0  0  0  0
   18.9738  -12.6538   18.9150 C   0  0  0  0  0  0
   20.2775  -13.1766   19.4647 C   0  0  0  0  0  0
   13.5692  -14.0180   20.8070 C   0  0  0  0  0  0
   12.3857  -11.8196   21.5045 C   0  0  0  0  0  0
   17.6556  -16.0081   25.3902 C   0  0  0  0  0  0
   16.4234   -9.9312   14.8073 C   0  0  0  0  0  0
   22.1661  -14.9722   23.6288 C   0  0  0  0  0  0
   20.5366  -13.7758   24.9692 C   0  0  0  0  0  0
   13.4630  -12.8718   21.8347 C   0  0  0  0  0  0
   17.5531   -9.4509   15.7295 C   0  0  0  0  0  0
   23.1895  -14.3454   24.3273 C   0  0  0  0  0  0
   21.5715  -13.1668   25.6647 C   0  0  0  0  0  0
   22.8909  -13.4535   25.3457 C   0  0  0  0  0  0
   18.3080  -11.4797   20.5994 H   0  0  0  0  0  0
   16.4103  -15.1777   14.0579 H   0  0  0  0  0  0
   16.2414  -14.2725   20.4863 H   0  0  0  0  0  0
   14.0365  -12.7903   19.0928 H   0  0  0  0  0  0
   17.7070  -15.8337   22.6331 H   0  0  0  0  0  0
   11.8075   -8.7742   23.9795 H   0  0  0  0  0  0
   10.5135   -9.5241   24.7113 H   0  0  0  0  0  0
   19.7328  -16.4821   23.8476 H   0  0  0  0  0  0
   20.0908  -15.9124   22.3126 H   0  0  0  0  0  0
   10.8166  -12.7207   23.4103 H   0  0  0  0  0  0
    9.8938  -11.6495   24.2959 H   0  0  0  0  0  0
   16.6287  -14.6528   24.3252 H   0  0  0  0  0  0
   19.6408  -15.0838   20.2630 H   0  0  0  0  0  0
   20.6168  -14.0610   21.3482 H   0  0  0  0  0  0
   18.5341  -13.4119   18.2663 H   0  0  0  0  0  0
   19.1000  -11.7489   18.3253 H   0  0  0  0  0  0
   20.8858  -13.7018   18.7278 H   0  0  0  0  0  0
   20.8656  -12.3449   19.8564 H   0  0  0  0  0  0
   12.5613  -14.3195   20.5108 H   0  0  0  0  0  0
   13.9967  -14.8832   21.3198 H   0  0  0  0  0  0
   12.5702  -11.3778   20.5245 H   0  0  0  0  0  0
   11.4056  -12.3012   21.4316 H   0  0  0  0  0  0
   17.1601  -15.7404   26.3204 H   0  0  0  0  0  0
   17.1517  -16.8770   24.9640 H   0  0  0  0  0  0
   18.6738  -16.2817   25.6646 H   0  0  0  0  0  0
   15.5968   -9.2210   14.8336 H   0  0  0  0  0  0
   16.7545   -9.9773   13.7678 H   0  0  0  0  0  0
   22.4134  -15.7025   22.8711 H   0  0  0  0  0  0
   19.5267  -13.5452   25.2678 H   0  0  0  0  0  0
   13.2122  -13.3164   22.7959 H   0  0  0  0  0  0
   14.4321  -12.3915   21.9736 H   0  0  0  0  0  0
   18.0101   -8.5326   15.3651 H   0  0  0  0  0  0
   18.3359  -10.1994   15.8410 H   0  0  0  0  0  0
   17.1550   -9.2592   16.7210 H   0  0  0  0  0  0
   24.2211  -14.5750   24.1010 H   0  0  0  0  0  0
   21.3473  -12.4741   26.4636 H   0  0  0  0  0  0
   23.6933  -12.9982   25.9047 H   0  0  0  0  0  0
  1  2  2  0  0  0
  1  3  1  0  0  0
  2  6  1  0  0  0
  2  8  1  0  0  0
  3 10  2  0  0  0
  3 12  1  0  0  0
  4  9  1  0  0  0
  4  5  1  0  0  0
  4 25  1  0  0  0
  5 15  1  0  0  0
  5 17  2  0  0  0
  6 13  1  0  0  0
  6 18  2  0  0  0
  7 11  1  0  0  0
  7  9  1  0  0  0
  7 19  2  0  0  0
  8 10  1  0  0  0
  9 28  1  0  0  0
  9 41  1  0  0  0
 10 42  1  0  0  0
 11 13  1  0  0  0
 11 43  1  0  0  0
 12 21  2  0  0  0
 12 26  1  0  0  0
 13 30  1  0  0  0
 13 44  1  0  0  0
 14 22  2  0  0  0
 14 16  1  0  0  0
 14 23  1  0  0  0
 15 20  1  0  0  0
 15 24  1  0  0  0
 15 45  1  0  0  0
 16 46  1  0  0  0
 16 47  1  0  0  0
 20 27  1  0  0  0
 20 48  1  0  0  0
 20 49  1  0  0  0
 22 31  1  0  0  0
 23 50  1  0  0  0
 23 51  1  0  0  0
 24 32  1  0  0  0
 24 52  1  0  0  0
 25 29  1  0  0  0
 25 53  1  0  0  0
 25 54  1  0  0  0
 26 33  1  0  0  0
 27 34  1  0  0  0
 27 35  2  0  0  0
 28 29  1  0  0  0
 28 55  1  0  0  0
 28 56  1  0  0  0
 29 57  1  0  0  0
 29 58  1  0  0  0
 30 36  1  0  0  0
 30 59  1  0  0  0
 30 60  1  0  0  0
 31 36  1  0  0  0
 31 61  1  0  0  0
 31 62  1  0  0  0
 32 63  1  0  0  0
 32 64  1  0  0  0
 32 65  1  0  0  0
 33 37  1  0  0  0
 33 66  1  0  0  0
 33 67  1  0  0  0
 34 38  2  0  0  0
 34 68  1  0  0  0
 35 39  1  0  0  0
 35 69  1  0  0  0
 36 70  1  0  0  0
 36 71  1  0  0  0
 37 72  1  0  0  0
 37 73  1  0  0  0
 37 74  1  0  0  0
 38 40  1  0  0  0
 38 75  1  0  0  0
 39 40  2  0  0  0
 39 76  1  0  0  0
 40 77  1  0  0  0
M  END
> <s_m_entry_id>
35211

> <s_m_entry_name>
dock_pv.61

> <s_m_Source_Path>
/home/csk/Desktop/cluster/DUD-E-result/thrb

> <s_m_Source_File>
dock_pv.maegz

> <i_m_Source_File_Index>
61

> <chembl_id>
CHEMBL175738

> <chembl_pref_name>
None

> <i_lp_mmshare_version>
53161

> <r_lp_tautomer_probability>
0.99990000499975

> <s_lp_Force_Field>
OPLS_2005

> <r_lp_Energy>
20.077141

> <b_lp_Chiralities_Consistent>
1

> <s_lp_Variant>
CHEMBL204_lig1147-2

> <s_i_glide_gridfile>
glide-grid_1ype

> <i_i_glide_lignum>
1818

> <i_i_glide_rotatable_bonds>
17

> <r_i_docking_score>
-7.99138387172499

> <r_i_glide_ligand_efficiency>
-0.199784596793125

> <r_i_glide_ligand_efficiency_sa>
-0.683253709225344

> <r_i_glide_ligand_efficiency_ln>
-1.70432700390996

> <r_i_glide_gscore>
-7.99138387172499

> <r_i_glide_lipo>
-2.64116133391416

> <r_i_glide_hbond>
-0.848996162662553

> <r_i_glide_metal>
0

> <r_i_glide_rewards>
-0.673905784093803

> <r_i_glide_evdw>
-55.9853134155273

> <r_i_glide_ecoul>
-11.2496671676636

> <r_i_glide_erotb>
0.801742973119795

> <r_i_glide_esite>
-0.142347818248363

> <r_i_glide_emodel>
-90.3530412360263

> <r_i_glide_energy>
-67.2349805831909

> <r_i_glide_einternal>
21.495662689209

> <i_i_glide_confnum>
3

> <i_i_glide_posenum>
179

> <r_i_glide_eff_state_penalty>
0

> <s_user_duplicate_titles>
CHEMBL204_lig1147

> <i_f3d_flags>
0

> <s_m_subgroup_title>
dock_pv

> <s_m_subgroupid>
dock_pv

> <b_m_subgroup_collapsed>
1

$$$$
CHEMBL204_lig4850
                    3D
 Schrodinger Suite 2021-1.
 59 61  0  0  1  0            999 V2000
   24.9389  -15.8004   25.1028 C   0  0  0  0  0  0
   25.2161  -14.6829   24.3208 C   0  0  0  0  0  0
   24.1979  -13.8533   23.8716 C   0  0  0  0  0  0
   22.8780  -14.1599   24.1829 C   0  0  0  0  0  0
   22.5831  -15.2832   24.9634 C   0  0  0  0  0  0
   23.6189  -16.0986   25.4258 C   0  0  0  0  0  0
   21.1433  -15.6807   25.2694 C   0  0  0  0  0  0
   19.9908  -14.2719   25.7869 S   0  0  0  0  0  0
   19.5769  -13.5009   24.2639 N   0  0  2  0  0  0
   18.7688  -14.8790   26.3203 O   0  0  0  0  0  0
   20.7598  -13.2990   26.5695 O   0  0  0  0  0  0
   18.7399  -14.1869   23.2853 C   0  0  0  0  0  0
   18.3014  -13.1967   22.1930 C   0  0  0  0  0  0
   17.2047  -12.6550   22.3209 O   0  0  0  0  0  0
   19.1273  -12.9358   21.1482 N   0  0  0  0  0  0
   18.8417  -11.9449   20.0843 C   0  0  1  0  0  0
   20.0907  -12.0167   19.1748 C   0  0  0  0  0  0
   21.1925  -12.5654   20.0628 C   0  0  0  0  0  0
   20.4456  -13.5437   20.9540 C   0  0  0  0  0  0
   17.5154  -12.2001   19.3328 C   0  0  0  0  0  0
   17.4686  -13.0523   18.4464 O   0  0  0  0  0  0
   16.4566  -11.4767   19.7316 N   0  0  0  0  0  0
   15.0793  -11.7145   19.2968 C   0  0  0  0  0  0
   14.0599  -11.4677   20.4072 C   0  0  0  0  0  0
   13.1636  -12.4725   20.7680 C   0  0  0  0  0  0
   12.2469  -12.2577   21.7927 C   0  0  0  0  0  0
   12.1975  -11.0369   22.4961 C   0  0  0  0  0  0
   13.0971  -10.0308   22.0982 C   0  0  0  0  0  0
   14.0159  -10.2403   21.0716 C   0  0  0  0  0  0
   11.2461  -10.7978   23.6245 C   0  0  0  0  0  0
   11.2161   -9.7033   24.2444 N   0  0  0  0  0  0
   10.4197  -11.8529   23.9210 N   0  0  0  0  0  0
   25.7448  -16.4280   25.4565 H   0  0  0  0  0  0
   26.2387  -14.4515   24.0650 H   0  0  0  0  0  0
   24.4327  -12.9884   23.2702 H   0  0  0  0  0  0
   22.0995  -13.5144   23.8114 H   0  0  0  0  0  0
   23.4069  -16.9689   26.0286 H   0  0  0  0  0  0
   20.6953  -16.1811   24.4132 H   0  0  0  0  0  0
   21.1217  -16.3866   26.0979 H   0  0  0  0  0  0
   20.2887  -12.8664   23.8923 H   0  0  0  0  0  0
   19.2509  -15.0490   22.8565 H   0  0  0  0  0  0
   17.8487  -14.5932   23.7665 H   0  0  0  0  0  0
   18.8101  -10.9633   20.5608 H   0  0  0  0  0  0
   20.3748  -11.0530   18.7574 H   0  0  0  0  0  0
   19.9430  -12.7039   18.3396 H   0  0  0  0  0  0
   21.6134  -11.7639   20.6710 H   0  0  0  0  0  0
   22.0116  -13.0194   19.5068 H   0  0  0  0  0  0
   20.9971  -13.7129   21.8789 H   0  0  0  0  0  0
   20.3173  -14.5056   20.4535 H   0  0  0  0  0  0
   16.5873  -10.7788   20.4519 H   0  0  0  0  0  0
   14.8580  -11.0530   18.4623 H   0  0  0  0  0  0
   14.9568  -12.7217   18.8955 H   0  0  0  0  0  0
   13.1803  -13.4306   20.2675 H   0  0  0  0  0  0
   11.5785  -13.0702   22.0338 H   0  0  0  0  0  0
   13.1023   -9.0749   22.6010 H   0  0  0  0  0  0
   14.7002   -9.4481   20.8076 H   0  0  0  0  0  0
   10.4811   -9.7180   24.9405 H   0  0  0  0  0  0
    9.6576  -11.7276   24.5864 H   0  0  0  0  0  0
   10.5477  -12.7760   23.5215 H   0  0  0  0  0  0
  1  2  2  0  0  0
  1  6  1  0  0  0
  1 33  1  0  0  0
  2  3  1  0  0  0
  2 34  1  0  0  0
  3  4  2  0  0  0
  3 35  1  0  0  0
  4  5  1  0  0  0
  4 36  1  0  0  0
  5  6  2  0  0  0
  5  7  1  0  0  0
  6 37  1  0  0  0
  7  8  1  0  0  0
  7 38  1  0  0  0
  7 39  1  0  0  0
  8  9  1  0  0  0
  8 10  2  0  0  0
  8 11  2  0  0  0
  9 12  1  0  0  0
  9 40  1  0  0  0
 12 13  1  0  0  0
 12 41  1  0  0  0
 12 42  1  0  0  0
 13 14  2  0  0  0
 13 15  1  0  0  0
 15 16  1  0  0  0
 15 19  1  0  0  0
 16 17  1  0  0  0
 16 20  1  0  0  0
 16 43  1  0  0  0
 17 18  1  0  0  0
 17 44  1  0  0  0
 17 45  1  0  0  0
 18 19  1  0  0  0
 18 46  1  0  0  0
 18 47  1  0  0  0
 19 48  1  0  0  0
 19 49  1  0  0  0
 20 21  2  0  0  0
 20 22  1  0  0  0
 22 23  1  0  0  0
 22 50  1  0  0  0
 23 24  1  0  0  0
 23 51  1  0  0  0
 23 52  1  0  0  0
 24 25  2  0  0  0
 24 29  1  0  0  0
 25 26  1  0  0  0
 25 53  1  0  0  0
 26 27  2  0  0  0
 26 54  1  0  0  0
 27 28  1  0  0  0
 27 30  1  0  0  0
 28 29  2  0  0  0
 28 55  1  0  0  0
 29 56  1  0  0  0
 30 31  2  0  0  0
 30 32  1  0  0  0
 31 57  1  0  0  0
 32 58  1  0  0  0
 32 59  1  0  0  0
M  END
> <s_m_entry_id>
35212

> <s_m_entry_name>
dock_pv.62

> <s_m_Source_Path>
/home/csk/Desktop/cluster/DUD-E-result/thrb

> <s_m_Source_File>
dock_pv.maegz

> <i_m_Source_File_Index>
62

> <chembl_id>
CHEMBL2152430

> <chembl_pref_name>
None

> <i_lp_mmshare_version>
53161

> <r_lp_tautomer_probability>
1

> <s_lp_Force_Field>
OPLS_2005

> <r_lp_Energy>
7.572277

> <b_lp_Chiralities_Consistent>
1

> <s_lp_Variant>
CHEMBL204_lig4850-1

> <s_i_glide_gridfile>
glide-grid_1ype

> <i_i_glide_lignum>
6634

> <i_i_glide_rotatable_bonds>
11

> <r_i_docking_score>
-7.98627253925075

> <r_i_glide_ligand_efficiency>
-0.249571016851586

> <r_i_glide_ligand_efficiency_sa>
-0.792338588466617

> <r_i_glide_ligand_efficiency_ln>
-1.78834411910563

> <r_i_glide_gscore>
-7.98627253925075

> <r_i_glide_lipo>
-3.18674626945481

> <r_i_glide_hbond>
-0.202846311026223

> <r_i_glide_metal>
0

> <r_i_glide_rewards>
-1.3763532145949

> <r_i_glide_evdw>
-51.447998046875

> <r_i_glide_ecoul>
-9.19472694396973

> <r_i_glide_erotb>
0.864353919478382

> <r_i_glide_esite>
-0.133071719713999

> <r_i_glide_emodel>
-84.3852082636365

> <r_i_glide_energy>
-60.6427249908447

> <r_i_glide_einternal>
11.916356086731

> <i_i_glide_confnum>
6

> <i_i_glide_posenum>
371

> <r_i_glide_eff_state_penalty>
0

> <s_user_duplicate_titles>
CHEMBL204_lig4850

> <i_f3d_flags>
0

> <s_m_subgroup_title>
dock_pv

> <s_m_subgroupid>
dock_pv

> <b_m_subgroup_collapsed>
1

$$$$
CHEMBL204_lig4261
                    3D
 Schrodinger Suite 2021-1.
 77 80  0  0  1  0            999 V2000
   18.7131  -12.5931   19.9017 N   0  0  0  0  0  0
   20.0499  -12.9270   19.3768 C   0  0  0  0  0  0
   20.6139  -13.9915   20.3493 C   0  0  0  0  0  0
   20.6652  -13.4927   21.8116 C   0  0  0  0  0  0
   19.2839  -12.9388   22.2331 C   0  0  0  0  0  0
   18.7007  -11.9325   21.2181 C   0  0  0  0  0  0
   17.6058  -12.6475   19.1198 C   0  0  0  0  0  0
   17.6872  -12.6531   17.8902 O   0  0  0  0  0  0
   16.1850  -12.8270   19.7233 C   0  0  1  0  0  0
   16.2041  -13.4667   21.0803 N   0  0  2  0  0  0
   15.3720  -11.5073   19.6985 C   0  0  0  0  0  0
   14.0306  -11.5971   20.4145 C   0  0  0  0  0  0
   13.1639  -12.6598   20.1624 C   0  0  0  0  0  0
   12.0160  -12.8088   20.9266 C   0  0  0  0  0  0
   11.7032  -11.8871   21.9210 C   0  0  0  0  0  0
   12.5173  -10.7648   22.1523 C   0  0  0  0  0  0
   13.6849  -10.6439   21.3746 C   0  0  0  0  0  0
   16.4337  -15.2120   21.2361 S   0  0  0  0  0  0
   17.4958  -15.6308   20.3210 O   0  0  0  0  0  0
   16.5278  -15.5331   22.6620 O   0  0  0  0  0  0
   14.8889  -15.8814   20.6437 C   0  0  0  0  0  0
   12.1949   -9.7457   23.1809 C   0  0  0  0  0  0
   12.8155   -8.6531   23.2214 N   0  0  0  0  0  0
   11.2156  -10.1109   24.0670 N   0  0  0  0  0  0
   21.1896  -14.5627   22.7957 C   0  0  0  0  0  0
   21.6417  -13.9608   24.1453 C   0  0  0  0  0  0
   14.8114  -16.4843   19.3866 C   0  0  0  0  0  0
   12.5037  -16.1137   20.9372 C   0  0  0  0  0  0
   13.7442  -15.7126   21.4180 C   0  0  0  0  0  0
   12.3830  -16.7075   19.6618 C   0  0  0  0  0  0
   13.5589  -16.9069   18.8754 C   0  0  0  0  0  0
   13.4344  -17.5044   17.5973 C   0  0  0  0  0  0
   12.1825  -17.8842   17.1199 C   0  0  0  0  0  0
   11.0372  -17.6769   17.8807 C   0  0  0  0  0  0
   11.1244  -17.0935   19.1409 C   0  0  0  0  0  0
   22.4995  -14.8735   25.0507 C   0  0  0  0  0  0
   23.6829  -15.4166   24.3789 N   0  0  0  0  0  0
   24.7608  -14.6125   23.9210 C   0  0  0  0  0  0
   25.6160  -15.0530   23.1209 N   0  0  0  0  0  0
   24.8160  -13.2844   24.3795 N   0  0  0  0  0  0
   20.6690  -12.0298   19.3841 H   0  0  0  0  0  0
   20.0230  -13.3110   18.3546 H   0  0  0  0  0  0
   21.6105  -14.3051   20.0338 H   0  0  0  0  0  0
   20.0114  -14.8989   20.2827 H   0  0  0  0  0  0
   21.3624  -12.6534   21.7920 H   0  0  0  0  0  0
   18.5896  -13.7677   22.3576 H   0  0  0  0  0  0
   19.3388  -12.4881   23.2237 H   0  0  0  0  0  0
   19.3352  -11.0541   21.1208 H   0  0  0  0  0  0
   17.7236  -11.5573   21.5232 H   0  0  0  0  0  0
   15.6724  -13.5413   19.0769 H   0  0  0  0  0  0
   15.5009  -13.0966   21.7238 H   0  0  0  0  0  0
   15.9617  -10.7104   20.1570 H   0  0  0  0  0  0
   15.1931  -11.1942   18.6682 H   0  0  0  0  0  0
   13.3917  -13.3993   19.4072 H   0  0  0  0  0  0
   11.3528  -13.6419   20.7489 H   0  0  0  0  0  0
   10.7940  -12.0538   22.4820 H   0  0  0  0  0  0
   14.3581   -9.8144   21.5418 H   0  0  0  0  0  0
   12.5098   -8.0901   24.0018 H   0  0  0  0  0  0
   10.8564   -9.4434   24.7315 H   0  0  0  0  0  0
   10.6539  -10.9335   23.9050 H   0  0  0  0  0  0
   22.0179  -15.0840   22.3234 H   0  0  0  0  0  0
   20.4310  -15.3284   22.9639 H   0  0  0  0  0  0
   20.7667  -13.6340   24.7095 H   0  0  0  0  0  0
   22.2081  -13.0531   23.9485 H   0  0  0  0  0  0
   15.6974  -16.6101   18.7792 H   0  0  0  0  0  0
   11.6142  -15.9389   21.5215 H   0  0  0  0  0  0
   13.8075  -15.2275   22.3827 H   0  0  0  0  0  0
   14.3139  -17.6552   16.9874 H   0  0  0  0  0  0
   12.0943  -18.3209   16.1350 H   0  0  0  0  0  0
   10.0731  -17.9630   17.4874 H   0  0  0  0  0  0
   10.2298  -16.9278   19.7226 H   0  0  0  0  0  0
   21.9000  -15.7226   25.3820 H   0  0  0  0  0  0
   22.7952  -14.3363   25.9545 H   0  0  0  0  0  0
   23.4948  -16.2396   23.8259 H   0  0  0  0  0  0
   26.3140  -14.3500   22.8961 H   0  0  0  0  0  0
   25.6513  -12.7566   24.1788 H   0  0  0  0  0  0
   24.4408  -13.0888   25.2945 H   0  0  0  0  0  0
  1  7  1  0  0  0
  1  2  1  0  0  0
  1  6  1  0  0  0
  2  3  1  0  0  0
  2 41  1  0  0  0
  2 42  1  0  0  0
  3  4  1  0  0  0
  3 43  1  0  0  0
  3 44  1  0  0  0
  4  5  1  0  0  0
  4 25  1  0  0  0
  4 45  1  0  0  0
  5  6  1  0  0  0
  5 46  1  0  0  0
  5 47  1  0  0  0
  6 48  1  0  0  0
  6 49  1  0  0  0
  7  8  2  0  0  0
  7  9  1  0  0  0
  9 11  1  0  0  0
  9 10  1  0  0  0
  9 50  1  0  0  0
 10 18  1  0  0  0
 10 51  1  0  0  0
 11 12  1  0  0  0
 11 52  1  0  0  0
 11 53  1  0  0  0
 12 13  2  0  0  0
 12 17  1  0  0  0
 13 14  1  0  0  0
 13 54  1  0  0  0
 14 15  2  0  0  0
 14 55  1  0  0  0
 15 16  1  0  0  0
 15 56  1  0  0  0
 16 22  1  0  0  0
 16 17  2  0  0  0
 17 57  1  0  0  0
 18 21  1  0  0  0
 18 19  2  0  0  0
 18 20  2  0  0  0
 21 27  2  0  0  0
 21 29  1  0  0  0
 22 23  2  0  0  0
 22 24  1  0  0  0
 23 58  1  0  0  0
 24 59  1  0  0  0
 24 60  1  0  0  0
 25 26  1  0  0  0
 25 61  1  0  0  0
 25 62  1  0  0  0
 26 36  1  0  0  0
 26 63  1  0  0  0
 26 64  1  0  0  0
 27 31  1  0  0  0
 27 65  1  0  0  0
 28 30  1  0  0  0
 28 29  2  0  0  0
 28 66  1  0  0  0
 29 67  1  0  0  0
 30 31  1  0  0  0
 30 35  2  0  0  0
 31 32  2  0  0  0
 32 33  1  0  0  0
 32 68  1  0  0  0
 33 34  2  0  0  0
 33 69  1  0  0  0
 34 35  1  0  0  0
 34 70  1  0  0  0
 35 71  1  0  0  0
 36 37  1  0  0  0
 36 72  1  0  0  0
 36 73  1  0  0  0
 37 38  1  0  0  0
 37 74  1  0  0  0
 38 39  2  0  0  0
 38 40  1  0  0  0
 39 75  1  0  0  0
 40 76  1  0  0  0
 40 77  1  0  0  0
M  END
> <s_m_entry_id>
35213

> <s_m_entry_name>
dock_pv.63

> <s_m_Source_Path>
/home/csk/Desktop/cluster/DUD-E-result/thrb

> <s_m_Source_File>
dock_pv.maegz

> <i_m_Source_File_Index>
63

> <chembl_id>
CHEMBL211659

> <chembl_pref_name>
None

> <i_lp_mmshare_version>
53161

> <r_lp_tautomer_probability>
1

> <s_lp_Force_Field>
OPLS_2005

> <r_lp_Energy>
27.734305

> <b_lp_Chiralities_Consistent>
1

> <s_lp_Variant>
CHEMBL204_lig4261-1

> <s_i_glide_gridfile>
glide-grid_1ype

> <i_i_glide_lignum>
5908

> <i_i_glide_rotatable_bonds>
13

> <r_i_docking_score>
-7.97252694267108

> <r_i_glide_ligand_efficiency>
-0.199313173566777

> <r_i_glide_ligand_efficiency_sa>
-0.681641464471808

> <r_i_glide_ligand_efficiency_ln>
-1.70030537587741

> <r_i_glide_gscore>
-7.97252694267108

> <r_i_glide_lipo>
-3.10684237985461

> <r_i_glide_hbond>
-0.706141657771178

> <r_i_glide_metal>
0

> <r_i_glide_rewards>
-0.368779776769948

> <r_i_glide_evdw>
-53.9349937438965

> <r_i_glide_ecoul>
-11.1768617630005

> <r_i_glide_erotb>
0.636861964652839

> <r_i_glide_esite>
-0.0543461412832819

> <r_i_glide_emodel>
-84.9080563755486

> <r_i_glide_energy>
-65.111855506897

> <r_i_glide_einternal>
20.7021293640137

> <i_i_glide_confnum>
5

> <i_i_glide_posenum>
258

> <r_i_glide_eff_state_penalty>
0

> <s_user_duplicate_titles>
CHEMBL204_lig4261,351966

> <i_f3d_flags>
0

> <s_m_subgroup_title>
dock_pv

> <s_m_subgroupid>
dock_pv

> <b_m_subgroup_collapsed>
1

$$$$
CHEMBL204_lig3431
                    3D
 Schrodinger Suite 2021-1.
 45 47  0  0  1  0            999 V2000
   18.4005  -13.2303   21.3667 S   0  0  0  0  0  0
   18.6431  -12.8139   19.6818 C   0  0  0  0  0  0
   20.1176  -13.3435   21.6626 C   0  0  0  0  0  0
   17.5521  -12.4908   18.7860 C   0  0  0  0  0  0
   20.0024  -12.7512   19.3927 C   0  0  0  0  0  0
   20.8160  -13.0635   20.4862 C   0  0  0  0  0  0
   12.5294   -8.2530   23.9703 C   0  0  0  0  0  0
   12.3327   -9.5294   23.2406 C   0  0  0  0  0  0
   13.1425  -11.1823   21.6101 C   0  0  0  0  0  0
   13.2253   -9.9289   22.2280 C   0  0  0  0  0  0
   20.6569  -13.6214   23.0395 C   0  0  0  0  0  0
   13.6157   -7.6351   23.9210 N   0  0  0  0  0  0
   22.0161  -13.6826   23.1210 N   0  0  0  0  0  0
   12.1253  -12.0627   22.0090 C   0  0  0  0  0  0
   14.1762  -11.5443   20.6220 C   0  0  0  0  0  0
   17.7443  -11.8530   17.7491 O   0  0  0  0  0  0
   11.3032  -10.4213   23.5784 C   0  0  0  0  0  0
   11.2160  -11.6700   22.9803 C   0  0  0  0  0  0
   16.3429  -12.9196   19.1839 N   0  0  0  0  0  0
   13.9735  -12.2087   19.4662 C   0  0  0  0  0  0
   11.4738   -7.8284   24.7210 N   0  0  0  0  0  0
   12.0160  -13.3377   21.5210 O   0  0  0  0  0  0
   15.0611  -12.6903   18.5174 C   0  0  0  0  0  0
   22.5907  -13.8531   24.3394 C   0  0  0  0  0  0
   19.8504  -13.7476   24.1819 C   0  0  0  0  0  0
   21.8488  -13.9695   25.5146 C   0  0  0  0  0  0
   20.4572  -13.9185   25.4285 C   0  0  0  0  0  0
   20.3961  -12.4922   18.4204 H   0  0  0  0  0  0
   21.8944  -13.0530   20.4323 H   0  0  0  0  0  0
   14.0337   -9.2684   21.9428 H   0  0  0  0  0  0
   13.6115   -6.8503   24.5578 H   0  0  0  0  0  0
   15.1872  -11.2753   20.8947 H   0  0  0  0  0  0
   10.5715  -10.1923   24.3416 H   0  0  0  0  0  0
   10.4149  -12.3248   23.2887 H   0  0  0  0  0  0
   16.3175  -13.5597   19.9640 H   0  0  0  0  0  0
   12.9617  -12.4554   19.1758 H   0  0  0  0  0  0
   11.5230   -6.9650   25.2404 H   0  0  0  0  0  0
   10.6101   -8.3539   24.7428 H   0  0  0  0  0  0
   11.4008  -13.8530   22.0587 H   0  0  0  0  0  0
   14.7487  -13.6403   18.0812 H   0  0  0  0  0  0
   15.1320  -11.9920   17.6807 H   0  0  0  0  0  0
   23.6702  -13.8878   24.3642 H   0  0  0  0  0  0
   18.7741  -13.6938   24.1215 H   0  0  0  0  0  0
   22.3401  -14.0966   26.4682 H   0  0  0  0  0  0
   19.8533  -14.0026   26.3207 H   0  0  0  0  0  0
  1  2  1  0  0  0
  1  3  1  0  0  0
  2  4  1  0  0  0
  2  5  2  0  0  0
  3  6  2  0  0  0
  3 11  1  0  0  0
  4 16  2  0  0  0
  4 19  1  0  0  0
  5  6  1  0  0  0
  5 28  1  0  0  0
  6 29  1  0  0  0
  7  8  1  0  0  0
  7 12  2  0  0  0
  7 21  1  0  0  0
  8 10  1  0  0  0
  8 17  2  0  0  0
  9 15  1  0  0  0
  9 10  2  0  0  0
  9 14  1  0  0  0
 10 30  1  0  0  0
 11 13  1  0  0  0
 11 25  2  0  0  0
 12 31  1  0  0  0
 13 24  2  0  0  0
 14 18  2  0  0  0
 14 22  1  0  0  0
 15 20  2  0  0  0
 15 32  1  0  0  0
 17 18  1  0  0  0
 17 33  1  0  0  0
 18 34  1  0  0  0
 19 23  1  0  0  0
 19 35  1  0  0  0
 20 23  1  0  0  0
 20 36  1  0  0  0
 21 37  1  0  0  0
 21 38  1  0  0  0
 22 39  1  0  0  0
 23 40  1  0  0  0
 23 41  1  0  0  0
 24 26  1  0  0  0
 24 42  1  0  0  0
 25 27  1  0  0  0
 25 43  1  0  0  0
 26 27  2  0  0  0
 26 44  1  0  0  0
 27 45  1  0  0  0
M  END
> <s_m_entry_id>
35214

> <s_m_entry_name>
dock_pv.64

> <s_m_Source_Path>
/home/csk/Desktop/cluster/DUD-E-result/thrb

> <s_m_Source_File>
dock_pv.maegz

> <i_m_Source_File_Index>
64

> <chembl_id>
CHEMBL72350

> <chembl_pref_name>
None

> <i_lp_mmshare_version>
53161

> <r_lp_tautomer_probability>
1

> <s_lp_Force_Field>
OPLS_2005

> <r_lp_Energy>
7.840592

> <b_lp_Chiralities_Consistent>
1

> <s_lp_Variant>
CHEMBL204_lig3431-1

> <s_i_glide_gridfile>
glide-grid_1ype

> <i_i_glide_lignum>
4784

> <i_i_glide_rotatable_bonds>
8

> <r_i_docking_score>
-7.95285090737806

> <r_i_glide_ligand_efficiency>
-0.294550033606595

> <r_i_glide_ligand_efficiency_sa>
-0.883650099848995

> <r_i_glide_ligand_efficiency_ln>
-1.85129257824337

> <r_i_glide_gscore>
-7.95285090737806

> <r_i_glide_lipo>
-3.58774134676398

> <r_i_glide_hbond>
-0.538566726857073

> <r_i_glide_metal>
0

> <r_i_glide_rewards>
-1.4497835154984

> <r_i_glide_evdw>
-36.9383735656738

> <r_i_glide_ecoul>
-8.94459819793701

> <r_i_glide_erotb>
0.811849089715638

> <r_i_glide_esite>
0

> <r_i_glide_emodel>
-62.4585636452185

> <r_i_glide_energy>
-45.8829717636108

> <r_i_glide_einternal>
11.4502067565918

> <i_i_glide_confnum>
28

> <i_i_glide_posenum>
88

> <r_i_glide_eff_state_penalty>
0

> <s_user_duplicate_titles>
CHEMBL204_lig3431

> <i_f3d_flags>
0

> <s_m_subgroup_title>
dock_pv

> <s_m_subgroupid>
dock_pv

> <b_m_subgroup_collapsed>
1

$$$$
CHEMBL204_lig1760
                    3D
 Schrodinger Suite 2021-1.
 57 60  0  0  1  0            999 V2000
   21.0237  -12.0856   19.2665 C   0  0  0  0  0  0
   19.6448  -11.8527   19.5399 O   0  0  0  0  0  0
   19.0519  -12.5659   20.5643 C   0  0  0  0  0  0
   19.6720  -13.5115   21.3918 C   0  0  0  0  0  0
   18.9758  -14.1984   22.4056 C   0  0  0  0  0  0
   17.5966  -13.9841   22.5835 C   0  0  0  0  0  0
   16.9501  -13.0449   21.7653 C   0  0  0  0  0  0
   15.6402  -12.6528   21.7074 N   0  0  0  0  0  0
   15.6383  -11.7487   20.7479 C   0  0  0  0  0  0
   14.6008  -11.0528   20.1935 N   0  0  0  0  0  0
   13.1588  -11.2767   20.3058 C   0  0  1  0  0  0
   12.7222  -12.6115   19.6509 C   0  0  0  0  0  0
   13.1418  -13.7135   20.2746 F   0  0  0  0  0  0
   12.5841  -10.9670   21.7019 C   0  0  0  0  0  0
   11.6856  -11.8414   22.3318 C   0  0  0  0  0  0
   11.0611  -11.4821   23.5210 C   0  0  0  0  0  0
   11.3259  -10.2526   24.1122 C   0  0  0  0  0  0
   12.2351   -9.3765   23.5210 C   0  0  0  0  0  0
   12.5886   -7.8706   24.3069 Cl  0  0  0  0  0  0
   12.8550   -9.7318   22.3178 C   0  0  0  0  0  0
   16.8414  -11.5070   20.1530 O   0  0  0  0  0  0
   17.6902  -12.3505   20.7949 C   0  0  0  0  0  0
   19.6912  -15.2475   23.2334 C   0  0  0  0  0  0
   19.1368  -16.3372   23.3964 O   0  0  0  0  0  0
   20.9491  -14.9866   23.6939 N   0  0  0  0  0  0
   21.7934  -16.1030   24.1938 C   0  0  0  0  0  0
   22.2089  -15.8415   25.6612 C   0  0  0  0  0  0
   22.8082  -14.4390   25.8516 C   0  0  1  0  0  0
   24.0175  -14.3248   25.1211 O   0  0  0  0  0  0
   21.7973  -13.3785   25.3756 C   0  0  2  0  0  0
   20.5156  -13.3342   26.2409 C   0  0  0  0  0  0
   21.4738  -13.6046   23.8716 C   0  0  0  0  0  0
   21.3314  -11.4761   18.4166 H   0  0  0  0  0  0
   21.6515  -11.8125   20.1150 H   0  0  0  0  0  0
   21.2127  -13.1285   19.0065 H   0  0  0  0  0  0
   20.7162  -13.7375   21.2387 H   0  0  0  0  0  0
   17.0341  -14.5359   23.3254 H   0  0  0  0  0  0
   14.8370  -10.5558   19.3489 H   0  0  0  0  0  0
   12.7127  -10.4981   19.6851 H   0  0  0  0  0  0
   11.6361  -12.6840   19.5970 H   0  0  0  0  0  0
   13.0926  -12.6810   18.6284 H   0  0  0  0  0  0
   11.4298  -12.8014   21.9075 H   0  0  0  0  0  0
   10.3523  -12.1550   23.9833 H   0  0  0  0  0  0
   10.8182   -9.9865   25.0300 H   0  0  0  0  0  0
   13.5398   -9.0368   21.8563 H   0  0  0  0  0  0
   22.6872  -16.1165   23.5691 H   0  0  0  0  0  0
   21.3133  -17.0783   24.1022 H   0  0  0  0  0  0
   22.9317  -16.5969   25.9682 H   0  0  0  0  0  0
   21.3534  -15.9889   26.3205 H   0  0  0  0  0  0
   23.0751  -14.2529   26.8928 H   0  0  0  0  0  0
   24.7284  -14.6741   25.6683 H   0  0  0  0  0  0
   22.2898  -12.4185   25.5212 H   0  0  0  0  0  0
   19.9113  -14.2367   26.1589 H   0  0  0  0  0  0
   19.8820  -12.5013   25.9382 H   0  0  0  0  0  0
   20.7543  -13.1903   27.2944 H   0  0  0  0  0  0
   20.7781  -12.8283   23.5547 H   0  0  0  0  0  0
   22.3792  -13.4933   23.2732 H   0  0  0  0  0  0
  1  2  1  0  0  0
  1 33  1  0  0  0
  1 34  1  0  0  0
  1 35  1  0  0  0
  2  3  1  0  0  0
  3  4  2  0  0  0
  3 22  1  0  0  0
  4  5  1  0  0  0
  4 36  1  0  0  0
  5  6  2  0  0  0
  5 23  1  0  0  0
  6  7  1  0  0  0
  6 37  1  0  0  0
  7  8  1  0  0  0
  7 22  2  0  0  0
  8  9  2  0  0  0
  9 10  1  0  0  0
  9 21  1  0  0  0
 10 11  1  0  0  0
 10 38  1  0  0  0
 11 12  1  0  0  0
 11 14  1  0  0  0
 11 39  1  0  0  0
 12 13  1  0  0  0
 12 40  1  0  0  0
 12 41  1  0  0  0
 14 15  2  0  0  0
 14 20  1  0  0  0
 15 16  1  0  0  0
 15 42  1  0  0  0
 16 17  2  0  0  0
 16 43  1  0  0  0
 17 18  1  0  0  0
 17 44  1  0  0  0
 18 19  1  0  0  0
 18 20  2  0  0  0
 20 45  1  0  0  0
 21 22  1  0  0  0
 23 24  2  0  0  0
 23 25  1  0  0  0
 25 26  1  0  0  0
 25 32  1  0  0  0
 26 27  1  0  0  0
 26 46  1  0  0  0
 26 47  1  0  0  0
 27 28  1  0  0  0
 27 48  1  0  0  0
 27 49  1  0  0  0
 28 29  1  0  0  0
 28 30  1  0  0  0
 28 50  1  0  0  0
 29 51  1  0  0  0
 30 31  1  0  0  0
 30 32  1  0  0  0
 30 52  1  0  0  0
 31 53  1  0  0  0
 31 54  1  0  0  0
 31 55  1  0  0  0
 32 56  1  0  0  0
 32 57  1  0  0  0
M  END
> <s_m_entry_id>
35215

> <s_m_entry_name>
dock_pv.65

> <s_m_Source_Path>
/home/csk/Desktop/cluster/DUD-E-result/thrb

> <s_m_Source_File>
dock_pv.maegz

> <i_m_Source_File_Index>
65

> <chembl_id>
CHEMBL3906435

> <chembl_pref_name>
None

> <i_lp_mmshare_version>
53161

> <r_lp_tautomer_probability>
1

> <s_lp_Force_Field>
OPLS_2005

> <r_lp_Energy>
36.620197

> <b_lp_Chiralities_Consistent>
1

> <s_lp_Variant>
CHEMBL204_lig1760-4

> <s_i_glide_gridfile>
glide-grid_1ype

> <i_i_glide_lignum>
2556

> <i_i_glide_rotatable_bonds>
8

> <r_i_docking_score>
-7.94767403458361

> <r_i_glide_ligand_efficiency>
-0.248364813580738

> <r_i_glide_ligand_efficiency_sa>
-0.788509131788976

> <r_i_glide_ligand_efficiency_ln>
-1.77970086175515

> <r_i_glide_gscore>
-7.94767403458361

> <r_i_glide_lipo>
-4.35225737671822

> <r_i_glide_hbond>
-0.339710780548898

> <r_i_glide_metal>
0

> <r_i_glide_rewards>
-0.726470777775013

> <r_i_glide_evdw>
-50.4225883483887

> <r_i_glide_ecoul>
-3.20044469833374

> <r_i_glide_erotb>
0.471961022628021

> <r_i_glide_esite>
0

> <r_i_glide_emodel>
-74.6016762134198

> <r_i_glide_energy>
-53.6230330467224

> <r_i_glide_einternal>
9.79105663299561

> <i_i_glide_confnum>
93

> <i_i_glide_posenum>
165

> <r_i_glide_eff_state_penalty>
0

> <s_user_duplicate_titles>
CHEMBL204_lig1760,CHEMBL204_lig1762

> <i_f3d_flags>
0

> <s_m_subgroup_title>
dock_pv

> <s_m_subgroupid>
dock_pv

> <b_m_subgroup_collapsed>
1

$$$$
CHEMBL204_lig1774
                    3D
 Schrodinger Suite 2021-1.
 65 69  0  0  1  0            999 V2000
   20.9127  -12.0633   19.0689 C   0  0  0  0  0  0
   19.5071  -11.9176   19.2442 O   0  0  0  0  0  0
   18.9435  -12.4349   20.3927 C   0  0  0  0  0  0
   19.6167  -13.0611   21.4531 C   0  0  0  0  0  0
   18.9365  -13.5408   22.5864 C   0  0  0  0  0  0
   17.5385  -13.4530   22.6785 C   0  0  0  0  0  0
   16.8482  -12.8116   21.6436 C   0  0  0  0  0  0
   15.5197  -12.5418   21.4988 N   0  0  0  0  0  0
   15.4621  -11.9203   20.3416 C   0  0  0  0  0  0
   14.3639  -11.4517   19.6748 N   0  0  0  0  0  0
   12.9547  -11.6877   19.9889 C   0  0  1  0  0  0
   12.5142  -13.1189   19.6011 C   0  0  0  0  0  0
   13.0128  -14.0852   20.3720 F   0  0  0  0  0  0
   12.5424  -11.1969   21.3958 C   0  0  0  0  0  0
   11.6462  -11.9293   22.1884 C   0  0  0  0  0  0
   11.2141  -11.4375   23.4175 C   0  0  0  0  0  0
   11.6516  -10.1977   23.8717 C   0  0  0  0  0  0
   12.5649   -9.4686   23.1152 C   0  0  0  0  0  0
   13.2158   -7.9980   23.7412 Cl  0  0  0  0  0  0
   12.9931   -9.9564   21.8769 C   0  0  0  0  0  0
   16.6507  -11.7357   19.6997 O   0  0  0  0  0  0
   17.5556  -12.3145   20.5368 C   0  0  0  0  0  0
   19.7197  -14.1264   23.7314 C   0  0  0  0  0  0
   19.7265  -13.5243   24.8086 O   0  0  0  0  0  0
   20.4239  -15.2709   23.5113 N   0  0  0  0  0  0
   20.2677  -16.0722   22.2736 C   0  0  0  0  0  0
   20.0624  -17.5501   22.6790 C   0  0  1  0  0  0
   20.1140  -18.4609   21.4481 C   0  0  0  0  0  0
   21.0763  -17.9740   23.5838 O   0  0  0  0  0  0
   21.0923  -17.2169   24.7902 C   0  0  0  0  0  0
   21.4289  -15.7363   24.4964 C   0  0  1  0  0  0
   22.8779  -15.5273   24.0081 C   0  0  2  0  0  0
   24.0529  -15.7202   24.9687 C   0  0  0  0  0  0
   24.7753  -14.6089   24.1733 C   0  0  1  0  0  0
   25.6157  -15.0528   23.1210 O   0  0  0  0  0  0
   23.3792  -14.1040   23.7471 C   0  0  0  0  0  0
   21.2045  -11.6297   18.1128 H   0  0  0  0  0  0
   21.4705  -11.5426   19.8496 H   0  0  0  0  0  0
   21.2106  -13.1136   19.0573 H   0  0  0  0  0  0
   20.6919  -13.1595   21.4205 H   0  0  0  0  0  0
   17.0039  -13.8321   23.5396 H   0  0  0  0  0  0
   14.5074  -11.2259   18.7025 H   0  0  0  0  0  0
   12.4161  -11.0125   19.3232 H   0  0  0  0  0  0
   11.4291  -13.2233   19.6238 H   0  0  0  0  0  0
   12.8290  -13.3538   18.5846 H   0  0  0  0  0  0
   11.2558  -12.8837   21.8736 H   0  0  0  0  0  0
   10.5063  -12.0077   24.0036 H   0  0  0  0  0  0
   11.3012   -9.8236   24.8229 H   0  0  0  0  0  0
   13.6933   -9.3719   21.2995 H   0  0  0  0  0  0
   19.4043  -15.7917   21.6685 H   0  0  0  0  0  0
   21.1674  -15.9782   21.6657 H   0  0  0  0  0  0
   19.0858  -17.6815   23.1506 H   0  0  0  0  0  0
   19.3418  -18.2040   20.7206 H   0  0  0  0  0  0
   21.0832  -18.4019   20.9484 H   0  0  0  0  0  0
   19.9522  -19.4961   21.7385 H   0  0  0  0  0  0
   21.8222  -17.6471   25.4772 H   0  0  0  0  0  0
   20.1254  -17.2972   25.2930 H   0  0  0  0  0  0
   21.3292  -15.1904   25.4367 H   0  0  0  0  0  0
   23.0016  -16.1591   23.1225 H   0  0  0  0  0  0
   24.5205  -16.7047   24.9492 H   0  0  0  0  0  0
   23.8589  -15.4119   25.9984 H   0  0  0  0  0  0
   25.3389  -13.9174   24.8044 H   0  0  0  0  0  0
   26.2485  -14.3499   22.9197 H   0  0  0  0  0  0
   22.9925  -13.3531   24.4420 H   0  0  0  0  0  0
   23.2702  -13.7546   22.7212 H   0  0  0  0  0  0
  1  2  1  0  0  0
  1 37  1  0  0  0
  1 38  1  0  0  0
  1 39  1  0  0  0
  2  3  1  0  0  0
  3  4  2  0  0  0
  3 22  1  0  0  0
  4  5  1  0  0  0
  4 40  1  0  0  0
  5  6  2  0  0  0
  5 23  1  0  0  0
  6  7  1  0  0  0
  6 41  1  0  0  0
  7  8  1  0  0  0
  7 22  2  0  0  0
  8  9  2  0  0  0
  9 10  1  0  0  0
  9 21  1  0  0  0
 10 11  1  0  0  0
 10 42  1  0  0  0
 11 12  1  0  0  0
 11 14  1  0  0  0
 11 43  1  0  0  0
 12 13  1  0  0  0
 12 44  1  0  0  0
 12 45  1  0  0  0
 14 15  2  0  0  0
 14 20  1  0  0  0
 15 16  1  0  0  0
 15 46  1  0  0  0
 16 17  2  0  0  0
 16 47  1  0  0  0
 17 18  1  0  0  0
 17 48  1  0  0  0
 18 19  1  0  0  0
 18 20  2  0  0  0
 20 49  1  0  0  0
 21 22  1  0  0  0
 23 24  2  0  0  0
 23 25  1  0  0  0
 25 26  1  0  0  0
 25 31  1  0  0  0
 26 27  1  0  0  0
 26 50  1  0  0  0
 26 51  1  0  0  0
 27 28  1  0  0  0
 27 29  1  0  0  0
 27 52  1  0  0  0
 28 53  1  0  0  0
 28 54  1  0  0  0
 28 55  1  0  0  0
 29 30  1  0  0  0
 30 31  1  0  0  0
 30 56  1  0  0  0
 30 57  1  0  0  0
 31 32  1  0  0  0
 31 58  1  0  0  0
 32 33  1  0  0  0
 32 36  1  0  0  0
 32 59  1  0  0  0
 33 34  1  0  0  0
 33 60  1  0  0  0
 33 61  1  0  0  0
 34 35  1  0  0  0
 34 36  1  0  0  0
 34 62  1  0  0  0
 35 63  1  0  0  0
 36 64  1  0  0  0
 36 65  1  0  0  0
M  END
> <s_m_entry_id>
35217

> <s_m_entry_name>
dock_pv.67

> <s_m_Source_Path>
/home/csk/Desktop/cluster/DUD-E-result/thrb

> <s_m_Source_File>
dock_pv.maegz

> <i_m_Source_File_Index>
67

> <chembl_id>
CHEMBL3944800

> <chembl_pref_name>
None

> <i_lp_mmshare_version>
53161

> <r_lp_tautomer_probability>
1

> <s_lp_Force_Field>
OPLS_2005

> <r_lp_Energy>
46.25736

> <b_lp_Chiralities_Consistent>
1

> <s_lp_Variant>
CHEMBL204_lig1774-12

> <s_i_glide_gridfile>
glide-grid_1ype

> <i_i_glide_lignum>
2620

> <i_i_glide_rotatable_bonds>
9

> <r_i_docking_score>
-7.9466697696495

> <r_i_glide_ligand_efficiency>
-0.220740826934708

> <r_i_glide_ligand_efficiency_sa>
-0.728870150528606

> <r_i_glide_ligand_efficiency_ln>
-1.73374864953132

> <r_i_glide_gscore>
-7.9466697696495

> <r_i_glide_lipo>
-3.77565985520127

> <r_i_glide_hbond>
-0.608

> <r_i_glide_metal>
0

> <r_i_glide_rewards>
-0.537272624427995

> <r_i_glide_evdw>
-50.5967636108398

> <r_i_glide_ecoul>
-6.36756134033203

> <r_i_glide_erotb>
0.459235091571562

> <r_i_glide_esite>
0

> <r_i_glide_emodel>
-80.5969711224574

> <r_i_glide_energy>
-56.9643249511719

> <r_i_glide_einternal>
6.86979007720947

> <i_i_glide_confnum>
14

> <i_i_glide_posenum>
317

> <r_i_glide_eff_state_penalty>
0

> <s_user_duplicate_titles>
CHEMBL204_lig1774,CHEMBL204_lig1778,CHEMBL204_lig1780

> <i_f3d_flags>
0

> <s_m_subgroup_title>
dock_pv

> <s_m_subgroupid>
dock_pv

> <b_m_subgroup_collapsed>
1

$$$$
CHEMBL204_lig4167
                    3D
 Schrodinger Suite 2021-1.
 44 47  0  0  1  0            999 V2000
   16.4650  -12.6581   21.6631 N   0  0  0  0  0  0
   16.4563  -11.7354   20.7219 C   0  0  0  0  0  0
   17.7394  -13.1617   21.6210 C   0  0  0  0  0  0
   17.6435  -11.5467   20.0721 O   0  0  0  0  0  0
   18.6366  -15.7401   25.4853 C   0  0  0  0  0  0
   18.4704  -12.4606   20.6447 C   0  0  0  0  0  0
   13.9896  -11.0415   21.0409 C   0  0  0  0  0  0
   15.2953  -10.8720   20.2662 C   0  0  0  0  0  0
   17.6151  -14.9332   23.2901 N   0  0  0  0  0  0
   18.3600  -14.2023   22.3441 C   0  0  0  0  0  0
   19.9748  -14.9888   25.5132 C   0  0  0  0  0  0
   18.1419  -16.0688   24.0546 C   0  0  0  0  0  0
   13.1786  -12.1802   20.8904 C   0  0  0  0  0  0
   21.0610  -15.6824   25.0674 N   0  0  0  0  0  0
   13.5908  -10.0304   21.9210 C   0  0  0  0  0  0
   18.8059  -16.8756   26.1697 F   0  0  0  0  0  0
   17.7051  -15.0533   26.1493 F   0  0  0  0  0  0
   12.0160  -12.3091   21.6527 C   0  0  0  0  0  0
   12.4361  -10.1731   22.6916 C   0  0  0  0  0  0
   13.5794  -13.4388   19.7714 Cl  0  0  0  0  0  0
   11.6479  -11.3134   22.5566 C   0  0  0  0  0  0
   12.0162   -8.9595   23.8412 Cl  0  0  0  0  0  0
   19.8083  -12.7200   20.3452 C   0  0  0  0  0  0
   20.4160  -13.7433   21.0751 C   0  0  0  0  0  0
   19.7092  -14.4669   22.0424 C   0  0  0  0  0  0
   22.2697  -15.0651   25.0747 C   0  0  0  0  0  0
   20.0762  -13.6654   25.9647 C   0  0  0  0  0  0
   22.4461  -13.7545   25.5185 C   0  0  0  0  0  0
   21.3277  -13.0498   25.9705 C   0  0  0  0  0  0
   15.6122   -9.8313   20.3214 H   0  0  0  0  0  0
   15.1011  -11.0536   19.2076 H   0  0  0  0  0  0
   16.6962  -14.5905   23.5478 H   0  0  0  0  0  0
   18.9109  -16.6039   23.4985 H   0  0  0  0  0  0
   17.3197  -16.7810   24.1338 H   0  0  0  0  0  0
   14.2005   -9.1487   22.0511 H   0  0  0  0  0  0
   11.3959  -13.1872   21.5508 H   0  0  0  0  0  0
   10.7512  -11.4313   23.1504 H   0  0  0  0  0  0
   20.3438  -12.1655   19.5906 H   0  0  0  0  0  0
   21.4523  -13.9932   20.8854 H   0  0  0  0  0  0
   20.2438  -15.2488   22.5554 H   0  0  0  0  0  0
   23.1082  -15.6464   24.7220 H   0  0  0  0  0  0
   19.2153  -13.1171   26.3139 H   0  0  0  0  0  0
   23.4236  -13.2957   25.5184 H   0  0  0  0  0  0
   21.4253  -12.0338   26.3211 H   0  0  0  0  0  0
  1  2  2  0  0  0
  1  3  1  0  0  0
  2  4  1  0  0  0
  2  8  1  0  0  0
  3  6  2  0  0  0
  3 10  1  0  0  0
  4  6  1  0  0  0
  5 12  1  0  0  0
  5 11  1  0  0  0
  5 16  1  0  0  0
  5 17  1  0  0  0
  6 23  1  0  0  0
  7  8  1  0  0  0
  7 13  1  0  0  0
  7 15  2  0  0  0
  8 30  1  0  0  0
  8 31  1  0  0  0
  9 10  1  0  0  0
  9 12  1  0  0  0
  9 32  1  0  0  0
 10 25  2  0  0  0
 11 14  1  0  0  0
 11 27  2  0  0  0
 12 33  1  0  0  0
 12 34  1  0  0  0
 13 18  2  0  0  0
 13 20  1  0  0  0
 14 26  2  0  0  0
 15 19  1  0  0  0
 15 35  1  0  0  0
 18 21  1  0  0  0
 18 36  1  0  0  0
 19 21  2  0  0  0
 19 22  1  0  0  0
 21 37  1  0  0  0
 23 24  2  0  0  0
 23 38  1  0  0  0
 24 25  1  0  0  0
 24 39  1  0  0  0
 25 40  1  0  0  0
 26 28  1  0  0  0
 26 41  1  0  0  0
 27 29  1  0  0  0
 27 42  1  0  0  0
 28 29  2  0  0  0
 28 43  1  0  0  0
 29 44  1  0  0  0
M  END
> <s_m_entry_id>
35220

> <s_m_entry_name>
dock_pv.70

> <s_m_Source_Path>
/home/csk/Desktop/cluster/DUD-E-result/thrb

> <s_m_Source_File>
dock_pv.maegz

> <i_m_Source_File_Index>
70

> <chembl_id>
CHEMBL197773

> <chembl_pref_name>
None

> <i_lp_mmshare_version>
53161

> <r_lp_tautomer_probability>
1

> <s_lp_Force_Field>
OPLS_2005

> <r_lp_Energy>
18.342153

> <b_lp_Chiralities_Consistent>
1

> <s_lp_Variant>
CHEMBL204_lig4167-1

> <s_i_glide_gridfile>
glide-grid_1ype

> <i_i_glide_lignum>
5791

> <i_i_glide_rotatable_bonds>
6

> <r_i_docking_score>
-7.94520518496556

> <r_i_glide_ligand_efficiency>
-0.273972592585019

> <r_i_glide_ligand_efficiency_sa>
-0.841730605030944

> <r_i_glide_ligand_efficiency_ln>
-1.81925051433719

> <r_i_glide_gscore>
-7.94520518496556

> <r_i_glide_lipo>
-4.36661886710322

> <r_i_glide_hbond>
-0.268210767036583

> <r_i_glide_metal>
0

> <r_i_glide_rewards>
-0.904346303276127

> <r_i_glide_evdw>
-45.2401924133301

> <r_i_glide_ecoul>
-4.3904242515564

> <r_i_glide_erotb>
0.527987473123694

> <r_i_glide_esite>
-0.0134434622733678

> <r_i_glide_emodel>
-70.4191322835048

> <r_i_glide_energy>
-49.6306166648865

> <r_i_glide_einternal>
4.60197162628174

> <i_i_glide_confnum>
34

> <i_i_glide_posenum>
286

> <r_i_glide_eff_state_penalty>
0

> <s_user_duplicate_titles>
CHEMBL204_lig4167,329998

> <i_f3d_flags>
0

> <s_m_subgroup_title>
dock_pv

> <s_m_subgroupid>
dock_pv

> <b_m_subgroup_collapsed>
1

$$$$
CHEMBL204_lig5091
                    3D
 Schrodinger Suite 2021-1.
 59 62  0  0  1  0            999 V2000
   18.8692  -15.2849   26.5105 N   0  0  0  0  0  0
   19.4335  -14.1285   25.8353 C   0  0  0  0  0  0
   20.8514  -14.3960   25.3353 C   0  0  0  0  0  0
   21.9055  -13.6884   25.9223 C   0  0  0  0  0  0
   23.2128  -13.8532   25.4692 C   0  0  0  0  0  0
   23.4880  -14.7319   24.4278 C   0  0  0  0  0  0
   25.1038  -14.9102   23.8465 Cl  0  0  0  0  0  0
   22.4497  -15.4465   23.8383 C   0  0  0  0  0  0
   21.1276  -15.2711   24.2648 C   0  0  0  0  0  0
   20.0235  -15.9900   23.4858 C   0  0  0  0  0  0
   19.9125  -15.5513   22.0930 N   0  0  0  0  0  0
   19.7335  -14.2718   21.7267 C   0  0  0  0  0  0
   19.6183  -13.3291   22.5113 O   0  0  0  0  0  0
   19.6588  -13.9951   20.2201 C   0  0  2  0  0  0
   20.9101  -13.2643   19.7131 C   0  0  0  0  0  0
   20.4071  -12.2722   18.6852 C   0  0  0  0  0  0
   19.0741  -11.8523   19.2806 C   0  0  0  0  0  0
   18.5538  -13.0771   19.8968 N   0  0  0  0  0  0
   17.2534  -13.3872   20.1490 C   0  0  0  0  0  0
   16.8707  -14.5316   20.4001 O   0  0  0  0  0  0
   16.3077  -12.3059   20.1919 C   0  0  0  0  0  0
   14.9285  -12.3401   20.0062 C   0  0  0  0  0  0
   14.3720  -11.0896   20.3225 C   0  0  0  0  0  0
   15.4461  -10.3108   20.7210 C   0  0  0  0  0  0
   16.5877  -11.0529   20.6717 N   0  0  0  0  0  0
   12.9208  -10.6790   20.2805 C   0  0  2  0  0  0
   12.8160   -9.4838   19.5216 O   0  0  0  0  0  0
   12.3444  -10.5625   21.6903 C   0  0  0  0  0  0
   11.6235  -11.6228   22.2521 C   0  0  0  0  0  0
   11.0726  -11.4563   23.5211 C   0  0  0  0  0  0
   11.2546  -10.2536   24.2005 C   0  0  0  0  0  0
   12.0167   -9.2567   23.5953 C   0  0  0  0  0  0
   12.5521   -9.3911   22.3555 N   0  0  0  0  0  0
   19.3300  -15.4028   27.4016 H   0  0  0  0  0  0
   17.8985  -15.1057   26.7279 H   0  0  0  0  0  0
   19.4236  -13.2758   26.5153 H   0  0  0  0  0  0
   18.7983  -13.8530   24.9930 H   0  0  0  0  0  0
   21.7117  -12.9929   26.7263 H   0  0  0  0  0  0
   24.0144  -13.2919   25.9198 H   0  0  0  0  0  0
   22.6649  -16.1094   23.0126 H   0  0  0  0  0  0
   20.2455  -17.0578   23.4924 H   0  0  0  0  0  0
   19.0450  -15.9080   23.9578 H   0  0  0  0  0  0
   19.9548  -16.2631   21.3788 H   0  0  0  0  0  0
   19.5235  -14.9212   19.6674 H   0  0  0  0  0  0
   21.4190  -12.7321   20.5197 H   0  0  0  0  0  0
   21.6160  -13.9627   19.2815 H   0  0  0  0  0  0
   21.1010  -11.4528   18.5093 H   0  0  0  0  0  0
   20.2423  -12.7834   17.7362 H   0  0  0  0  0  0
   19.2280  -11.0970   20.0526 H   0  0  0  0  0  0
   18.4044  -11.4533   18.5184 H   0  0  0  0  0  0
   14.3679  -13.2094   19.6927 H   0  0  0  0  0  0
   15.4787   -9.2905   21.0753 H   0  0  0  0  0  0
   17.4982  -10.7332   20.9745 H   0  0  0  0  0  0
   12.3463  -11.4363   19.7462 H   0  0  0  0  0  0
   11.9214   -9.4529   19.1448 H   0  0  0  0  0  0
   11.4709  -12.5497   21.7183 H   0  0  0  0  0  0
   10.4849  -12.2473   23.9668 H   0  0  0  0  0  0
   10.8092  -10.1060   25.1708 H   0  0  0  0  0  0
   12.1913   -8.3170   24.0981 H   0  0  0  0  0  0
  1  2  1  0  0  0
  1 34  1  0  0  0
  1 35  1  0  0  0
  2  3  1  0  0  0
  2 36  1  0  0  0
  2 37  1  0  0  0
  3  4  2  0  0  0
  3  9  1  0  0  0
  4  5  1  0  0  0
  4 38  1  0  0  0
  5  6  2  0  0  0
  5 39  1  0  0  0
  6  7  1  0  0  0
  6  8  1  0  0  0
  8  9  2  0  0  0
  8 40  1  0  0  0
  9 10  1  0  0  0
 10 11  1  0  0  0
 10 41  1  0  0  0
 10 42  1  0  0  0
 11 12  1  0  0  0
 11 43  1  0  0  0
 12 13  2  0  0  0
 12 14  1  0  0  0
 14 15  1  0  0  0
 14 18  1  0  0  0
 14 44  1  0  0  0
 15 16  1  0  0  0
 15 45  1  0  0  0
 15 46  1  0  0  0
 16 17  1  0  0  0
 16 47  1  0  0  0
 16 48  1  0  0  0
 17 18  1  0  0  0
 17 49  1  0  0  0
 17 50  1  0  0  0
 18 19  1  0  0  0
 19 20  2  0  0  0
 19 21  1  0  0  0
 21 22  2  0  0  0
 21 25  1  0  0  0
 22 23  1  0  0  0
 22 51  1  0  0  0
 23 24  2  0  0  0
 23 26  1  0  0  0
 24 25  1  0  0  0
 24 52  1  0  0  0
 25 53  1  0  0  0
 26 27  1  0  0  0
 26 28  1  0  0  0
 26 54  1  0  0  0
 27 55  1  0  0  0
 28 29  2  0  0  0
 28 33  1  0  0  0
 29 30  1  0  0  0
 29 56  1  0  0  0
 30 31  2  0  0  0
 30 57  1  0  0  0
 31 32  1  0  0  0
 31 58  1  0  0  0
 32 33  2  0  0  0
 32 59  1  0  0  0
M  END
> <s_m_entry_id>
35221

> <s_m_entry_name>
dock_pv.71

> <s_m_Source_Path>
/home/csk/Desktop/cluster/DUD-E-result/thrb

> <s_m_Source_File>
dock_pv.maegz

> <i_m_Source_File_Index>
71

> <chembl_id>
CHEMBL3898619

> <chembl_pref_name>
None

> <i_lp_mmshare_version>
53161

> <r_lp_tautomer_probability>
1

> <s_lp_Force_Field>
OPLS_2005

> <r_lp_Energy>
28.269491

> <b_lp_Chiralities_Consistent>
1

> <s_lp_Variant>
CHEMBL204_lig5091-1

> <s_i_glide_gridfile>
glide-grid_1ype

> <i_i_glide_lignum>
6968

> <i_i_glide_rotatable_bonds>
10

> <r_i_docking_score>
-7.92940686442425

> <r_i_glide_ligand_efficiency>
-0.240285056497705

> <r_i_glide_ligand_efficiency_sa>
-0.770722566803095

> <r_i_glide_ligand_efficiency_ln>
-1.76345903037649

> <r_i_glide_gscore>
-7.92940686442425

> <r_i_glide_lipo>
-3.41411351696046

> <r_i_glide_hbond>
-0.608

> <r_i_glide_metal>
0

> <r_i_glide_rewards>
-0.698178317279485

> <r_i_glide_evdw>
-46.1907806396484

> <r_i_glide_ecoul>
-10.9137096405029

> <r_i_glide_erotb>
0.737480447873561

> <r_i_glide_esite>
0

> <r_i_glide_emodel>
-79.3043286837355

> <r_i_glide_energy>
-57.1044902801514

> <r_i_glide_einternal>
8.17944145202637

> <i_i_glide_confnum>
60

> <i_i_glide_posenum>
50

> <r_i_glide_eff_state_penalty>
0

> <s_user_duplicate_titles>
CHEMBL204_lig5091

> <i_f3d_flags>
0

> <s_m_subgroup_title>
dock_pv

> <s_m_subgroupid>
dock_pv

> <b_m_subgroup_collapsed>
1

$$$$
CHEMBL204_lig4317
                    3D
 Schrodinger Suite 2021-1.
 69 75  0  0  1  0            999 V2000
   18.1491  -12.7444   20.1644 N   0  0  0  0  0  0
   19.0751  -13.2565   21.1190 C   0  0  0  0  0  0
   19.9016  -14.3355   20.7714 C   0  0  0  0  0  0
   20.8165  -14.8479   21.6767 C   0  0  0  0  0  0
   20.9429  -14.2894   22.9462 C   0  0  0  0  0  0
   20.1234  -13.2195   23.3091 C   0  0  0  0  0  0
   19.1904  -12.7133   22.4067 C   0  0  0  0  0  0
   12.9499  -12.8992   20.3470 C   0  0  0  0  0  0
   12.0159  -12.9583   21.3787 C   0  0  0  0  0  0
   13.6798  -10.6694   21.0441 C   0  0  0  0  0  0
   13.7711  -11.7779   20.1906 C   0  0  0  0  0  0
   14.7557  -11.7817   19.1958 N   0  0  0  0  0  0
   15.5374  -11.4531   17.2375 C   0  0  0  0  0  0
   14.4160  -11.4929   17.9278 N   0  0  0  0  0  0
   12.2871   -9.8707   23.1421 C   0  0  0  0  0  0
   12.7289  -10.7050   22.0749 C   0  0  0  0  0  0
   11.9268  -11.8460   22.2213 C   0  0  0  0  0  0
   11.0905  -11.6893   23.2850 O   0  0  0  0  0  0
   11.3299  -10.4278   23.8475 N   0  0  0  0  0  0
   12.8141   -8.6530   23.4459 N   0  0  0  0  0  0
   16.6088  -11.7711   18.0729 C   0  0  0  0  0  0
   16.1011  -12.0229   19.3384 C   0  0  0  0  0  0
   16.8435  -12.4437   20.5130 C   0  0  0  0  0  0
   18.5395  -12.8865   18.7221 C   0  0  0  0  0  0
   17.9576  -11.8532   17.8658 N   0  0  0  0  0  0
   16.3872  -12.5411   21.6549 O   0  0  0  0  0  0
   15.5564  -11.1019   15.7596 C   0  0  0  0  0  0
   21.9654  -14.8169   23.8794 C   0  0  0  0  0  0
   23.0963  -14.0318   24.1314 C   0  0  0  0  0  0
   24.1256  -14.5061   24.9381 C   0  0  0  0  0  0
   24.0294  -15.7670   25.5206 C   0  0  0  0  0  0
   22.9026  -16.5528   25.2955 C   0  0  0  0  0  0
   21.8623  -16.0900   24.4819 C   0  0  0  0  0  0
   20.6626  -17.0137   24.2536 C   0  0  0  0  0  0
   19.6083  -16.8455   25.2575 N   0  0  2  0  0  0
   14.4743  -10.4124   15.3942 F   0  0  0  0  0  0
   16.6225  -10.3576   15.4590 F   0  0  0  0  0  0
   15.6160  -12.2031   15.0135 F   0  0  0  0  0  0
   18.5585  -17.8649   25.1494 C   0  0  0  0  0  0
   17.2036  -17.1778   25.4227 C   0  0  1  0  0  0
   17.6159  -15.7997   25.9219 C   0  0  0  0  0  0
   18.9185  -15.5653   25.1863 C   0  0  0  0  0  0
   16.4621  -17.0526   24.2213 O   0  0  0  0  0  0
   19.8442  -14.8070   19.8036 H   0  0  0  0  0  0
   21.4511  -15.6715   21.3811 H   0  0  0  0  0  0
   20.2183  -12.7667   24.2859 H   0  0  0  0  0  0
   18.6006  -11.8557   22.7012 H   0  0  0  0  0  0
   13.0498  -13.7454   19.6818 H   0  0  0  0  0  0
   11.3833  -13.8222   21.5207 H   0  0  0  0  0  0
   14.3334   -9.8173   20.9240 H   0  0  0  0  0  0
   13.5979   -8.2758   22.9376 H   0  0  0  0  0  0
   12.5314   -8.1672   24.2847 H   0  0  0  0  0  0
   19.6224  -12.8323   18.5928 H   0  0  0  0  0  0
   18.2030  -13.8530   18.3660 H   0  0  0  0  0  0
   18.3621  -11.7787   16.9442 H   0  0  0  0  0  0
   23.1887  -13.0548   23.6786 H   0  0  0  0  0  0
   24.9987  -13.8957   25.1175 H   0  0  0  0  0  0
   24.8254  -16.1279   26.1558 H   0  0  0  0  0  0
   22.8362  -17.5250   25.7615 H   0  0  0  0  0  0
   20.2651  -16.8962   23.2457 H   0  0  0  0  0  0
   21.0218  -18.0440   24.2916 H   0  0  0  0  0  0
   18.5408  -18.3854   24.1892 H   0  0  0  0  0  0
   18.7324  -18.5910   25.9446 H   0  0  0  0  0  0
   16.6266  -17.7133   26.1774 H   0  0  0  0  0  0
   17.7951  -15.7892   26.9982 H   0  0  0  0  0  0
   16.8750  -15.0237   25.7298 H   0  0  0  0  0  0
   19.5297  -14.7846   25.6412 H   0  0  0  0  0  0
   18.7325  -15.2806   24.1499 H   0  0  0  0  0  0
   15.8611  -16.3041   24.3127 H   0  0  0  0  0  0
  1 23  1  0  0  0
  1 24  1  0  0  0
  1  2  1  0  0  0
  2  3  2  0  0  0
  2  7  1  0  0  0
  3  4  1  0  0  0
  3 44  1  0  0  0
  4  5  2  0  0  0
  4 45  1  0  0  0
  5  6  1  0  0  0
  5 28  1  0  0  0
  6  7  2  0  0  0
  6 46  1  0  0  0
  7 47  1  0  0  0
  8 11  2  0  0  0
  8  9  1  0  0  0
  8 48  1  0  0  0
  9 17  2  0  0  0
  9 49  1  0  0  0
 10 16  2  0  0  0
 10 11  1  0  0  0
 10 50  1  0  0  0
 11 12  1  0  0  0
 12 22  1  0  0  0
 12 14  1  0  0  0
 13 27  1  0  0  0
 13 21  1  0  0  0
 13 14  2  0  0  0
 15 20  1  0  0  0
 15 16  1  0  0  0
 15 19  2  0  0  0
 16 17  1  0  0  0
 17 18  1  0  0  0
 18 19  1  0  0  0
 20 51  1  0  0  0
 20 52  1  0  0  0
 21 22  2  0  0  0
 21 25  1  0  0  0
 22 23  1  0  0  0
 23 26  2  0  0  0
 24 25  1  0  0  0
 24 53  1  0  0  0
 24 54  1  0  0  0
 25 55  1  0  0  0
 27 36  1  0  0  0
 27 37  1  0  0  0
 27 38  1  0  0  0
 28 29  2  0  0  0
 28 33  1  0  0  0
 29 30  1  0  0  0
 29 56  1  0  0  0
 30 31  2  0  0  0
 30 57  1  0  0  0
 31 32  1  0  0  0
 31 58  1  0  0  0
 32 33  2  0  0  0
 32 59  1  0  0  0
 33 34  1  0  0  0
 34 35  1  0  0  0
 34 60  1  0  0  0
 34 61  1  0  0  0
 35 39  1  0  0  0
 35 42  1  0  0  0
 39 40  1  0  0  0
 39 62  1  0  0  0
 39 63  1  0  0  0
 40 41  1  0  0  0
 40 43  1  0  0  0
 40 64  1  0  0  0
 41 42  1  0  0  0
 41 65  1  0  0  0
 41 66  1  0  0  0
 42 67  1  0  0  0
 42 68  1  0  0  0
 43 69  1  0  0  0
M  END
> <s_m_entry_id>
35222

> <s_m_entry_name>
dock_pv.72

> <s_m_Source_Path>
/home/csk/Desktop/cluster/DUD-E-result/thrb

> <s_m_Source_File>
dock_pv.maegz

> <i_m_Source_File_Index>
72

> <chembl_id>
CHEMBL384129

> <chembl_pref_name>
None

> <i_lp_mmshare_version>
53161

> <r_lp_tautomer_probability>
1

> <s_lp_Force_Field>
OPLS_2005

> <r_lp_Energy>
98.176883

> <b_lp_Chiralities_Consistent>
1

> <s_lp_Variant>
CHEMBL204_lig4317-1

> <s_i_glide_gridfile>
glide-grid_1ype

> <i_i_glide_lignum>
5966

> <i_i_glide_rotatable_bonds>
7

> <r_i_docking_score>
-7.91076189828349

> <r_i_glide_ligand_efficiency>
-0.183971206936825

> <r_i_glide_ligand_efficiency_sa>
-0.644524368741417

> <r_i_glide_ligand_efficiency_ln>
-1.66150586113962

> <r_i_glide_gscore>
-7.91076189828349

> <r_i_glide_lipo>
-3.73735073716146

> <r_i_glide_hbond>
-0.292427677475268

> <r_i_glide_metal>
0

> <r_i_glide_rewards>
-0.769826868579327

> <r_i_glide_evdw>
-53.2858009338379

> <r_i_glide_ecoul>
-3.36539721488953

> <r_i_glide_erotb>
0.193364657102818

> <r_i_glide_esite>
-0.135421643244929

> <r_i_glide_emodel>
-79.6191718904818

> <r_i_glide_energy>
-56.6511981487274

> <r_i_glide_einternal>
7.76647138595581

> <i_i_glide_confnum>
8

> <i_i_glide_posenum>
68

> <r_i_glide_eff_state_penalty>
0

> <s_user_duplicate_titles>
CHEMBL204_lig4317,359417

> <i_f3d_flags>
0

> <s_m_subgroup_title>
dock_pv

> <s_m_subgroupid>
dock_pv

> <b_m_subgroup_collapsed>
1

$$$$
CHEMBL204_lig5058
                    3D
 Schrodinger Suite 2021-1.
 65 68  0  0  1  0            999 V2000
   23.8929  -14.8401   24.4440 C   0  0  0  0  0  0
   22.4684  -14.4200   24.3915 C   0  0  0  0  0  0
   21.8452  -14.2333   23.1503 C   0  0  0  0  0  0
   20.4916  -13.9104   23.0226 C   0  0  0  0  0  0
   19.7376  -13.7179   24.1873 C   0  0  0  0  0  0
   20.3334  -13.8598   25.4401 C   0  0  0  0  0  0
   21.6806  -14.2159   25.5381 C   0  0  0  0  0  0
   24.7011  -14.5544   23.5212 N   0  0  0  0  0  0
   24.2107  -15.5808   25.5459 N   0  0  0  0  0  0
   18.7349  -14.3686   21.3911 C   0  0  0  0  0  0
   18.1805  -13.9818   20.1977 N   0  0  0  0  0  0
   18.8683  -13.2018   19.1519 C   0  0  0  0  0  0
   20.3723  -13.1092   19.3689 C   0  0  2  0  0  0
   20.6227  -12.8144   20.8476 C   0  0  0  0  0  0
   19.9435  -13.7989   21.7198 N   0  0  0  0  0  0
   18.1903  -15.2176   22.1043 O   0  0  0  0  0  0
   16.7961  -14.3466   19.8765 C   0  0  0  0  0  0
   15.7274  -13.3170   20.3133 C   0  0  0  0  0  0
   16.1911  -11.8434   20.3790 C   0  0  0  0  0  0
   15.0760  -10.9280   20.8914 C   0  0  0  0  0  0
   13.8849  -11.0532   20.0453 N   0  0  1  0  0  0
   13.4036  -12.4322   19.8465 C   0  0  0  0  0  0
   14.5238  -13.3588   19.3577 C   0  0  0  0  0  0
   12.8446  -10.0902   20.4097 C   0  0  0  0  0  0
   12.3223  -10.1891   21.8384 C   0  0  0  0  0  0
   12.5876   -9.1530   22.7371 C   0  0  0  0  0  0
   12.0160   -9.1766   24.0056 C   0  0  0  0  0  0
   11.2165  -10.2533   24.3777 C   0  0  0  0  0  0
   11.0203  -11.3292   23.5215 C   0  0  0  0  0  0
   11.5589  -11.2857   22.2438 C   0  0  0  0  0  0
   20.9881  -12.0057   18.4920 C   0  0  0  0  0  0
   20.8160  -12.2528   17.1114 O   0  0  0  0  0  0
   22.4159  -14.3908   22.2582 H   0  0  0  0  0  0
   18.6915  -13.4568   24.1264 H   0  0  0  0  0  0
   19.7498  -13.7003   26.3343 H   0  0  0  0  0  0
   22.1087  -14.3148   26.5255 H   0  0  0  0  0  0
   25.6264  -14.9093   23.7147 H   0  0  0  0  0  0
   25.1650  -15.8590   25.7143 H   0  0  0  0  0  0
   23.5224  -15.7611   26.2607 H   0  0  0  0  0  0
   18.5436  -13.4529   18.1432 H   0  0  0  0  0  0
   18.5110  -12.1835   19.2876 H   0  0  0  0  0  0
   20.8249  -14.0748   19.1301 H   0  0  0  0  0  0
   20.1638  -11.8582   21.0783 H   0  0  0  0  0  0
   21.6917  -12.7340   21.0489 H   0  0  0  0  0  0
   16.7307  -14.4810   18.7959 H   0  0  0  0  0  0
   16.5416  -15.3247   20.2912 H   0  0  0  0  0  0
   15.3892  -13.5896   21.3158 H   0  0  0  0  0  0
   17.0535  -11.7443   21.0389 H   0  0  0  0  0  0
   16.5397  -11.4880   19.4089 H   0  0  0  0  0  0
   14.8132  -11.1778   21.9210 H   0  0  0  0  0  0
   15.4250   -9.8930   20.8905 H   0  0  0  0  0  0
   13.0136  -12.8407   20.7754 H   0  0  0  0  0  0
   12.5851  -12.4310   19.1258 H   0  0  0  0  0  0
   14.8045  -13.1268   18.3290 H   0  0  0  0  0  0
   14.1420  -14.3788   19.3014 H   0  0  0  0  0  0
   13.2526   -9.0905   20.2557 H   0  0  0  0  0  0
   12.0160  -10.1769   19.7209 H   0  0  0  0  0  0
   13.2035   -8.3157   22.4516 H   0  0  0  0  0  0
   12.1900   -8.3661   24.6984 H   0  0  0  0  0  0
   10.7519  -10.2738   25.3516 H   0  0  0  0  0  0
   10.3974  -12.1586   23.8232 H   0  0  0  0  0  0
   11.3014  -12.0812   21.5647 H   0  0  0  0  0  0
   20.5224  -11.0526   18.7277 H   0  0  0  0  0  0
   22.0439  -11.8946   18.7112 H   0  0  0  0  0  0
   21.1969  -13.1167   16.9208 H   0  0  0  0  0  0
  1  2  1  0  0  0
  1  8  2  0  0  0
  1  9  1  0  0  0
  2  3  1  0  0  0
  2  7  2  0  0  0
  3  4  2  0  0  0
  3 33  1  0  0  0
  4  5  1  0  0  0
  4 15  1  0  0  0
  5  6  2  0  0  0
  5 34  1  0  0  0
  6  7  1  0  0  0
  6 35  1  0  0  0
  7 36  1  0  0  0
  8 37  1  0  0  0
  9 38  1  0  0  0
  9 39  1  0  0  0
 10 11  1  0  0  0
 10 15  1  0  0  0
 10 16  2  0  0  0
 11 12  1  0  0  0
 11 17  1  0  0  0
 12 13  1  0  0  0
 12 40  1  0  0  0
 12 41  1  0  0  0
 13 14  1  0  0  0
 13 31  1  0  0  0
 13 42  1  0  0  0
 14 15  1  0  0  0
 14 43  1  0  0  0
 14 44  1  0  0  0
 17 18  1  0  0  0
 17 45  1  0  0  0
 17 46  1  0  0  0
 18 19  1  0  0  0
 18 23  1  0  0  0
 18 47  1  0  0  0
 19 20  1  0  0  0
 19 48  1  0  0  0
 19 49  1  0  0  0
 20 21  1  0  0  0
 20 50  1  0  0  0
 20 51  1  0  0  0
 21 22  1  0  0  0
 21 24  1  0  0  0
 22 23  1  0  0  0
 22 52  1  0  0  0
 22 53  1  0  0  0
 23 54  1  0  0  0
 23 55  1  0  0  0
 24 25  1  0  0  0
 24 56  1  0  0  0
 24 57  1  0  0  0
 25 26  2  0  0  0
 25 30  1  0  0  0
 26 27  1  0  0  0
 26 58  1  0  0  0
 27 28  2  0  0  0
 27 59  1  0  0  0
 28 29  1  0  0  0
 28 60  1  0  0  0
 29 30  2  0  0  0
 29 61  1  0  0  0
 30 62  1  0  0  0
 31 32  1  0  0  0
 31 63  1  0  0  0
 31 64  1  0  0  0
 32 65  1  0  0  0
M  END
> <s_m_entry_id>
35223

> <s_m_entry_name>
dock_pv.73

> <s_m_Source_Path>
/home/csk/Desktop/cluster/DUD-E-result/thrb

> <s_m_Source_File>
dock_pv.maegz

> <i_m_Source_File_Index>
73

> <chembl_id>
CHEMBL3781354

> <chembl_pref_name>
None

> <i_lp_mmshare_version>
53161

> <r_lp_tautomer_probability>
1

> <s_lp_Force_Field>
OPLS_2005

> <r_lp_Energy>
65.914002

> <b_lp_Chiralities_Consistent>
1

> <s_lp_Variant>
CHEMBL204_lig5058-1

> <s_i_glide_gridfile>
glide-grid_1ype

> <i_i_glide_lignum>
6926

> <i_i_glide_rotatable_bonds>
8

> <r_i_docking_score>
-7.90623482805604

> <r_i_glide_ligand_efficiency>
-0.247069838376751

> <r_i_glide_ligand_efficiency_sa>
-0.784397841791564

> <r_i_glide_ligand_efficiency_ln>
-1.77042149382353

> <r_i_glide_gscore>
-7.90623482805604

> <r_i_glide_lipo>
-3.84998920043279

> <r_i_glide_hbond>
-0.32

> <r_i_glide_metal>
0

> <r_i_glide_rewards>
-1.11395252896362

> <r_i_glide_evdw>
-44.1172790527344

> <r_i_glide_ecoul>
-6.79291915893555

> <r_i_glide_erotb>
0.630170287203083

> <r_i_glide_esite>
-0.0276615593856606

> <r_i_glide_emodel>
-66.7462414313325

> <r_i_glide_energy>
-50.9101982116699

> <r_i_glide_einternal>
13.5891885757446

> <i_i_glide_confnum>
6

> <i_i_glide_posenum>
197

> <r_i_glide_eff_state_penalty>
0

> <s_user_duplicate_titles>
CHEMBL204_lig5058

> <i_f3d_flags>
0

> <s_m_subgroup_title>
dock_pv

> <s_m_subgroupid>
dock_pv

> <b_m_subgroup_collapsed>
1

$$$$
CHEMBL204_lig3024
                    3D
 Schrodinger Suite 2021-1.
 55 58  0  0  1  0            999 V2000
   14.4289  -14.3448   20.0314 N   0  0  0  0  0  0
   15.1647  -14.2304   18.8458 C   0  0  0  0  0  0
   14.5050  -14.9191   17.8434 C   0  0  0  0  0  0
   13.3072  -15.1326   19.7836 C   0  0  0  0  0  0
   16.4113  -13.4507   18.7146 C   0  0  0  0  0  0
   13.3501  -15.5296   18.4156 C   0  0  0  0  0  0
   11.3302  -10.7415   23.6951 C   0  0  0  0  0  0
   18.9577  -14.2541   24.7269 C   0  0  0  0  0  0
   14.6478  -13.6990   21.3303 C   0  0  0  0  0  0
   12.3780  -10.9203   22.6602 C   0  0  0  0  0  0
   19.5357  -13.8774   23.4027 C   0  0  0  0  0  0
   17.2005  -13.5021   19.8157 O   0  0  0  0  0  0
   11.2148   -9.6423   24.2994 N   0  0  0  0  0  0
   19.6750  -14.2923   25.7621 N   0  0  0  0  0  0
   12.8805  -12.1903   22.3214 C   0  0  0  0  0  0
   16.7292  -12.8912   17.6616 O   0  0  0  0  0  0
   13.9884  -12.3345   21.4828 C   0  0  0  0  0  0
   18.7427  -13.5695   22.2751 C   0  0  0  0  0  0
   17.6162  -14.5440   24.7109 N   0  0  0  0  0  0
   10.5516  -11.8529   23.9211 N   0  0  0  0  0  0
   18.4672  -12.8502   19.8227 C   0  0  0  0  0  0
   19.3099  -13.2205   21.0400 C   0  0  0  0  0  0
   12.2592  -15.5369   20.6287 C   0  0  0  0  0  0
   12.3352  -16.3566   17.9130 C   0  0  0  0  0  0
   12.9607   -9.8043   22.0349 C   0  0  0  0  0  0
   20.9316  -13.8083   23.2364 C   0  0  0  0  0  0
   14.0205   -9.9442   21.1443 C   0  0  0  0  0  0
   21.5034  -13.4584   22.0166 C   0  0  0  0  0  0
   14.5431  -11.2055   20.8758 C   0  0  0  0  0  0
   20.6992  -13.1718   20.9207 C   0  0  0  0  0  0
   11.2675  -16.3500   20.0809 C   0  0  0  0  0  0
   11.3000  -16.7548   18.7537 C   0  0  0  0  0  0
   14.8312  -14.9894   16.8152 H   0  0  0  0  0  0
   14.2854  -14.3756   22.1046 H   0  0  0  0  0  0
   15.6990  -13.6171   21.5613 H   0  0  0  0  0  0
   10.4343   -9.6764   24.9448 H   0  0  0  0  0  0
   19.1480  -14.5490   26.5818 H   0  0  0  0  0  0
   12.4831  -13.0761   22.7975 H   0  0  0  0  0  0
   17.6683  -13.5775   22.3597 H   0  0  0  0  0  0
   17.1454  -14.8087   25.5648 H   0  0  0  0  0  0
   17.1158  -14.6634   23.8461 H   0  0  0  0  0  0
    9.7391  -11.7784   24.5338 H   0  0  0  0  0  0
   10.7475  -12.7623   23.5187 H   0  0  0  0  0  0
   18.3290  -11.7682   19.8007 H   0  0  0  0  0  0
   19.0175  -13.1339   18.9226 H   0  0  0  0  0  0
   12.1979  -15.2310   21.6619 H   0  0  0  0  0  0
   12.3396  -16.6584   16.8736 H   0  0  0  0  0  0
   12.6105   -8.8073   22.2627 H   0  0  0  0  0  0
   21.5954  -14.0295   24.0618 H   0  0  0  0  0  0
   14.4709   -9.0658   20.7087 H   0  0  0  0  0  0
   22.5773  -13.4250   21.9198 H   0  0  0  0  0  0
   15.4068  -11.2948   20.2332 H   0  0  0  0  0  0
   21.1656  -12.9085   19.9817 H   0  0  0  0  0  0
   10.4352  -16.6603   20.6973 H   0  0  0  0  0  0
   10.5040  -17.3743   18.3654 H   0  0  0  0  0  0
  1  2  1  0  0  0
  1  4  1  0  0  0
  1  9  1  0  0  0
  2  3  2  0  0  0
  2  5  1  0  0  0
  3  6  1  0  0  0
  3 33  1  0  0  0
  4  6  1  0  0  0
  4 23  2  0  0  0
  5 12  1  0  0  0
  5 16  2  0  0  0
  6 24  2  0  0  0
  7 10  1  0  0  0
  7 13  2  0  0  0
  7 20  1  0  0  0
  8 11  1  0  0  0
  8 14  2  0  0  0
  8 19  1  0  0  0
  9 17  1  0  0  0
  9 34  1  0  0  0
  9 35  1  0  0  0
 10 15  2  0  0  0
 10 25  1  0  0  0
 11 18  2  0  0  0
 11 26  1  0  0  0
 12 21  1  0  0  0
 13 36  1  0  0  0
 14 37  1  0  0  0
 15 17  1  0  0  0
 15 38  1  0  0  0
 17 29  2  0  0  0
 18 22  1  0  0  0
 18 39  1  0  0  0
 19 40  1  0  0  0
 19 41  1  0  0  0
 20 42  1  0  0  0
 20 43  1  0  0  0
 21 22  1  0  0  0
 21 44  1  0  0  0
 21 45  1  0  0  0
 22 30  2  0  0  0
 23 31  1  0  0  0
 23 46  1  0  0  0
 24 32  1  0  0  0
 24 47  1  0  0  0
 25 27  2  0  0  0
 25 48  1  0  0  0
 26 28  2  0  0  0
 26 49  1  0  0  0
 27 29  1  0  0  0
 27 50  1  0  0  0
 28 30  1  0  0  0
 28 51  1  0  0  0
 29 52  1  0  0  0
 30 53  1  0  0  0
 31 32  2  0  0  0
 31 54  1  0  0  0
 32 55  1  0  0  0
M  END
> <s_m_entry_id>
35224

> <s_m_entry_name>
dock_pv.74

> <s_m_Source_Path>
/home/csk/Desktop/cluster/DUD-E-result/thrb

> <s_m_Source_File>
dock_pv.maegz

> <i_m_Source_File_Index>
74

> <chembl_id>
CHEMBL92836

> <chembl_pref_name>
None

> <i_lp_mmshare_version>
53161

> <r_lp_tautomer_probability>
1

> <s_lp_Force_Field>
OPLS_2005

> <r_lp_Energy>
12.323664

> <b_lp_Chiralities_Consistent>
1

> <s_lp_Variant>
CHEMBL204_lig3024-1

> <s_i_glide_gridfile>
glide-grid_1ype

> <i_i_glide_lignum>
4297

> <i_i_glide_rotatable_bonds>
8

> <r_i_docking_score>
-7.89770813058824

> <r_i_glide_ligand_efficiency>
-0.246803379080882

> <r_i_glide_ligand_efficiency_sa>
-0.783551886259403

> <r_i_glide_ligand_efficiency_ln>
-1.76851213383149

> <r_i_glide_gscore>
-7.89770813058824

> <r_i_glide_lipo>
-3.24872442072711

> <r_i_glide_hbond>
-0.537015356585446

> <r_i_glide_metal>
0

> <r_i_glide_rewards>
-1.04451067391242

> <r_i_glide_evdw>
-43.6410713195801

> <r_i_glide_ecoul>
-9.43148708343506

> <r_i_glide_erotb>
0.657472394604348

> <r_i_glide_esite>
-0.128153445473348

> <r_i_glide_emodel>
-75.4622743713185

> <r_i_glide_energy>
-53.0725584030151

> <r_i_glide_einternal>
4.62231349945068

> <i_i_glide_confnum>
13

> <i_i_glide_posenum>
262

> <r_i_glide_eff_state_penalty>
0

> <s_user_duplicate_titles>
CHEMBL204_lig3024

> <i_f3d_flags>
0

> <s_m_subgroup_title>
dock_pv

> <s_m_subgroupid>
dock_pv

> <b_m_subgroup_collapsed>
1

$$$$
CHEMBL204_lig539
                    3D
 Schrodinger Suite 2021-1.
 54 56  0  0  1  0            999 V2000
   16.9594  -12.5499   20.9818 N   0  0  0  0  0  0
   18.2125  -12.9574   21.3197 C   0  0  0  0  0  0
   16.7324  -12.1009   19.7158 C   0  0  0  0  0  0
   19.9111  -14.4974   24.4707 C   0  0  0  0  0  0
   19.6852  -13.9035   23.0481 C   0  0  0  0  0  0
   19.3040  -12.8985   20.4010 C   0  0  0  0  0  0
   21.0368  -13.6620   25.1636 C   0  0  0  0  0  0
   11.6090  -10.7866   23.4428 C   0  0  0  0  0  0
   18.4216  -13.4624   22.6251 C   0  0  0  0  0  0
   19.0416  -12.3909   19.0917 C   0  0  0  0  0  0
   17.7390  -12.0164   18.7595 C   0  0  0  0  0  0
   20.5729  -13.3550   20.8366 C   0  0  0  0  0  0
   12.5623  -11.0428   22.3218 C   0  0  0  0  0  0
   11.5591   -9.6596   24.0018 N   0  0  0  0  0  0
   15.4566  -11.6952   19.3631 O   0  0  0  0  0  0
   20.7404  -13.8500   22.1248 C   0  0  0  0  0  0
   20.7845  -12.7696   25.9788 O   0  0  0  0  0  0
   13.4516  -10.0277   21.9212 C   0  0  0  0  0  0
   12.6396  -12.2788   21.6509 C   0  0  0  0  0  0
   10.8160  -11.8501   23.8029 N   0  0  0  0  0  0
   14.4876  -11.4882   20.3176 C   0  0  0  0  0  0
   22.2866  -14.0322   24.7976 O   0  0  0  0  0  0
   13.5886  -12.4983   20.6530 C   0  0  0  0  0  0
   14.4148  -10.2536   20.9489 C   0  0  0  0  0  0
   18.6362  -14.4694   25.3676 C   0  0  0  0  0  0
   20.3199  -15.9922   24.3384 C   0  0  0  0  0  0
   20.1679  -12.2573   18.0762 C   0  0  0  0  0  0
   23.4290  -13.4014   25.3492 C   0  0  0  0  0  0
   24.6046  -13.5767   24.3779 C   0  0  0  0  0  0
   17.5645  -13.5024   23.2785 H   0  0  0  0  0  0
   17.5039  -11.6442   17.7730 H   0  0  0  0  0  0
   21.4177  -13.3345   20.1650 H   0  0  0  0  0  0
   10.8480   -9.6539   24.7203 H   0  0  0  0  0  0
   21.7210  -14.2116   22.3944 H   0  0  0  0  0  0
   13.4363   -9.0580   22.4002 H   0  0  0  0  0  0
   11.9778  -13.0944   21.9034 H   0  0  0  0  0  0
   10.0539  -11.7008   24.4577 H   0  0  0  0  0  0
   10.9541  -12.7965   23.4722 H   0  0  0  0  0  0
   13.6435  -13.4556   20.1574 H   0  0  0  0  0  0
   15.1193   -9.4702   20.7065 H   0  0  0  0  0  0
   18.2672  -13.4564   25.5194 H   0  0  0  0  0  0
   17.8240  -15.0588   24.9416 H   0  0  0  0  0  0
   18.8314  -14.8800   26.3607 H   0  0  0  0  0  0
   21.2048  -16.1373   23.7169 H   0  0  0  0  0  0
   20.5361  -16.4407   25.3097 H   0  0  0  0  0  0
   19.5196  -16.5789   23.8829 H   0  0  0  0  0  0
   19.8031  -11.9155   17.1081 H   0  0  0  0  0  0
   20.9157  -11.5476   18.4298 H   0  0  0  0  0  0
   20.6619  -13.2171   17.9209 H   0  0  0  0  0  0
   23.6314  -13.8548   26.3202 H   0  0  0  0  0  0
   23.2509  -12.3395   25.5195 H   0  0  0  0  0  0
   25.4956  -13.0524   24.7245 H   0  0  0  0  0  0
   24.3596  -13.1764   23.3945 H   0  0  0  0  0  0
   24.8661  -14.6286   24.2621 H   0  0  0  0  0  0
  1  2  1  0  0  0
  1  3  2  0  0  0
  2  6  1  0  0  0
  2  9  2  0  0  0
  3 11  1  0  0  0
  3 15  1  0  0  0
  4  5  1  0  0  0
  4  7  1  0  0  0
  4 25  1  0  0  0
  4 26  1  0  0  0
  5  9  1  0  0  0
  5 16  2  0  0  0
  6 12  2  0  0  0
  6 10  1  0  0  0
  7 17  2  0  0  0
  7 22  1  0  0  0
  8 13  1  0  0  0
  8 14  2  0  0  0
  8 20  1  0  0  0
  9 30  1  0  0  0
 10 11  2  0  0  0
 10 27  1  0  0  0
 11 31  1  0  0  0
 12 16  1  0  0  0
 12 32  1  0  0  0
 13 18  2  0  0  0
 13 19  1  0  0  0
 14 33  1  0  0  0
 15 21  1  0  0  0
 16 34  1  0  0  0
 18 24  1  0  0  0
 18 35  1  0  0  0
 19 23  2  0  0  0
 19 36  1  0  0  0
 20 37  1  0  0  0
 20 38  1  0  0  0
 21 23  1  0  0  0
 21 24  2  0  0  0
 22 28  1  0  0  0
 23 39  1  0  0  0
 24 40  1  0  0  0
 25 41  1  0  0  0
 25 42  1  0  0  0
 25 43  1  0  0  0
 26 44  1  0  0  0
 26 45  1  0  0  0
 26 46  1  0  0  0
 27 47  1  0  0  0
 27 48  1  0  0  0
 27 49  1  0  0  0
 28 29  1  0  0  0
 28 50  1  0  0  0
 28 51  1  0  0  0
 29 52  1  0  0  0
 29 53  1  0  0  0
 29 54  1  0  0  0
M  END
> <s_m_entry_id>
35225

> <s_m_entry_name>
dock_pv.75

> <s_m_Source_Path>
/home/csk/Desktop/cluster/DUD-E-result/thrb

> <s_m_Source_File>
dock_pv.maegz

> <i_m_Source_File_Index>
75

> <chembl_id>
CHEMBL75255

> <chembl_pref_name>
None

> <i_lp_mmshare_version>
53161

> <r_lp_tautomer_probability>
1

> <s_lp_Force_Field>
OPLS_2005

> <r_lp_Energy>
22.03101

> <b_lp_Chiralities_Consistent>
1

> <s_lp_Variant>
CHEMBL204_lig539-1

> <s_i_glide_gridfile>
glide-grid_1ype

> <i_i_glide_lignum>
744

> <i_i_glide_rotatable_bonds>
7

> <r_i_docking_score>
-7.89580672960157

> <r_i_glide_ligand_efficiency>
-0.272269197572468

> <r_i_glide_ligand_efficiency_sa>
-0.836497235878966

> <r_i_glide_ligand_efficiency_ln>
-1.80793952069558

> <r_i_glide_gscore>
-7.89580672960157

> <r_i_glide_lipo>
-3.58657672445388

> <r_i_glide_hbond>
-0.413923090510672

> <r_i_glide_metal>
0

> <r_i_glide_rewards>
-1.248580241632

> <r_i_glide_evdw>
-49.5981941223145

> <r_i_glide_ecoul>
-4.74189043045044

> <r_i_glide_erotb>
0.636729161649574

> <r_i_glide_esite>
-0.0922625639712936

> <r_i_glide_emodel>
-78.7945853573119

> <r_i_glide_energy>
-54.3400845527649

> <r_i_glide_einternal>
3.55822205543518

> <i_i_glide_confnum>
23

> <i_i_glide_posenum>
84

> <r_i_glide_eff_state_penalty>
0

> <s_user_duplicate_titles>
CHEMBL204_lig539

> <i_f3d_flags>
0

> <s_m_subgroup_title>
dock_pv

> <s_m_subgroupid>
dock_pv

> <b_m_subgroup_collapsed>
1

$$$$
CHEMBL204_lig5013
                    3D
 Schrodinger Suite 2021-1.
 57 59  0  0  1  0            999 V2000
   19.1866  -13.3109   20.7975 N   0  0  0  0  0  0
   18.9019  -12.0980   19.9835 C   0  0  1  0  0  0
   20.1002  -12.0485   19.0107 C   0  0  0  0  0  0
   21.2070  -12.7524   19.7481 C   0  0  0  0  0  0
   20.4575  -13.9069   20.3754 C   0  0  0  0  0  0
   18.4935  -13.7041   21.8959 C   0  0  0  0  0  0
   17.5363  -12.0222   19.2514 C   0  0  0  0  0  0
   16.4360  -12.1085   20.0096 N   0  0  0  0  0  0
   17.5033  -11.8511   18.0304 O   0  0  0  0  0  0
   15.0563  -12.0090   19.5370 C   0  0  0  0  0  0
   14.1362  -11.4004   20.5900 C   0  0  0  0  0  0
   14.3810  -10.1206   21.0873 C   0  0  0  0  0  0
   13.5751   -9.5918   22.0898 C   0  0  0  0  0  0
   12.5248  -10.3362   22.6548 C   0  0  0  0  0  0
   12.2655  -11.6072   22.1027 C   0  0  0  0  0  0
   13.0561  -12.1309   21.0835 C   0  0  0  0  0  0
   11.7671   -9.7955   23.8236 C   0  0  0  0  0  0
   12.0160   -8.6548   24.3058 N   0  0  0  0  0  0
   10.8168  -10.6442   24.3215 N   0  0  0  0  0  0
   18.9045  -14.9989   22.6335 C   0  0  0  0  0  0
   17.5248  -13.0761   22.3216 O   0  0  0  0  0  0
   19.6006  -14.8144   24.0153 C   0  0  0  0  0  0
   20.7338  -13.7488   24.0483 C   0  0  0  0  0  0
   21.4332  -13.6919   25.4220 C   0  0  0  0  0  0
   20.4203  -13.4485   26.5564 C   0  0  0  0  0  0
   19.2713  -14.4780   26.5219 C   0  0  0  0  0  0
   18.5882  -14.5121   25.1441 C   0  0  0  0  0  0
   18.9622  -11.2424   20.6583 H   0  0  0  0  0  0
   20.4089  -11.0512   18.7257 H   0  0  0  0  0  0
   19.8913  -12.6012   18.0930 H   0  0  0  0  0  0
   21.6180  -12.1042   20.5234 H   0  0  0  0  0  0
   22.0156  -13.0527   19.0950 H   0  0  0  0  0  0
   21.0575  -14.3399   21.1724 H   0  0  0  0  0  0
   20.2613  -14.6881   19.6405 H   0  0  0  0  0  0
   16.5697  -12.3561   20.9884 H   0  0  0  0  0  0
   14.9911  -11.4130   18.6242 H   0  0  0  0  0  0
   14.7146  -13.0109   19.2693 H   0  0  0  0  0  0
   15.2164   -9.5418   20.7212 H   0  0  0  0  0  0
   13.8227   -8.6114   22.4728 H   0  0  0  0  0  0
   11.4644  -12.2305   22.4750 H   0  0  0  0  0  0
   12.8445  -13.1224   20.7100 H   0  0  0  0  0  0
   11.4164   -8.4590   25.0917 H   0  0  0  0  0  0
   10.1460  -10.3065   25.0068 H   0  0  0  0  0  0
   10.5357  -11.4632   23.8062 H   0  0  0  0  0  0
   19.5120  -15.6441   22.0024 H   0  0  0  0  0  0
   17.9949  -15.5829   22.7722 H   0  0  0  0  0  0
   20.0616  -15.7710   24.2719 H   0  0  0  0  0  0
   20.3419  -12.7643   23.7872 H   0  0  0  0  0  0
   21.4780  -13.9650   23.2841 H   0  0  0  0  0  0
   22.1919  -12.9087   25.4280 H   0  0  0  0  0  0
   21.9647  -14.6286   25.6011 H   0  0  0  0  0  0
   20.0159  -12.4394   26.4622 H   0  0  0  0  0  0
   20.9243  -13.4700   27.5209 H   0  0  0  0  0  0
   18.5349  -14.2535   27.2904 H   0  0  0  0  0  0
   19.6632  -15.4676   26.7582 H   0  0  0  0  0  0
   17.8047  -15.2711   25.1518 H   0  0  0  0  0  0
   18.0657  -13.5785   24.9505 H   0  0  0  0  0  0
  1  2  1  0  0  0
  1  5  1  0  0  0
  1  6  1  0  0  0
  2  3  1  0  0  0
  2  7  1  0  0  0
  2 28  1  0  0  0
  3  4  1  0  0  0
  3 29  1  0  0  0
  3 30  1  0  0  0
  4  5  1  0  0  0
  4 31  1  0  0  0
  4 32  1  0  0  0
  5 33  1  0  0  0
  5 34  1  0  0  0
  6 20  1  0  0  0
  6 21  2  0  0  0
  7  8  1  0  0  0
  7  9  2  0  0  0
  8 10  1  0  0  0
  8 35  1  0  0  0
 10 11  1  0  0  0
 10 36  1  0  0  0
 10 37  1  0  0  0
 11 12  2  0  0  0
 11 16  1  0  0  0
 12 13  1  0  0  0
 12 38  1  0  0  0
 13 14  2  0  0  0
 13 39  1  0  0  0
 14 15  1  0  0  0
 14 17  1  0  0  0
 15 16  2  0  0  0
 15 40  1  0  0  0
 16 41  1  0  0  0
 17 18  2  0  0  0
 17 19  1  0  0  0
 18 42  1  0  0  0
 19 43  1  0  0  0
 19 44  1  0  0  0
 20 22  1  0  0  0
 20 45  1  0  0  0
 20 46  1  0  0  0
 22 23  1  0  0  0
 22 27  1  0  0  0
 22 47  1  0  0  0
 23 24  1  0  0  0
 23 48  1  0  0  0
 23 49  1  0  0  0
 24 25  1  0  0  0
 24 50  1  0  0  0
 24 51  1  0  0  0
 25 26  1  0  0  0
 25 52  1  0  0  0
 25 53  1  0  0  0
 26 27  1  0  0  0
 26 54  1  0  0  0
 26 55  1  0  0  0
 27 56  1  0  0  0
 27 57  1  0  0  0
M  END
> <s_m_entry_id>
35226

> <s_m_entry_name>
dock_pv.76

> <s_m_Source_Path>
/home/csk/Desktop/cluster/DUD-E-result/thrb

> <s_m_Source_File>
dock_pv.maegz

> <i_m_Source_File_Index>
76

> <chembl_id>
CHEMBL3423006

> <chembl_pref_name>
None

> <i_lp_mmshare_version>
53161

> <r_lp_tautomer_probability>
1

> <s_lp_Force_Field>
OPLS_2005

> <r_lp_Energy>
13.032091

> <b_lp_Chiralities_Consistent>
1

> <s_lp_Variant>
CHEMBL204_lig5013-1

> <s_i_glide_gridfile>
glide-grid_1ype

> <i_i_glide_lignum>
6860

> <i_i_glide_rotatable_bonds>
8

> <r_i_docking_score>
-7.8945921890692

> <r_i_glide_ligand_efficiency>
-0.292392303298859

> <r_i_glide_ligand_efficiency_sa>
-0.8771769089329

> <r_i_glide_ligand_efficiency_ln>
-1.8377309090911

> <r_i_glide_gscore>
-7.8945921890692

> <r_i_glide_lipo>
-3.84238178654463

> <r_i_glide_hbond>
-0.16

> <r_i_glide_metal>
0

> <r_i_glide_rewards>
-1.83012494228022

> <r_i_glide_evdw>
-43.1831359863281

> <r_i_glide_ecoul>
-5.35350131988525

> <r_i_glide_erotb>
0.983876029473921

> <r_i_glide_esite>
-0.0837794924190744

> <r_i_glide_emodel>
-66.7200034632228

> <r_i_glide_energy>
-48.5366373062134

> <r_i_glide_einternal>
8.83958435058594

> <i_i_glide_confnum>
5

> <i_i_glide_posenum>
26

> <r_i_glide_eff_state_penalty>
0

> <s_user_duplicate_titles>
CHEMBL204_lig5013,CHEMBL204_lig4703

> <i_f3d_flags>
0

> <s_m_subgroup_title>
dock_pv

> <s_m_subgroupid>
dock_pv

> <b_m_subgroup_collapsed>
1

$$$$
CHEMBL204_lig4762
                    3D
 Schrodinger Suite 2021-1.
 56 59  0  0  1  0            999 V2000
   18.6929  -13.7448   22.1944 C   0  0  0  0  0  0
   17.5370  -13.1268   21.6909 C   0  0  0  0  0  0
   17.5659  -12.3560   20.5156 C   0  0  0  0  0  0
   18.7817  -12.2125   19.8394 C   0  0  0  0  0  0
   19.9431  -12.8063   20.3255 C   0  0  0  0  0  0
   19.8902  -13.5831   21.4846 C   0  0  0  0  0  0
   21.2639  -12.5676   19.6250 C   0  0  0  0  0  0
   18.6173  -14.5904   23.4277 C   0  0  0  0  0  0
   16.3387  -11.6669   19.9777 C   0  0  0  0  0  0
   16.2060  -11.4532   18.7716 O   0  0  0  0  0  0
   14.3471  -10.3327   20.6598 C   0  0  0  0  0  0
   13.2204  -10.4938   21.6784 C   0  0  0  0  0  0
   12.9996   -9.4413   22.5762 C   0  0  0  0  0  0
   12.0161   -9.5280   23.5572 C   0  0  0  0  0  0
   11.2160  -10.6635   23.6327 C   0  0  0  0  0  0
   11.4087  -11.7132   22.7354 C   0  0  0  0  0  0
   12.4143  -11.6499   21.7605 C   0  0  0  0  0  0
   12.6077  -12.7835   20.9361 N   0  0  0  0  0  0
   11.8225   -8.2402   24.6933 Cl  0  0  0  0  0  0
   12.8158  -12.7094   19.6140 N   0  0  0  0  0  0
   12.9550  -14.0173   19.1908 N   0  0  0  0  0  0
   12.8091  -14.8854   20.2661 N   0  0  0  0  0  0
   12.5952  -14.1103   21.2973 C   0  0  0  0  0  0
   17.6166  -15.5731   23.4824 C   0  0  0  0  0  0
   17.4883  -16.3785   24.5535 N   0  3  0  0  0  0
   18.3004  -16.2919   25.6209 C   0  0  0  0  0  0
   19.3189  -15.3417   25.6343 C   0  0  0  0  0  0
   19.4899  -14.4730   24.5432 C   0  0  0  0  0  0
   20.6199  -13.4326   24.6294 C   0  0  0  0  0  0
   22.0009  -14.0721   24.3850 C   0  0  0  0  0  0
   20.6097  -12.6458   25.9555 C   0  0  0  0  0  0
   16.5877  -17.2600   24.5500 O   0  5  0  0  0  0
   15.4701  -11.2329   20.9033 N   0  0  0  0  0  0
   16.6037  -13.2607   22.2216 H   0  0  0  0  0  0
   18.8304  -11.6162   18.9394 H   0  0  0  0  0  0
   20.7904  -14.0589   21.8349 H   0  0  0  0  0  0
   21.2135  -11.7455   18.9102 H   0  0  0  0  0  0
   22.0160  -12.3012   20.3653 H   0  0  0  0  0  0
   21.6088  -13.4638   19.1132 H   0  0  0  0  0  0
   14.7449   -9.3172   20.7208 H   0  0  0  0  0  0
   13.9506  -10.4299   19.6480 H   0  0  0  0  0  0
   13.6166   -8.5552   22.5431 H   0  0  0  0  0  0
   10.4350  -10.7310   24.3799 H   0  0  0  0  0  0
   10.7629  -12.5775   22.8080 H   0  0  0  0  0  0
   12.4161  -14.4091   22.3206 H   0  0  0  0  0  0
   16.8995  -15.7486   22.6938 H   0  0  0  0  0  0
   18.1060  -16.9893   26.4244 H   0  0  0  0  0  0
   19.9707  -15.2842   26.4943 H   0  0  0  0  0  0
   20.4587  -12.6801   23.8571 H   0  0  0  0  0  0
   22.0130  -14.6768   23.4795 H   0  0  0  0  0  0
   22.7774  -13.3118   24.2873 H   0  0  0  0  0  0
   22.2875  -14.7219   25.2146 H   0  0  0  0  0  0
   19.6165  -12.2552   26.1581 H   0  0  0  0  0  0
   20.9047  -13.2573   26.8092 H   0  0  0  0  0  0
   21.2840  -11.7937   25.9217 H   0  0  0  0  0  0
   15.7258  -11.3686   21.8671 H   0  0  0  0  0  0
  1  2  2  0  0  0
  1  6  1  0  0  0
  1  8  1  0  0  0
  2  3  1  0  0  0
  2 34  1  0  0  0
  3  4  2  0  0  0
  3  9  1  0  0  0
  4  5  1  0  0  0
  4 35  1  0  0  0
  5  6  2  0  0  0
  5  7  1  0  0  0
  6 36  1  0  0  0
  7 37  1  0  0  0
  7 38  1  0  0  0
  7 39  1  0  0  0
  8 24  2  0  0  0
  8 28  1  0  0  0
  9 10  2  0  0  0
  9 33  1  0  0  0
 11 12  1  0  0  0
 11 33  1  0  0  0
 11 40  1  0  0  0
 11 41  1  0  0  0
 12 13  2  0  0  0
 12 17  1  0  0  0
 13 14  1  0  0  0
 13 42  1  0  0  0
 14 15  2  0  0  0
 14 19  1  0  0  0
 15 16  1  0  0  0
 15 43  1  0  0  0
 16 17  2  0  0  0
 16 44  1  0  0  0
 17 18  1  0  0  0
 18 20  1  0  0  0
 18 23  1  0  0  0
 20 21  2  0  0  0
 21 22  1  0  0  0
 22 23  2  0  0  0
 23 45  1  0  0  0
 24 25  1  0  0  0
 24 46  1  0  0  0
 25 26  2  0  0  0
 25 32  1  0  0  0
 26 27  1  0  0  0
 26 47  1  0  0  0
 27 28  2  0  0  0
 27 48  1  0  0  0
 28 29  1  0  0  0
 29 30  1  0  0  0
 29 31  1  0  0  0
 29 49  1  0  0  0
 30 50  1  0  0  0
 30 51  1  0  0  0
 30 52  1  0  0  0
 31 53  1  0  0  0
 31 54  1  0  0  0
 31 55  1  0  0  0
 33 56  1  0  0  0
M  CHG  2  25   1  32  -1
M  END
> <s_m_entry_id>
35227

> <s_m_entry_name>
dock_pv.77

> <s_m_Source_Path>
/home/csk/Desktop/cluster/DUD-E-result/thrb

> <s_m_Source_File>
dock_pv.maegz

> <i_m_Source_File_Index>
77

> <chembl_id>
CHEMBL1682782

> <chembl_pref_name>
None

> <i_lp_mmshare_version>
53161

> <r_lp_tautomer_probability>
1

> <s_lp_Force_Field>
OPLS_2005

> <r_lp_Energy>
33.624409

> <b_lp_Chiralities_Consistent>
1

> <s_lp_Variant>
CHEMBL204_lig4762-1

> <s_i_glide_gridfile>
glide-grid_1ype

> <i_i_glide_lignum>
6510

> <i_i_glide_rotatable_bonds>
7

> <r_i_docking_score>
-7.89297371352422

> <r_i_glide_ligand_efficiency>
-0.239181021621946

> <r_i_glide_ligand_efficiency_sa>
-0.767181337041714

> <r_i_glide_ligand_efficiency_ln>
-1.75535648625709

> <r_i_glide_gscore>
-7.89297371352422

> <r_i_glide_lipo>
-4.2292509650235

> <r_i_glide_hbond>
0

> <r_i_glide_metal>
0

> <r_i_glide_rewards>
-0.905821816148419

> <r_i_glide_evdw>
-53.0394439697266

> <r_i_glide_ecoul>
-4.38070154190063

> <r_i_glide_erotb>
0.564086492112645

> <r_i_glide_esite>
-0.0129099946935254

> <r_i_glide_emodel>
-82.6086044504144

> <r_i_glide_energy>
-57.4201455116272

> <r_i_glide_einternal>
4.78475904464722

> <i_i_glide_confnum>
108

> <i_i_glide_posenum>
124

> <r_i_glide_eff_state_penalty>
0

> <s_user_duplicate_titles>
CHEMBL204_lig4762

> <i_f3d_flags>
0

> <s_m_subgroup_title>
dock_pv

> <s_m_subgroupid>
dock_pv

> <b_m_subgroup_collapsed>
1

$$$$
CHEMBL204_lig4190
                    3D
 Schrodinger Suite 2021-1.
 53 55  0  0  1  0            999 V2000
   19.1374  -12.2474   19.7820 C   0  0  0  0  0  0
   17.9439  -11.9635   19.1179 C   0  0  0  0  0  0
   16.7601  -12.6370   19.4273 C   0  0  0  0  0  0
   16.7883  -13.5875   20.4575 C   0  0  0  0  0  0
   17.9753  -13.8708   21.1369 C   0  0  0  0  0  0
   19.1727  -13.2172   20.7948 C   0  0  0  0  0  0
   20.2608  -11.5375   19.4271 O   0  0  0  0  0  0
   21.1840  -12.2604   18.6249 C   0  0  0  0  0  0
   20.4032  -13.4525   21.3863 O   0  0  0  0  0  0
   20.6267  -14.5742   22.2380 C   0  0  0  0  0  0
   20.8775  -14.0959   23.6600 C   0  0  0  0  0  0
   22.1872  -13.8762   24.1006 C   0  0  0  0  0  0
   22.4194  -13.4530   25.4068 C   0  0  0  0  0  0
   21.3420  -13.2390   26.2640 C   0  0  0  0  0  0
   20.0362  -13.4535   25.8304 C   0  0  0  0  0  0
   19.8017  -13.8802   24.5257 C   0  0  0  0  0  0
   15.5088  -12.3328   18.6219 C   0  0  1  0  0  0
   15.5474  -13.0659   17.2482 C   0  0  0  0  0  0
   16.3769  -12.7687   16.3901 O   0  0  0  0  0  0
   14.6361  -14.0763   17.1091 O   0  0  0  0  0  0
   14.2545  -12.6027   19.3057 N   0  0  0  0  0  0
   13.6516  -11.9034   20.3575 C   0  0  0  0  0  0
   14.1743  -10.7075   20.8506 C   0  0  0  0  0  0
   13.5403  -10.0492   21.9014 C   0  0  0  0  0  0
   12.3760  -10.5714   22.4937 C   0  0  0  0  0  0
   11.8647  -11.7753   21.9691 C   0  0  0  0  0  0
   12.4928  -12.4313   20.9152 C   0  0  0  0  0  0
   11.7272   -9.8622   23.6332 C   0  0  0  0  0  0
   12.0239   -8.6731   23.9212 N   0  0  0  0  0  0
   10.8161  -10.6214   24.3213 N   0  0  0  0  0  0
   17.9414  -11.2272   18.3309 H   0  0  0  0  0  0
   15.8896  -14.1211   20.7305 H   0  0  0  0  0  0
   17.9355  -14.6031   21.9267 H   0  0  0  0  0  0
   21.9986  -11.5992   18.3302 H   0  0  0  0  0  0
   21.6158  -13.0999   19.1671 H   0  0  0  0  0  0
   20.7150  -12.6434   17.7169 H   0  0  0  0  0  0
   19.8632  -15.3506   22.2107 H   0  0  0  0  0  0
   21.5259  -15.0748   21.8717 H   0  0  0  0  0  0
   23.0233  -14.0345   23.4354 H   0  0  0  0  0  0
   23.4289  -13.2896   25.7535 H   0  0  0  0  0  0
   21.5206  -12.9052   27.2751 H   0  0  0  0  0  0
   19.2161  -13.2897   26.5104 H   0  0  0  0  0  0
   18.7878  -14.0423   24.1923 H   0  0  0  0  0  0
   15.5128  -11.2636   18.4060 H   0  0  0  0  0  0
   14.7104  -14.4965   16.2477 H   0  0  0  0  0  0
   13.7873  -13.4454   18.9967 H   0  0  0  0  0  0
   15.0751  -10.2843   20.4325 H   0  0  0  0  0  0
   13.9752   -9.1278   22.2649 H   0  0  0  0  0  0
   10.9652  -12.2253   22.3651 H   0  0  0  0  0  0
   12.0689  -13.3536   20.5422 H   0  0  0  0  0  0
   11.4953   -8.3594   24.7205 H   0  0  0  0  0  0
   10.1765  -10.1887   24.9835 H   0  0  0  0  0  0
   10.5426  -11.5300   23.9800 H   0  0  0  0  0  0
  1  6  1  0  0  0
  1  2  2  0  0  0
  1  7  1  0  0  0
  2  3  1  0  0  0
  2 31  1  0  0  0
  3  4  2  0  0  0
  3 17  1  0  0  0
  4  5  1  0  0  0
  4 32  1  0  0  0
  5  6  2  0  0  0
  5 33  1  0  0  0
  6  9  1  0  0  0
  7  8  1  0  0  0
  8 34  1  0  0  0
  8 35  1  0  0  0
  8 36  1  0  0  0
  9 10  1  0  0  0
 10 11  1  0  0  0
 10 37  1  0  0  0
 10 38  1  0  0  0
 11 16  1  0  0  0
 11 12  2  0  0  0
 12 13  1  0  0  0
 12 39  1  0  0  0
 13 14  2  0  0  0
 13 40  1  0  0  0
 14 15  1  0  0  0
 14 41  1  0  0  0
 15 16  2  0  0  0
 15 42  1  0  0  0
 16 43  1  0  0  0
 17 18  1  0  0  0
 17 21  1  0  0  0
 17 44  1  0  0  0
 18 19  2  0  0  0
 18 20  1  0  0  0
 20 45  1  0  0  0
 21 22  1  0  0  0
 21 46  1  0  0  0
 22 23  2  0  0  0
 22 27  1  0  0  0
 23 24  1  0  0  0
 23 47  1  0  0  0
 24 25  2  0  0  0
 24 48  1  0  0  0
 25 26  1  0  0  0
 25 28  1  0  0  0
 26 27  2  0  0  0
 26 49  1  0  0  0
 27 50  1  0  0  0
 28 29  2  0  0  0
 28 30  1  0  0  0
 29 51  1  0  0  0
 30 52  1  0  0  0
 30 53  1  0  0  0
M  END
> <s_m_entry_id>
35228

> <s_m_entry_name>
dock_pv.78

> <s_m_Source_Path>
/home/csk/Desktop/cluster/DUD-E-result/thrb

> <s_m_Source_File>
dock_pv.maegz

> <i_m_Source_File_Index>
78

> <chembl_id>
CHEMBL199268

> <chembl_pref_name>
None

> <i_lp_mmshare_version>
53161

> <r_lp_tautomer_probability>
1

> <s_lp_Force_Field>
OPLS_2005

> <r_lp_Energy>
23.973353

> <b_lp_Chiralities_Consistent>
1

> <s_lp_Variant>
CHEMBL204_lig4190-2

> <s_i_glide_gridfile>
glide-grid_1ype

> <i_i_glide_lignum>
5824

> <i_i_glide_rotatable_bonds>
10

> <r_i_docking_score>
-7.89043101981658

> <r_i_glide_ligand_efficiency>
-0.263014367327219

> <r_i_glide_ligand_efficiency_sa>
-0.817246790765485

> <r_i_glide_ligand_efficiency_ln>
-1.79279190083419

> <r_i_glide_gscore>
-7.89043101981658

> <r_i_glide_lipo>
-4.01009153680335

> <r_i_glide_hbond>
-0.16

> <r_i_glide_metal>
0

> <r_i_glide_rewards>
-1.12153884798851

> <r_i_glide_evdw>
-50.0923004150391

> <r_i_glide_ecoul>
-5.6524019241333

> <r_i_glide_erotb>
0.83686524016221

> <r_i_glide_esite>
-0.0831905658149766

> <r_i_glide_emodel>
-79.1180440405901

> <r_i_glide_energy>
-55.7447023391724

> <r_i_glide_einternal>
8.99138450622559

> <i_i_glide_confnum>
7

> <i_i_glide_posenum>
312

> <r_i_glide_eff_state_penalty>
0

> <s_user_duplicate_titles>
CHEMBL204_lig4190,333366

> <i_f3d_flags>
0

> <s_m_subgroup_title>
dock_pv

> <s_m_subgroupid>
dock_pv

> <b_m_subgroup_collapsed>
1

$$$$
CHEMBL204_lig3540
                    3D
 Schrodinger Suite 2021-1.
 48 50  0  0  1  0            999 V2000
   14.2225  -12.2098   20.4216 S   0  0  0  0  0  0
   13.0891  -11.4374   21.5794 C   0  0  0  0  0  0
   15.6407  -11.6686   21.1207 O   0  0  0  0  0  0
   23.8795  -14.1887   24.2450 C   0  0  0  0  0  0
   16.7683  -12.4396   21.0988 C   0  0  0  0  0  0
   14.0537  -11.5520   19.1198 O   0  0  0  0  0  0
   14.1224  -13.6662   20.5761 O   0  0  0  0  0  0
   22.4156  -14.2411   24.5206 C   0  0  0  0  0  0
   24.4734  -15.1133   23.6328 N   0  0  0  0  0  0
   13.2111  -10.0802   21.9232 C   0  0  0  0  0  0
   16.8617  -13.5945   21.8764 C   0  0  0  0  0  0
   18.0574  -14.3067   21.9570 C   0  0  0  0  0  0
   21.5760  -15.0905   23.7736 C   0  0  0  0  0  0
   19.0823  -12.6939   20.4435 C   0  0  0  0  0  0
   17.8799  -11.9863   20.3896 C   0  0  0  0  0  0
   18.0679  -15.4084   22.7882 O   0  0  0  0  0  0
   24.4982  -13.0529   24.6876 N   0  0  0  0  0  0
   19.1668  -13.8531   21.2218 C   0  0  0  0  0  0
   20.1935  -15.1326   23.9888 C   0  0  0  0  0  0
   14.4158   -9.0533   21.2157 Cl  0  0  0  0  0  0
   19.3082  -16.0394   23.1308 C   0  0  0  0  0  0
   12.0860  -12.2128   22.1728 C   0  0  0  0  0  0
   21.8098  -13.4532   25.5184 C   0  0  0  0  0  0
   20.4368  -13.5005   25.7533 C   0  0  0  0  0  0
   12.3605   -9.5291   22.8833 C   0  0  0  0  0  0
   20.3081  -12.1806   19.7106 C   0  0  0  0  0  0
   19.6291  -14.3384   24.9905 C   0  0  0  0  0  0
   11.2319  -11.6501   23.1210 C   0  0  0  0  0  0
   11.3761  -10.3127   23.4871 C   0  0  0  0  0  0
   25.4623  -14.9232   23.5432 H   0  0  0  0  0  0
   16.0063  -13.9265   22.4480 H   0  0  0  0  0  0
   21.9970  -15.7102   22.9915 H   0  0  0  0  0  0
   17.8097  -11.0688   19.8265 H   0  0  0  0  0  0
   25.4832  -12.9175   24.5219 H   0  0  0  0  0  0
   23.9666  -12.3075   25.1151 H   0  0  0  0  0  0
   20.1060  -14.3847   21.2602 H   0  0  0  0  0  0
   19.8227  -16.3800   22.2307 H   0  0  0  0  0  0
   19.0797  -16.9332   23.7108 H   0  0  0  0  0  0
   11.9680  -13.2568   21.9195 H   0  0  0  0  0  0
   22.4032  -12.7952   26.1368 H   0  0  0  0  0  0
   19.9970  -12.8856   26.5284 H   0  0  0  0  0  0
   12.4654   -8.4936   23.1727 H   0  0  0  0  0  0
   20.3132  -11.0901   19.6763 H   0  0  0  0  0  0
   21.2217  -12.4787   20.2282 H   0  0  0  0  0  0
   20.3383  -12.5686   18.6911 H   0  0  0  0  0  0
   18.5640  -14.3622   25.1710 H   0  0  0  0  0  0
   10.4588  -12.2528   23.5777 H   0  0  0  0  0  0
   10.7097   -9.8867   24.2245 H   0  0  0  0  0  0
  1  2  1  0  0  0
  1  3  1  0  0  0
  1  6  2  0  0  0
  1  7  2  0  0  0
  2 10  2  0  0  0
  2 22  1  0  0  0
  3  5  1  0  0  0
  4  8  1  0  0  0
  4  9  2  0  0  0
  4 17  1  0  0  0
  5 11  2  0  0  0
  5 15  1  0  0  0
  8 13  1  0  0  0
  8 23  2  0  0  0
  9 30  1  0  0  0
 10 20  1  0  0  0
 10 25  1  0  0  0
 11 12  1  0  0  0
 11 31  1  0  0  0
 12 16  1  0  0  0
 12 18  2  0  0  0
 13 19  2  0  0  0
 13 32  1  0  0  0
 14 15  2  0  0  0
 14 18  1  0  0  0
 14 26  1  0  0  0
 15 33  1  0  0  0
 16 21  1  0  0  0
 17 34  1  0  0  0
 17 35  1  0  0  0
 18 36  1  0  0  0
 19 21  1  0  0  0
 19 27  1  0  0  0
 21 37  1  0  0  0
 21 38  1  0  0  0
 22 28  2  0  0  0
 22 39  1  0  0  0
 23 24  1  0  0  0
 23 40  1  0  0  0
 24 27  2  0  0  0
 24 41  1  0  0  0
 25 29  2  0  0  0
 25 42  1  0  0  0
 26 43  1  0  0  0
 26 44  1  0  0  0
 26 45  1  0  0  0
 27 46  1  0  0  0
 28 29  1  0  0  0
 28 47  1  0  0  0
 29 48  1  0  0  0
M  END
> <s_m_entry_id>
35229

> <s_m_entry_name>
dock_pv.79

> <s_m_Source_Path>
/home/csk/Desktop/cluster/DUD-E-result/thrb

> <s_m_Source_File>
dock_pv.maegz

> <i_m_Source_File_Index>
79

> <chembl_id>
CHEMBL170911

> <chembl_pref_name>
None

> <i_lp_mmshare_version>
53161

> <r_lp_tautomer_probability>
1

> <s_lp_Force_Field>
OPLS_2005

> <r_lp_Energy>
19.469004

> <b_lp_Chiralities_Consistent>
1

> <s_lp_Variant>
CHEMBL204_lig3540-1

> <s_i_glide_gridfile>
glide-grid_1ype

> <i_i_glide_lignum>
4937

> <i_i_glide_rotatable_bonds>
7

> <r_i_docking_score>
-7.87396711494792

> <r_i_glide_ligand_efficiency>
-0.271516107411997

> <r_i_glide_ligand_efficiency_sa>
-0.83418350431029

> <r_i_glide_ligand_efficiency_ln>
-1.80293880274474

> <r_i_glide_gscore>
-7.87396711494792

> <r_i_glide_lipo>
-3.79259656350879

> <r_i_glide_hbond>
-0.297922827741646

> <r_i_glide_metal>
0

> <r_i_glide_rewards>
-0.966751322184591

> <r_i_glide_evdw>
-48.8512725830078

> <r_i_glide_ecoul>
-6.77799940109253

> <r_i_glide_erotb>
0.642567137801382

> <r_i_glide_esite>
0

> <r_i_glide_emodel>
-78.6529136016955

> <r_i_glide_energy>
-55.6292719841003

> <r_i_glide_einternal>
10.4985837936401

> <i_i_glide_confnum>
39

> <i_i_glide_posenum>
354

> <r_i_glide_eff_state_penalty>
0

> <s_user_duplicate_titles>
CHEMBL204_lig3540,281657

> <i_f3d_flags>
0

> <s_m_subgroup_title>
dock_pv

> <s_m_subgroupid>
dock_pv

> <b_m_subgroup_collapsed>
1

$$$$
CHEMBL204_lig1910
                    3D
 Schrodinger Suite 2021-1.
 63 66  0  0  1  0            999 V2000
   20.2708  -14.0991   25.1331 S   0  0  0  0  0  0
   15.6376  -13.7169   21.4260 C   0  0  0  0  0  0
   14.3820  -13.4330   20.9278 N   0  0  0  0  0  0
   16.3228  -14.7890   20.8802 N   0  0  0  0  0  0
   19.4430  -14.7106   23.6937 N   0  0  1  0  0  0
   13.8662  -12.1551   21.2373 C   0  0  0  0  0  0
   11.3651  -10.6543   23.6998 C   0  0  0  0  0  0
   11.2161   -9.5697   24.3212 N   0  0  0  0  0  0
   21.9159  -14.8010   25.0563 C   0  0  0  0  0  0
   17.5941  -15.1891   21.5425 C   0  0  0  0  0  0
   20.4167  -12.6506   24.9683 O   0  0  0  0  0  0
   19.6140  -14.6599   26.3205 O   0  0  0  0  0  0
   12.8268  -12.0388   22.1681 C   0  0  0  0  0  0
   12.3914  -10.7834   22.6327 C   0  0  0  0  0  0
   16.1411  -13.0232   22.3209 O   0  0  0  0  0  0
   19.9715  -14.3938   22.3547 C   0  0  0  0  0  0
   18.7443  -16.0034   23.7381 C   0  0  0  0  0  0
   18.7905  -14.1745   21.3852 C   0  0  0  0  0  0
   17.4302  -15.8471   22.9563 C   0  0  0  0  0  0
   22.9760  -14.0585   24.5292 C   0  0  0  0  0  0
   22.1242  -16.1010   25.5181 C   0  0  0  0  0  0
   10.6267  -11.7946   23.9216 N   0  0  0  0  0  0
   13.4409  -14.4657   20.4634 C   0  0  0  0  0  0
   15.9097  -15.6585   19.7515 C   0  0  0  0  0  0
   24.4550  -15.9132   24.9380 C   0  0  0  0  0  0
   25.7244  -16.4796   24.8884 N   0  0  0  0  0  0
   24.2521  -14.6148   24.4747 C   0  0  0  0  0  0
   23.3976  -16.6588   25.4552 C   0  0  0  0  0  0
   14.4409  -11.0001   20.6990 C   0  0  0  0  0  0
   13.0020   -9.6423   22.0801 C   0  0  0  0  0  0
   14.0074   -9.7475   21.1209 C   0  0  0  0  0  0
   13.6295  -14.8050   18.9793 C   0  0  0  0  0  0
   15.1007  -15.0142   18.6089 C   0  0  0  0  0  0
   10.4551   -9.6389   24.9845 H   0  0  0  0  0  0
   17.9918  -16.0402   20.9878 H   0  0  0  0  0  0
   12.4217  -12.9484   22.5923 H   0  0  0  0  0  0
   20.5649  -15.2442   22.0095 H   0  0  0  0  0  0
   20.6293  -13.5272   22.4070 H   0  0  0  0  0  0
   19.3746  -16.7643   23.2715 H   0  0  0  0  0  0
   18.5653  -16.2998   24.7705 H   0  0  0  0  0  0
   19.1643  -14.1769   20.3615 H   0  0  0  0  0  0
   18.4598  -13.1598   21.6037 H   0  0  0  0  0  0
   16.8162  -15.2037   23.5848 H   0  0  0  0  0  0
   16.9314  -16.8134   22.8785 H   0  0  0  0  0  0
   22.8170  -13.0532   24.1652 H   0  0  0  0  0  0
   21.3037  -16.6777   25.9212 H   0  0  0  0  0  0
    9.8152  -11.7460   24.5369 H   0  0  0  0  0  0
   10.8166  -12.6844   23.4767 H   0  0  0  0  0  0
   13.5851  -15.3609   21.0702 H   0  0  0  0  0  0
   12.4081  -14.1553   20.6274 H   0  0  0  0  0  0
   16.8146  -15.9905   19.2534 H   0  0  0  0  0  0
   15.4511  -16.5671   20.1412 H   0  0  0  0  0  0
   26.5245  -15.8777   24.7217 H   0  0  0  0  0  0
   25.8663  -17.3711   25.3382 H   0  0  0  0  0  0
   25.0756  -14.0377   24.0779 H   0  0  0  0  0  0
   23.5562  -17.6650   25.8099 H   0  0  0  0  0  0
   15.2494  -11.0745   19.9879 H   0  0  0  0  0  0
   12.7068   -8.6547   22.4085 H   0  0  0  0  0  0
   14.4748   -8.8570   20.7252 H   0  0  0  0  0  0
   13.0489  -15.6979   18.7474 H   0  0  0  0  0  0
   13.2140  -14.0154   18.3458 H   0  0  0  0  0  0
   15.5589  -14.0669   18.3213 H   0  0  0  0  0  0
   15.1433  -15.6525   17.7257 H   0  0  0  0  0  0
  1  5  1  0  0  0
  1  9  1  0  0  0
  1 11  2  0  0  0
  1 12  2  0  0  0
  2  4  1  0  0  0
  2  3  1  0  0  0
  2 15  2  0  0  0
  3  6  1  0  0  0
  3 23  1  0  0  0
  4 10  1  0  0  0
  4 24  1  0  0  0
  5 16  1  0  0  0
  5 17  1  0  0  0
  6 13  2  0  0  0
  6 29  1  0  0  0
  7 14  1  0  0  0
  7  8  2  0  0  0
  7 22  1  0  0  0
  8 34  1  0  0  0
  9 20  2  0  0  0
  9 21  1  0  0  0
 10 19  1  0  0  0
 10 18  1  0  0  0
 10 35  1  0  0  0
 13 14  1  0  0  0
 13 36  1  0  0  0
 14 30  2  0  0  0
 16 18  1  0  0  0
 16 37  1  0  0  0
 16 38  1  0  0  0
 17 19  1  0  0  0
 17 39  1  0  0  0
 17 40  1  0  0  0
 18 41  1  0  0  0
 18 42  1  0  0  0
 19 43  1  0  0  0
 19 44  1  0  0  0
 20 27  1  0  0  0
 20 45  1  0  0  0
 21 28  2  0  0  0
 21 46  1  0  0  0
 22 47  1  0  0  0
 22 48  1  0  0  0
 23 32  1  0  0  0
 23 49  1  0  0  0
 23 50  1  0  0  0
 24 33  1  0  0  0
 24 51  1  0  0  0
 24 52  1  0  0  0
 25 28  1  0  0  0
 25 26  1  0  0  0
 25 27  2  0  0  0
 26 53  1  0  0  0
 26 54  1  0  0  0
 27 55  1  0  0  0
 28 56  1  0  0  0
 29 31  2  0  0  0
 29 57  1  0  0  0
 30 31  1  0  0  0
 30 58  1  0  0  0
 31 59  1  0  0  0
 32 33  1  0  0  0
 32 60  1  0  0  0
 32 61  1  0  0  0
 33 62  1  0  0  0
 33 63  1  0  0  0
M  END
> <s_m_entry_id>
35230

> <s_m_entry_name>
dock_pv.80

> <s_m_Source_Path>
/home/csk/Desktop/cluster/DUD-E-result/thrb

> <s_m_Source_File>
dock_pv.maegz

> <i_m_Source_File_Index>
80

> <chembl_id>
CHEMBL1160812

> <chembl_pref_name>
None

> <i_lp_mmshare_version>
53161

> <r_lp_tautomer_probability>
1

> <s_lp_Force_Field>
OPLS_2005

> <r_lp_Energy>
58.795765

> <b_lp_Chiralities_Consistent>
1

> <s_lp_Variant>
CHEMBL204_lig1910-1

> <s_i_glide_gridfile>
glide-grid_1ype

> <i_i_glide_lignum>
2854

> <i_i_glide_rotatable_bonds>
5

> <r_i_docking_score>
-7.87142943588272

> <r_i_glide_ligand_efficiency>
-0.238528164723719

> <r_i_glide_ligand_efficiency_sa>
-0.765087276130517

> <r_i_glide_ligand_efficiency_ln>
-1.75056515045992

> <r_i_glide_gscore>
-7.87142943588272

> <r_i_glide_lipo>
-2.60477284922183

> <r_i_glide_hbond>
-1.15723124734629

> <r_i_glide_metal>
0

> <r_i_glide_rewards>
-0.669954904131526

> <r_i_glide_evdw>
-47.650993347168

> <r_i_glide_ecoul>
-8.68070411682129

> <r_i_glide_erotb>
0.364973569145915

> <r_i_glide_esite>
-0.119788719447397

> <r_i_glide_emodel>
-78.4094235764105

> <r_i_glide_energy>
-56.3316974639893

> <r_i_glide_einternal>
8.14186000823975

> <i_i_glide_confnum>
69

> <i_i_glide_posenum>
233

> <r_i_glide_eff_state_penalty>
0

> <s_user_duplicate_titles>
CHEMBL204_lig1910

> <i_f3d_flags>
0

> <s_m_subgroup_title>
dock_pv

> <s_m_subgroupid>
dock_pv

> <b_m_subgroup_collapsed>
1

$$$$
CHEMBL204_lig2232
                    3D
 Schrodinger Suite 2021-1.
 50 54  0  0  1  0            999 V2000
   21.2160  -14.8894   22.3541 N   0  0  0  0  0  0
   20.4508  -13.7739   22.1046 C   0  0  0  0  0  0
   16.4063  -12.2759   19.5439 N   0  0  0  0  0  0
   19.6750  -13.4530   23.1145 N   0  0  0  0  0  0
   16.7587  -13.5909   19.6684 C   0  0  0  0  0  0
   12.2889  -11.2862   22.2796 C   0  0  0  0  0  0
   19.8107  -14.4880   23.9972 C   0  0  0  0  0  0
   20.8000  -15.4052   23.5594 C   0  0  0  0  0  0
   19.0981  -12.7913   20.1886 N   0  0  2  0  0  0
   11.4714  -10.9636   23.3997 C   0  0  0  0  0  0
   13.1794  -10.2527   21.8648 C   0  0  0  0  0  0
   11.5312   -9.7787   24.0438 N   0  0  0  0  0  0
   18.1237  -13.8903   20.3384 C   0  0  0  0  0  0
   19.0976  -14.7397   25.1757 C   0  0  0  0  0  0
   13.2402   -9.0530   22.5002 N   0  0  0  0  0  0
   12.2875  -12.5186   21.5711 C   0  0  0  0  0  0
   15.0715  -11.9473   19.0185 C   0  0  0  0  0  0
   20.4350  -13.1061   20.7297 C   0  0  0  0  0  0
   12.4160   -8.8822   23.5592 C   0  0  0  0  0  0
   17.2978  -11.1423   19.8839 C   0  0  0  0  0  0
   14.0461  -10.4762   20.7799 C   0  0  0  0  0  0
   16.0218  -14.5174   19.3230 O   0  0  0  0  0  0
   14.0665  -11.7103   20.1341 C   0  0  0  0  0  0
   21.1297  -16.5524   24.2857 C   0  0  0  0  0  0
   18.5529  -11.5340   20.6853 C   0  0  0  0  0  0
   19.3713  -15.9207   25.8650 C   0  0  0  0  0  0
   10.5449  -11.8530   23.9210 N   0  0  0  0  0  0
   13.1723  -12.7133   20.5109 C   0  0  0  0  0  0
   20.3782  -16.7915   25.4408 C   0  0  0  0  0  0
   18.4160  -16.3318   27.2383 Cl  0  0  0  0  0  0
   21.8784  -15.2725   21.6916 H   0  0  0  0  0  0
   18.5268  -14.8107   19.9210 H   0  0  0  0  0  0
   17.9067  -14.1235   21.3801 H   0  0  0  0  0  0
   18.3216  -14.0685   25.5120 H   0  0  0  0  0  0
   11.6160  -13.3110   21.8690 H   0  0  0  0  0  0
   15.1409  -11.0530   18.4008 H   0  0  0  0  0  0
   14.6965  -12.7237   18.3480 H   0  0  0  0  0  0
   21.0622  -12.2140   20.7228 H   0  0  0  0  0  0
   20.9047  -13.7698   20.0020 H   0  0  0  0  0  0
   12.4801   -7.9389   24.0821 H   0  0  0  0  0  0
   16.7731  -10.3718   20.4466 H   0  0  0  0  0  0
   17.6118  -10.7117   18.9346 H   0  0  0  0  0  0
   14.7229   -9.6868   20.4919 H   0  0  0  0  0  0
   21.8866  -17.2469   23.9517 H   0  0  0  0  0  0
   18.2682  -11.6922   21.7270 H   0  0  0  0  0  0
   19.2943  -10.7347   20.6526 H   0  0  0  0  0  0
   10.4760  -12.7992   23.5595 H   0  0  0  0  0  0
    9.8664  -11.5221   24.6068 H   0  0  0  0  0  0
   13.1830  -13.6658   19.9997 H   0  0  0  0  0  0
   20.5653  -17.6899   26.0113 H   0  0  0  0  0  0
  1  2  1  0  0  0
  1  8  1  0  0  0
  1 31  1  0  0  0
  2  4  2  0  0  0
  2 18  1  0  0  0
  3 20  1  0  0  0
  3 17  1  0  0  0
  3  5  1  0  0  0
  4  7  1  0  0  0
  5 13  1  0  0  0
  5 22  2  0  0  0
  6 16  2  0  0  0
  6 10  1  0  0  0
  6 11  1  0  0  0
  7  8  2  0  0  0
  7 14  1  0  0  0
  8 24  1  0  0  0
  9 18  1  0  0  0
  9 13  1  0  0  0
  9 25  1  0  0  0
 10 12  2  0  0  0
 10 27  1  0  0  0
 11 21  2  0  0  0
 11 15  1  0  0  0
 12 19  1  0  0  0
 13 32  1  0  0  0
 13 33  1  0  0  0
 14 26  2  0  0  0
 14 34  1  0  0  0
 15 19  2  0  0  0
 16 28  1  0  0  0
 16 35  1  0  0  0
 17 23  1  0  0  0
 17 36  1  0  0  0
 17 37  1  0  0  0
 18 38  1  0  0  0
 18 39  1  0  0  0
 19 40  1  0  0  0
 20 25  1  0  0  0
 20 41  1  0  0  0
 20 42  1  0  0  0
 21 23  1  0  0  0
 21 43  1  0  0  0
 23 28  2  0  0  0
 24 29  2  0  0  0
 24 44  1  0  0  0
 25 45  1  0  0  0
 25 46  1  0  0  0
 26 29  1  0  0  0
 26 30  1  0  0  0
 27 47  1  0  0  0
 27 48  1  0  0  0
 28 49  1  0  0  0
 29 50  1  0  0  0
M  END
> <s_m_entry_id>
35231

> <s_m_entry_name>
dock_pv.81

> <s_m_Source_Path>
/home/csk/Desktop/cluster/DUD-E-result/thrb

> <s_m_Source_File>
dock_pv.maegz

> <i_m_Source_File_Index>
81

> <chembl_id>
CHEMBL354996

> <chembl_pref_name>
None

> <i_lp_mmshare_version>
53161

> <r_lp_tautomer_probability>
0.999978000241998

> <s_lp_Force_Field>
OPLS_2005

> <r_lp_Energy>
18.590576

> <b_lp_Chiralities_Consistent>
1

> <s_lp_Variant>
CHEMBL204_lig2232-1

> <s_i_glide_gridfile>
glide-grid_1ype

> <i_i_glide_lignum>
3283

> <i_i_glide_rotatable_bonds>
4

> <r_i_docking_score>
-7.86644632164258

> <r_i_glide_ligand_efficiency>
-0.262214877388086

> <r_i_glide_ligand_efficiency_sa>
-0.814762589641244

> <r_i_glide_ligand_efficiency_ln>
-1.78734231607484

> <r_i_glide_gscore>
-7.86644632164258

> <r_i_glide_lipo>
-2.90826773651858

> <r_i_glide_hbond>
-0.660444172346986

> <r_i_glide_metal>
0

> <r_i_glide_rewards>
-1.31110022180678

> <r_i_glide_evdw>
-42.9673271179199

> <r_i_glide_ecoul>
-7.99260854721069

> <r_i_glide_erotb>
0.445104341796818

> <r_i_glide_esite>
-0.0844808947894593

> <r_i_glide_emodel>
-63.0188274925925

> <r_i_glide_energy>
-50.9599356651306

> <r_i_glide_einternal>
20.4787445068359

> <i_i_glide_confnum>
5

> <i_i_glide_posenum>
123

> <r_i_glide_eff_state_penalty>
0

> <s_user_duplicate_titles>
CHEMBL204_lig2232

> <i_f3d_flags>
0

> <s_m_subgroup_title>
dock_pv

> <s_m_subgroupid>
dock_pv

> <b_m_subgroup_collapsed>
1

$$$$
CHEMBL204_lig4186
                    3D
 Schrodinger Suite 2021-1.
 52 56  0  0  1  0            999 V2000
   17.6860  -13.2067   21.5807 C   0  0  0  0  0  0
   16.4363  -12.6540   21.6741 N   0  0  0  0  0  0
   21.0655  -15.6942   25.0805 N   0  3  0  0  0  0
   16.4686  -11.6610   20.8057 C   0  0  0  0  0  0
   19.9063  -15.0433   25.3796 C   0  0  0  0  0  0
   18.5639  -15.7929   25.3373 C   0  0  0  0  0  0
   13.5503  -13.1150   20.4727 N   0  0  0  0  0  0
   17.6578  -11.4948   20.1477 O   0  0  0  0  0  0
   18.4435  -12.4877   20.6439 C   0  0  0  0  0  0
   18.2954  -14.3035   22.2167 C   0  0  0  0  0  0
   14.0216  -13.0024   19.1492 N   0  0  0  0  0  0
   13.2187  -11.9532   21.1971 C   0  0  0  0  0  0
   13.5601  -15.1147   19.5129 N   0  0  0  0  0  0
   14.0245  -10.7819   21.2072 C   0  0  0  0  0  0
   14.0099  -14.1563   18.6539 C   0  0  0  0  0  0
   17.5508  -15.0715   23.1244 N   0  0  0  0  0  0
   15.3771  -10.6501   20.4812 C   0  0  0  0  0  0
   21.0438  -16.9085   24.7405 O   0  5  0  0  0  0
   19.5883  -14.6356   21.9330 N   0  0  0  0  0  0
   18.1187  -16.1737   23.9055 C   0  0  0  0  0  0
   13.0731  -14.4778   20.7149 C   0  0  0  0  0  0
   18.6752  -16.8883   26.0917 F   0  0  0  0  0  0
   17.6164  -15.0565   25.9224 F   0  0  0  0  0  0
   19.7688  -12.8096   20.3300 C   0  0  0  0  0  0
   20.2892  -13.9060   21.0232 C   0  0  0  0  0  0
   22.2763  -15.0989   25.1401 C   0  0  0  0  0  0
   19.9786  -13.6869   25.7331 C   0  0  0  0  0  0
   13.5892   -9.6569   21.9216 C   0  0  0  0  0  0
   12.0277  -11.9506   21.9447 C   0  0  0  0  0  0
   22.3811  -13.7608   25.5203 C   0  0  0  0  0  0
   21.2173  -13.0526   25.8168 C   0  0  0  0  0  0
   12.4125   -9.6852   22.6624 C   0  0  0  0  0  0
   11.6360  -10.8359   22.6810 C   0  0  0  0  0  0
   13.5146  -14.9025   21.6174 H   0  0  0  0  0  0
   14.3316  -14.4178   17.6498 H   0  0  0  0  0  0
   16.6351  -14.7288   23.3903 H   0  0  0  0  0  0
   15.7950   -9.6587   20.6679 H   0  0  0  0  0  0
   15.1784  -10.6539   19.4125 H   0  0  0  0  0  0
   18.9349  -16.6538   23.3659 H   0  0  0  0  0  0
   17.3429  -16.9371   23.9705 H   0  0  0  0  0  0
   11.9858  -14.5306   20.7711 H   0  0  0  0  0  0
   13.1278  -16.0081   19.3264 H   0  0  0  0  0  0
   20.3467  -12.2530   19.6076 H   0  0  0  0  0  0
   21.3059  -14.2295   20.8460 H   0  0  0  0  0  0
   23.1231  -15.7217   24.8890 H   0  0  0  0  0  0
   19.0824  -13.1209   25.9411 H   0  0  0  0  0  0
   14.1828   -8.7543   21.9373 H   0  0  0  0  0  0
   11.3831  -12.8170   21.9717 H   0  0  0  0  0  0
   23.3467  -13.2801   25.5809 H   0  0  0  0  0  0
   21.2684  -12.0112   26.1047 H   0  0  0  0  0  0
   12.1039   -8.8183   23.2288 H   0  0  0  0  0  0
   10.7224  -10.8657   23.2582 H   0  0  0  0  0  0
  1  2  1  0  0  0
  1  9  2  0  0  0
  1 10  1  0  0  0
  2  4  2  0  0  0
  3  5  1  0  0  0
  3 18  1  0  0  0
  3 26  2  0  0  0
  4 17  1  0  0  0
  4  8  1  0  0  0
  5  6  1  0  0  0
  5 27  2  0  0  0
  6 20  1  0  0  0
  6 22  1  0  0  0
  6 23  1  0  0  0
  7 11  1  0  0  0
  7 12  1  0  0  0
  7 21  1  0  0  0
  8  9  1  0  0  0
  9 24  1  0  0  0
 10 16  1  0  0  0
 10 19  2  0  0  0
 11 15  2  0  0  0
 12 14  1  0  0  0
 12 29  2  0  0  0
 13 21  1  0  0  0
 13 15  1  0  0  0
 13 42  1  0  0  0
 14 17  1  0  0  0
 14 28  2  0  0  0
 15 35  1  0  0  0
 16 20  1  0  0  0
 16 36  1  0  0  0
 17 37  1  0  0  0
 17 38  1  0  0  0
 19 25  1  0  0  0
 20 39  1  0  0  0
 20 40  1  0  0  0
 21 41  1  0  0  0
 21 34  1  0  0  0
 24 25  2  0  0  0
 24 43  1  0  0  0
 25 44  1  0  0  0
 26 30  1  0  0  0
 26 45  1  0  0  0
 27 31  1  0  0  0
 27 46  1  0  0  0
 28 32  1  0  0  0
 28 47  1  0  0  0
 29 33  1  0  0  0
 29 48  1  0  0  0
 30 31  2  0  0  0
 30 49  1  0  0  0
 31 50  1  0  0  0
 32 33  2  0  0  0
 32 51  1  0  0  0
 33 52  1  0  0  0
M  CHG  2   3   1  18  -1
M  END
> <s_m_entry_id>
35232

> <s_m_entry_name>
dock_pv.82

> <s_m_Source_Path>
/home/csk/Desktop/cluster/DUD-E-result/thrb

> <s_m_Source_File>
dock_pv.maegz

> <i_m_Source_File_Index>
82

> <chembl_id>
CHEMBL194569

> <chembl_pref_name>
None

> <i_lp_mmshare_version>
53161

> <r_lp_tautomer_probability>
0.999999748000064

> <s_lp_Force_Field>
OPLS_2005

> <r_lp_Energy>
32.556153

> <b_lp_Chiralities_Consistent>
1

> <s_lp_Variant>
CHEMBL204_lig4186-1

> <s_i_glide_gridfile>
glide-grid_1ype

> <i_i_glide_lignum>
5819

> <i_i_glide_rotatable_bonds>
7

> <r_i_docking_score>
-7.86140496984364

> <r_i_glide_ligand_efficiency>
-0.238224393025565

> <r_i_glide_ligand_efficiency_sa>
-0.764112917981342

> <r_i_glide_ligand_efficiency_ln>
-1.74833576111673

> <r_i_glide_gscore>
-7.86140496984364

> <r_i_glide_lipo>
-3.80454277279941

> <r_i_glide_hbond>
-0.243129000765906

> <r_i_glide_metal>
0

> <r_i_glide_rewards>
-1.16459707587939

> <r_i_glide_evdw>
-47.7071685791016

> <r_i_glide_ecoul>
-5.58986043930054

> <r_i_glide_erotb>
0.590525542224902

> <r_i_glide_esite>
-0.0158241677736784

> <r_i_glide_emodel>
-76.6205616803514

> <r_i_glide_energy>
-53.2970290184021

> <r_i_glide_einternal>
3.47950720787048

> <i_i_glide_confnum>
12

> <i_i_glide_posenum>
108

> <r_i_glide_eff_state_penalty>
0

> <s_user_duplicate_titles>
CHEMBL204_lig4186,329939

> <i_f3d_flags>
0

> <s_m_subgroup_title>
dock_pv

> <s_m_subgroupid>
dock_pv

> <b_m_subgroup_collapsed>
1

$$$$
CHEMBL204_lig1781
                    3D
 Schrodinger Suite 2021-1.
 58 62  0  0  1  0            999 V2000
   21.2176  -12.1225   19.1633 C   0  0  0  0  0  0
   19.8690  -11.8531   19.5259 O   0  0  0  0  0  0
   19.2984  -12.6088   20.5308 C   0  0  0  0  0  0
   19.9124  -13.6285   21.2754 C   0  0  0  0  0  0
   19.2296  -14.3362   22.2858 C   0  0  0  0  0  0
   17.8660  -14.0674   22.5282 C   0  0  0  0  0  0
   17.2236  -13.0755   21.7765 C   0  0  0  0  0  0
   15.9215  -12.6531   21.7725 N   0  0  0  0  0  0
   15.9177  -11.7144   20.8507 C   0  0  0  0  0  0
   14.8751  -11.0139   20.3189 N   0  0  0  0  0  0
   13.4400  -11.2893   20.3708 C   0  0  1  0  0  0
   13.0927  -12.6705   19.7685 C   0  0  0  0  0  0
   13.6242  -12.8737   18.5625 F   0  0  0  0  0  0
   12.7979  -10.9555   21.7279 C   0  0  0  0  0  0
   11.8740  -11.8221   22.3317 C   0  0  0  0  0  0
   11.2153  -11.4526   23.5014 C   0  0  0  0  0  0
   11.4684  -10.2178   24.0903 C   0  0  0  0  0  0
   12.3992   -9.3501   23.5204 C   0  0  0  0  0  0
   12.7530   -7.8532   24.3163 Cl  0  0  0  0  0  0
   13.0475   -9.7111   22.3329 C   0  0  0  0  0  0
   17.1129  -11.4619   20.2463 O   0  0  0  0  0  0
   17.9548  -12.3580   20.8216 C   0  0  0  0  0  0
   19.9014  -15.4663   23.0478 C   0  0  0  0  0  0
   19.2491  -16.5000   23.2158 O   0  0  0  0  0  0
   21.1865  -15.3424   23.5050 N   0  0  0  0  0  0
   21.9185  -14.0459   23.4797 C   0  0  0  0  0  0
   22.9918  -14.0810   24.5958 C   0  0  2  0  0  0
   24.2752  -13.2386   24.4235 C   0  0  0  0  0  0
   25.1529  -14.5181   24.3648 C   0  0  0  0  0  0
   23.8649  -15.2379   24.3270 N   0  0  0  0  0  0
   23.4185  -16.4746   24.0281 C   0  0  0  0  0  0
   24.1525  -17.4033   23.6950 O   0  0  0  0  0  0
   21.8651  -16.5557   24.0728 C   0  0  1  0  0  0
   21.4387  -16.9578   25.4912 C   0  0  0  0  0  0
   21.5104  -11.4548   18.3539 H   0  0  0  0  0  0
   21.9011  -11.9507   19.9966 H   0  0  0  0  0  0
   21.3351  -13.1461   18.8058 H   0  0  0  0  0  0
   20.9288  -13.8988   21.0356 H   0  0  0  0  0  0
   17.3059  -14.6333   23.2616 H   0  0  0  0  0  0
   15.1140  -10.4828   19.4938 H   0  0  0  0  0  0
   12.9885  -10.5560   19.7009 H   0  0  0  0  0  0
   12.0163  -12.7931   19.6477 H   0  0  0  0  0  0
   13.4500  -13.4824   20.4040 H   0  0  0  0  0  0
   11.6304  -12.7854   21.9111 H   0  0  0  0  0  0
   10.4882  -12.1196   23.9464 H   0  0  0  0  0  0
   10.9412   -9.9420   24.9928 H   0  0  0  0  0  0
   13.7524   -9.0248   21.8859 H   0  0  0  0  0  0
   21.2573  -13.2023   23.6869 H   0  0  0  0  0  0
   22.4148  -13.9167   22.5193 H   0  0  0  0  0  0
   22.5434  -14.0879   25.5899 H   0  0  0  0  0  0
   24.4168  -12.6336   25.3143 H   0  0  0  0  0  0
   24.2464  -12.6530   23.5044 H   0  0  0  0  0  0
   25.7042  -14.8140   25.2586 H   0  0  0  0  0  0
   25.6648  -14.6569   23.4112 H   0  0  0  0  0  0
   21.6303  -17.3843   23.4025 H   0  0  0  0  0  0
   21.9444  -17.8705   25.8056 H   0  0  0  0  0  0
   21.6706  -16.1658   26.2040 H   0  0  0  0  0  0
   20.3646  -17.1411   25.5231 H   0  0  0  0  0  0
  1  2  1  0  0  0
  1 35  1  0  0  0
  1 36  1  0  0  0
  1 37  1  0  0  0
  2  3  1  0  0  0
  3  4  2  0  0  0
  3 22  1  0  0  0
  4  5  1  0  0  0
  4 38  1  0  0  0
  5  6  2  0  0  0
  5 23  1  0  0  0
  6  7  1  0  0  0
  6 39  1  0  0  0
  7  8  1  0  0  0
  7 22  2  0  0  0
  8  9  2  0  0  0
  9 10  1  0  0  0
  9 21  1  0  0  0
 10 11  1  0  0  0
 10 40  1  0  0  0
 11 12  1  0  0  0
 11 14  1  0  0  0
 11 41  1  0  0  0
 12 13  1  0  0  0
 12 42  1  0  0  0
 12 43  1  0  0  0
 14 15  2  0  0  0
 14 20  1  0  0  0
 15 16  1  0  0  0
 15 44  1  0  0  0
 16 17  2  0  0  0
 16 45  1  0  0  0
 17 18  1  0  0  0
 17 46  1  0  0  0
 18 19  1  0  0  0
 18 20  2  0  0  0
 20 47  1  0  0  0
 21 22  1  0  0  0
 23 24  2  0  0  0
 23 25  1  0  0  0
 25 26  1  0  0  0
 25 33  1  0  0  0
 26 27  1  0  0  0
 26 48  1  0  0  0
 26 49  1  0  0  0
 27 28  1  0  0  0
 27 30  1  0  0  0
 27 50  1  0  0  0
 28 29  1  0  0  0
 28 51  1  0  0  0
 28 52  1  0  0  0
 29 30  1  0  0  0
 29 53  1  0  0  0
 29 54  1  0  0  0
 30 31  1  0  0  0
 31 32  2  0  0  0
 31 33  1  0  0  0
 33 34  1  0  0  0
 33 55  1  0  0  0
 34 56  1  0  0  0
 34 57  1  0  0  0
 34 58  1  0  0  0
M  END
> <s_m_entry_id>
35233

> <s_m_entry_name>
dock_pv.83

> <s_m_Source_Path>
/home/csk/Desktop/cluster/DUD-E-result/thrb

> <s_m_Source_File>
dock_pv.maegz

> <i_m_Source_File_Index>
83

> <chembl_id>
CHEMBL3948587

> <chembl_pref_name>
None

> <i_lp_mmshare_version>
53161

> <r_lp_tautomer_probability>
1

> <s_lp_Force_Field>
OPLS_2005

> <r_lp_Energy>
51.254079

> <b_lp_Chiralities_Consistent>
1

> <s_lp_Variant>
CHEMBL204_lig1781-2

> <s_i_glide_gridfile>
glide-grid_1ype

> <i_i_glide_lignum>
2658

> <i_i_glide_rotatable_bonds>
7

> <r_i_docking_score>
-7.86057897918513

> <r_i_glide_ligand_efficiency>
-0.231193499387798

> <r_i_glide_ligand_efficiency_sa>
-0.748977188114961

> <r_i_glide_ligand_efficiency_ln>
-1.73662237827415

> <r_i_glide_gscore>
-7.86057897918513

> <r_i_glide_lipo>
-4.29703978872474

> <r_i_glide_hbond>
-0.272571350946524

> <r_i_glide_metal>
0

> <r_i_glide_rewards>
-0.558555385944334

> <r_i_glide_evdw>
-51.8424530029297

> <r_i_glide_ecoul>
-3.79287981987

> <r_i_glide_erotb>
0.42864216955745

> <r_i_glide_esite>
0

> <r_i_glide_emodel>
-77.6205731450396

> <r_i_glide_energy>
-55.6353328227997

> <r_i_glide_einternal>
7.15799379348755

> <i_i_glide_confnum>
7

> <i_i_glide_posenum>
382

> <r_i_glide_eff_state_penalty>
0

> <s_user_duplicate_titles>
CHEMBL204_lig1781

> <i_f3d_flags>
0

> <s_m_subgroup_title>
dock_pv

> <s_m_subgroupid>
dock_pv

> <b_m_subgroup_collapsed>
1

$$$$
CHEMBL204_lig1774
                    3D
 Schrodinger Suite 2021-1.
 65 69  0  0  1  0            999 V2000
   21.0552  -12.0759   18.3067 C   0  0  0  0  0  0
   19.7104  -11.8530   18.7199 O   0  0  0  0  0  0
   19.2448  -12.5364   19.8239 C   0  0  0  0  0  0
   19.9728  -13.4522   20.5971 C   0  0  0  0  0  0
   19.3986  -14.1405   21.6772 C   0  0  0  0  0  0
   18.0350  -13.9632   21.9826 C   0  0  0  0  0  0
   17.2967  -13.0255   21.2536 C   0  0  0  0  0  0
   15.9865  -12.6521   21.3617 N   0  0  0  0  0  0
   15.8556  -11.7631   20.4017 C   0  0  0  0  0  0
   14.7213  -11.1753   19.9194 N   0  0  0  0  0  0
   13.3250  -11.5598   20.1299 C   0  0  1  0  0  0
   13.0569  -13.0185   19.6865 C   0  0  0  0  0  0
   13.6124  -13.3245   18.5113 F   0  0  0  0  0  0
   12.7579  -11.1440   21.5011 C   0  0  0  0  0  0
   11.8242  -11.9456   22.1776 C   0  0  0  0  0  0
   11.2159  -11.5001   23.3502 C   0  0  0  0  0  0
   11.5321  -10.2523   23.8730 C   0  0  0  0  0  0
   12.4617   -9.4461   23.2229 C   0  0  0  0  0  0
   12.9165   -7.9322   23.9208 Cl  0  0  0  0  0  0
   13.0653   -9.8840   22.0418 C   0  0  0  0  0  0
   16.9782  -11.4986   19.6684 O   0  0  0  0  0  0
   17.9136  -12.3280   20.2056 C   0  0  0  0  0  0
   20.2689  -15.1107   22.4436 C   0  0  0  0  0  0
   20.8814  -15.9599   21.7920 O   0  0  0  0  0  0
   20.4724  -14.9294   23.7832 N   0  0  0  0  0  0
   21.5774  -15.6808   24.4306 C   0  0  0  0  0  0
   22.2916  -14.7358   25.4239 C   0  0  1  0  0  0
   23.1836  -13.6697   24.7534 C   0  0  0  0  0  0
   21.3319  -14.1916   26.3213 O   0  0  0  0  0  0
   20.3206  -13.4090   25.7056 C   0  0  0  0  0  0
   19.5064  -14.2372   24.6788 C   0  0  2  0  0  0
   18.4089  -15.1487   25.3172 C   0  0  2  0  0  0
   18.7411  -16.0014   26.5562 C   0  0  0  0  0  0
   17.8386  -17.0865   25.9554 C   0  0  2  0  0  0
   18.2067  -18.4401   26.1075 O   0  0  0  0  0  0
   17.9650  -16.4331   24.5806 C   0  0  0  0  0  0
   21.2776  -11.4505   17.4414 H   0  0  0  0  0  0
   21.7671  -11.8164   19.0932 H   0  0  0  0  0  0
   21.2127  -13.1158   18.0131 H   0  0  0  0  0  0
   21.0089  -13.6480   20.3573 H   0  0  0  0  0  0
   17.5444  -14.5199   22.7619 H   0  0  0  0  0  0
   14.8414  -10.7114   19.0316 H   0  0  0  0  0  0
   12.7672  -10.9342   19.4333 H   0  0  0  0  0  0
   13.4610  -13.7281   20.4102 H   0  0  0  0  0  0
   11.9893  -13.2188   19.5830 H   0  0  0  0  0  0
   11.5272  -12.9135   21.8037 H   0  0  0  0  0  0
   10.4823  -12.1182   23.8499 H   0  0  0  0  0  0
   11.0509   -9.9179   24.7812 H   0  0  0  0  0  0
   13.7747   -9.2364   21.5473 H   0  0  0  0  0  0
   21.1930  -16.5559   24.9538 H   0  0  0  0  0  0
   22.3394  -15.9984   23.7146 H   0  0  0  0  0  0
   22.9660  -15.3420   26.0300 H   0  0  0  0  0  0
   24.0007  -14.1370   24.2059 H   0  0  0  0  0  0
   22.6318  -13.0540   24.0435 H   0  0  0  0  0  0
   23.6261  -13.0128   25.5009 H   0  0  0  0  0  0
   20.7635  -12.5337   25.2306 H   0  0  0  0  0  0
   19.6605  -13.0164   26.4801 H   0  0  0  0  0  0
   18.9767  -13.4693   24.1234 H   0  0  0  0  0  0
   17.5499  -14.5043   25.5222 H   0  0  0  0  0  0
   18.4018  -15.6039   27.5132 H   0  0  0  0  0  0
   19.7710  -16.3482   26.6256 H   0  0  0  0  0  0
   16.8160  -17.0431   26.3216 H   0  0  0  0  0  0
   19.1026  -18.5498   25.7812 H   0  0  0  0  0  0
   18.7304  -16.9370   23.9914 H   0  0  0  0  0  0
   17.0288  -16.3721   24.0274 H   0  0  0  0  0  0
  1  2  1  0  0  0
  1 37  1  0  0  0
  1 38  1  0  0  0
  1 39  1  0  0  0
  2  3  1  0  0  0
  3  4  2  0  0  0
  3 22  1  0  0  0
  4  5  1  0  0  0
  4 40  1  0  0  0
  5  6  2  0  0  0
  5 23  1  0  0  0
  6  7  1  0  0  0
  6 41  1  0  0  0
  7  8  1  0  0  0
  7 22  2  0  0  0
  8  9  2  0  0  0
  9 10  1  0  0  0
  9 21  1  0  0  0
 10 11  1  0  0  0
 10 42  1  0  0  0
 11 12  1  0  0  0
 11 14  1  0  0  0
 11 43  1  0  0  0
 12 13  1  0  0  0
 12 44  1  0  0  0
 12 45  1  0  0  0
 14 15  2  0  0  0
 14 20  1  0  0  0
 15 16  1  0  0  0
 15 46  1  0  0  0
 16 17  2  0  0  0
 16 47  1  0  0  0
 17 18  1  0  0  0
 17 48  1  0  0  0
 18 19  1  0  0  0
 18 20  2  0  0  0
 20 49  1  0  0  0
 21 22  1  0  0  0
 23 24  2  0  0  0
 23 25  1  0  0  0
 25 26  1  0  0  0
 25 31  1  0  0  0
 26 27  1  0  0  0
 26 50  1  0  0  0
 26 51  1  0  0  0
 27 28  1  0  0  0
 27 29  1  0  0  0
 27 52  1  0  0  0
 28 53  1  0  0  0
 28 54  1  0  0  0
 28 55  1  0  0  0
 29 30  1  0  0  0
 30 31  1  0  0  0
 30 56  1  0  0  0
 30 57  1  0  0  0
 31 32  1  0  0  0
 31 58  1  0  0  0
 32 33  1  0  0  0
 32 36  1  0  0  0
 32 59  1  0  0  0
 33 34  1  0  0  0
 33 60  1  0  0  0
 33 61  1  0  0  0
 34 35  1  0  0  0
 34 36  1  0  0  0
 34 62  1  0  0  0
 35 63  1  0  0  0
 36 64  1  0  0  0
 36 65  1  0  0  0
M  END
> <s_m_entry_id>
35234

> <s_m_entry_name>
dock_pv.84

> <s_m_Source_Path>
/home/csk/Desktop/cluster/DUD-E-result/thrb

> <s_m_Source_File>
dock_pv.maegz

> <i_m_Source_File_Index>
84

> <chembl_id>
CHEMBL3944800

> <chembl_pref_name>
None

> <i_lp_mmshare_version>
53161

> <r_lp_tautomer_probability>
1

> <s_lp_Force_Field>
OPLS_2005

> <r_lp_Energy>
46.753014

> <b_lp_Chiralities_Consistent>
1

> <s_lp_Variant>
CHEMBL204_lig1774-8

> <s_i_glide_gridfile>
glide-grid_1ype

> <i_i_glide_lignum>
2616

> <i_i_glide_rotatable_bonds>
9

> <r_i_docking_score>
-7.85920525874613

> <r_i_glide_ligand_efficiency>
-0.218311257187392

> <r_i_glide_ligand_efficiency_sa>
-0.720847887986436

> <r_i_glide_ligand_efficiency_ln>
-1.71466625627021

> <r_i_glide_gscore>
-7.85920525874613

> <r_i_glide_lipo>
-4.76630501557787

> <r_i_glide_hbond>
-0.184476082085255

> <r_i_glide_metal>
0

> <r_i_glide_rewards>
-0.345049649249561

> <r_i_glide_evdw>
-54.0125122070312

> <r_i_glide_ecoul>
-2.14655995368958

> <r_i_glide_erotb>
0.459235091571562

> <r_i_glide_esite>
0

> <r_i_glide_emodel>
-74.20405203802

> <r_i_glide_energy>
-56.1590721607208

> <r_i_glide_einternal>
17.612771987915

> <i_i_glide_confnum>
105

> <i_i_glide_posenum>
273

> <r_i_glide_eff_state_penalty>
0

> <s_user_duplicate_titles>
CHEMBL204_lig1774,CHEMBL204_lig1777,CHEMBL204_lig1780

> <i_f3d_flags>
0

> <s_m_subgroup_title>
dock_pv

> <s_m_subgroupid>
dock_pv

> <b_m_subgroup_collapsed>
1

$$$$
CHEMBL204_lig4309
                    3D
 Schrodinger Suite 2021-1.
 70 76  0  0  1  0            999 V2000
   13.6398  -11.2168   20.8170 C   0  0  0  0  0  0
   12.7969  -12.2272   20.6939 N   0  0  0  0  0  0
   13.5494  -13.3123   20.4516 N   0  0  0  0  0  0
   13.1175   -9.8156   21.1027 C   0  0  0  0  0  0
   14.0207   -9.0711   21.7418 F   0  0  0  0  0  0
   12.8160   -9.1849   19.9690 F   0  0  0  0  0  0
   12.0194   -9.8367   21.8587 F   0  0  0  0  0  0
   14.9610  -11.6455   20.5748 C   0  0  0  0  0  0
   14.8880  -13.0040   20.3873 C   0  0  0  0  0  0
   15.9841  -13.8777   20.0593 C   0  0  0  0  0  0
   17.1344  -13.4550   20.6868 N   0  0  0  0  0  0
   17.3740  -12.0255   21.0870 C   0  0  0  0  0  0
   16.3239  -11.0045   20.5416 C   0  0  0  0  0  0
   15.9148  -14.8957   19.3665 O   0  0  0  0  0  0
   18.2125  -14.3725   20.8519 C   0  0  0  0  0  0
   12.9811  -14.6019   20.4197 C   0  0  0  0  0  0
   13.4582  -15.5520   21.3366 C   0  0  0  0  0  0
   13.0531  -16.8825   21.2807 C   0  0  0  0  0  0
   12.0410  -14.9452   19.4373 C   0  0  0  0  0  0
   19.5353  -14.0223   20.5316 C   0  0  0  0  0  0
   20.5823  -14.9209   20.7548 C   0  0  0  0  0  0
   20.3354  -16.1745   21.3228 C   0  0  0  0  0  0
   19.0276  -16.5254   21.6470 C   0  0  0  0  0  0
   17.9810  -15.6356   21.4414 C   0  0  0  0  0  0
   21.4488  -17.0828   21.6874 C   0  0  0  0  0  0
   22.0845  -17.8437   20.7009 C   0  0  0  0  0  0
   23.1735  -18.6533   21.0167 C   0  0  0  0  0  0
   23.6228  -18.7311   22.3333 C   0  0  0  0  0  0
   22.9790  -18.0051   23.3332 C   0  0  0  0  0  0
   21.8989  -17.1726   23.0187 C   0  0  0  0  0  0
   21.2353  -16.3625   24.1321 C   0  0  0  0  0  0
   21.4824  -14.9214   23.9751 N   0  0  1  0  0  0
   11.6137  -16.2841   19.3731 C   0  0  0  0  0  0
   12.1261  -17.2122   20.2943 C   0  0  0  0  0  0
   11.5897  -18.4442   20.0728 O   0  0  0  0  0  0
   10.7187  -18.3386   18.9827 N   0  0  0  0  0  0
   10.7384  -17.0868   18.5839 C   0  0  0  0  0  0
   10.0164  -16.6487   17.5178 N   0  0  0  0  0  0
   16.7505  -16.0048   21.8744 F   0  0  0  0  0  0
   20.6202  -14.0999   24.8210 C   0  0  0  0  0  0
   21.2917  -13.9771   26.1988 C   0  0  1  0  0  0
   22.7332  -14.4300   25.9205 C   0  0  0  0  0  0
   22.8182  -14.5228   24.4018 C   0  0  0  0  0  0
   21.2196  -12.6508   26.6726 O   0  0  0  0  0  0
   17.3696  -11.9931   22.1786 H   0  0  0  0  0  0
   18.3609  -11.6867   20.7731 H   0  0  0  0  0  0
   16.5706  -10.7239   19.5185 H   0  0  0  0  0  0
   16.3641  -10.0827   21.1206 H   0  0  0  0  0  0
   14.1855  -15.2644   22.0842 H   0  0  0  0  0  0
   13.4393  -17.6246   21.9620 H   0  0  0  0  0  0
   11.6822  -14.2174   18.7239 H   0  0  0  0  0  0
   19.7697  -13.0668   20.0883 H   0  0  0  0  0  0
   21.6033  -14.6334   20.5274 H   0  0  0  0  0  0
   18.8237  -17.4770   22.1173 H   0  0  0  0  0  0
   21.7541  -17.7708   19.6765 H   0  0  0  0  0  0
   23.6796  -19.2024   20.2381 H   0  0  0  0  0  0
   24.4785  -19.3412   22.5801 H   0  0  0  0  0  0
   23.3401  -18.0711   24.3493 H   0  0  0  0  0  0
   20.1638  -16.5621   24.0947 H   0  0  0  0  0  0
   21.5540  -16.7272   25.1096 H   0  0  0  0  0  0
   10.3536  -15.8937   16.9370 H   0  0  0  0  0  0
    9.3099  -17.2551   17.1208 H   0  0  0  0  0  0
   20.5158  -13.1413   24.3093 H   0  0  0  0  0  0
   19.6065  -14.4924   24.9059 H   0  0  0  0  0  0
   20.8197  -14.6545   26.9121 H   0  0  0  0  0  0
   22.9294  -15.4139   26.3485 H   0  0  0  0  0  0
   23.5017  -13.7756   26.3203 H   0  0  0  0  0  0
   23.5498  -15.2781   24.1114 H   0  0  0  0  0  0
   23.1356  -13.6029   23.9084 H   0  0  0  0  0  0
   20.3106  -12.3421   26.6339 H   0  0  0  0  0  0
  1  8  1  0  0  0
  1  2  2  0  0  0
  1  4  1  0  0  0
  2  3  1  0  0  0
  3 16  1  0  0  0
  3  9  1  0  0  0
  4  5  1  0  0  0
  4  6  1  0  0  0
  4  7  1  0  0  0
  8  9  2  0  0  0
  8 13  1  0  0  0
  9 10  1  0  0  0
 10 11  1  0  0  0
 10 14  2  0  0  0
 11 12  1  0  0  0
 11 15  1  0  0  0
 12 13  1  0  0  0
 12 45  1  0  0  0
 12 46  1  0  0  0
 13 47  1  0  0  0
 13 48  1  0  0  0
 15 20  2  0  0  0
 15 24  1  0  0  0
 16 17  2  0  0  0
 16 19  1  0  0  0
 17 18  1  0  0  0
 17 49  1  0  0  0
 18 34  2  0  0  0
 18 50  1  0  0  0
 19 33  2  0  0  0
 19 51  1  0  0  0
 20 21  1  0  0  0
 20 52  1  0  0  0
 21 22  2  0  0  0
 21 53  1  0  0  0
 22 23  1  0  0  0
 22 25  1  0  0  0
 23 24  2  0  0  0
 23 54  1  0  0  0
 24 39  1  0  0  0
 25 26  2  0  0  0
 25 30  1  0  0  0
 26 27  1  0  0  0
 26 55  1  0  0  0
 27 28  2  0  0  0
 27 56  1  0  0  0
 28 29  1  0  0  0
 28 57  1  0  0  0
 29 30  2  0  0  0
 29 58  1  0  0  0
 30 31  1  0  0  0
 31 32  1  0  0  0
 31 59  1  0  0  0
 31 60  1  0  0  0
 32 40  1  0  0  0
 32 43  1  0  0  0
 33 34  1  0  0  0
 33 37  1  0  0  0
 34 35  1  0  0  0
 35 36  1  0  0  0
 36 37  2  0  0  0
 37 38  1  0  0  0
 38 61  1  0  0  0
 38 62  1  0  0  0
 40 41  1  0  0  0
 40 63  1  0  0  0
 40 64  1  0  0  0
 41 42  1  0  0  0
 41 44  1  0  0  0
 41 65  1  0  0  0
 42 43  1  0  0  0
 42 66  1  0  0  0
 42 67  1  0  0  0
 43 68  1  0  0  0
 43 69  1  0  0  0
 44 70  1  0  0  0
M  END
> <s_m_entry_id>
35237

> <s_m_entry_name>
dock_pv.87

> <s_m_Source_Path>
/home/csk/Desktop/cluster/DUD-E-result/thrb

> <s_m_Source_File>
dock_pv.maegz

> <i_m_Source_File_Index>
87

> <chembl_id>
CHEMBL263767

> <chembl_pref_name>
None

> <i_lp_mmshare_version>
53161

> <r_lp_tautomer_probability>
1

> <s_lp_Force_Field>
OPLS_2005

> <r_lp_Energy>
93.607649

> <b_lp_Chiralities_Consistent>
1

> <s_lp_Variant>
CHEMBL204_lig4309-1

> <s_i_glide_gridfile>
glide-grid_1ype

> <i_i_glide_lignum>
5958

> <i_i_glide_rotatable_bonds>
7

> <r_i_docking_score>
-7.85670958742368

> <r_i_glide_ligand_efficiency>
-0.178561581532356

> <r_i_glide_ligand_efficiency_sa>
-0.630384581320779

> <r_i_glide_ligand_efficiency_ln>
-1.64222369692922

> <r_i_glide_gscore>
-7.85670958742368

> <r_i_glide_lipo>
-3.51018717938333

> <r_i_glide_hbond>
-0.218427463857406

> <r_i_glide_metal>
0

> <r_i_glide_rewards>
-1.14099629312457

> <r_i_glide_evdw>
-54.7166137695312

> <r_i_glide_ecoul>
-2.66724324226379

> <r_i_glide_erotb>
0.163983176573495

> <r_i_glide_esite>
-0.0151646528157462

> <r_i_glide_emodel>
-72.5264146052945

> <r_i_glide_energy>
-57.383857011795

> <r_i_glide_einternal>
7.64814710617065

> <i_i_glide_confnum>
9

> <i_i_glide_posenum>
288

> <r_i_glide_eff_state_penalty>
0

> <s_user_duplicate_titles>
CHEMBL204_lig4309

> <i_f3d_flags>
0

> <s_m_subgroup_title>
dock_pv

> <s_m_subgroupid>
dock_pv

> <b_m_subgroup_collapsed>
1

$$$$
CHEMBL204_lig1754
                    3D
 Schrodinger Suite 2021-1.
 64 68  0  0  1  0            999 V2000
   20.5922  -14.1210   24.4771 C   0  0  0  0  0  0
   20.2542  -13.0565   25.5607 C   0  0  0  0  0  0
   21.2710  -13.2216   26.6993 C   0  0  0  0  0  0
   22.4525  -14.0054   26.1103 C   0  0  0  0  0  0
   22.1421  -14.1628   24.6196 C   0  0  0  0  0  0
   19.9857  -15.5195   24.8321 C   0  0  0  0  0  0
   20.5934  -16.5699   24.6058 O   0  0  0  0  0  0
   18.7393  -15.4529   25.3683 O   0  0  0  0  0  0
   17.0431  -12.3920   20.0158 C   0  0  0  0  0  0
   15.9301  -11.9862   19.0303 C   0  0  1  0  0  0
   18.3446  -12.4906   19.5597 N   0  0  0  0  0  0
   16.3061  -12.4141   17.6747 N   0  0  2  0  0  0
   17.6002  -11.8496   17.2951 C   0  0  0  0  0  0
   18.7507  -12.4113   18.1700 C   0  0  0  0  0  0
   16.9439  -12.6494   21.3018 N   0  0  0  0  0  0
   18.2112  -13.0167   21.6837 C   0  0  0  0  0  0
   19.1157  -12.9291   20.6050 C   0  0  0  0  0  0
   20.4618  -13.2824   20.7111 C   0  0  0  0  0  0
   20.8973  -13.6958   21.9676 C   0  0  0  0  0  0
   20.0454  -13.7581   23.0805 C   0  0  0  0  0  0
   18.6815  -13.4530   22.9274 C   0  0  0  0  0  0
   14.5102  -12.4835   19.4006 C   0  0  0  0  0  0
   13.7996  -11.7742   20.5544 C   0  0  0  0  0  0
   12.8409  -12.4764   21.2815 C   0  0  0  0  0  0
   12.1575  -11.8580   22.3225 C   0  0  0  0  0  0
   12.4156  -10.5196   22.6821 C   0  0  0  0  0  0
   13.3694   -9.8243   21.9188 C   0  0  0  0  0  0
   14.0473  -10.4369   20.8713 C   0  0  0  0  0  0
   11.7360   -9.8529   23.8320 C   0  0  0  0  0  0
   10.8160  -10.6395   24.4663 N   0  0  0  0  0  0
   12.0160   -8.6705   24.1731 N   0  0  0  0  0  0
   17.9624  -16.6223   25.5925 C   0  0  0  0  0  0
   17.2464  -17.0623   24.3067 C   0  0  0  0  0  0
   20.3688  -12.0596   25.1298 H   0  0  0  0  0  0
   19.2250  -13.0852   25.9207 H   0  0  0  0  0  0
   21.5865  -12.2543   27.0916 H   0  0  0  0  0  0
   20.8146  -13.7727   27.5208 H   0  0  0  0  0  0
   23.4065  -13.5017   26.2628 H   0  0  0  0  0  0
   22.5332  -14.9881   26.5759 H   0  0  0  0  0  0
   22.6070  -15.0528   24.1913 H   0  0  0  0  0  0
   22.5856  -13.3156   24.0935 H   0  0  0  0  0  0
   15.9112  -10.9000   18.9812 H   0  0  0  0  0  0
   15.5915  -12.1260   17.0200 H   0  0  0  0  0  0
   17.7853  -12.0380   16.2371 H   0  0  0  0  0  0
   17.5288  -10.7663   17.3974 H   0  0  0  0  0  0
   19.6809  -11.8529   18.0740 H   0  0  0  0  0  0
   18.9815  -13.4380   17.9210 H   0  0  0  0  0  0
   21.1404  -13.2401   19.8712 H   0  0  0  0  0  0
   21.9381  -13.9669   22.0587 H   0  0  0  0  0  0
   18.0022  -13.5246   23.7624 H   0  0  0  0  0  0
   13.8499  -12.3774   18.5388 H   0  0  0  0  0  0
   14.5570  -13.5550   19.6034 H   0  0  0  0  0  0
   12.6181  -13.5075   21.0473 H   0  0  0  0  0  0
   11.4358  -12.4602   22.8550 H   0  0  0  0  0  0
   13.6166   -8.7951   22.1330 H   0  0  0  0  0  0
   14.7705   -9.8529   20.3262 H   0  0  0  0  0  0
   10.1743  -10.2000   25.1204 H   0  0  0  0  0  0
   10.4886  -11.4874   24.0317 H   0  0  0  0  0  0
   12.7369   -8.2608   23.6034 H   0  0  0  0  0  0
   17.2151  -16.3791   26.3431 H   0  0  0  0  0  0
   18.5697  -17.4308   26.0039 H   0  0  0  0  0  0
   16.6007  -17.9198   24.4968 H   0  0  0  0  0  0
   17.9598  -17.3461   23.5322 H   0  0  0  0  0  0
   16.6247  -16.2573   23.9117 H   0  0  0  0  0  0
  1  2  1  0  0  0
  1  5  1  0  0  0
  1  6  1  0  0  0
  1 20  1  0  0  0
  2  3  1  0  0  0
  2 34  1  0  0  0
  2 35  1  0  0  0
  3  4  1  0  0  0
  3 36  1  0  0  0
  3 37  1  0  0  0
  4  5  1  0  0  0
  4 38  1  0  0  0
  4 39  1  0  0  0
  5 40  1  0  0  0
  5 41  1  0  0  0
  6  7  2  0  0  0
  6  8  1  0  0  0
  8 32  1  0  0  0
  9 10  1  0  0  0
  9 11  1  0  0  0
  9 15  2  0  0  0
 10 12  1  0  0  0
 10 22  1  0  0  0
 10 42  1  0  0  0
 11 14  1  0  0  0
 11 17  1  0  0  0
 12 13  1  0  0  0
 12 43  1  0  0  0
 13 14  1  0  0  0
 13 44  1  0  0  0
 13 45  1  0  0  0
 14 46  1  0  0  0
 14 47  1  0  0  0
 15 16  1  0  0  0
 16 17  1  0  0  0
 16 21  2  0  0  0
 17 18  2  0  0  0
 18 19  1  0  0  0
 18 48  1  0  0  0
 19 20  2  0  0  0
 19 49  1  0  0  0
 20 21  1  0  0  0
 21 50  1  0  0  0
 22 23  1  0  0  0
 22 51  1  0  0  0
 22 52  1  0  0  0
 23 24  1  0  0  0
 23 28  2  0  0  0
 24 25  2  0  0  0
 24 53  1  0  0  0
 25 26  1  0  0  0
 25 54  1  0  0  0
 26 27  2  0  0  0
 26 29  1  0  0  0
 27 28  1  0  0  0
 27 55  1  0  0  0
 28 56  1  0  0  0
 29 30  1  0  0  0
 29 31  2  0  0  0
 30 57  1  0  0  0
 30 58  1  0  0  0
 31 59  1  0  0  0
 32 33  1  0  0  0
 32 60  1  0  0  0
 32 61  1  0  0  0
 33 62  1  0  0  0
 33 63  1  0  0  0
 33 64  1  0  0  0
M  END
> <s_m_entry_id>
35238

> <s_m_entry_name>
dock_pv.88

> <s_m_Source_Path>
/home/csk/Desktop/cluster/DUD-E-result/thrb

> <s_m_Source_File>
dock_pv.maegz

> <i_m_Source_File_Index>
88

> <chembl_id>
CHEMBL3978841

> <chembl_pref_name>
None

> <i_lp_mmshare_version>
53161

> <r_lp_tautomer_probability>
1

> <s_lp_Force_Field>
OPLS_2005

> <r_lp_Energy>
42.579232

> <b_lp_Chiralities_Consistent>
1

> <s_lp_Variant>
CHEMBL204_lig1754-2

> <s_i_glide_gridfile>
glide-grid_1ype

> <i_i_glide_lignum>
2546

> <i_i_glide_rotatable_bonds>
7

> <r_i_docking_score>
-7.85439469783545

> <r_i_glide_ligand_efficiency>
-0.238011960540468

> <r_i_glide_ligand_efficiency_sa>
-0.763431533493382

> <r_i_glide_ligand_efficiency_ln>
-1.74677671291936

> <r_i_glide_gscore>
-7.85439469783545

> <r_i_glide_lipo>
-4.05982953479139

> <r_i_glide_hbond>
-0.159899855142474

> <r_i_glide_metal>
0

> <r_i_glide_rewards>
-1.19101334682505

> <r_i_glide_evdw>
-46.9424018859863

> <r_i_glide_ecoul>
-3.3758442401886

> <r_i_glide_erotb>
0.503956814982647

> <r_i_glide_esite>
-0.0941120457315851

> <r_i_glide_emodel>
-70.0152603992507

> <r_i_glide_energy>
-50.3182461261749

> <r_i_glide_einternal>
4.07867527008057

> <i_i_glide_confnum>
91

> <i_i_glide_posenum>
253

> <r_i_glide_eff_state_penalty>
0

> <s_user_duplicate_titles>
CHEMBL204_lig1754

> <i_f3d_flags>
0

> <s_m_subgroup_title>
dock_pv

> <s_m_subgroupid>
dock_pv

> <b_m_subgroup_collapsed>
1

$$$$
CHEMBL204_lig53
                    3D
 Schrodinger Suite 2021-1.
 49 53  0  0  1  0            999 V2000
   22.1287  -14.5126   24.5144 Cl  0  0  0  0  0  0
   14.1601   -9.9390   21.4420 O   0  0  0  0  0  0
   18.1692  -12.6545   14.0434 O   0  0  0  0  0  0
   14.4160  -10.2529   15.1379 O   0  0  0  0  0  0
   16.4879  -11.6464   18.4490 N   0  0  0  0  0  0
   15.7867  -11.4530   17.3290 N   0  0  0  0  0  0
   16.3354  -11.5550   14.9838 N   0  0  0  0  0  0
   17.9184  -11.8530   16.7909 N   0  0  0  0  0  0
   18.6645  -12.3816   19.0432 N   0  0  0  0  0  0
   17.7855  -11.9002   18.0888 C   0  0  0  0  0  0
   16.0065  -11.3788   19.8194 C   0  0  1  0  0  0
   16.6803  -11.6083   16.3572 C   0  0  0  0  0  0
   18.2595  -12.4680   20.3738 C   0  0  0  0  0  0
   14.6015  -11.9041   20.1438 C   0  0  0  0  0  0
   17.0648  -11.9556   20.7632 C   0  0  0  0  0  0
   17.0555  -12.1335   13.9761 C   0  0  0  0  0  0
   15.2154  -10.9403   14.5066 C   0  0  0  0  0  0
   19.2163  -13.0519   21.3636 C   0  0  0  0  0  0
   13.7397  -11.1788   20.9910 C   0  0  0  0  0  0
   14.2056  -13.1598   19.6609 C   0  0  0  0  0  0
   16.2982  -11.9949   12.6712 C   0  0  0  0  0  0
   15.0803  -11.2064   13.0222 C   0  0  0  0  0  0
   12.5088  -11.7509   21.3569 C   0  0  0  0  0  0
   18.7577  -13.5779   22.5842 C   0  0  0  0  0  0
   20.5999  -13.0530   21.1210 C   0  0  0  0  0  0
   12.9834  -13.7106   20.0328 C   0  0  0  0  0  0
   12.1455  -13.0124   20.8943 C   0  0  0  0  0  0
   19.6481  -14.0364   23.5508 C   0  0  0  0  0  0
   21.4912  -13.4969   22.0946 C   0  0  0  0  0  0
   21.0155  -13.9816   23.3073 C   0  0  0  0  0  0
   13.3295   -9.1899   22.3244 C   0  0  0  0  0  0
   19.4279  -12.9714   18.7454 H   0  0  0  0  0  0
   16.0267  -10.2976   19.9603 H   0  0  0  0  0  0
   16.7980  -11.9848   21.8075 H   0  0  0  0  0  0
   14.8610  -13.7311   19.0191 H   0  0  0  0  0  0
   16.9343  -11.4778   11.9515 H   0  0  0  0  0  0
   16.0527  -12.9960   12.3120 H   0  0  0  0  0  0
   15.0351  -10.2531   12.4965 H   0  0  0  0  0  0
   14.1604  -11.7707   12.8601 H   0  0  0  0  0  0
   11.8221  -11.2417   22.0163 H   0  0  0  0  0  0
   17.7028  -13.6353   22.8062 H   0  0  0  0  0  0
   21.0052  -12.6572   20.2017 H   0  0  0  0  0  0
   12.6958  -14.6879   19.6732 H   0  0  0  0  0  0
   11.2161  -13.4539   21.2151 H   0  0  0  0  0  0
   19.2775  -14.4222   24.4893 H   0  0  0  0  0  0
   22.5541  -13.4531   21.9173 H   0  0  0  0  0  0
   13.8465   -8.2765   22.6206 H   0  0  0  0  0  0
   12.3929   -8.9049   21.8427 H   0  0  0  0  0  0
   13.1057   -9.7439   23.2368 H   0  0  0  0  0  0
  1 30  1  0  0  0
  2 19  1  0  0  0
  2 31  1  0  0  0
  3 16  2  0  0  0
  4 17  2  0  0  0
  5  6  1  0  0  0
  5 10  1  0  0  0
  5 11  1  0  0  0
  6 12  2  0  0  0
  7 12  1  0  0  0
  7 16  1  0  0  0
  7 17  1  0  0  0
  8 10  2  0  0  0
  8 12  1  0  0  0
  9 10  1  0  0  0
  9 13  1  0  0  0
  9 32  1  0  0  0
 11 14  1  0  0  0
 11 15  1  0  0  0
 11 33  1  0  0  0
 13 15  2  0  0  0
 13 18  1  0  0  0
 14 19  1  0  0  0
 14 20  2  0  0  0
 15 34  1  0  0  0
 16 21  1  0  0  0
 17 22  1  0  0  0
 18 24  2  0  0  0
 18 25  1  0  0  0
 19 23  2  0  0  0
 20 26  1  0  0  0
 20 35  1  0  0  0
 21 22  1  0  0  0
 21 36  1  0  0  0
 21 37  1  0  0  0
 22 38  1  0  0  0
 22 39  1  0  0  0
 23 27  1  0  0  0
 23 40  1  0  0  0
 24 28  1  0  0  0
 24 41  1  0  0  0
 25 29  2  0  0  0
 25 42  1  0  0  0
 26 27  2  0  0  0
 26 43  1  0  0  0
 27 44  1  0  0  0
 28 30  2  0  0  0
 28 45  1  0  0  0
 29 30  1  0  0  0
 29 46  1  0  0  0
 31 47  1  0  0  0
 31 48  1  0  0  0
 31 49  1  0  0  0
M  END
> <s_m_entry_id>
35239

> <s_m_entry_name>
dock_pv.89

> <s_m_Source_Path>
/home/csk/Desktop/cluster/DUD-E-result/thrb

> <s_m_Source_File>
dock_pv.maegz

> <i_m_Source_File_Index>
89

> <chembl_id>
CHEMBL1419428

> <chembl_pref_name>
None

> <i_lp_mmshare_version>
53161

> <r_lp_tautomer_probability>
1

> <s_lp_Force_Field>
OPLS_2005

> <r_lp_Energy>
38.439557

> <b_lp_Chiralities_Consistent>
1

> <s_lp_Variant>
CHEMBL204_lig53-2

> <s_i_glide_gridfile>
glide-grid_1ype

> <i_i_glide_lignum>
58

> <i_i_glide_rotatable_bonds>
4

> <r_i_docking_score>
-7.85311606925042

> <r_i_glide_ligand_efficiency>
-0.25332632481453

> <r_i_glide_ligand_efficiency_sa>
-0.795794414602865

> <r_i_glide_ligand_efficiency_ln>
-1.77111834272023

> <r_i_glide_gscore>
-7.85311606925042

> <r_i_glide_lipo>
-3.21062114249094

> <r_i_glide_hbond>
-0.424308554954028

> <r_i_glide_metal>
0

> <r_i_glide_rewards>
-0.865034805201826

> <r_i_glide_evdw>
-43.9177169799805

> <r_i_glide_ecoul>
-9.28780269622803

> <r_i_glide_erotb>
0.314690817145468

> <r_i_glide_esite>
-0.0787861303158644

> <r_i_glide_emodel>
-74.9614587403696

> <r_i_glide_energy>
-53.2055196762085

> <r_i_glide_einternal>
3.98443794250488

> <i_i_glide_confnum>
23

> <i_i_glide_posenum>
48

> <r_i_glide_eff_state_penalty>
0

> <s_user_duplicate_titles>
CHEMBL204_lig53

> <i_f3d_flags>
0

> <s_m_subgroup_title>
dock_pv

> <s_m_subgroupid>
dock_pv

> <b_m_subgroup_collapsed>
1

$$$$
CHEMBL204_lig1782
                    3D
 Schrodinger Suite 2021-1.
 60 63  0  0  1  0            999 V2000
   21.1204  -12.1156   18.4056 C   0  0  0  0  0  0
   19.8046  -11.8524   18.8810 O   0  0  0  0  0  0
   19.3370  -12.5873   19.9508 C   0  0  0  0  0  0
   20.0381  -13.5816   20.6415 C   0  0  0  0  0  0
   19.4615  -14.3161   21.6890 C   0  0  0  0  0  0
   18.1207  -14.0835   22.0659 C   0  0  0  0  0  0
   17.3981  -13.0783   21.3978 C   0  0  0  0  0  0
   16.0978  -12.6556   21.5274 N   0  0  0  0  0  0
   15.9894  -11.7231   20.6023 C   0  0  0  0  0  0
   14.8847  -11.0682   20.1293 N   0  0  0  0  0  0
   13.4634  -11.4089   20.2520 C   0  0  1  0  0  0
   13.1468  -12.8233   19.7096 C   0  0  0  0  0  0
   13.6331  -13.0471   18.4886 F   0  0  0  0  0  0
   12.8354  -11.0406   21.6091 C   0  0  0  0  0  0
   11.8956  -11.8746   22.2365 C   0  0  0  0  0  0
   11.2160  -11.4537   23.3787 C   0  0  0  0  0  0
   11.4713  -10.2007   23.9238 C   0  0  0  0  0  0
   12.4162   -9.3694   23.3306 C   0  0  0  0  0  0
   12.7963   -7.8530   24.0589 Cl  0  0  0  0  0  0
   13.0862   -9.7811   22.1756 C   0  0  0  0  0  0
   17.1199  -11.4628   19.8842 O   0  0  0  0  0  0
   18.0249  -12.3503   20.3739 C   0  0  0  0  0  0
   20.3091  -15.4070   22.3083 C   0  0  0  0  0  0
   20.8100  -16.2359   21.5438 O   0  0  0  0  0  0
   20.6124  -15.3723   23.6384 N   0  0  0  0  0  0
   19.7917  -14.6755   24.6464 C   0  0  0  0  0  0
   18.9715  -15.7707   25.3786 C   0  0  2  0  0  0
   18.1654  -15.1849   26.5372 C   0  0  0  0  0  0
   19.8654  -16.7468   25.9190 O   0  0  0  0  0  0
   20.6708  -17.3953   24.9356 C   0  0  0  0  0  0
   21.5663  -16.3561   24.2133 C   0  0  2  0  0  0
   22.6910  -15.7808   25.1172 C   0  0  0  0  0  0
   23.4872  -14.6323   24.4864 C   0  0  0  0  0  0
   24.2366  -14.7684   23.5211 O   0  0  0  0  0  0
   23.2623  -13.4523   25.1212 O   0  0  0  0  0  0
   21.3421  -11.4606   17.5633 H   0  0  0  0  0  0
   21.8712  -11.9271   19.1755 H   0  0  0  0  0  0
   21.2160  -13.1455   18.0574 H   0  0  0  0  0  0
   21.0550  -13.8117   20.3525 H   0  0  0  0  0  0
   17.6372  -14.6745   22.8301 H   0  0  0  0  0  0
   15.0570  -10.5050   19.3091 H   0  0  0  0  0  0
   12.9627  -10.7237   19.5661 H   0  0  0  0  0  0
   13.5584  -13.5969   20.3592 H   0  0  0  0  0  0
   12.0722  -12.9896   19.6314 H   0  0  0  0  0  0
   11.6475  -12.8491   21.8437 H   0  0  0  0  0  0
   10.4765  -12.0969   23.8373 H   0  0  0  0  0  0
   10.9347   -9.8839   24.8072 H   0  0  0  0  0  0
   13.7993   -9.1107   21.7181 H   0  0  0  0  0  0
   19.2185  -13.8301   24.2725 H   0  0  0  0  0  0
   20.4610  -14.1921   25.3586 H   0  0  0  0  0  0
   18.2621  -16.2496   24.6997 H   0  0  0  0  0  0
   17.2918  -14.6523   26.1654 H   0  0  0  0  0  0
   17.8100  -15.9683   27.2065 H   0  0  0  0  0  0
   18.7686  -14.4911   27.1212 H   0  0  0  0  0  0
   20.0301  -17.9198   24.2232 H   0  0  0  0  0  0
   21.2804  -18.1622   25.4134 H   0  0  0  0  0  0
   22.0980  -16.8701   23.4090 H   0  0  0  0  0  0
   23.3982  -16.5697   25.3732 H   0  0  0  0  0  0
   22.2725  -15.4506   26.0694 H   0  0  0  0  0  0
   23.7813  -12.7620   24.7056 H   0  0  0  0  0  0
  1  2  1  0  0  0
  1 36  1  0  0  0
  1 37  1  0  0  0
  1 38  1  0  0  0
  2  3  1  0  0  0
  3  4  2  0  0  0
  3 22  1  0  0  0
  4  5  1  0  0  0
  4 39  1  0  0  0
  5  6  2  0  0  0
  5 23  1  0  0  0
  6  7  1  0  0  0
  6 40  1  0  0  0
  7  8  1  0  0  0
  7 22  2  0  0  0
  8  9  2  0  0  0
  9 10  1  0  0  0
  9 21  1  0  0  0
 10 11  1  0  0  0
 10 41  1  0  0  0
 11 12  1  0  0  0
 11 14  1  0  0  0
 11 42  1  0  0  0
 12 13  1  0  0  0
 12 43  1  0  0  0
 12 44  1  0  0  0
 14 15  2  0  0  0
 14 20  1  0  0  0
 15 16  1  0  0  0
 15 45  1  0  0  0
 16 17  2  0  0  0
 16 46  1  0  0  0
 17 18  1  0  0  0
 17 47  1  0  0  0
 18 19  1  0  0  0
 18 20  2  0  0  0
 20 48  1  0  0  0
 21 22  1  0  0  0
 23 24  2  0  0  0
 23 25  1  0  0  0
 25 26  1  0  0  0
 25 31  1  0  0  0
 26 27  1  0  0  0
 26 49  1  0  0  0
 26 50  1  0  0  0
 27 28  1  0  0  0
 27 29  1  0  0  0
 27 51  1  0  0  0
 28 52  1  0  0  0
 28 53  1  0  0  0
 28 54  1  0  0  0
 29 30  1  0  0  0
 30 31  1  0  0  0
 30 55  1  0  0  0
 30 56  1  0  0  0
 31 32  1  0  0  0
 31 57  1  0  0  0
 32 33  1  0  0  0
 32 58  1  0  0  0
 32 59  1  0  0  0
 33 34  2  0  0  0
 33 35  1  0  0  0
 35 60  1  0  0  0
M  END
> <s_m_entry_id>
35240

> <s_m_entry_name>
dock_pv.90

> <s_m_Source_Path>
/home/csk/Desktop/cluster/DUD-E-result/thrb

> <s_m_Source_File>
dock_pv.maegz

> <i_m_Source_File_Index>
90

> <chembl_id>
CHEMBL3979944

> <chembl_pref_name>
None

> <i_lp_mmshare_version>
53161

> <r_lp_tautomer_probability>
1

> <s_lp_Force_Field>
OPLS_2005

> <r_lp_Energy>
39.510476

> <b_lp_Chiralities_Consistent>
1

> <s_lp_Variant>
CHEMBL204_lig1782-2

> <s_i_glide_gridfile>
glide-grid_1ype

> <i_i_glide_lignum>
2666

> <i_i_glide_rotatable_bonds>
10

> <r_i_docking_score>
-7.84111427102055

> <r_i_glide_ligand_efficiency>
-0.224031836314873

> <r_i_glide_ligand_efficiency_sa>
-0.732822991310785

> <r_i_glide_ligand_efficiency_ln>
-1.72129860664408

> <r_i_glide_gscore>
-7.84111427102055

> <r_i_glide_lipo>
-3.84150738586004

> <r_i_glide_hbond>
-0.574298975632984

> <r_i_glide_metal>
0

> <r_i_glide_rewards>
-0.57371809114781

> <r_i_glide_evdw>
-53.0004997253418

> <r_i_glide_ecoul>
-5.07344198226929

> <r_i_glide_erotb>
0.559451465227766

> <r_i_glide_esite>
0

> <r_i_glide_emodel>
-79.1885055672359

> <r_i_glide_energy>
-58.0739417076111

> <r_i_glide_einternal>
14.0773620605469

> <i_i_glide_confnum>
32

> <i_i_glide_posenum>
177

> <r_i_glide_eff_state_penalty>
0

> <s_user_duplicate_titles>
CHEMBL204_lig1782

> <i_f3d_flags>
0

> <s_m_subgroup_title>
dock_pv

> <s_m_subgroupid>
dock_pv

> <b_m_subgroup_collapsed>
1

$$$$
CHEMBL204_lig4637
                    3D
 Schrodinger Suite 2021-1.
 62 65  0  0  1  0            999 V2000
   19.6139  -14.0138   22.3823 C   0  0  0  0  0  0
   20.6754  -13.6106   21.5660 C   0  0  0  0  0  0
   20.4314  -12.9976   20.3381 C   0  0  0  0  0  0
   18.2944  -13.8123   21.9572 C   0  0  0  0  0  0
   18.0639  -13.2065   20.7261 C   0  0  0  0  0  0
   19.1146  -12.7877   19.9003 C   0  0  0  0  0  0
   18.7808  -12.2634   18.6275 N   0  0  0  0  0  0
   17.5270  -11.8543   18.2644 C   0  0  0  0  0  0
   16.5414  -11.9185   19.4792 C   0  0  2  0  0  0
   16.7668  -13.0925   20.2809 O   0  0  0  0  0  0
   19.8665  -12.1542   17.6362 C   0  0  0  0  0  0
   17.2121  -11.4454   17.1417 O   0  0  0  0  0  0
   15.0585  -11.8469   19.0339 C   0  0  0  0  0  0
   14.1085  -11.5853   20.1982 C   0  0  0  0  0  0
   13.2142  -12.5695   20.6162 C   0  0  0  0  0  0
   12.3557  -12.3247   21.6845 C   0  0  0  0  0  0
   12.3634  -11.0906   22.3657 C   0  0  0  0  0  0
   13.2617  -10.1089   21.9139 C   0  0  0  0  0  0
   14.1257  -10.3518   20.8522 C   0  0  0  0  0  0
   11.4627  -10.8023   23.5207 C   0  0  0  0  0  0
   11.4345   -9.6683   24.0679 N   0  0  0  0  0  0
   10.6752  -11.8530   23.9160 N   0  0  0  0  0  0
   19.9549  -14.6741   23.5664 N   0  0  0  0  0  0
   19.2510  -14.7901   24.7105 C   0  0  0  0  0  0
   19.8938  -15.6195   25.8499 C   0  0  1  0  0  0
   18.1585  -14.2539   24.8978 O   0  0  0  0  0  0
   18.8759  -16.5620   26.5284 C   0  0  0  0  0  0
   18.0201  -15.8767   27.3367 O   0  0  0  0  0  0
   18.8831  -17.7837   26.3965 O   0  0  0  0  0  0
   21.2258  -16.3724   25.4846 C   0  0  0  0  0  0
   22.4584  -15.5423   25.0915 C   0  0  0  0  0  0
   22.5374  -14.1610   25.3142 C   0  0  0  0  0  0
   23.6663  -13.4526   24.9134 C   0  0  0  0  0  0
   24.7321  -14.1208   24.3206 C   0  0  0  0  0  0
   24.6793  -15.4957   24.1192 C   0  0  0  0  0  0
   23.5405  -16.2033   24.4994 C   0  0  0  0  0  0
   21.6994  -13.7772   21.8729 H   0  0  0  0  0  0
   21.2815  -12.7100   19.7352 H   0  0  0  0  0  0
   17.4498  -14.1491   22.5398 H   0  0  0  0  0  0
   16.7869  -11.0349   20.0749 H   0  0  0  0  0  0
   19.5144  -11.9790   16.6198 H   0  0  0  0  0  0
   20.5443  -11.3447   17.9050 H   0  0  0  0  0  0
   20.4567  -13.0683   17.6108 H   0  0  0  0  0  0
   14.9026  -11.0530   18.3058 H   0  0  0  0  0  0
   14.7814  -12.7746   18.5297 H   0  0  0  0  0  0
   13.1836  -13.5299   20.1211 H   0  0  0  0  0  0
   11.6807  -13.1184   21.9691 H   0  0  0  0  0  0
   13.3130   -9.1451   22.3997 H   0  0  0  0  0  0
   14.8188   -9.5795   20.5539 H   0  0  0  0  0  0
   10.7287   -9.6501   24.7932 H   0  0  0  0  0  0
    9.8951  -11.6936   24.5562 H   0  0  0  0  0  0
   10.7798  -12.7855   23.5323 H   0  0  0  0  0  0
   20.8950  -15.0419   23.5976 H   0  0  0  0  0  0
   20.1497  -14.8927   26.6212 H   0  0  0  0  0  0
   18.0765  -14.9278   27.2093 H   0  0  0  0  0  0
   21.0222  -17.0707   24.6692 H   0  0  0  0  0  0
   21.5424  -16.9991   26.3210 H   0  0  0  0  0  0
   21.7384  -13.6122   25.7869 H   0  0  0  0  0  0
   23.7220  -12.3888   25.0829 H   0  0  0  0  0  0
   25.6142  -13.5688   24.0314 H   0  0  0  0  0  0
   25.5197  -16.0086   23.6751 H   0  0  0  0  0  0
   23.5057  -17.2708   24.3346 H   0  0  0  0  0  0
  1 23  1  0  0  0
  1  2  2  0  0  0
  1  4  1  0  0  0
  2  3  1  0  0  0
  2 37  1  0  0  0
  3  6  2  0  0  0
  3 38  1  0  0  0
  4  5  2  0  0  0
  4 39  1  0  0  0
  5 10  1  0  0  0
  5  6  1  0  0  0
  6  7  1  0  0  0
  7  8  1  0  0  0
  7 11  1  0  0  0
  8  9  1  0  0  0
  8 12  2  0  0  0
  9 10  1  0  0  0
  9 13  1  0  0  0
  9 40  1  0  0  0
 11 41  1  0  0  0
 11 42  1  0  0  0
 11 43  1  0  0  0
 13 14  1  0  0  0
 13 44  1  0  0  0
 13 45  1  0  0  0
 14 19  1  0  0  0
 14 15  2  0  0  0
 15 16  1  0  0  0
 15 46  1  0  0  0
 16 17  2  0  0  0
 16 47  1  0  0  0
 17 18  1  0  0  0
 17 20  1  0  0  0
 18 19  2  0  0  0
 18 48  1  0  0  0
 19 49  1  0  0  0
 20 21  2  0  0  0
 20 22  1  0  0  0
 21 50  1  0  0  0
 22 51  1  0  0  0
 22 52  1  0  0  0
 23 24  1  0  0  0
 23 53  1  0  0  0
 24 25  1  0  0  0
 24 26  2  0  0  0
 25 27  1  0  0  0
 25 30  1  0  0  0
 25 54  1  0  0  0
 27 28  1  0  0  0
 27 29  2  0  0  0
 28 55  1  0  0  0
 30 31  1  0  0  0
 30 56  1  0  0  0
 30 57  1  0  0  0
 31 32  2  0  0  0
 31 36  1  0  0  0
 32 33  1  0  0  0
 32 58  1  0  0  0
 33 34  2  0  0  0
 33 59  1  0  0  0
 34 35  1  0  0  0
 34 60  1  0  0  0
 35 36  2  0  0  0
 35 61  1  0  0  0
 36 62  1  0  0  0
M  END
> <s_m_entry_id>
35241

> <s_m_entry_name>
dock_pv.91

> <s_m_Source_Path>
/home/csk/Desktop/cluster/DUD-E-result/thrb

> <s_m_Source_File>
dock_pv.maegz

> <i_m_Source_File_Index>
91

> <chembl_id>
CHEMBL466530

> <chembl_pref_name>
None

> <i_lp_mmshare_version>
53161

> <r_lp_tautomer_probability>
1

> <s_lp_Force_Field>
OPLS_2005

> <r_lp_Energy>
40.084483

> <b_lp_Chiralities_Consistent>
1

> <s_lp_Variant>
CHEMBL204_lig4637-3

> <s_i_glide_gridfile>
glide-grid_1ype

> <i_i_glide_lignum>
6327

> <i_i_glide_rotatable_bonds>
10

> <r_i_docking_score>
-7.83770380136193

> <r_i_glide_ligand_efficiency>
-0.217713994482276

> <r_i_glide_ligand_efficiency_sa>
-0.718875769988019

> <r_i_glide_ligand_efficiency_ln>
-1.70997521917122

> <r_i_glide_gscore>
-7.83770380136193

> <r_i_glide_lipo>
-3.58358680954623

> <r_i_glide_hbond>
-0.136

> <r_i_glide_metal>
0

> <r_i_glide_rewards>
-0.670512573953213

> <r_i_glide_evdw>
-53.0695648193359

> <r_i_glide_ecoul>
-8.58780956268311

> <r_i_glide_erotb>
0.601010424501667

> <r_i_glide_esite>
-0.106965166994888

> <r_i_glide_emodel>
-88.4757604444981

> <r_i_glide_energy>
-61.657374382019

> <r_i_glide_einternal>
5.30031394958496

> <i_i_glide_confnum>
6

> <i_i_glide_posenum>
344

> <r_i_glide_eff_state_penalty>
0

> <s_user_duplicate_titles>
CHEMBL204_lig4637

> <i_f3d_flags>
0

> <s_m_subgroup_title>
dock_pv

> <s_m_subgroupid>
dock_pv

> <b_m_subgroup_collapsed>
1

$$$$
CHEMBL204_lig4184
                    3D
 Schrodinger Suite 2021-1.
 47 50  0  0  1  0            999 V2000
   17.1849  -12.9758   21.5252 C   0  0  0  0  0  0
   15.8676  -12.5993   21.5219 N   0  0  0  0  0  0
   20.8363  -15.5699   24.8817 N   0  3  0  0  0  0
   17.8937  -13.9987   22.1868 C   0  0  0  0  0  0
   17.9062  -12.1280   20.6698 C   0  0  0  0  0  0
   19.6706  -14.9609   25.2356 C   0  0  0  0  0  0
   15.8456  -11.5487   20.7222 C   0  0  0  0  0  0
   18.3382  -15.7265   25.1651 C   0  0  0  0  0  0
   17.0405  -11.2230   20.1437 O   0  0  0  0  0  0
   19.2368  -14.1381   21.9983 N   0  0  0  0  0  0
   17.2160  -14.8865   23.0369 N   0  0  0  0  0  0
   19.2813  -12.2518   20.4593 C   0  0  0  0  0  0
   20.8286  -16.7570   24.4553 O   0  5  0  0  0  0
   19.8977  -13.2798   21.1775 C   0  0  0  0  0  0
   17.8702  -16.0097   23.7167 C   0  0  0  0  0  0
   14.6685  -10.6529   20.3856 C   0  0  0  0  0  0
   18.4867  -16.8747   25.8291 F   0  0  0  0  0  0
   17.3986  -15.0534   25.8356 F   0  0  0  0  0  0
   13.5118  -10.6972   21.3757 C   0  0  0  0  0  0
   13.2884   -9.6323   22.2598 C   0  0  0  0  0  0
   22.0386  -14.9607   24.9737 C   0  0  0  0  0  0
   12.2468   -9.6910   23.1877 C   0  0  0  0  0  0
   19.7251  -13.6304   25.6744 C   0  0  0  0  0  0
   12.0160   -8.4066   24.3209 Cl  0  0  0  0  0  0
   11.6128  -11.8532   22.3222 C   0  0  0  0  0  0
   12.6592  -11.8041   21.4046 C   0  0  0  0  0  0
   21.3933  -13.4853   21.1100 C   0  0  0  0  0  0
   11.4095  -10.8045   23.2180 C   0  0  0  0  0  0
   22.1259  -13.6498   25.4423 C   0  0  0  0  0  0
   20.9535  -12.9819   25.7921 C   0  0  0  0  0  0
   16.2666  -14.6532   23.3169 H   0  0  0  0  0  0
   19.8290  -11.5805   19.8159 H   0  0  0  0  0  0
   18.6948  -16.3965   23.1179 H   0  0  0  0  0  0
   17.1438  -16.8214   23.7361 H   0  0  0  0  0  0
   15.0236   -9.6259   20.3218 H   0  0  0  0  0  0
   14.2952  -10.9159   19.3953 H   0  0  0  0  0  0
   13.9405   -8.7703   22.2535 H   0  0  0  0  0  0
   22.8916  -15.5528   24.6762 H   0  0  0  0  0  0
   18.8190  -13.0968   25.9211 H   0  0  0  0  0  0
   10.9429  -12.6997   22.3309 H   0  0  0  0  0  0
   12.8053  -12.6309   20.7235 H   0  0  0  0  0  0
   21.8885  -12.6756   20.5711 H   0  0  0  0  0  0
   21.8206  -13.5297   22.1133 H   0  0  0  0  0  0
   21.6160  -14.4245   20.6022 H   0  0  0  0  0  0
   10.5920  -10.8535   23.9262 H   0  0  0  0  0  0
   23.0843  -13.1577   25.5277 H   0  0  0  0  0  0
   20.9929  -11.9598   26.1457 H   0  0  0  0  0  0
  1  2  1  0  0  0
  1  4  1  0  0  0
  1  5  2  0  0  0
  2  7  2  0  0  0
  3  6  1  0  0  0
  3 13  1  0  0  0
  3 21  2  0  0  0
  4 10  2  0  0  0
  4 11  1  0  0  0
  5  9  1  0  0  0
  5 12  1  0  0  0
  6  8  1  0  0  0
  6 23  2  0  0  0
  7 16  1  0  0  0
  7  9  1  0  0  0
  8 15  1  0  0  0
  8 17  1  0  0  0
  8 18  1  0  0  0
 10 14  1  0  0  0
 11 15  1  0  0  0
 11 31  1  0  0  0
 12 14  2  0  0  0
 12 32  1  0  0  0
 14 27  1  0  0  0
 15 33  1  0  0  0
 15 34  1  0  0  0
 16 19  1  0  0  0
 16 35  1  0  0  0
 16 36  1  0  0  0
 19 20  2  0  0  0
 19 26  1  0  0  0
 20 22  1  0  0  0
 20 37  1  0  0  0
 21 29  1  0  0  0
 21 38  1  0  0  0
 22 24  1  0  0  0
 22 28  2  0  0  0
 23 30  1  0  0  0
 23 39  1  0  0  0
 25 26  2  0  0  0
 25 28  1  0  0  0
 25 40  1  0  0  0
 26 41  1  0  0  0
 27 42  1  0  0  0
 27 43  1  0  0  0
 27 44  1  0  0  0
 28 45  1  0  0  0
 29 30  2  0  0  0
 29 46  1  0  0  0
 30 47  1  0  0  0
M  CHG  2   3   1  13  -1
M  END
> <s_m_entry_id>
35242

> <s_m_entry_name>
dock_pv.92

> <s_m_Source_Path>
/home/csk/Desktop/cluster/DUD-E-result/thrb

> <s_m_Source_File>
dock_pv.maegz

> <i_m_Source_File_Index>
92

> <chembl_id>
CHEMBL198436

> <chembl_pref_name>
None

> <i_lp_mmshare_version>
53161

> <r_lp_tautomer_probability>
1

> <s_lp_Force_Field>
OPLS_2005

> <r_lp_Energy>
21.962137

> <b_lp_Chiralities_Consistent>
1

> <s_lp_Variant>
CHEMBL204_lig4184-1

> <s_i_glide_gridfile>
glide-grid_1ype

> <i_i_glide_lignum>
5816

> <i_i_glide_rotatable_bonds>
6

> <r_i_docking_score>
-7.83717303326837

> <r_i_glide_ligand_efficiency>
-0.261239101108946

> <r_i_glide_ligand_efficiency_sa>
-0.811730625871597

> <r_i_glide_ligand_efficiency_ln>
-1.7806911059982

> <r_i_glide_gscore>
-7.83717303326837

> <r_i_glide_lipo>
-4.33131479120484

> <r_i_glide_hbond>
-0.32

> <r_i_glide_metal>
0

> <r_i_glide_rewards>
-0.762437276072275

> <r_i_glide_evdw>
-43.8101463317871

> <r_i_glide_ecoul>
-4.92321968078613

> <r_i_glide_erotb>
0.535631306365838

> <r_i_glide_esite>
-0.0300620036498119

> <r_i_glide_emodel>
-69.320009397637

> <r_i_glide_energy>
-48.7333660125732

> <r_i_glide_einternal>
3.06057119369507

> <i_i_glide_confnum>
4

> <i_i_glide_posenum>
96

> <r_i_glide_eff_state_penalty>
0

> <s_user_duplicate_titles>
CHEMBL204_lig4184,329932

> <i_f3d_flags>
0

> <s_m_subgroup_title>
dock_pv

> <s_m_subgroupid>
dock_pv

> <b_m_subgroup_collapsed>
1

$$$$
CHEMBL204_lig952
                    3D
 Schrodinger Suite 2021-1.
 50 53  0  0  1  0            999 V2000
   16.8834  -12.8302   21.2163 N   0  0  0  0  0  0
   18.0585  -13.4872   21.3940 C   0  0  0  0  0  0
   16.7481  -11.9976   20.1572 C   0  0  0  0  0  0
   19.3524  -15.0452   22.7599 C   0  0  0  0  0  0
   19.1703  -13.3182   20.5131 C   0  0  0  0  0  0
   11.2747  -10.7688   23.7022 C   0  0  0  0  0  0
   18.1677  -14.3522   22.5037 C   0  0  0  0  0  0
   19.0024  -12.4314   19.4073 C   0  0  0  0  0  0
   19.4432  -15.9591   23.9304 C   0  0  0  0  0  0
   17.7703  -11.7975   19.2330 C   0  0  0  0  0  0
   15.5729  -11.2431   20.0270 N   0  0  0  0  0  0
   20.3628  -14.0378   20.7883 C   0  0  0  0  0  0
   12.2958  -10.9530   22.6467 C   0  0  0  0  0  0
   11.2159   -9.6765   24.3215 N   0  0  0  0  0  0
   20.4345  -14.8836   21.8923 C   0  0  0  0  0  0
   19.1834  -15.5274   25.2480 C   0  0  0  0  0  0
   12.8146  -12.2166   22.3150 C   0  0  0  0  0  0
   12.8275   -9.8271   21.9981 C   0  0  0  0  0  0
   10.4621  -11.8527   23.9210 N   0  0  0  0  0  0
   14.4440  -11.1937   20.8550 C   0  0  0  0  0  0
   13.8928   -9.9441   21.1186 C   0  0  0  0  0  0
   13.8844  -12.3352   21.4322 C   0  0  0  0  0  0
   20.1620  -12.1454   18.4588 C   0  0  0  0  0  0
   19.7653  -17.3058   23.7157 C   0  0  0  0  0  0
   18.9084  -14.0671   25.5767 C   0  0  0  0  0  0
   19.2115  -16.4460   26.3017 C   0  0  0  0  0  0
   19.8056  -18.2114   24.7740 C   0  0  0  0  0  0
   19.5172  -17.7850   26.0669 C   0  0  0  0  0  0
   17.3118  -14.4762   23.1533 H   0  0  0  0  0  0
   17.6202  -11.1196   18.4078 H   0  0  0  0  0  0
   15.6202  -10.4923   19.3537 H   0  0  0  0  0  0
   21.2193  -13.9392   20.1391 H   0  0  0  0  0  0
   10.4523   -9.6928   24.9885 H   0  0  0  0  0  0
   21.3538  -15.4209   22.0775 H   0  0  0  0  0  0
   12.4392  -13.1164   22.7841 H   0  0  0  0  0  0
   12.4503   -8.8374   22.2179 H   0  0  0  0  0  0
    9.6699  -11.7636   24.5578 H   0  0  0  0  0  0
   10.6343  -12.7672   23.5193 H   0  0  0  0  0  0
   14.3251   -9.0477   20.7005 H   0  0  0  0  0  0
   14.2913  -13.3129   21.2209 H   0  0  0  0  0  0
   20.5652  -13.0602   18.0339 H   0  0  0  0  0  0
   19.8709  -11.5150   17.6205 H   0  0  0  0  0  0
   20.9673  -11.6433   18.9955 H   0  0  0  0  0  0
   19.9703  -17.6582   22.7144 H   0  0  0  0  0  0
   19.2141  -13.8292   26.5966 H   0  0  0  0  0  0
   19.4742  -13.3957   24.9293 H   0  0  0  0  0  0
   17.8464  -13.8533   25.4643 H   0  0  0  0  0  0
   18.9968  -16.1203   27.3095 H   0  0  0  0  0  0
   20.0535  -19.2440   24.5892 H   0  0  0  0  0  0
   19.5373  -18.4854   26.8892 H   0  0  0  0  0  0
  1  2  1  0  0  0
  1  3  2  0  0  0
  2  5  1  0  0  0
  2  7  2  0  0  0
  3 10  1  0  0  0
  3 11  1  0  0  0
  4  7  1  0  0  0
  4  9  1  0  0  0
  4 15  2  0  0  0
  5 12  2  0  0  0
  5  8  1  0  0  0
  6 13  1  0  0  0
  6 14  2  0  0  0
  6 19  1  0  0  0
  7 29  1  0  0  0
  8 10  2  0  0  0
  8 23  1  0  0  0
  9 16  2  0  0  0
  9 24  1  0  0  0
 10 30  1  0  0  0
 11 20  1  0  0  0
 11 31  1  0  0  0
 12 15  1  0  0  0
 12 32  1  0  0  0
 13 17  2  0  0  0
 13 18  1  0  0  0
 14 33  1  0  0  0
 15 34  1  0  0  0
 16 25  1  0  0  0
 16 26  1  0  0  0
 17 22  1  0  0  0
 17 35  1  0  0  0
 18 21  2  0  0  0
 18 36  1  0  0  0
 19 37  1  0  0  0
 19 38  1  0  0  0
 20 21  1  0  0  0
 20 22  2  0  0  0
 21 39  1  0  0  0
 22 40  1  0  0  0
 23 41  1  0  0  0
 23 42  1  0  0  0
 23 43  1  0  0  0
 24 27  2  0  0  0
 24 44  1  0  0  0
 25 45  1  0  0  0
 25 46  1  0  0  0
 25 47  1  0  0  0
 26 28  2  0  0  0
 26 48  1  0  0  0
 27 28  1  0  0  0
 27 49  1  0  0  0
 28 50  1  0  0  0
M  END
> <s_m_entry_id>
35243

> <s_m_entry_name>
dock_pv.93

> <s_m_Source_Path>
/home/csk/Desktop/cluster/DUD-E-result/thrb

> <s_m_Source_File>
dock_pv.maegz

> <i_m_Source_File_Index>
93

> <chembl_id>
CHEMBL309013

> <chembl_pref_name>
None

> <i_lp_mmshare_version>
53161

> <r_lp_tautomer_probability>
1

> <s_lp_Force_Field>
OPLS_2005

> <r_lp_Energy>
22.019771

> <b_lp_Chiralities_Consistent>
1

> <s_lp_Variant>
CHEMBL204_lig952-1

> <s_i_glide_gridfile>
glide-grid_1ype

> <i_i_glide_lignum>
1497

> <i_i_glide_rotatable_bonds>
4

> <r_i_docking_score>
-7.83518911560631

> <r_i_glide_ligand_efficiency>
-0.279828182700225

> <r_i_glide_ligand_efficiency_sa>
-0.849723172663695

> <r_i_glide_ligand_efficiency_ln>
-1.80859169903072

> <r_i_glide_gscore>
-7.83518911560631

> <r_i_glide_lipo>
-3.19057064393234

> <r_i_glide_hbond>
-0.860258843196838

> <r_i_glide_metal>
0

> <r_i_glide_rewards>
-1.03886497898899

> <r_i_glide_evdw>
-38.5105972290039

> <r_i_glide_ecoul>
-7.46736288070679

> <r_i_glide_erotb>
0.429981721028687

> <r_i_glide_esite>
-0.12984207696062

> <r_i_glide_emodel>
-62.6354095815804

> <r_i_glide_energy>
-45.9779601097107

> <r_i_glide_einternal>
6.85320901870728

> <i_i_glide_confnum>
5

> <i_i_glide_posenum>
349

> <r_i_glide_eff_state_penalty>
0

> <s_user_duplicate_titles>
CHEMBL204_lig952,117888

> <i_f3d_flags>
0

> <s_m_subgroup_title>
dock_pv

> <s_m_subgroupid>
dock_pv

> <b_m_subgroup_collapsed>
1

$$$$
CHEMBL204_lig4138
                    3D
 Schrodinger Suite 2021-1.
 51 53  0  0  1  0            999 V2000
   18.3698  -13.4352   21.1936 N   0  3  0  0  0  0
   18.5094  -13.0783   19.8817 C   0  0  0  0  0  0
   20.8903  -14.2012   25.3999 C   0  0  0  0  0  0
   19.4348  -13.5216   22.0544 C   0  0  0  0  0  0
   17.2754  -13.0024   18.9650 C   0  0  0  0  0  0
   17.2011  -13.6753   21.6251 O   0  5  0  0  0  0
   19.2447  -13.8310   23.4453 N   0  0  0  0  0  0
   19.7923  -12.7756   19.3911 C   0  0  0  0  0  0
   22.2790  -14.5029   24.8190 C   0  0  0  0  0  0
   20.0607  -13.2300   24.5234 C   0  0  0  0  0  0
   16.6932  -11.5730   18.8210 C   0  0  2  0  0  0
   23.1498  -13.4531   24.7594 N   0  0  0  0  0  0
   20.7210  -13.2898   21.5542 C   0  0  0  0  0  0
   15.8338  -11.1474   19.9225 N   0  0  2  0  0  0
   20.8900  -12.8948   20.2336 C   0  0  0  0  0  0
   20.2311  -15.3390   25.6407 F   0  0  0  0  0  0
   21.0853  -13.6340   26.5904 F   0  0  0  0  0  0
   20.0595  -12.2521   17.7630 Cl  0  0  0  0  0  0
   14.5828  -11.9094   20.0341 C   0  0  0  0  0  0
   13.7065  -10.1491   21.7113 C   0  0  0  0  0  0
   12.7980   -9.7600   22.6978 C   0  0  0  0  0  0
   13.5973  -11.4062   21.0938 C   0  0  0  0  0  0
   13.0129   -8.2551   23.5205 Cl  0  0  0  0  0  0
   16.1195  -11.4526   17.5389 O   0  0  0  0  0  0
   11.6161  -11.8508   22.4293 C   0  0  0  0  0  0
   24.4141  -13.6817   24.3208 C   0  0  0  0  0  0
   22.6510  -15.7910   24.4099 C   0  0  0  0  0  0
   11.7477  -10.6085   23.0506 C   0  0  0  0  0  0
   12.5378  -12.2442   21.4599 C   0  0  0  0  0  0
   24.8574  -14.9435   23.9213 C   0  0  0  0  0  0
   23.9548  -16.0085   23.9620 C   0  0  0  0  0  0
   17.5901  -13.3664   17.9855 H   0  0  0  0  0  0
   16.5214  -13.7278   19.2634 H   0  0  0  0  0  0
   18.3617  -14.2545   23.6992 H   0  0  0  0  0  0
   19.3196  -12.7439   25.1622 H   0  0  0  0  0  0
   20.6727  -12.4262   24.1191 H   0  0  0  0  0  0
   17.5419  -10.8884   18.8335 H   0  0  0  0  0  0
   21.5922  -13.3777   22.1875 H   0  0  0  0  0  0
   15.6113  -10.1724   19.7679 H   0  0  0  0  0  0
   21.8840  -12.6795   19.8602 H   0  0  0  0  0  0
   14.0543  -11.8408   19.0807 H   0  0  0  0  0  0
   14.7709  -12.9670   20.2234 H   0  0  0  0  0  0
   14.5194   -9.4827   21.4666 H   0  0  0  0  0  0
   15.8025  -10.5511   17.4343 H   0  0  0  0  0  0
   10.8016  -12.5051   22.7042 H   0  0  0  0  0  0
   25.0822  -12.8332   24.3053 H   0  0  0  0  0  0
   21.9535  -16.6158   24.4570 H   0  0  0  0  0  0
   11.0380  -10.3158   23.8126 H   0  0  0  0  0  0
   12.4264  -13.2172   20.9978 H   0  0  0  0  0  0
   25.8773  -15.0896   23.5970 H   0  0  0  0  0  0
   24.2688  -16.9978   23.6622 H   0  0  0  0  0  0
  1  2  1  0  0  0
  1  4  2  0  0  0
  1  6  1  0  0  0
  2  5  1  0  0  0
  2  8  2  0  0  0
  3 10  1  0  0  0
  3  9  1  0  0  0
  3 16  1  0  0  0
  3 17  1  0  0  0
  4  7  1  0  0  0
  4 13  1  0  0  0
  5 11  1  0  0  0
  5 32  1  0  0  0
  5 33  1  0  0  0
  7 10  1  0  0  0
  7 34  1  0  0  0
  8 18  1  0  0  0
  8 15  1  0  0  0
  9 12  2  0  0  0
  9 27  1  0  0  0
 10 35  1  0  0  0
 10 36  1  0  0  0
 11 14  1  0  0  0
 11 24  1  0  0  0
 11 37  1  0  0  0
 12 26  1  0  0  0
 13 15  2  0  0  0
 13 38  1  0  0  0
 14 19  1  0  0  0
 14 39  1  0  0  0
 15 40  1  0  0  0
 19 22  1  0  0  0
 19 41  1  0  0  0
 19 42  1  0  0  0
 20 22  2  0  0  0
 20 21  1  0  0  0
 20 43  1  0  0  0
 21 23  1  0  0  0
 21 28  2  0  0  0
 22 29  1  0  0  0
 24 44  1  0  0  0
 25 29  2  0  0  0
 25 28  1  0  0  0
 25 45  1  0  0  0
 26 30  2  0  0  0
 26 46  1  0  0  0
 27 31  2  0  0  0
 27 47  1  0  0  0
 28 48  1  0  0  0
 29 49  1  0  0  0
 30 31  1  0  0  0
 30 50  1  0  0  0
 31 51  1  0  0  0
M  CHG  2   1   1   6  -1
M  END
> <s_m_entry_id>
35245

> <s_m_entry_name>
dock_pv.95

> <s_m_Source_Path>
/home/csk/Desktop/cluster/DUD-E-result/thrb

> <s_m_Source_File>
dock_pv.maegz

> <i_m_Source_File_Index>
95

> <chembl_id>
CHEMBL195776

> <chembl_pref_name>
None

> <i_lp_mmshare_version>
53161

> <r_lp_tautomer_probability>
0.9999999999682

> <s_lp_Force_Field>
OPLS_2005

> <r_lp_Energy>
22.665507

> <b_lp_Chiralities_Consistent>
1

> <s_lp_Variant>
CHEMBL204_lig4138-1

> <s_i_glide_gridfile>
glide-grid_1ype

> <i_i_glide_lignum>
5753

> <i_i_glide_rotatable_bonds>
10

> <r_i_docking_score>
-7.7746475804236

> <r_i_glide_ligand_efficiency>
-0.250795083239471

> <r_i_glide_ligand_efficiency_sa>
-0.787842821301549

> <r_i_glide_ligand_efficiency_ln>
-1.7534212937194

> <r_i_glide_gscore>
-7.7746475804236

> <r_i_glide_lipo>
-3.75373032648735

> <r_i_glide_hbond>
-0.488907429300397

> <r_i_glide_metal>
0

> <r_i_glide_rewards>
-1.13062665678478

> <r_i_glide_evdw>
-46.8266525268555

> <r_i_glide_ecoul>
-4.67953157424927

> <r_i_glide_erotb>
0.641879194629097

> <r_i_glide_esite>
0

> <r_i_glide_emodel>
-70.5565310046838

> <r_i_glide_energy>
-51.5061841011047

> <r_i_glide_einternal>
10.4446897506714

> <i_i_glide_confnum>
36

> <i_i_glide_posenum>
310

> <r_i_glide_eff_state_penalty>
0

> <s_user_duplicate_titles>
CHEMBL204_lig4138,326112

> <i_f3d_flags>
0

> <s_m_subgroup_title>
dock_pv

> <s_m_subgroupid>
dock_pv

> <b_m_subgroup_collapsed>
1

$$$$
CHEMBL204_lig4711
                    3D
 Schrodinger Suite 2021-1.
 55 56  0  0  1  0            999 V2000
   18.8601  -15.4095   26.7270 C   0  0  0  0  0  0
   18.9686  -15.6201   25.2145 C   0  0  0  0  0  0
   18.6926  -14.3461   24.3790 C   0  0  1  0  0  0
   19.8167  -13.3073   24.6153 C   0  0  0  0  0  0
   18.4241  -14.7049   22.8786 C   0  0  1  0  0  0
   17.2161  -15.5434   22.7130 N   0  0  0  0  0  0
   18.1768  -13.4029   22.0599 C   0  0  0  0  0  0
   17.1703  -12.7353   22.3197 O   0  0  0  0  0  0
   19.0688  -13.0631   21.0891 N   0  0  0  0  0  0
   20.4009  -13.6504   20.9050 C   0  0  0  0  0  0
   21.1725  -12.6310   20.0774 C   0  0  0  0  0  0
   20.0935  -12.0325   19.1963 C   0  0  0  0  0  0
   18.8308  -11.9927   20.0921 C   0  0  1  0  0  0
   17.5168  -12.1778   19.2997 C   0  0  0  0  0  0
   17.4831  -12.9353   18.3303 O   0  0  0  0  0  0
   16.4495  -11.5074   19.7568 N   0  0  0  0  0  0
   15.0779  -11.7237   19.2970 C   0  0  0  0  0  0
   14.0520  -11.4711   20.3974 C   0  0  0  0  0  0
   13.1699  -12.4828   20.7773 C   0  0  0  0  0  0
   12.2558  -12.2668   21.8039 C   0  0  0  0  0  0
   12.1890  -11.0364   22.4835 C   0  0  0  0  0  0
   13.0679  -10.0201   22.0599 C   0  0  0  0  0  0
   13.9863  -10.2317   21.0347 C   0  0  0  0  0  0
   11.2419  -10.7979   23.6170 C   0  0  0  0  0  0
   11.2164   -9.6996   24.2321 N   0  0  0  0  0  0
   10.4188  -11.8530   23.9210 N   0  0  0  0  0  0
   18.7575  -16.3641   27.2454 H   0  0  0  0  0  0
   17.9938  -14.8016   26.9879 H   0  0  0  0  0  0
   19.7483  -14.9171   27.1207 H   0  0  0  0  0  0
   19.9560  -16.0108   24.9685 H   0  0  0  0  0  0
   18.2664  -16.4100   24.9423 H   0  0  0  0  0  0
   17.7759  -13.9042   24.7757 H   0  0  0  0  0  0
   20.7783  -13.6804   24.2648 H   0  0  0  0  0  0
   19.6183  -12.3640   24.1081 H   0  0  0  0  0  0
   19.9213  -13.0671   25.6730 H   0  0  0  0  0  0
   19.2760  -15.2627   22.4913 H   0  0  0  0  0  0
   16.4051  -15.0655   23.0936 H   0  0  0  0  0  0
   17.0188  -15.7396   21.7414 H   0  0  0  0  0  0
   20.9201  -13.8464   21.8455 H   0  0  0  0  0  0
   20.3003  -14.5908   20.3602 H   0  0  0  0  0  0
   21.5747  -11.8519   20.7216 H   0  0  0  0  0  0
   22.0133  -13.0515   19.5208 H   0  0  0  0  0  0
   20.3886  -11.0527   18.8247 H   0  0  0  0  0  0
   19.9552  -12.6855   18.3329 H   0  0  0  0  0  0
   18.8041  -11.0452   20.6348 H   0  0  0  0  0  0
   16.5680  -10.8843   20.5444 H   0  0  0  0  0  0
   14.8788  -11.0530   18.4663 H   0  0  0  0  0  0
   14.9498  -12.7287   18.8865 H   0  0  0  0  0  0
   13.1976  -13.4481   20.2928 H   0  0  0  0  0  0
   11.6048  -13.0874   22.0663 H   0  0  0  0  0  0
   13.0569   -9.0539   22.5435 H   0  0  0  0  0  0
   14.6572   -9.4350   20.7461 H   0  0  0  0  0  0
   10.4858   -9.7121   24.9325 H   0  0  0  0  0  0
    9.6603  -11.7273   24.5913 H   0  0  0  0  0  0
   10.5432  -12.7784   23.5279 H   0  0  0  0  0  0
  1  2  1  0  0  0
  1 27  1  0  0  0
  1 28  1  0  0  0
  1 29  1  0  0  0
  2  3  1  0  0  0
  2 30  1  0  0  0
  2 31  1  0  0  0
  3  4  1  0  0  0
  3  5  1  0  0  0
  3 32  1  0  0  0
  4 33  1  0  0  0
  4 34  1  0  0  0
  4 35  1  0  0  0
  5  6  1  0  0  0
  5  7  1  0  0  0
  5 36  1  0  0  0
  6 37  1  0  0  0
  6 38  1  0  0  0
  7  8  2  0  0  0
  7  9  1  0  0  0
  9 10  1  0  0  0
  9 13  1  0  0  0
 10 11  1  0  0  0
 10 39  1  0  0  0
 10 40  1  0  0  0
 11 12  1  0  0  0
 11 41  1  0  0  0
 11 42  1  0  0  0
 12 13  1  0  0  0
 12 43  1  0  0  0
 12 44  1  0  0  0
 13 14  1  0  0  0
 13 45  1  0  0  0
 14 15  2  0  0  0
 14 16  1  0  0  0
 16 17  1  0  0  0
 16 46  1  0  0  0
 17 18  1  0  0  0
 17 47  1  0  0  0
 17 48  1  0  0  0
 18 19  2  0  0  0
 18 23  1  0  0  0
 19 20  1  0  0  0
 19 49  1  0  0  0
 20 21  2  0  0  0
 20 50  1  0  0  0
 21 22  1  0  0  0
 21 24  1  0  0  0
 22 23  2  0  0  0
 22 51  1  0  0  0
 23 52  1  0  0  0
 24 25  2  0  0  0
 24 26  1  0  0  0
 25 53  1  0  0  0
 26 54  1  0  0  0
 26 55  1  0  0  0
M  END
> <s_m_entry_id>
35246

> <s_m_entry_name>
dock_pv.96

> <s_m_Source_Path>
/home/csk/Desktop/cluster/DUD-E-result/thrb

> <s_m_Source_File>
dock_pv.maegz

> <i_m_Source_File_Index>
96

> <chembl_id>
CHEMBL599866

> <chembl_pref_name>
None

> <i_lp_mmshare_version>
53161

> <r_lp_tautomer_probability>
1

> <s_lp_Force_Field>
OPLS_2005

> <r_lp_Energy>
19.556301

> <b_lp_Chiralities_Consistent>
1

> <s_lp_Variant>
CHEMBL204_lig4711-1

> <s_i_glide_gridfile>
glide-grid_1ype

> <i_i_glide_lignum>
6452

> <i_i_glide_rotatable_bonds>
9

> <r_i_docking_score>
-7.77095856487634

> <r_i_glide_ligand_efficiency>
-0.298883021726013

> <r_i_glide_ligand_efficiency_sa>
-0.885439775815413

> <r_i_glide_ligand_efficiency_ln>
-1.8249841203664

> <r_i_glide_gscore>
-7.77095856487634

> <r_i_glide_lipo>
-3.15989333353571

> <r_i_glide_hbond>
-0.366656012965855

> <r_i_glide_metal>
0

> <r_i_glide_rewards>
-1.67516183155543

> <r_i_glide_evdw>
-39.0585861206055

> <r_i_glide_ecoul>
-10.1448059082031

> <r_i_glide_erotb>
1.03837261807802

> <r_i_glide_esite>
-0.132969812636628

> <r_i_glide_emodel>
-70.9854431297451

> <r_i_glide_energy>
-49.2033920288086

> <r_i_glide_einternal>
3.46669888496399

> <i_i_glide_confnum>
66

> <i_i_glide_posenum>
353

> <r_i_glide_eff_state_penalty>
0

> <s_user_duplicate_titles>
CHEMBL204_lig4711

> <i_f3d_flags>
0

> <s_m_subgroup_title>
dock_pv

> <s_m_subgroupid>
dock_pv

> <b_m_subgroup_collapsed>
1

$$$$
CHEMBL204_lig4749
                    3D
 Schrodinger Suite 2021-1.
 62 64  0  0  1  0            999 V2000
   13.5351  -11.3943   20.7418 C   0  0  0  0  0  0
   13.4635  -10.2108   21.4899 C   0  0  0  0  0  0
   12.5284  -10.0474   22.5099 C   0  0  0  0  0  0
   11.6130  -11.0783   22.7514 C   0  0  0  0  0  0
   11.6419  -12.2421   21.9900 C   0  0  0  0  0  0
   12.5968  -12.4174   20.9870 C   0  0  0  0  0  0
   14.6739  -11.5263   19.7303 C   0  0  0  0  0  0
   15.9492  -11.5158   20.4281 N   0  0  0  0  0  0
   17.1704  -11.4683   19.8887 C   0  0  0  0  0  0
   18.3240  -11.4041   20.8997 C   0  0  0  0  0  0
   18.7937  -12.7558   21.3003 N   0  0  0  0  0  0
   17.3903  -11.4549   18.6797 O   0  0  0  0  0  0
   19.9868  -13.3152   20.8287 C   0  0  0  0  0  0
   20.4088  -14.5230   21.2931 C   0  0  0  0  0  0
   19.7297  -15.2312   22.2459 N   0  0  0  0  0  0
   18.6098  -14.7459   22.6674 C   0  0  0  0  0  0
   18.0053  -13.4553   22.2132 C   0  0  0  0  0  0
   17.8801  -15.4268   23.6379 N   0  0  0  0  0  0
   18.3619  -16.5245   24.4698 C   0  0  0  0  0  0
   18.7611  -16.0744   25.8926 C   0  0  0  0  0  0
   19.9984  -15.1561   26.0435 C   0  0  1  0  0  0
   21.3226  -15.7794   25.5181 C   0  0  0  0  0  0
   22.5435  -14.8512   25.6491 C   0  0  0  0  0  0
   22.2050  -13.4507   25.1349 C   0  0  0  0  0  0
   20.9777  -12.8837   25.8693 C   0  0  0  0  0  0
   19.8091  -13.7445   25.6851 N   0  0  2  0  0  0
   20.7691  -12.5462   19.7699 C   0  0  0  0  0  0
   16.9060  -13.0548   22.6252 O   0  0  0  0  0  0
   12.5963   -8.8787   23.2394 O   0  0  0  0  0  0
   12.5892  -13.6774   20.2507 C   0  0  0  0  0  0
   12.5840  -14.6742   19.6638 N   0  0  0  0  0  0
   11.8821   -8.8042   24.4707 C   0  0  0  0  0  0
   14.1824   -9.4226   21.3179 H   0  0  0  0  0  0
   10.8584  -10.9921   23.5200 H   0  0  0  0  0  0
   10.9081  -13.0072   22.2015 H   0  0  0  0  0  0
   14.6023  -12.4299   19.1244 H   0  0  0  0  0  0
   14.6128  -10.6878   19.0385 H   0  0  0  0  0  0
   15.9071  -11.7233   21.4181 H   0  0  0  0  0  0
   19.1207  -10.7506   20.5510 H   0  0  0  0  0  0
   17.9736  -10.8762   21.7883 H   0  0  0  0  0  0
   21.3257  -14.9651   20.9261 H   0  0  0  0  0  0
   16.9951  -15.0210   23.9179 H   0  0  0  0  0  0
   17.5692  -17.2713   24.5423 H   0  0  0  0  0  0
   19.2024  -17.0256   23.9878 H   0  0  0  0  0  0
   17.9062  -15.5863   26.3636 H   0  0  0  0  0  0
   18.9349  -16.9720   26.4875 H   0  0  0  0  0  0
   20.1268  -15.0476   27.1185 H   0  0  0  0  0  0
   21.5464  -16.6893   26.0746 H   0  0  0  0  0  0
   21.2122  -16.0522   24.4691 H   0  0  0  0  0  0
   22.8528  -14.7887   26.6970 H   0  0  0  0  0  0
   23.3938  -15.2622   25.1035 H   0  0  0  0  0  0
   23.0597  -12.7884   25.2725 H   0  0  0  0  0  0
   22.0156  -13.4620   24.0600 H   0  0  0  0  0  0
   21.1832  -12.8143   26.9387 H   0  0  0  0  0  0
   20.7451  -11.8740   25.5305 H   0  0  0  0  0  0
   19.0339  -13.3644   26.2102 H   0  0  0  0  0  0
   21.6168  -13.1246   19.4028 H   0  0  0  0  0  0
   20.1388  -12.3167   18.9105 H   0  0  0  0  0  0
   21.1646  -11.6171   20.1805 H   0  0  0  0  0  0
   12.1589   -7.8917   25.0001 H   0  0  0  0  0  0
   12.1156   -9.6495   25.1191 H   0  0  0  0  0  0
   10.8046   -8.7937   24.3241 H   0  0  0  0  0  0
  1  6  1  0  0  0
  1  2  2  0  0  0
  1  7  1  0  0  0
  2  3  1  0  0  0
  2 33  1  0  0  0
  3 29  1  0  0  0
  3  4  2  0  0  0
  4  5  1  0  0  0
  4 34  1  0  0  0
  5  6  2  0  0  0
  5 35  1  0  0  0
  6 30  1  0  0  0
  7  8  1  0  0  0
  7 36  1  0  0  0
  7 37  1  0  0  0
  8  9  1  0  0  0
  8 38  1  0  0  0
  9 10  1  0  0  0
  9 12  2  0  0  0
 10 11  1  0  0  0
 10 39  1  0  0  0
 10 40  1  0  0  0
 11 13  1  0  0  0
 11 17  1  0  0  0
 13 14  2  0  0  0
 13 27  1  0  0  0
 14 15  1  0  0  0
 14 41  1  0  0  0
 15 16  2  0  0  0
 16 17  1  0  0  0
 16 18  1  0  0  0
 17 28  2  0  0  0
 18 19  1  0  0  0
 18 42  1  0  0  0
 19 20  1  0  0  0
 19 43  1  0  0  0
 19 44  1  0  0  0
 20 21  1  0  0  0
 20 45  1  0  0  0
 20 46  1  0  0  0
 21 22  1  0  0  0
 21 26  1  0  0  0
 21 47  1  0  0  0
 22 23  1  0  0  0
 22 48  1  0  0  0
 22 49  1  0  0  0
 23 24  1  0  0  0
 23 50  1  0  0  0
 23 51  1  0  0  0
 24 25  1  0  0  0
 24 52  1  0  0  0
 24 53  1  0  0  0
 25 26  1  0  0  0
 25 54  1  0  0  0
 25 55  1  0  0  0
 26 56  1  0  0  0
 27 57  1  0  0  0
 27 58  1  0  0  0
 27 59  1  0  0  0
 29 32  1  0  0  0
 30 31  3  0  0  0
 32 60  1  0  0  0
 32 61  1  0  0  0
 32 62  1  0  0  0
M  END
> <s_m_entry_id>
35247

> <s_m_entry_name>
dock_pv.97

> <s_m_Source_Path>
/home/csk/Desktop/cluster/DUD-E-result/thrb

> <s_m_Source_File>
dock_pv.maegz

> <i_m_Source_File_Index>
97

> <chembl_id>
CHEMBL1682760

> <chembl_pref_name>
None

> <i_lp_mmshare_version>
53161

> <r_lp_tautomer_probability>
1

> <s_lp_Force_Field>
OPLS_2005

> <r_lp_Energy>
35.903931

> <b_lp_Chiralities_Consistent>
1

> <s_lp_Variant>
CHEMBL204_lig4749-2

> <s_i_glide_gridfile>
glide-grid_1ype

> <i_i_glide_lignum>
6494

> <i_i_glide_rotatable_bonds>
10

> <r_i_docking_score>
-7.74475107725161

> <r_i_glide_ligand_efficiency>
-0.242023471164113

> <r_i_glide_ligand_efficiency_sa>
-0.768376624566152

> <r_i_glide_ligand_efficiency_ln>
-1.73426088013762

> <r_i_glide_gscore>
-7.74475107725161

> <r_i_glide_lipo>
-3.57878968904466

> <r_i_glide_hbond>
-0.23089856035567

> <r_i_glide_metal>
0

> <r_i_glide_rewards>
-1.23625693757066

> <r_i_glide_evdw>
-51.431941986084

> <r_i_glide_ecoul>
-6.35581398010254

> <r_i_glide_erotb>
0.829965380345625

> <r_i_glide_esite>
-0.00380207430665828

> <r_i_glide_emodel>
-79.2133297559394

> <r_i_glide_energy>
-57.7877559661865

> <r_i_glide_einternal>
10.9971561431885

> <i_i_glide_confnum>
48

> <i_i_glide_posenum>
252

> <r_i_glide_eff_state_penalty>
0

> <s_user_duplicate_titles>
CHEMBL204_lig4749

> <i_f3d_flags>
0

> <s_m_subgroup_title>
dock_pv

> <s_m_subgroupid>
dock_pv

> <b_m_subgroup_collapsed>
1

$$$$
CHEMBL204_lig4960
                    3D
 Schrodinger Suite 2021-1.
 78 81  0  0  1  0            999 V2000
   11.2159   -9.7051   24.3287 N   0  0  0  0  0  0
   12.0473   -8.6631   24.1043 C   0  0  0  0  0  0
   13.0227   -8.6817   23.1139 C   0  0  0  0  0  0
   11.3173  -10.8155   23.5683 C   0  0  0  0  0  0
   12.2593  -10.9485   22.5194 C   0  0  0  0  0  0
   13.1390   -9.8451   22.2943 C   0  0  0  0  0  0
   14.1389   -9.9697   21.3039 C   0  0  0  0  0  0
   14.3032  -11.1612   20.5954 C   0  0  0  0  0  0
   13.4029  -12.2117   20.7836 C   0  0  0  0  0  0
   12.3890  -12.1170   21.7254 C   0  0  0  0  0  0
   10.4548  -11.8530   23.9214 N   0  0  0  0  0  0
   15.4269  -11.2360   19.7629 N   0  0  0  0  0  0
   15.8934  -12.1326   18.7062 C   0  0  1  0  0  0
   17.4483  -12.0631   18.6452 C   0  0  0  0  0  0
   18.1070  -11.8620   19.7998 N   0  0  0  0  0  0
   18.0158  -12.2522   17.5692 O   0  0  0  0  0  0
   15.3964  -13.5609   18.7391 C   0  0  0  0  0  0
   15.8088  -14.4585   19.7344 C   0  0  0  0  0  0
   15.2938  -15.7591   19.7928 C   0  0  0  0  0  0
   14.3578  -16.1902   18.8399 C   0  0  0  0  0  0
   13.9729  -15.2963   17.8307 C   0  0  0  0  0  0
   14.4720  -13.9977   17.7869 C   0  0  0  0  0  0
   15.6813  -16.6404   20.7792 O   0  0  0  0  0  0
   15.6616  -16.1387   22.1160 C   0  0  0  0  0  0
   15.6790  -17.3433   23.0630 C   0  0  0  0  0  0
   13.8691  -17.4801   18.9866 O   0  0  0  0  0  0
   12.7221  -17.9897   18.2837 C   0  0  0  0  0  0
   12.9976  -18.3263   16.8041 C   0  0  0  0  0  0
   11.4235  -17.1962   18.5389 C   0  0  0  0  0  0
   19.5428  -11.9736   20.0002 C   0  0  0  0  0  0
   19.8665  -13.1832   20.8643 C   0  0  0  0  0  0
   19.5861  -13.1822   22.2359 C   0  0  0  0  0  0
   19.8622  -14.3082   23.0258 C   0  0  0  0  0  0
   20.4477  -15.4320   22.4195 C   0  0  0  0  0  0
   20.7450  -15.4295   21.0588 C   0  0  0  0  0  0
   20.4573  -14.3074   20.2876 C   0  0  0  0  0  0
   19.5835  -14.2841   24.4156 N   0  0  0  0  0  0
   18.9349  -15.3094   25.0458 C   0  0  0  0  0  0
   18.7066  -15.2530   26.5612 C   0  0  0  0  0  0
   18.4969  -16.3006   24.4601 O   0  0  0  0  0  0
   20.0542  -13.1189   25.1779 C   0  0  0  0  0  0
   11.9323   -7.8088   24.7575 H   0  0  0  0  0  0
   13.7054   -7.8568   22.9844 H   0  0  0  0  0  0
   14.8257   -9.1463   21.1657 H   0  0  0  0  0  0
   13.4795  -13.1416   20.2501 H   0  0  0  0  0  0
   11.7254  -12.9570   21.8835 H   0  0  0  0  0  0
   10.5395  -12.7835   23.5231 H   0  0  0  0  0  0
    9.7025  -11.6466   24.5821 H   0  0  0  0  0  0
   15.9040  -10.3465   19.7369 H   0  0  0  0  0  0
   15.6020  -11.6529   17.7697 H   0  0  0  0  0  0
   17.5446  -11.7083   20.6246 H   0  0  0  0  0  0
   16.5233  -14.1327   20.4764 H   0  0  0  0  0  0
   13.2702  -15.5753   17.0633 H   0  0  0  0  0  0
   14.1359  -13.3351   17.0018 H   0  0  0  0  0  0
   16.5218  -15.4858   22.3078 H   0  0  0  0  0  0
   14.7522  -15.5529   22.2909 H   0  0  0  0  0  0
   15.6197  -17.0132   24.0979 H   0  0  0  0  0  0
   14.8337  -18.0034   22.8686 H   0  0  0  0  0  0
   16.6023  -17.9202   22.9433 H   0  0  0  0  0  0
   12.5542  -18.9573   18.7599 H   0  0  0  0  0  0
   12.1017  -18.7210   16.3229 H   0  0  0  0  0  0
   13.3269  -17.4757   16.2100 H   0  0  0  0  0  0
   13.7689  -19.0889   16.7210 H   0  0  0  0  0  0
   10.5662  -17.6995   18.0855 H   0  0  0  0  0  0
   11.2301  -17.1223   19.6073 H   0  0  0  0  0  0
   11.4461  -16.1851   18.1409 H   0  0  0  0  0  0
   19.8862  -11.0597   20.4824 H   0  0  0  0  0  0
   20.0920  -12.0274   19.0556 H   0  0  0  0  0  0
   19.1300  -12.3062   22.6802 H   0  0  0  0  0  0
   20.6865  -16.3071   23.0050 H   0  0  0  0  0  0
   21.2080  -16.2902   20.6004 H   0  0  0  0  0  0
   20.6926  -14.3201   19.2322 H   0  0  0  0  0  0
   18.4150  -14.2617   26.8999 H   0  0  0  0  0  0
   19.6105  -15.5481   27.0915 H   0  0  0  0  0  0
   17.9120  -15.9426   26.8450 H   0  0  0  0  0  0
   20.6881  -12.4657   24.5774 H   0  0  0  0  0  0
   19.2146  -12.5281   25.5363 H   0  0  0  0  0  0
   20.6418  -13.4340   26.0411 H   0  0  0  0  0  0
  1  2  2  0  0  0
  1  4  1  0  0  0
  2  3  1  0  0  0
  2 42  1  0  0  0
  3  6  2  0  0  0
  3 43  1  0  0  0
  4  5  2  0  0  0
  4 11  1  0  0  0
  5  6  1  0  0  0
  5 10  1  0  0  0
  6  7  1  0  0  0
  7  8  2  0  0  0
  7 44  1  0  0  0
  8  9  1  0  0  0
  8 12  1  0  0  0
  9 10  2  0  0  0
  9 45  1  0  0  0
 10 46  1  0  0  0
 11 47  1  0  0  0
 11 48  1  0  0  0
 12 13  1  0  0  0
 12 49  1  0  0  0
 13 14  1  0  0  0
 13 17  1  0  0  0
 13 50  1  0  0  0
 14 15  1  0  0  0
 14 16  2  0  0  0
 15 30  1  0  0  0
 15 51  1  0  0  0
 17 18  2  0  0  0
 17 22  1  0  0  0
 18 19  1  0  0  0
 18 52  1  0  0  0
 19 20  2  0  0  0
 19 23  1  0  0  0
 20 21  1  0  0  0
 20 26  1  0  0  0
 21 22  2  0  0  0
 21 53  1  0  0  0
 22 54  1  0  0  0
 23 24  1  0  0  0
 24 25  1  0  0  0
 24 55  1  0  0  0
 24 56  1  0  0  0
 25 57  1  0  0  0
 25 58  1  0  0  0
 25 59  1  0  0  0
 26 27  1  0  0  0
 27 28  1  0  0  0
 27 29  1  0  0  0
 27 60  1  0  0  0
 28 61  1  0  0  0
 28 62  1  0  0  0
 28 63  1  0  0  0
 29 64  1  0  0  0
 29 65  1  0  0  0
 29 66  1  0  0  0
 30 31  1  0  0  0
 30 67  1  0  0  0
 30 68  1  0  0  0
 31 32  2  0  0  0
 31 36  1  0  0  0
 32 33  1  0  0  0
 32 69  1  0  0  0
 33 34  2  0  0  0
 33 37  1  0  0  0
 34 35  1  0  0  0
 34 70  1  0  0  0
 35 36  2  0  0  0
 35 71  1  0  0  0
 36 72  1  0  0  0
 37 38  1  0  0  0
 37 41  1  0  0  0
 38 39  1  0  0  0
 38 40  2  0  0  0
 39 73  1  0  0  0
 39 74  1  0  0  0
 39 75  1  0  0  0
 41 76  1  0  0  0
 41 77  1  0  0  0
 41 78  1  0  0  0
M  END
> <s_m_entry_id>
35248

> <s_m_entry_name>
dock_pv.98

> <s_m_Source_Path>
/home/csk/Desktop/cluster/DUD-E-result/thrb

> <s_m_Source_File>
dock_pv.maegz

> <i_m_Source_File_Index>
98

> <chembl_id>
CHEMBL3114839

> <chembl_pref_name>
None

> <i_lp_mmshare_version>
53161

> <r_lp_tautomer_probability>
1

> <s_lp_Force_Field>
OPLS_2005

> <r_lp_Energy>
36.460583

> <b_lp_Chiralities_Consistent>
1

> <s_lp_Variant>
CHEMBL204_lig4960-2

> <s_i_glide_gridfile>
glide-grid_1ype

> <i_i_glide_lignum>
6760

> <i_i_glide_rotatable_bonds>
13

> <r_i_docking_score>
-7.74091609300873

> <r_i_glide_ligand_efficiency>
-0.188802831536798

> <r_i_glide_ligand_efficiency_sa>
-0.651033177932378

> <r_i_glide_ligand_efficiency_ln>
-1.64226110971952

> <r_i_glide_gscore>
-7.74091609300873

> <r_i_glide_lipo>
-3.77091181911361

> <r_i_glide_hbond>
-0.50337244269952

> <r_i_glide_metal>
0

> <r_i_glide_rewards>
-0.254245978483352

> <r_i_glide_evdw>
-48.3701210021973

> <r_i_glide_ecoul>
-8.68560695648193

> <r_i_glide_erotb>
0.597593739823948

> <r_i_glide_esite>
-0.0886324989540427

> <r_i_glide_emodel>
-62.7321044122741

> <r_i_glide_energy>
-57.0557279586792

> <r_i_glide_einternal>
21.1850433349609

> <i_i_glide_confnum>
31

> <i_i_glide_posenum>
62

> <r_i_glide_eff_state_penalty>
0

> <s_user_duplicate_titles>
CHEMBL204_lig4960

> <i_f3d_flags>
0

> <s_m_subgroup_title>
dock_pv

> <s_m_subgroupid>
dock_pv

> <b_m_subgroup_collapsed>
1

$$$$
CHEMBL204_lig1754
                    3D
 Schrodinger Suite 2021-1.
 64 68  0  0  1  0            999 V2000
   20.2406  -14.7781   24.9976 C   0  0  0  0  0  0
   19.8784  -13.8118   26.1598 C   0  0  0  0  0  0
   21.1296  -12.9577   26.4458 C   0  0  0  0  0  0
   22.2943  -13.6315   25.7068 C   0  0  0  0  0  0
   21.7537  -14.9978   25.2876 C   0  0  0  0  0  0
   19.4977  -16.1476   25.1081 C   0  0  0  0  0  0
   20.0596  -17.2151   24.8452 O   0  0  0  0  0  0
   18.1916  -16.0333   25.4640 O   0  0  0  0  0  0
   17.1595  -12.9518   20.2422 C   0  0  0  0  0  0
   16.1019  -12.8015   19.1395 C   0  0  2  0  0  0
   18.5088  -12.8312   19.9515 N   0  0  0  0  0  0
   16.7340  -13.0149   17.8277 N   0  0  2  0  0  0
   17.9184  -12.1723   17.6444 C   0  0  0  0  0  0
   19.0588  -12.5538   18.6287 C   0  0  0  0  0  0
   16.9351  -13.2390   21.5016 N   0  0  0  0  0  0
   18.1795  -13.4602   22.0290 C   0  0  0  0  0  0
   19.1944  -13.2325   21.0760 C   0  0  0  0  0  0
   20.5456  -13.4527   21.3548 C   0  0  0  0  0  0
   20.8520  -13.9268   22.6312 C   0  0  0  0  0  0
   19.8737  -14.1804   23.6075 C   0  0  0  0  0  0
   18.5256  -13.9022   23.3079 C   0  0  0  0  0  0
   15.2974  -11.4819   19.2074 C   0  0  0  0  0  0
   14.3018  -11.3367   20.3547 C   0  0  0  0  0  0
   14.2808  -10.1504   21.0840 C   0  0  0  0  0  0
   13.3450   -9.9646   22.0907 C   0  0  0  0  0  0
   12.4253  -10.9724   22.4353 C   0  0  0  0  0  0
   12.4540  -12.1603   21.6787 C   0  0  0  0  0  0
   13.3725  -12.3372   20.6453 C   0  0  0  0  0  0
   11.4957  -10.7681   23.5827 C   0  0  0  0  0  0
   10.7190  -11.8530   23.9161 N   0  0  0  0  0  0
   11.4687   -9.6729   24.2070 N   0  0  0  0  0  0
   17.2929  -17.1299   25.3340 C   0  0  0  0  0  0
   16.8513  -17.3229   23.8744 C   0  0  0  0  0  0
   19.0169  -13.1870   25.9241 H   0  0  0  0  0  0
   19.6191  -14.3590   27.0686 H   0  0  0  0  0  0
   20.9925  -11.9327   26.0961 H   0  0  0  0  0  0
   21.3228  -12.9059   27.5194 H   0  0  0  0  0  0
   22.5727  -13.0525   24.8268 H   0  0  0  0  0  0
   23.1895  -13.7282   26.3212 H   0  0  0  0  0  0
   21.8928  -15.6842   26.1269 H   0  0  0  0  0  0
   22.3035  -15.4522   24.4633 H   0  0  0  0  0  0
   15.3962  -13.6266   19.2398 H   0  0  0  0  0  0
   16.0522  -12.8708   17.0945 H   0  0  0  0  0  0
   18.2585  -12.2362   16.6107 H   0  0  0  0  0  0
   17.6162  -11.1350   17.7918 H   0  0  0  0  0  0
   19.8187  -11.7765   18.7053 H   0  0  0  0  0  0
   19.5824  -13.4530   18.3172 H   0  0  0  0  0  0
   21.3200  -13.2908   20.6191 H   0  0  0  0  0  0
   21.8933  -14.1172   22.8343 H   0  0  0  0  0  0
   17.7442  -14.0744   24.0322 H   0  0  0  0  0  0
   16.0034  -10.6531   19.2365 H   0  0  0  0  0  0
   14.7238  -11.3600   18.2882 H   0  0  0  0  0  0
   14.9852   -9.3594   20.8692 H   0  0  0  0  0  0
   13.3821   -9.0269   22.6254 H   0  0  0  0  0  0
   11.7669  -12.9703   21.8798 H   0  0  0  0  0  0
   13.3549  -13.2568   20.0796 H   0  0  0  0  0  0
    9.9494  -11.7064   24.5666 H   0  0  0  0  0  0
   10.8255  -12.7757   23.5125 H   0  0  0  0  0  0
   12.1137   -8.9942   23.8398 H   0  0  0  0  0  0
   16.4082  -16.9074   25.9232 H   0  0  0  0  0  0
   17.7265  -18.0448   25.7419 H   0  0  0  0  0  0
   16.1265  -18.1318   23.7908 H   0  0  0  0  0  0
   17.6951  -17.5656   23.2286 H   0  0  0  0  0  0
   16.3844  -16.4167   23.4867 H   0  0  0  0  0  0
  1  2  1  0  0  0
  1  5  1  0  0  0
  1  6  1  0  0  0
  1 20  1  0  0  0
  2  3  1  0  0  0
  2 34  1  0  0  0
  2 35  1  0  0  0
  3  4  1  0  0  0
  3 36  1  0  0  0
  3 37  1  0  0  0
  4  5  1  0  0  0
  4 38  1  0  0  0
  4 39  1  0  0  0
  5 40  1  0  0  0
  5 41  1  0  0  0
  6  7  2  0  0  0
  6  8  1  0  0  0
  8 32  1  0  0  0
  9 10  1  0  0  0
  9 11  1  0  0  0
  9 15  2  0  0  0
 10 12  1  0  0  0
 10 22  1  0  0  0
 10 42  1  0  0  0
 11 14  1  0  0  0
 11 17  1  0  0  0
 12 13  1  0  0  0
 12 43  1  0  0  0
 13 14  1  0  0  0
 13 44  1  0  0  0
 13 45  1  0  0  0
 14 46  1  0  0  0
 14 47  1  0  0  0
 15 16  1  0  0  0
 16 17  1  0  0  0
 16 21  2  0  0  0
 17 18  2  0  0  0
 18 19  1  0  0  0
 18 48  1  0  0  0
 19 20  2  0  0  0
 19 49  1  0  0  0
 20 21  1  0  0  0
 21 50  1  0  0  0
 22 23  1  0  0  0
 22 51  1  0  0  0
 22 52  1  0  0  0
 23 24  1  0  0  0
 23 28  2  0  0  0
 24 25  2  0  0  0
 24 53  1  0  0  0
 25 26  1  0  0  0
 25 54  1  0  0  0
 26 27  2  0  0  0
 26 29  1  0  0  0
 27 28  1  0  0  0
 27 55  1  0  0  0
 28 56  1  0  0  0
 29 30  1  0  0  0
 29 31  2  0  0  0
 30 57  1  0  0  0
 30 58  1  0  0  0
 31 59  1  0  0  0
 32 33  1  0  0  0
 32 60  1  0  0  0
 32 61  1  0  0  0
 33 62  1  0  0  0
 33 63  1  0  0  0
 33 64  1  0  0  0
M  END
> <s_m_entry_id>
35249

> <s_m_entry_name>
dock_pv.99

> <s_m_Source_Path>
/home/csk/Desktop/cluster/DUD-E-result/thrb

> <s_m_Source_File>
dock_pv.maegz

> <i_m_Source_File_Index>
99

> <chembl_id>
CHEMBL3978841

> <chembl_pref_name>
None

> <i_lp_mmshare_version>
53161

> <r_lp_tautomer_probability>
1

> <s_lp_Force_Field>
OPLS_2005

> <r_lp_Energy>
39.999082

> <b_lp_Chiralities_Consistent>
1

> <s_lp_Variant>
CHEMBL204_lig1754-1

> <s_i_glide_gridfile>
glide-grid_1ype

> <i_i_glide_lignum>
2545

> <i_i_glide_rotatable_bonds>
7

> <r_i_docking_score>
-7.73897971002545

> <r_i_glide_ligand_efficiency>
-0.234514536667438

> <r_i_glide_ligand_efficiency_sa>
-0.752213426367165

> <r_i_glide_ligand_efficiency_ln>
-1.72110901721724

> <r_i_glide_gscore>
-7.73897971002545

> <r_i_glide_lipo>
-3.78353775967799

> <r_i_glide_hbond>
-0.456

> <r_i_glide_metal>
0

> <r_i_glide_rewards>
-0.884295199014682

> <r_i_glide_evdw>
-45.9758262634277

> <r_i_glide_ecoul>
-4.79548168182373

> <r_i_glide_erotb>
0.503956814982647

> <r_i_glide_esite>
-0.100990000870479

> <r_i_glide_emodel>
-71.2208765328024

> <r_i_glide_energy>
-50.7713079452515

> <r_i_glide_einternal>
3.41929650306702

> <i_i_glide_confnum>
118

> <i_i_glide_posenum>
54

> <r_i_glide_eff_state_penalty>
0

> <s_user_duplicate_titles>
CHEMBL204_lig1754

> <i_f3d_flags>
0

> <s_m_subgroup_title>
dock_pv

> <s_m_subgroupid>
dock_pv

> <b_m_subgroup_collapsed>
1

$$$$
CHEMBL204_lig4183
                    3D
 Schrodinger Suite 2021-1.
 56 60  0  0  1  0            999 V2000
   15.8293  -12.4957   21.5478 N   0  0  0  0  0  0
   15.6861  -11.4792   20.7205 C   0  0  0  0  0  0
   17.0893  -12.9662   21.2824 C   0  0  0  0  0  0
   12.7537  -12.9832   21.0365 N   0  0  0  0  0  0
   16.7606  -11.2221   19.9165 O   0  0  0  0  0  0
   18.5102  -15.3695   24.9903 C   0  0  0  0  0  0
   12.9836  -15.1156   20.5272 N   0  0  0  0  0  0
   17.6643  -12.1702   20.2774 C   0  0  0  0  0  0
   12.8140  -13.0231   19.6989 N   0  0  0  0  0  0
   12.5633  -11.7898   21.7652 C   0  0  0  0  0  0
   12.8503  -14.2654   21.5109 C   0  0  0  0  0  0
   13.3622  -10.6385   21.5860 C   0  0  0  0  0  0
   12.9558  -14.3132   19.4760 C   0  0  0  0  0  0
   14.5024  -10.5416   20.5631 C   0  0  0  0  0  0
   17.2561  -14.8523   22.8241 N   0  0  0  0  0  0
   17.8283  -14.0424   21.8262 C   0  0  0  0  0  0
   17.9964  -15.8507   23.6069 C   0  0  0  0  0  0
   19.7403  -14.4114   24.9268 C   0  0  1  0  0  0
   20.0262  -13.7516   26.2159 N   0  0  1  0  0  0
   18.7967  -16.4418   25.7318 F   0  0  0  0  0  0
   17.5040  -14.7560   25.6128 F   0  0  0  0  0  0
   18.9493  -12.3704   19.7682 C   0  0  0  0  0  0
   13.0887   -9.5048   22.3654 C   0  0  0  0  0  0
   11.5398  -11.7819   22.7208 C   0  0  0  0  0  0
   19.6655  -13.4391   20.3069 C   0  0  0  0  0  0
   21.1168  -12.7764   26.1582 C   0  0  0  0  0  0
   19.1174  -14.2546   21.3007 C   0  0  0  0  0  0
   21.0326  -15.1078   24.4112 C   0  0  0  0  0  0
   12.0715   -9.5128   23.3198 C   0  0  0  0  0  0
   22.4207  -13.4168   25.6410 C   0  0  0  0  0  0
   11.2971  -10.6529   23.4992 C   0  0  0  0  0  0
   22.2167  -14.1351   24.3013 C   0  0  0  0  0  0
   12.8168  -14.4698   22.5719 H   0  0  0  0  0  0
   13.0480  -14.7044   18.4732 H   0  0  0  0  0  0
   14.8983   -9.5262   20.5876 H   0  0  0  0  0  0
   14.0752  -10.6530   19.5676 H   0  0  0  0  0  0
   16.3520  -14.5748   23.1975 H   0  0  0  0  0  0
   18.8037  -16.2966   23.0310 H   0  0  0  0  0  0
   17.3066  -16.6805   23.7654 H   0  0  0  0  0  0
   19.4648  -13.6080   24.2422 H   0  0  0  0  0  0
   19.1900  -13.2950   26.5597 H   0  0  0  0  0  0
   19.3608  -11.7423   18.9949 H   0  0  0  0  0  0
   13.6846   -8.6122   22.2584 H   0  0  0  0  0  0
   10.9111  -12.6500   22.8566 H   0  0  0  0  0  0
   20.6610  -13.6537   19.9424 H   0  0  0  0  0  0
   20.8145  -11.9450   25.5210 H   0  0  0  0  0  0
   21.2693  -12.3663   27.1562 H   0  0  0  0  0  0
   19.7274  -15.0742   21.6423 H   0  0  0  0  0  0
   20.8726  -15.5958   23.4522 H   0  0  0  0  0  0
   21.3046  -15.9072   25.1023 H   0  0  0  0  0  0
   11.8861   -8.6376   23.9252 H   0  0  0  0  0  0
   23.1862  -12.6519   25.5210 H   0  0  0  0  0  0
   22.8195  -14.0972   26.3951 H   0  0  0  0  0  0
   10.4965  -10.6617   24.2273 H   0  0  0  0  0  0
   22.0214  -13.4057   23.5143 H   0  0  0  0  0  0
   23.1243  -14.6689   24.0161 H   0  0  0  0  0  0
  1  2  2  0  0  0
  1  3  1  0  0  0
  2  5  1  0  0  0
  2 14  1  0  0  0
  3  8  2  0  0  0
  3 16  1  0  0  0
  4 10  1  0  0  0
  4  9  1  0  0  0
  4 11  1  0  0  0
  5  8  1  0  0  0
  6 17  1  0  0  0
  6 18  1  0  0  0
  6 20  1  0  0  0
  6 21  1  0  0  0
  7 11  2  0  0  0
  7 13  1  0  0  0
  8 22  1  0  0  0
  9 13  2  0  0  0
 10 12  1  0  0  0
 10 24  2  0  0  0
 11 33  1  0  0  0
 12 14  1  0  0  0
 12 23  2  0  0  0
 13 34  1  0  0  0
 14 35  1  0  0  0
 14 36  1  0  0  0
 15 16  1  0  0  0
 15 17  1  0  0  0
 15 37  1  0  0  0
 16 27  2  0  0  0
 17 38  1  0  0  0
 17 39  1  0  0  0
 18 19  1  0  0  0
 18 28  1  0  0  0
 18 40  1  0  0  0
 19 26  1  0  0  0
 19 41  1  0  0  0
 22 25  2  0  0  0
 22 42  1  0  0  0
 23 29  1  0  0  0
 23 43  1  0  0  0
 24 31  1  0  0  0
 24 44  1  0  0  0
 25 27  1  0  0  0
 25 45  1  0  0  0
 26 30  1  0  0  0
 26 46  1  0  0  0
 26 47  1  0  0  0
 27 48  1  0  0  0
 28 32  1  0  0  0
 28 49  1  0  0  0
 28 50  1  0  0  0
 29 31  2  0  0  0
 29 51  1  0  0  0
 30 32  1  0  0  0
 30 52  1  0  0  0
 30 53  1  0  0  0
 31 54  1  0  0  0
 32 55  1  0  0  0
 32 56  1  0  0  0
M  END
> <s_m_entry_id>
35250

> <s_m_entry_name>
dock_pv.100

> <s_m_Source_Path>
/home/csk/Desktop/cluster/DUD-E-result/thrb

> <s_m_Source_File>
dock_pv.maegz

> <i_m_Source_File_Index>
100

> <chembl_id>
CHEMBL372108

> <chembl_pref_name>
None

> <i_lp_mmshare_version>
53161

> <r_lp_tautomer_probability>
1

> <s_lp_Force_Field>
OPLS_2005

> <r_lp_Energy>
40.991243

> <b_lp_Chiralities_Consistent>
1

> <s_lp_Variant>
CHEMBL204_lig4183-2

> <s_i_glide_gridfile>
glide-grid_1ype

> <i_i_glide_lignum>
5815

> <i_i_glide_rotatable_bonds>
7

> <r_i_docking_score>
-7.73770874288296

> <r_i_glide_ligand_efficiency>
-0.241803398215092

> <r_i_glide_ligand_efficiency_sa>
-0.76767793650539

> <r_i_glide_ligand_efficiency_ln>
-1.73268390950569

> <r_i_glide_gscore>
-7.73770874288296

> <r_i_glide_lipo>
-3.72858341612373

> <r_i_glide_hbond>
-0.32

> <r_i_glide_metal>
0

> <r_i_glide_rewards>
-1.15708329823812

> <r_i_glide_evdw>
-49.1425704956055

> <r_i_glide_ecoul>
-4.55447340011597

> <r_i_glide_erotb>
0.622601881008393

> <r_i_glide_esite>
-0.014344374731839

> <r_i_glide_emodel>
-76.0277083324746

> <r_i_glide_energy>
-53.6970438957214

> <r_i_glide_einternal>
5.35594844818115

> <i_i_glide_confnum>
34

> <i_i_glide_posenum>
398

> <r_i_glide_eff_state_penalty>
0

> <s_user_duplicate_titles>
CHEMBL204_lig4183

> <i_f3d_flags>
0

> <s_m_subgroup_title>
dock_pv

> <s_m_subgroupid>
dock_pv

> <b_m_subgroup_collapsed>
1

$$$$
CHEMBL204_lig4912
                    3D
 Schrodinger Suite 2021-1.
 68 72  0  0  1  0            999 V2000
   14.5985  -11.7515   17.2897 O   0  0  0  0  0  0
   15.2438  -13.0367   17.5738 S   0  0  0  0  0  0
   15.9320  -13.7893   16.5196 O   0  0  0  0  0  0
   16.0315  -11.9761   20.0527 C   0  0  1  0  0  0
   16.0979  -12.9195   21.2766 C   0  0  0  0  0  0
   17.3044  -13.5319   21.5333 N   0  0  0  0  0  0
   16.8205  -10.6670   20.1597 C   0  0  0  0  0  0
   18.1830  -10.7830   20.8549 C   0  0  0  0  0  0
   18.5184  -13.3308   20.7992 C   0  0  0  0  0  0
   18.9932  -12.0211   20.5061 C   0  0  0  0  0  0
   20.2312  -11.8521   19.8843 C   0  0  0  0  0  0
   21.0382  -12.9355   19.5866 C   0  0  0  0  0  0
   20.6190  -14.2140   19.9204 C   0  0  0  0  0  0
   19.3852  -14.4025   20.5272 C   0  0  0  0  0  0
   15.0622  -13.0913   21.9208 O   0  0  0  0  0  0
   16.4123  -12.7499   18.8417 N   0  0  1  0  0  0
   14.0157  -14.1152   18.3151 C   0  0  0  0  0  0
   13.1162  -13.6092   19.2643 C   0  0  0  0  0  0
   12.1453  -14.4333   19.8341 C   0  0  0  0  0  0
   13.9197  -15.4560   17.9090 C   0  0  0  0  0  0
   12.9348  -16.2724   18.4689 C   0  0  0  0  0  0
   12.0724  -15.7568   19.4172 C   0  0  0  0  0  0
   11.1300  -16.6526   19.8481 O   0  0  0  0  0  0
   11.4416  -17.9166   19.2596 C   0  0  0  0  0  0
   12.5061  -17.6735   18.1780 C   0  0  0  0  0  0
   17.2586  -14.6046   22.5780 C   0  0  0  0  0  0
   18.2625  -14.3690   23.7231 C   0  0  0  0  0  0
   18.2048  -15.2319   24.7551 N   0  0  0  0  0  0
   19.0812  -13.4529   23.6736 O   0  0  0  0  0  0
   19.0815  -15.1979   25.9376 C   0  0  0  0  0  0
   20.5637  -15.0381   25.6139 C   0  0  0  0  0  0
   21.2366  -16.0289   24.9005 C   0  0  0  0  0  0
   22.5385  -15.8022   24.4613 C   0  0  0  0  0  0
   23.1964  -14.5887   24.7203 C   0  0  0  0  0  0
   22.5165  -13.6358   25.5053 C   0  0  0  0  0  0
   21.2186  -13.8571   25.9519 C   0  0  0  0  0  0
   24.5479  -14.3289   24.1474 C   0  0  0  0  0  0
   25.1920  -15.2137   23.5207 N   0  0  0  0  0  0
   25.0088  -13.0532   24.3211 N   0  0  0  0  0  0
   14.9950  -11.6678   19.9321 H   0  0  0  0  0  0
   16.9238  -10.2533   19.1589 H   0  0  0  0  0  0
   16.2276   -9.9313   20.7075 H   0  0  0  0  0  0
   18.0242  -10.8194   21.9216 H   0  0  0  0  0  0
   18.7615   -9.8677   20.7209 H   0  0  0  0  0  0
   20.5918  -10.8618   19.6564 H   0  0  0  0  0  0
   22.0008  -12.7782   19.1206 H   0  0  0  0  0  0
   21.2474  -15.0665   19.7119 H   0  0  0  0  0  0
   19.1073  -15.4147   20.7730 H   0  0  0  0  0  0
   17.0482  -13.5312   19.0139 H   0  0  0  0  0  0
   13.1357  -12.5724   19.5570 H   0  0  0  0  0  0
   11.4569  -14.0379   20.5672 H   0  0  0  0  0  0
   14.5770  -15.8437   17.1433 H   0  0  0  0  0  0
   11.8693  -18.5461   20.0404 H   0  0  0  0  0  0
   10.5517  -18.4197   18.8791 H   0  0  0  0  0  0
   12.0522  -17.7478   17.1883 H   0  0  0  0  0  0
   13.3067  -18.4108   18.2388 H   0  0  0  0  0  0
   17.4976  -15.5635   22.1212 H   0  0  0  0  0  0
   16.2845  -14.7481   23.0363 H   0  0  0  0  0  0
   17.4414  -15.8899   24.7798 H   0  0  0  0  0  0
   18.9480  -16.1324   26.4860 H   0  0  0  0  0  0
   18.7428  -14.4133   26.6165 H   0  0  0  0  0  0
   20.7354  -16.9476   24.6358 H   0  0  0  0  0  0
   23.0154  -16.5743   23.8737 H   0  0  0  0  0  0
   22.9633  -12.6875   25.7585 H   0  0  0  0  0  0
   20.7080  -13.0800   26.5033 H   0  0  0  0  0  0
   26.0921  -14.8639   23.2218 H   0  0  0  0  0  0
   25.8538  -12.7738   23.8348 H   0  0  0  0  0  0
   24.4335  -12.3484   24.7539 H   0  0  0  0  0  0
  1  2  2  0  0  0
  2  3  2  0  0  0
  2 16  1  0  0  0
  2 17  1  0  0  0
  4  5  1  0  0  0
  4  7  1  0  0  0
  4 16  1  0  0  0
  4 40  1  0  0  0
  5  6  1  0  0  0
  5 15  2  0  0  0
  6  9  1  0  0  0
  6 26  1  0  0  0
  7  8  1  0  0  0
  7 41  1  0  0  0
  7 42  1  0  0  0
  8 10  1  0  0  0
  8 43  1  0  0  0
  8 44  1  0  0  0
  9 10  2  0  0  0
  9 14  1  0  0  0
 10 11  1  0  0  0
 11 12  2  0  0  0
 11 45  1  0  0  0
 12 13  1  0  0  0
 12 46  1  0  0  0
 13 14  2  0  0  0
 13 47  1  0  0  0
 14 48  1  0  0  0
 16 49  1  0  0  0
 17 18  2  0  0  0
 17 20  1  0  0  0
 18 19  1  0  0  0
 18 50  1  0  0  0
 19 22  2  0  0  0
 19 51  1  0  0  0
 20 21  2  0  0  0
 20 52  1  0  0  0
 21 22  1  0  0  0
 21 25  1  0  0  0
 22 23  1  0  0  0
 23 24  1  0  0  0
 24 25  1  0  0  0
 24 53  1  0  0  0
 24 54  1  0  0  0
 25 55  1  0  0  0
 25 56  1  0  0  0
 26 27  1  0  0  0
 26 57  1  0  0  0
 26 58  1  0  0  0
 27 28  1  0  0  0
 27 29  2  0  0  0
 28 30  1  0  0  0
 28 59  1  0  0  0
 30 31  1  0  0  0
 30 60  1  0  0  0
 30 61  1  0  0  0
 31 32  2  0  0  0
 31 36  1  0  0  0
 32 33  1  0  0  0
 32 62  1  0  0  0
 33 34  2  0  0  0
 33 63  1  0  0  0
 34 35  1  0  0  0
 34 37  1  0  0  0
 35 36  2  0  0  0
 35 64  1  0  0  0
 36 65  1  0  0  0
 37 38  2  0  0  0
 37 39  1  0  0  0
 38 66  1  0  0  0
 39 67  1  0  0  0
 39 68  1  0  0  0
M  END
> <s_m_entry_id>
35251

> <s_m_entry_name>
dock_pv.101

> <s_m_Source_Path>
/home/csk/Desktop/cluster/DUD-E-result/thrb

> <s_m_Source_File>
dock_pv.maegz

> <i_m_Source_File_Index>
101

> <chembl_id>
CHEMBL2382313

> <chembl_pref_name>
None

> <i_lp_mmshare_version>
53161

> <r_lp_tautomer_probability>
1

> <s_lp_Force_Field>
OPLS_2005

> <r_lp_Energy>
36.7665

> <b_lp_Chiralities_Consistent>
1

> <s_lp_Variant>
CHEMBL204_lig4912-2

> <s_i_glide_gridfile>
glide-grid_1ype

> <i_i_glide_lignum>
6702

> <i_i_glide_rotatable_bonds>
9

> <r_i_docking_score>
-7.72443602303048

> <r_i_glide_ligand_efficiency>
-0.198062462128987

> <r_i_glide_ligand_efficiency_sa>
-0.671671687183143

> <r_i_glide_ligand_efficiency_ln>
-1.65633835449374

> <r_i_glide_gscore>
-7.72443602303048

> <r_i_glide_lipo>
-3.24071905536772

> <r_i_glide_hbond>
-0.658734237047302

> <r_i_glide_metal>
0

> <r_i_glide_rewards>
-0.573839708550136

> <r_i_glide_evdw>
-49.2232360839844

> <r_i_glide_ecoul>
-8.8745059967041

> <r_i_glide_erotb>
0.552646226928821

> <r_i_glide_esite>
-0.0114515452893074

> <r_i_glide_emodel>
-81.9756191986459

> <r_i_glide_energy>
-58.0977420806885

> <r_i_glide_einternal>
4.37556886672974

> <i_i_glide_confnum>
1

> <i_i_glide_posenum>
248

> <r_i_glide_eff_state_penalty>
0

> <s_user_duplicate_titles>
CHEMBL204_lig4912

> <i_f3d_flags>
0

> <s_m_subgroup_title>
dock_pv

> <s_m_subgroupid>
dock_pv

> <b_m_subgroup_collapsed>
1

$$$$
CHEMBL204_lig545
                    3D
 Schrodinger Suite 2021-1.
 57 59  0  0  1  0            999 V2000
   19.3184  -12.9227   19.4750 N   0  0  0  0  0  0
   18.1434  -12.3778   19.0110 C   0  0  0  0  0  0
   17.1081  -12.9949   21.1752 N   0  0  0  0  0  0
   17.0325  -12.4711   19.9993 C   0  0  0  0  0  0
   18.3160  -13.6163   21.5626 C   0  0  0  0  0  0
   19.4306  -13.6502   20.6997 C   0  0  0  0  0  0
   19.5502  -14.8137   25.7699 C   0  0  0  0  0  0
   19.5162  -15.7869   24.5329 C   0  0  0  0  0  0
   19.4942  -15.0171   23.1785 C   0  0  0  0  0  0
   18.3692  -14.2570   22.8037 C   0  0  0  0  0  0
   11.6141  -10.8000   23.5104 C   0  0  0  0  0  0
   20.5600  -14.3835   21.0749 C   0  0  0  0  0  0
   20.4366  -13.7770   25.8559 N   0  0  0  0  0  0
   15.6725  -11.9577   19.4833 C   0  0  0  0  0  0
   18.0172  -11.8592   17.8955 O   0  0  0  0  0  0
   12.5959  -11.1111   22.4316 C   0  0  0  0  0  0
   11.5492   -9.6474   24.0136 N   0  0  0  0  0  0
   18.7743  -15.0460   26.7044 O   0  0  0  0  0  0
   20.5735  -15.0804   22.2797 C   0  0  0  0  0  0
   13.4222  -10.0929   21.9211 C   0  0  0  0  0  0
   12.7737  -12.4101   21.9199 C   0  0  0  0  0  0
   10.8159  -11.8505   23.9030 N   0  0  0  0  0  0
   14.5898  -11.6631   20.5177 C   0  0  0  0  0  0
   20.5143  -12.8527   18.6168 C   0  0  0  0  0  0
   14.4161  -10.3653   20.9924 C   0  0  0  0  0  0
   13.7569  -12.6841   20.9743 C   0  0  0  0  0  0
   20.6964  -16.7967   24.6761 C   0  0  0  0  0  0
   18.2340  -16.6817   24.5736 C   0  0  0  0  0  0
   21.4858  -13.4381   24.8942 C   0  0  0  0  0  0
   20.4235  -12.8326   26.9760 C   0  0  0  0  0  0
   17.5097  -14.2001   23.4569 H   0  0  0  0  0  0
   21.4279  -14.4499   20.4365 H   0  0  0  0  0  0
   15.8078  -11.0530   18.8885 H   0  0  0  0  0  0
   15.2690  -12.6889   18.7807 H   0  0  0  0  0  0
   10.8260   -9.6067   24.7193 H   0  0  0  0  0  0
   21.4579  -15.6564   22.5054 H   0  0  0  0  0  0
   13.3317   -9.0770   22.2796 H   0  0  0  0  0  0
   12.1719  -13.2385   22.2650 H   0  0  0  0  0  0
   10.0422  -11.6773   24.5376 H   0  0  0  0  0  0
   10.8965  -12.7858   23.5206 H   0  0  0  0  0  0
   20.3706  -12.2746   17.7032 H   0  0  0  0  0  0
   21.3417  -12.3960   19.1618 H   0  0  0  0  0  0
   20.8234  -13.8554   18.3207 H   0  0  0  0  0  0
   15.0619   -9.5646   20.6649 H   0  0  0  0  0  0
   13.8810  -13.6945   20.6120 H   0  0  0  0  0  0
   21.6756  -16.3219   24.7204 H   0  0  0  0  0  0
   20.6077  -17.3906   25.5879 H   0  0  0  0  0  0
   20.7201  -17.5043   23.8458 H   0  0  0  0  0  0
   17.3133  -16.0970   24.6121 H   0  0  0  0  0  0
   18.1669  -17.3263   23.6960 H   0  0  0  0  0  0
   18.2151  -17.3343   25.4488 H   0  0  0  0  0  0
   21.8176  -14.2796   24.2974 H   0  0  0  0  0  0
   22.3748  -13.0681   25.4075 H   0  0  0  0  0  0
   21.1370  -12.6533   24.2224 H   0  0  0  0  0  0
   19.6166  -13.0145   27.6857 H   0  0  0  0  0  0
   21.3658  -12.8930   27.5211 H   0  0  0  0  0  0
   20.3213  -11.8107   26.6102 H   0  0  0  0  0  0
  1  2  1  0  0  0
  1  6  1  0  0  0
  1 24  1  0  0  0
  2  4  1  0  0  0
  2 15  2  0  0  0
  3  5  1  0  0  0
  3  4  2  0  0  0
  4 14  1  0  0  0
  5  6  1  0  0  0
  5 10  2  0  0  0
  6 12  2  0  0  0
  7  8  1  0  0  0
  7 13  1  0  0  0
  7 18  2  0  0  0
  8  9  1  0  0  0
  8 27  1  0  0  0
  8 28  1  0  0  0
  9 19  2  0  0  0
  9 10  1  0  0  0
 10 31  1  0  0  0
 11 16  1  0  0  0
 11 17  2  0  0  0
 11 22  1  0  0  0
 12 19  1  0  0  0
 12 32  1  0  0  0
 13 29  1  0  0  0
 13 30  1  0  0  0
 14 23  1  0  0  0
 14 33  1  0  0  0
 14 34  1  0  0  0
 16 21  2  0  0  0
 16 20  1  0  0  0
 17 35  1  0  0  0
 19 36  1  0  0  0
 20 25  2  0  0  0
 20 37  1  0  0  0
 21 26  1  0  0  0
 21 38  1  0  0  0
 22 39  1  0  0  0
 22 40  1  0  0  0
 23 25  1  0  0  0
 23 26  2  0  0  0
 24 41  1  0  0  0
 24 42  1  0  0  0
 24 43  1  0  0  0
 25 44  1  0  0  0
 26 45  1  0  0  0
 27 46  1  0  0  0
 27 47  1  0  0  0
 27 48  1  0  0  0
 28 49  1  0  0  0
 28 50  1  0  0  0
 28 51  1  0  0  0
 29 52  1  0  0  0
 29 53  1  0  0  0
 29 54  1  0  0  0
 30 55  1  0  0  0
 30 56  1  0  0  0
 30 57  1  0  0  0
M  END
> <s_m_entry_id>
35252

> <s_m_entry_name>
dock_pv.102

> <s_m_Source_Path>
/home/csk/Desktop/cluster/DUD-E-result/thrb

> <s_m_Source_File>
dock_pv.maegz

> <i_m_Source_File_Index>
102

> <chembl_id>
CHEMBL308604

> <chembl_pref_name>
None

> <i_lp_mmshare_version>
53161

> <r_lp_tautomer_probability>
1

> <s_lp_Force_Field>
OPLS_2005

> <r_lp_Energy>
43.505993

> <b_lp_Chiralities_Consistent>
1

> <s_lp_Variant>
CHEMBL204_lig545-1

> <s_i_glide_gridfile>
glide-grid_1ype

> <i_i_glide_lignum>
751

> <i_i_glide_rotatable_bonds>
6

> <r_i_docking_score>
-7.71961610836856

> <r_i_glide_ligand_efficiency>
-0.257320536945619

> <r_i_glide_ligand_efficiency_sa>
-0.799554735940446

> <r_i_glide_ligand_efficiency_ln>
-1.75398089177568

> <r_i_glide_gscore>
-7.71961610836856

> <r_i_glide_lipo>
-2.78262272398353

> <r_i_glide_hbond>
-0.428896388122346

> <r_i_glide_metal>
0

> <r_i_glide_rewards>
-1.20816635329163

> <r_i_glide_evdw>
-46.1417655944824

> <r_i_glide_ecoul>
-9.18400287628174

> <r_i_glide_erotb>
0.478110182354409

> <r_i_glide_esite>
-0.0933521141590843

> <r_i_glide_emodel>
-78.3157089862764

> <r_i_glide_energy>
-55.3257684707642

> <r_i_glide_einternal>
6.4671950340271

> <i_i_glide_confnum>
17

> <i_i_glide_posenum>
361

> <r_i_glide_eff_state_penalty>
0

> <s_user_duplicate_titles>
CHEMBL204_lig545,119645

> <i_f3d_flags>
0

> <s_m_subgroup_title>
dock_pv

> <s_m_subgroupid>
dock_pv

> <b_m_subgroup_collapsed>
1

$$$$
CHEMBL204_lig2221
                    3D
 Schrodinger Suite 2021-1.
 54 56  0  0  1  0            999 V2000
   17.6753  -13.1041   21.2397 C   0  0  0  0  0  0
   18.9521  -13.3814   21.8160 N   0  0  0  0  0  0
   16.5563  -10.3664   14.9183 C   0  0  0  0  0  0
   11.8226   -9.8542   23.4925 C   0  0  0  0  0  0
   17.5046  -13.3591   19.7237 C   0  0  0  0  0  0
   16.3174  -11.6857   15.5599 C   0  0  0  0  0  0
   16.3691  -11.8181   16.9608 C   0  0  0  0  0  0
   16.1159  -13.0340   17.6052 C   0  0  0  0  0  0
   16.0877  -13.0893   19.1433 C   0  0  1  0  0  0
   12.1828  -10.7849   22.3853 C   0  0  0  0  0  0
   17.1849   -9.4531   15.5217 N   0  0  0  0  0  0
   12.4157   -8.7442   23.6099 N   0  0  0  0  0  0
   19.2160  -13.5170   23.1639 C   0  0  0  0  0  0
   20.1583  -13.5593   21.1629 C   0  0  0  0  0  0
   16.7478  -12.6852   21.9367 O   0  0  0  0  0  0
   21.1624  -13.7485   22.1018 C   0  0  0  0  0  0
   20.5677  -13.7414   23.3611 C   0  0  0  0  0  0
   14.9713  -14.0333   19.6894 C   0  0  0  0  0  0
   12.9920  -10.3543   21.3169 C   0  0  0  0  0  0
   11.7510  -12.1233   22.3665 C   0  0  0  0  0  0
   16.0208  -10.2530   13.6601 N   0  0  0  0  0  0
   10.8161  -10.3042   24.3186 N   0  0  0  0  0  0
   12.9992  -12.5647   20.3561 C   0  0  0  0  0  0
   13.5335  -13.5699   19.3469 C   0  0  0  0  0  0
   12.1600  -13.0056   21.3768 C   0  0  0  0  0  0
   13.3829  -11.2255   20.3039 C   0  0  0  0  0  0
   16.0195  -12.8431   14.8131 C   0  0  0  0  0  0
   15.8452  -14.1631   16.8200 C   0  0  0  0  0  0
   15.7927  -14.0676   15.4350 C   0  0  0  0  0  0
   18.2199  -12.7148   19.2116 H   0  0  0  0  0  0
   17.7902  -14.3888   19.5215 H   0  0  0  0  0  0
   16.5699  -10.9481   17.5701 H   0  0  0  0  0  0
   15.8195  -12.0847   19.4675 H   0  0  0  0  0  0
   17.2166   -8.6106   14.9645 H   0  0  0  0  0  0
   12.0749   -8.2243   24.4060 H   0  0  0  0  0  0
   18.4120  -13.4540   23.8828 H   0  0  0  0  0  0
   20.2256  -13.5057   20.0868 H   0  0  0  0  0  0
   22.2152  -13.8728   21.9015 H   0  0  0  0  0  0
   21.0663  -13.8763   24.3106 H   0  0  0  0  0  0
   15.1240  -15.0476   19.3251 H   0  0  0  0  0  0
   15.0474  -14.1421   20.7718 H   0  0  0  0  0  0
   13.3394   -9.3301   21.2692 H   0  0  0  0  0  0
   11.1235  -12.5228   23.1510 H   0  0  0  0  0  0
   16.0153   -9.3555   13.1745 H   0  0  0  0  0  0
   15.4445  -10.9938   13.2864 H   0  0  0  0  0  0
   10.3406   -9.6872   24.9676 H   0  0  0  0  0  0
   10.2650  -11.1025   24.0360 H   0  0  0  0  0  0
   13.4693  -13.1521   18.3417 H   0  0  0  0  0  0
   12.8757  -14.4392   19.3334 H   0  0  0  0  0  0
   11.8422  -14.0390   21.4250 H   0  0  0  0  0  0
   14.0125  -10.8697   19.5036 H   0  0  0  0  0  0
   15.9667  -12.8191   13.7351 H   0  0  0  0  0  0
   15.6599  -15.1281   17.2661 H   0  0  0  0  0  0
   15.5652  -14.9429   14.8422 H   0  0  0  0  0  0
  1  2  1  0  0  0
  1  5  1  0  0  0
  1 15  2  0  0  0
  2 13  1  0  0  0
  2 14  1  0  0  0
  3  6  1  0  0  0
  3 11  2  0  0  0
  3 21  1  0  0  0
  4 10  1  0  0  0
  4 12  2  0  0  0
  4 22  1  0  0  0
  5  9  1  0  0  0
  5 30  1  0  0  0
  5 31  1  0  0  0
  6  7  2  0  0  0
  6 27  1  0  0  0
  7  8  1  0  0  0
  7 32  1  0  0  0
  8  9  1  0  0  0
  8 28  2  0  0  0
  9 18  1  0  0  0
  9 33  1  0  0  0
 10 19  2  0  0  0
 10 20  1  0  0  0
 11 34  1  0  0  0
 12 35  1  0  0  0
 13 17  2  0  0  0
 13 36  1  0  0  0
 14 16  2  0  0  0
 14 37  1  0  0  0
 16 17  1  0  0  0
 16 38  1  0  0  0
 17 39  1  0  0  0
 18 24  1  0  0  0
 18 40  1  0  0  0
 18 41  1  0  0  0
 19 26  1  0  0  0
 19 42  1  0  0  0
 20 25  2  0  0  0
 20 43  1  0  0  0
 21 44  1  0  0  0
 21 45  1  0  0  0
 22 46  1  0  0  0
 22 47  1  0  0  0
 23 24  1  0  0  0
 23 25  1  0  0  0
 23 26  2  0  0  0
 24 48  1  0  0  0
 24 49  1  0  0  0
 25 50  1  0  0  0
 26 51  1  0  0  0
 27 29  2  0  0  0
 27 52  1  0  0  0
 28 29  1  0  0  0
 28 53  1  0  0  0
 29 54  1  0  0  0
M  END
> <s_m_entry_id>
35253

> <s_m_entry_name>
dock_pv.103

> <s_m_Source_Path>
/home/csk/Desktop/cluster/DUD-E-result/thrb

> <s_m_Source_File>
dock_pv.maegz

> <i_m_Source_File_Index>
103

> <chembl_id>
CHEMBL158063

> <chembl_pref_name>
None

> <i_lp_mmshare_version>
53161

> <r_lp_tautomer_probability>
1

> <s_lp_Force_Field>
OPLS_2005

> <r_lp_Energy>
4.749128

> <b_lp_Chiralities_Consistent>
1

> <s_lp_Variant>
CHEMBL204_lig2221-1

> <s_i_glide_gridfile>
glide-grid_1ype

> <i_i_glide_lignum>
3264

> <i_i_glide_rotatable_bonds>
9

> <r_i_docking_score>
-7.71358968386481

> <r_i_glide_ligand_efficiency>
-0.265985851167752

> <r_i_glide_ligand_efficiency_sa>
-0.817192805019813

> <r_i_glide_ligand_efficiency_ln>
-1.76621643784747

> <r_i_glide_gscore>
-7.71358968386481

> <r_i_glide_lipo>
-2.44019628923917

> <r_i_glide_hbond>
-0.402041439155513

> <r_i_glide_metal>
0

> <r_i_glide_rewards>
-1.69455219672511

> <r_i_glide_evdw>
-44.9314994812012

> <r_i_glide_ecoul>
-10.3345155715942

> <r_i_glide_erotb>
0.778244877033079

> <r_i_glide_esite>
-0.158292325978897

> <r_i_glide_emodel>
-80.105565686199

> <r_i_glide_energy>
-55.2660150527954

> <r_i_glide_einternal>
4.38951253890991

> <i_i_glide_confnum>
30

> <i_i_glide_posenum>
189

> <r_i_glide_eff_state_penalty>
0

> <s_user_duplicate_titles>
CHEMBL204_lig2221

> <i_f3d_flags>
0

> <s_m_subgroup_title>
dock_pv

> <s_m_subgroupid>
dock_pv

> <b_m_subgroup_collapsed>
1

$$$$
CHEMBL204_lig4574
                    3D
 Schrodinger Suite 2021-1.
 52 53  0  0  1  0            999 V2000
   22.4197  -13.6187   25.3677 C   0  0  0  0  0  0
   22.4038  -14.9238   24.8771 C   0  0  0  0  0  0
   21.2759  -15.6628   24.9523 N   0  3  0  0  0  0
   20.1195  -15.1939   25.4975 C   0  0  0  0  0  0
   20.1043  -13.8778   25.9830 C   0  0  0  0  0  0
   21.2529  -13.0925   25.9217 C   0  0  0  0  0  0
   18.8782  -16.0986   25.5959 C   0  0  0  0  0  0
   18.3067  -16.5484   24.2282 C   0  0  0  0  0  0
   17.9218  -15.4770   26.2927 F   0  0  0  0  0  0
   19.2169  -17.1664   26.3210 F   0  0  0  0  0  0
   17.6894  -15.4838   23.4331 N   0  0  0  0  0  0
   18.3789  -14.7262   22.4662 C   0  0  0  0  0  0
   17.8475  -13.4825   22.1011 C   0  0  0  0  0  0
   18.4626  -12.6842   21.1200 C   0  0  0  0  0  0
   19.6251  -13.1652   20.4787 C   0  0  0  0  0  0
   20.1640  -14.3984   20.8575 C   0  0  0  0  0  0
   19.5518  -15.1680   21.8434 C   0  0  0  0  0  0
   17.8345  -11.3197   20.7835 C   0  0  0  0  0  0
   16.6204  -11.4656   19.8564 C   0  0  0  0  0  0
   15.4096  -11.2900   20.4133 N   0  0  0  0  0  0
   16.7899  -11.7547   18.6722 O   0  0  0  0  0  0
   14.1114  -11.5006   19.7631 C   0  0  0  0  0  0
   13.3949  -12.7708   20.2780 C   0  0  0  0  0  0
   16.7059  -13.0531   22.6954 F   0  0  0  0  0  0
   13.2722  -12.8035   21.7026 O   0  0  0  0  0  0
   12.0148  -12.2509   22.1394 N   0  0  0  0  0  0
   12.0508  -10.9587   22.7210 C   0  0  0  0  0  0
   11.1207  -10.8234   23.7608 N   0  0  0  0  0  0
   12.8243  -10.0211   22.4012 N   0  0  0  0  0  0
   20.2918  -12.4334   19.4044 C   0  0  0  0  0  0
   20.8157  -11.8531   18.5508 N   0  0  0  0  0  0
   21.3326  -16.8371   24.4964 O   0  5  0  0  0  0
   23.3243  -13.0304   25.3194 H   0  0  0  0  0  0
   23.2608  -15.4118   24.4353 H   0  0  0  0  0  0
   19.2159  -13.4584   26.4235 H   0  0  0  0  0  0
   21.2258  -12.0868   26.3160 H   0  0  0  0  0  0
   17.5253  -17.2878   24.4063 H   0  0  0  0  0  0
   19.0571  -17.0935   23.6615 H   0  0  0  0  0  0
   16.8690  -15.0468   23.8372 H   0  0  0  0  0  0
   21.0577  -14.7834   20.3841 H   0  0  0  0  0  0
   19.9998  -16.1171   22.0926 H   0  0  0  0  0  0
   18.5483  -10.6391   20.3234 H   0  0  0  0  0  0
   17.5601  -10.8243   21.7135 H   0  0  0  0  0  0
   15.3614  -11.0093   21.3821 H   0  0  0  0  0  0
   14.2119  -11.5580   18.6773 H   0  0  0  0  0  0
   13.4932  -10.6223   19.9507 H   0  0  0  0  0  0
   13.9945  -13.6400   20.0061 H   0  0  0  0  0  0
   12.4344  -12.9057   19.7763 H   0  0  0  0  0  0
   11.5249  -12.9951   22.6223 H   0  0  0  0  0  0
   10.9423   -9.9120   24.1490 H   0  0  0  0  0  0
   10.2786  -11.3830   23.7493 H   0  0  0  0  0  0
   12.6711   -9.2082   22.9767 H   0  0  0  0  0  0
  1  6  1  0  0  0
  1  2  2  0  0  0
  1 33  1  0  0  0
  2  3  1  0  0  0
  2 34  1  0  0  0
  3  4  2  0  0  0
  3 32  1  0  0  0
  4  5  1  0  0  0
  4  7  1  0  0  0
  5  6  2  0  0  0
  5 35  1  0  0  0
  6 36  1  0  0  0
  7  8  1  0  0  0
  7  9  1  0  0  0
  7 10  1  0  0  0
  8 11  1  0  0  0
  8 37  1  0  0  0
  8 38  1  0  0  0
 11 12  1  0  0  0
 11 39  1  0  0  0
 12 17  1  0  0  0
 12 13  2  0  0  0
 13 24  1  0  0  0
 13 14  1  0  0  0
 14 18  1  0  0  0
 14 15  2  0  0  0
 15 16  1  0  0  0
 15 30  1  0  0  0
 16 17  2  0  0  0
 16 40  1  0  0  0
 17 41  1  0  0  0
 18 19  1  0  0  0
 18 42  1  0  0  0
 18 43  1  0  0  0
 19 20  1  0  0  0
 19 21  2  0  0  0
 20 22  1  0  0  0
 20 44  1  0  0  0
 22 23  1  0  0  0
 22 45  1  0  0  0
 22 46  1  0  0  0
 23 25  1  0  0  0
 23 47  1  0  0  0
 23 48  1  0  0  0
 25 26  1  0  0  0
 26 27  1  0  0  0
 26 49  1  0  0  0
 27 28  1  0  0  0
 27 29  2  0  0  0
 28 50  1  0  0  0
 28 51  1  0  0  0
 29 52  1  0  0  0
 30 31  3  0  0  0
M  CHG  2   3   1  32  -1
M  END
> <s_m_entry_id>
35255

> <s_m_entry_name>
dock_pv.105

> <s_m_Source_Path>
/home/csk/Desktop/cluster/DUD-E-result/thrb

> <s_m_Source_File>
dock_pv.maegz

> <i_m_Source_File_Index>
105

> <chembl_id>
CHEMBL401655

> <chembl_pref_name>
None

> <i_lp_mmshare_version>
53161

> <r_lp_tautomer_probability>
1

> <s_lp_Force_Field>
OPLS_2005

> <r_lp_Energy>
10.06934

> <b_lp_Chiralities_Consistent>
1

> <s_lp_Variant>
CHEMBL204_lig4574-1

> <s_i_glide_gridfile>
glide-grid_1ype

> <i_i_glide_lignum>
6245

> <i_i_glide_rotatable_bonds>
12

> <r_i_docking_score>
-7.66047473163291

> <r_i_glide_ligand_efficiency>
-0.239389835363528

> <r_i_glide_ligand_efficiency_sa>
-0.760015352095114

> <r_i_glide_ligand_efficiency_ln>
-1.71538910906717

> <r_i_glide_gscore>
-7.66047473163291

> <r_i_glide_lipo>
-2.7313027737707

> <r_i_glide_hbond>
-0.456286132452804

> <r_i_glide_metal>
0

> <r_i_glide_rewards>
-1.46968264753056

> <r_i_glide_evdw>
-49.9173202514648

> <r_i_glide_ecoul>
-10.1367692947388

> <r_i_glide_erotb>
1.08274512726767

> <r_i_glide_esite>
-0.0695668983624631

> <r_i_glide_emodel>
-86.1361218157456

> <r_i_glide_energy>
-60.0540895462036

> <r_i_glide_einternal>
5.26285076141357

> <i_i_glide_confnum>
175

> <i_i_glide_posenum>
180

> <r_i_glide_eff_state_penalty>
0

> <s_user_duplicate_titles>
CHEMBL204_lig4574,426133

> <i_f3d_flags>
0

> <s_m_subgroup_title>
dock_pv

> <s_m_subgroupid>
dock_pv

> <b_m_subgroup_collapsed>
1

$$$$
CHEMBL204_lig4637
                    3D
 Schrodinger Suite 2021-1.
 62 65  0  0  1  0            999 V2000
   20.0399  -13.5578   21.8835 C   0  0  0  0  0  0
   20.9684  -13.1854   20.8983 C   0  0  0  0  0  0
   20.5561  -12.7353   19.6520 C   0  0  0  0  0  0
   18.6749  -13.4909   21.5837 C   0  0  0  0  0  0
   18.2665  -13.0382   20.3297 C   0  0  0  0  0  0
   19.1918  -12.6520   19.3523 C   0  0  0  0  0  0
   18.6996  -12.2530   18.0904 N   0  0  0  0  0  0
   17.4074  -11.8816   17.8502 C   0  0  0  0  0  0
   16.5428  -11.9290   19.1595 C   0  0  2  0  0  0
   16.9223  -13.0182   20.0271 O   0  0  0  0  0  0
   19.6812  -12.1365   16.9916 C   0  0  0  0  0  0
   16.9810  -11.4886   16.7597 O   0  0  0  0  0  0
   15.0246  -11.9624   18.8466 C   0  0  0  0  0  0
   14.1448  -11.7002   20.0664 C   0  0  0  0  0  0
   14.2208  -10.4724   20.7210 C   0  0  0  0  0  0
   13.3929  -10.2016   21.8045 C   0  0  0  0  0  0
   12.4724  -11.1524   22.2811 C   0  0  0  0  0  0
   12.4183  -12.3911   21.6109 C   0  0  0  0  0  0
   13.2405  -12.6616   20.5172 C   0  0  0  0  0  0
   11.6043  -10.8227   23.4504 C   0  0  0  0  0  0
   11.6161   -9.6712   23.9596 N   0  0  0  0  0  0
   10.8160  -11.8525   23.9098 N   0  0  0  0  0  0
   20.4031  -14.0125   23.1658 N   0  0  0  0  0  0
   21.6070  -13.9438   23.7782 C   0  0  0  0  0  0
   21.6833  -14.5307   25.2012 C   0  0  2  0  0  0
   22.6164  -13.4530   23.2752 O   0  0  0  0  0  0
   20.8254  -13.7019   26.1734 C   0  0  0  0  0  0
   19.5732  -14.2179   26.3209 O   0  0  0  0  0  0
   21.2160  -12.6762   26.7211 O   0  0  0  0  0  0
   23.1399  -14.7322   25.7371 C   0  0  0  0  0  0
   24.0328  -15.6111   24.8587 C   0  0  0  0  0  0
   25.1387  -15.0570   24.2037 C   0  0  0  0  0  0
   25.9438  -15.8561   23.3940 C   0  0  0  0  0  0
   25.6429  -17.2073   23.2419 C   0  0  0  0  0  0
   24.5456  -17.7676   23.8923 C   0  0  0  0  0  0
   23.7411  -16.9695   24.7033 C   0  0  0  0  0  0
   22.0280  -13.2450   21.0620 H   0  0  0  0  0  0
   21.3208  -12.4658   18.9378 H   0  0  0  0  0  0
   17.9291  -13.7877   22.3076 H   0  0  0  0  0  0
   16.7854  -10.9936   19.6685 H   0  0  0  0  0  0
   19.2162  -12.1175   16.0045 H   0  0  0  0  0  0
   20.2910  -11.2395   17.1009 H   0  0  0  0  0  0
   20.3749  -12.9784   17.0015 H   0  0  0  0  0  0
   14.7623  -11.2041   18.1077 H   0  0  0  0  0  0
   14.7645  -12.9250   18.4021 H   0  0  0  0  0  0
   14.9215   -9.7203   20.3953 H   0  0  0  0  0  0
   13.4874   -9.2353   22.2804 H   0  0  0  0  0  0
   11.7286  -13.1638   21.9197 H   0  0  0  0  0  0
   13.1671  -13.6199   20.0235 H   0  0  0  0  0  0
   10.9549   -9.6153   24.7222 H   0  0  0  0  0  0
   10.0945  -11.6611   24.5962 H   0  0  0  0  0  0
   10.8462  -12.7906   23.5211 H   0  0  0  0  0  0
   19.6447  -14.3879   23.7168 H   0  0  0  0  0  0
   21.2338  -15.5223   25.1458 H   0  0  0  0  0  0
   19.0685  -13.6595   26.9184 H   0  0  0  0  0  0
   23.1192  -15.1968   26.7208 H   0  0  0  0  0  0
   23.6228  -13.7644   25.8939 H   0  0  0  0  0  0
   25.3740  -14.0083   24.3144 H   0  0  0  0  0  0
   26.8027  -15.4266   22.8963 H   0  0  0  0  0  0
   26.2716  -17.8283   22.6198 H   0  0  0  0  0  0
   24.3205  -18.8181   23.7702 H   0  0  0  0  0  0
   22.8917  -17.4066   25.2070 H   0  0  0  0  0  0
  1 23  1  0  0  0
  1  2  2  0  0  0
  1  4  1  0  0  0
  2  3  1  0  0  0
  2 37  1  0  0  0
  3  6  2  0  0  0
  3 38  1  0  0  0
  4  5  2  0  0  0
  4 39  1  0  0  0
  5 10  1  0  0  0
  5  6  1  0  0  0
  6  7  1  0  0  0
  7  8  1  0  0  0
  7 11  1  0  0  0
  8  9  1  0  0  0
  8 12  2  0  0  0
  9 10  1  0  0  0
  9 13  1  0  0  0
  9 40  1  0  0  0
 11 41  1  0  0  0
 11 42  1  0  0  0
 11 43  1  0  0  0
 13 14  1  0  0  0
 13 44  1  0  0  0
 13 45  1  0  0  0
 14 19  1  0  0  0
 14 15  2  0  0  0
 15 16  1  0  0  0
 15 46  1  0  0  0
 16 17  2  0  0  0
 16 47  1  0  0  0
 17 18  1  0  0  0
 17 20  1  0  0  0
 18 19  2  0  0  0
 18 48  1  0  0  0
 19 49  1  0  0  0
 20 21  2  0  0  0
 20 22  1  0  0  0
 21 50  1  0  0  0
 22 51  1  0  0  0
 22 52  1  0  0  0
 23 24  1  0  0  0
 23 53  1  0  0  0
 24 25  1  0  0  0
 24 26  2  0  0  0
 25 27  1  0  0  0
 25 30  1  0  0  0
 25 54  1  0  0  0
 27 28  1  0  0  0
 27 29  2  0  0  0
 28 55  1  0  0  0
 30 31  1  0  0  0
 30 56  1  0  0  0
 30 57  1  0  0  0
 31 32  2  0  0  0
 31 36  1  0  0  0
 32 33  1  0  0  0
 32 58  1  0  0  0
 33 34  2  0  0  0
 33 59  1  0  0  0
 34 35  1  0  0  0
 34 60  1  0  0  0
 35 36  2  0  0  0
 35 61  1  0  0  0
 36 62  1  0  0  0
M  END
> <s_m_entry_id>
35256

> <s_m_entry_name>
dock_pv.106

> <s_m_Source_Path>
/home/csk/Desktop/cluster/DUD-E-result/thrb

> <s_m_Source_File>
dock_pv.maegz

> <i_m_Source_File_Index>
106

> <chembl_id>
CHEMBL466530

> <chembl_pref_name>
None

> <i_lp_mmshare_version>
53161

> <r_lp_tautomer_probability>
1

> <s_lp_Force_Field>
OPLS_2005

> <r_lp_Energy>
39.253974

> <b_lp_Chiralities_Consistent>
1

> <s_lp_Variant>
CHEMBL204_lig4637-1

> <s_i_glide_gridfile>
glide-grid_1ype

> <i_i_glide_lignum>
6325

> <i_i_glide_rotatable_bonds>
10

> <r_i_docking_score>
-7.65664596941404

> <r_i_glide_ligand_efficiency>
-0.212684610261501

> <r_i_glide_ligand_efficiency_sa>
-0.702269109204119

> <r_i_glide_ligand_efficiency_ln>
-1.67047329185751

> <r_i_glide_gscore>
-7.65664596941404

> <r_i_glide_lipo>
-2.89187289033933

> <r_i_glide_hbond>
-0.420975378943695

> <r_i_glide_metal>
0

> <r_i_glide_rewards>
-0.98314985648422

> <r_i_glide_evdw>
-55.3133125305176

> <r_i_glide_ecoul>
-7.24368906021118

> <r_i_glide_erotb>
0.601010424501667

> <r_i_glide_esite>
-0.109439282590906

> <r_i_glide_emodel>
-90.0461550743544

> <r_i_glide_energy>
-62.5570015907288

> <r_i_glide_einternal>
3.24452137947083

> <i_i_glide_confnum>
22

> <i_i_glide_posenum>
400

> <r_i_glide_eff_state_penalty>
0

> <s_user_duplicate_titles>
CHEMBL204_lig4637

> <i_f3d_flags>
0

> <s_m_subgroup_title>
dock_pv

> <s_m_subgroupid>
dock_pv

> <b_m_subgroup_collapsed>
1

$$$$
CHEMBL204_lig4520
                    3D
 Schrodinger Suite 2021-1.
 65 70  0  0  1  0            999 V2000
   16.4058  -13.2109   14.8860 C   0  0  0  0  0  0
   16.8274  -14.2093   13.9914 C   0  0  0  0  0  0
   17.0913  -13.9342   12.6535 C   0  0  0  0  0  0
   16.9375  -12.6394   12.1779 C   0  0  0  0  0  0
   16.5079  -11.6301   13.0325 C   0  0  0  0  0  0
   16.2301  -11.9037   14.3779 C   0  0  0  0  0  0
   16.1974  -13.6037   16.3168 C   0  0  0  0  0  0
   16.7663  -12.8914   17.3805 C   0  0  0  0  0  0
   15.4170  -15.2263   17.9301 C   0  0  0  0  0  0
   15.4958  -14.7689   16.6239 C   0  0  0  0  0  0
   14.7836  -15.3548   20.9891 C   0  0  0  0  0  0
   13.5174  -15.2424   20.3167 C   0  0  0  0  0  0
   14.7494  -15.8532   22.1112 O   0  0  0  0  0  0
   12.8721  -16.2559   19.6390 C   0  0  0  0  0  0
   11.7184  -15.7046   19.0949 C   0  0  0  0  0  0
   11.6222  -14.4288   19.4148 N   0  0  0  0  0  0
   12.6980  -14.1365   20.1676 N   0  0  0  0  0  0
   10.6586  -16.4269   18.2937 C   0  0  0  0  0  0
   11.2042  -17.3514   17.5061 F   0  0  0  0  0  0
    9.8250  -17.0517   19.1176 F   0  0  0  0  0  0
    9.9515  -15.6044   17.5211 F   0  0  0  0  0  0
   12.8363  -12.8261   20.6760 C   0  0  0  0  0  0
   13.7310  -11.9531   20.0529 C   0  0  0  0  0  0
   13.9535  -10.6681   20.5476 C   0  0  0  0  0  0
   12.0751  -12.4075   21.7817 C   0  0  0  0  0  0
   12.2800  -11.1121   22.2914 C   0  0  0  0  0  0
   13.2171  -10.2796   21.6683 C   0  0  0  0  0  0
   13.2863   -9.0826   22.3168 O   0  0  0  0  0  0
   12.3706   -9.1135   23.3775 N   0  0  0  0  0  0
   11.7802  -10.2904   23.3479 C   0  0  0  0  0  0
   10.8160  -10.6671   24.2337 N   0  0  0  0  0  0
   15.6669  -10.5361   15.3870 S   0  0  0  0  0  0
   14.8158   -9.4532   14.3210 N   0  0  0  0  0  0
   14.6654  -11.0436   16.3262 O   0  0  0  0  0  0
   16.8759   -9.8460   15.8513 O   0  0  0  0  0  0
   15.9514  -15.0432   20.3280 N   0  0  0  0  0  0
   16.6484  -13.3006   18.7182 C   0  0  0  0  0  0
   15.9730  -14.5167   19.0076 C   0  0  0  0  0  0
   17.2081  -15.2670   21.0730 C   0  0  0  0  0  0
   17.7958  -14.0173   21.7359 C   0  0  0  0  0  0
   18.3249  -12.9974   20.7249 C   0  0  0  0  0  0
   17.2465  -12.4012   19.8109 C   0  0  0  0  0  0
   16.9667  -15.2219   14.3401 H   0  0  0  0  0  0
   17.4135  -14.7248   11.9885 H   0  0  0  0  0  0
   17.1394  -12.4193   11.1431 H   0  0  0  0  0  0
   16.3925  -10.6344   12.6296 H   0  0  0  0  0  0
   17.3288  -11.9977   17.1605 H   0  0  0  0  0  0
   14.9416  -16.1799   18.0950 H   0  0  0  0  0  0
   15.0455  -15.3596   15.8381 H   0  0  0  0  0  0
   13.1953  -17.2830   19.5429 H   0  0  0  0  0  0
   14.2653  -12.2714   19.1708 H   0  0  0  0  0  0
   14.6712  -10.0106   20.0880 H   0  0  0  0  0  0
   11.3493  -13.0531   22.2469 H   0  0  0  0  0  0
   10.3208  -11.5405   24.1222 H   0  0  0  0  0  0
   10.3121   -9.9976   24.8065 H   0  0  0  0  0  0
   15.4057   -8.9282   13.6610 H   0  0  0  0  0  0
   14.0180   -9.8926   13.8582 H   0  0  0  0  0  0
   17.1086  -16.0551   21.8209 H   0  0  0  0  0  0
   17.9355  -15.6616   20.3615 H   0  0  0  0  0  0
   17.0586  -13.5629   22.4031 H   0  0  0  0  0  0
   18.6267  -14.3258   22.3725 H   0  0  0  0  0  0
   18.7961  -12.1837   21.2809 H   0  0  0  0  0  0
   19.1199  -13.4379   20.1185 H   0  0  0  0  0  0
   17.6761  -11.5175   19.3355 H   0  0  0  0  0  0
   16.4393  -12.0013   20.4217 H   0  0  0  0  0  0
  1  7  1  0  0  0
  1  6  1  0  0  0
  1  2  2  0  0  0
  2  3  1  0  0  0
  2 43  1  0  0  0
  3  4  2  0  0  0
  3 44  1  0  0  0
  4  5  1  0  0  0
  4 45  1  0  0  0
  5  6  2  0  0  0
  5 46  1  0  0  0
  6 32  1  0  0  0
  7 10  1  0  0  0
  7  8  2  0  0  0
  8 37  1  0  0  0
  8 47  1  0  0  0
  9 10  2  0  0  0
  9 38  1  0  0  0
  9 48  1  0  0  0
 10 49  1  0  0  0
 11 36  1  0  0  0
 11 12  1  0  0  0
 11 13  2  0  0  0
 12 14  2  0  0  0
 12 17  1  0  0  0
 14 15  1  0  0  0
 14 50  1  0  0  0
 15 16  2  0  0  0
 15 18  1  0  0  0
 16 17  1  0  0  0
 17 22  1  0  0  0
 18 20  1  0  0  0
 18 21  1  0  0  0
 18 19  1  0  0  0
 22 23  2  0  0  0
 22 25  1  0  0  0
 23 24  1  0  0  0
 23 51  1  0  0  0
 24 27  2  0  0  0
 24 52  1  0  0  0
 25 26  2  0  0  0
 25 53  1  0  0  0
 26 27  1  0  0  0
 26 30  1  0  0  0
 27 28  1  0  0  0
 28 29  1  0  0  0
 29 30  2  0  0  0
 30 31  1  0  0  0
 31 54  1  0  0  0
 31 55  1  0  0  0
 32 33  1  0  0  0
 32 34  2  0  0  0
 32 35  2  0  0  0
 33 56  1  0  0  0
 33 57  1  0  0  0
 36 38  1  0  0  0
 36 39  1  0  0  0
 37 38  2  0  0  0
 37 42  1  0  0  0
 39 40  1  0  0  0
 39 58  1  0  0  0
 39 59  1  0  0  0
 40 41  1  0  0  0
 40 60  1  0  0  0
 40 61  1  0  0  0
 41 42  1  0  0  0
 41 62  1  0  0  0
 41 63  1  0  0  0
 42 64  1  0  0  0
 42 65  1  0  0  0
M  END
> <s_m_entry_id>
35257

> <s_m_entry_name>
dock_pv.107

> <s_m_Source_Path>
/home/csk/Desktop/cluster/DUD-E-result/thrb

> <s_m_Source_File>
dock_pv.maegz

> <i_m_Source_File_Index>
107

> <chembl_id>
CHEMBL399330

> <chembl_pref_name>
None

> <i_lp_mmshare_version>
53161

> <r_lp_tautomer_probability>
1

> <s_lp_Force_Field>
OPLS_2005

> <r_lp_Energy>
66.752413

> <b_lp_Chiralities_Consistent>
1

> <s_lp_Variant>
CHEMBL204_lig4520-1

> <s_i_glide_gridfile>
glide-grid_1ype

> <i_i_glide_lignum>
6187

> <i_i_glide_rotatable_bonds>
6

> <r_i_docking_score>
-7.65397445242938

> <r_i_glide_ligand_efficiency>
-0.182237486962604

> <r_i_glide_ligand_efficiency_sa>
-0.633462359589935

> <r_i_glide_ligand_efficiency_ln>
-1.61555681782697

> <r_i_glide_gscore>
-7.65397445242938

> <r_i_glide_lipo>
-2.46601545883946

> <r_i_glide_hbond>
-0.405514329315042

> <r_i_glide_metal>
0

> <r_i_glide_rewards>
-0.307735583606099

> <r_i_glide_evdw>
-53.7737998962402

> <r_i_glide_ecoul>
-11.4893627166748

> <r_i_glide_erotb>
0.121942220993724

> <r_i_glide_esite>
-0.184556899349273

> <r_i_glide_emodel>
-89.5148048402185

> <r_i_glide_energy>
-65.263162612915

> <r_i_glide_einternal>
6.37668371200562

> <i_i_glide_confnum>
5

> <i_i_glide_posenum>
352

> <r_i_glide_eff_state_penalty>
0

> <s_user_duplicate_titles>
CHEMBL204_lig4520

> <i_f3d_flags>
0

> <s_m_subgroup_title>
dock_pv

> <s_m_subgroupid>
dock_pv

> <b_m_subgroup_collapsed>
1

$$$$
CHEMBL204_lig4106
                    3D
 Schrodinger Suite 2021-1.
 60 64  0  0  1  0            999 V2000
   18.6687  -14.5165   23.4405 C   0  0  0  0  0  0
   18.2555  -13.4612   22.3483 C   0  0  0  0  0  0
   19.1382  -12.9998   21.4167 N   0  0  0  0  0  0
   19.0012  -15.8609   22.8128 C   0  0  0  0  0  0
   19.9565  -14.1925   24.1927 C   0  0  0  0  0  0
   20.2699  -16.2846   23.2143 C   0  0  0  0  0  0
   20.8590  -15.2539   24.0852 C   0  0  0  0  0  0
   18.8043  -11.9060   20.4727 C   0  0  2  0  0  0
   17.7229  -12.2836   19.4407 C   0  0  0  0  0  0
   16.5194  -11.7214   19.6073 N   0  0  0  0  0  0
   14.1764  -12.5350   19.5615 C   0  0  0  0  0  0
   17.0885  -13.0525   22.3466 O   0  0  0  0  0  0
   15.3510  -11.9762   18.7644 C   0  0  0  0  0  0
   13.4888  -11.7711   20.5293 C   0  0  0  0  0  0
   17.6160  -14.6725   24.3846 O   0  0  0  0  0  0
   17.9998  -13.0501   18.5204 O   0  0  0  0  0  0
   13.7543  -13.8431   19.2928 C   0  0  0  0  0  0
   12.4298  -12.3509   21.2361 C   0  0  0  0  0  0
   20.5219  -13.4428   21.2170 C   0  0  0  0  0  0
   12.6903  -14.4031   19.9956 C   0  0  0  0  0  0
   18.2381  -16.6641   21.9585 C   0  0  0  0  0  0
   20.2921  -13.0854   24.9801 C   0  0  0  0  0  0
   12.0382  -13.6587   20.9720 C   0  0  0  0  0  0
   12.1841  -16.0193   19.6652 Cl  0  0  0  0  0  0
   12.8159   -9.4321   20.3192 N   0  0  0  0  0  0
   20.7786  -17.5041   22.7662 C   0  0  0  0  0  0
   22.0892  -15.2112   24.7452 C   0  0  0  0  0  0
   20.1440  -11.5769   19.7878 C   0  0  0  0  0  0
   20.9479  -12.8548   19.8806 C   0  0  0  0  0  0
   13.8420  -10.3190   20.8305 C   0  0  0  0  0  0
   18.7482  -17.8817   21.5079 C   0  0  0  0  0  0
   21.5085  -13.0533   25.6626 C   0  0  0  0  0  0
   22.4098  -14.1103   25.5381 C   0  0  0  0  0  0
   20.0172  -18.2987   21.9094 C   0  0  0  0  0  0
   18.4672  -11.0287   21.0306 H   0  0  0  0  0  0
   16.3841  -11.1098   20.3993 H   0  0  0  0  0  0
   15.5892  -12.6529   17.9391 H   0  0  0  0  0  0
   15.0453  -11.0528   18.2728 H   0  0  0  0  0  0
   16.7675  -14.6528   23.9247 H   0  0  0  0  0  0
   14.2593  -14.4404   18.5453 H   0  0  0  0  0  0
   11.8984  -11.7854   21.9883 H   0  0  0  0  0  0
   20.6337  -14.5235   21.1882 H   0  0  0  0  0  0
   21.1523  -13.0519   22.0157 H   0  0  0  0  0  0
   17.2539  -16.3538   21.6415 H   0  0  0  0  0  0
   19.6151  -12.2550   25.0955 H   0  0  0  0  0  0
   11.2167  -14.0923   21.5210 H   0  0  0  0  0  0
   12.2693   -9.8972   19.6000 H   0  0  0  0  0  0
   12.1561   -9.2190   21.0589 H   0  0  0  0  0  0
   21.7616  -17.8364   23.0643 H   0  0  0  0  0  0
   22.7906  -16.0279   24.6659 H   0  0  0  0  0  0
   20.0439  -11.2594   18.7512 H   0  0  0  0  0  0
   20.6519  -10.7755   20.3210 H   0  0  0  0  0  0
   20.6590  -13.5333   19.0760 H   0  0  0  0  0  0
   22.0156  -12.6810   19.8001 H   0  0  0  0  0  0
   13.9498  -10.1746   21.9070 H   0  0  0  0  0  0
   14.7920  -10.0260   20.3916 H   0  0  0  0  0  0
   18.1598  -18.4994   20.8461 H   0  0  0  0  0  0
   21.7476  -12.2061   26.2879 H   0  0  0  0  0  0
   23.3506  -14.0808   26.0661 H   0  0  0  0  0  0
   20.4130  -19.2373   21.5537 H   0  0  0  0  0  0
  1  2  1  0  0  0
  1  4  1  0  0  0
  1  5  1  0  0  0
  1 15  1  0  0  0
  2  3  1  0  0  0
  2 12  2  0  0  0
  3  8  1  0  0  0
  3 19  1  0  0  0
  4  6  2  0  0  0
  4 21  1  0  0  0
  5  7  2  0  0  0
  5 22  1  0  0  0
  6 26  1  0  0  0
  6  7  1  0  0  0
  7 27  1  0  0  0
  8  9  1  0  0  0
  8 28  1  0  0  0
  8 35  1  0  0  0
  9 10  1  0  0  0
  9 16  2  0  0  0
 10 13  1  0  0  0
 10 36  1  0  0  0
 11 13  1  0  0  0
 11 14  1  0  0  0
 11 17  2  0  0  0
 13 37  1  0  0  0
 13 38  1  0  0  0
 14 18  2  0  0  0
 14 30  1  0  0  0
 15 39  1  0  0  0
 17 20  1  0  0  0
 17 40  1  0  0  0
 18 23  1  0  0  0
 18 41  1  0  0  0
 19 29  1  0  0  0
 19 42  1  0  0  0
 19 43  1  0  0  0
 20 23  2  0  0  0
 20 24  1  0  0  0
 21 31  2  0  0  0
 21 44  1  0  0  0
 22 32  2  0  0  0
 22 45  1  0  0  0
 23 46  1  0  0  0
 25 30  1  0  0  0
 25 47  1  0  0  0
 25 48  1  0  0  0
 26 34  2  0  0  0
 26 49  1  0  0  0
 27 33  2  0  0  0
 27 50  1  0  0  0
 28 29  1  0  0  0
 28 51  1  0  0  0
 28 52  1  0  0  0
 29 53  1  0  0  0
 29 54  1  0  0  0
 30 55  1  0  0  0
 30 56  1  0  0  0
 31 34  1  0  0  0
 31 57  1  0  0  0
 32 33  1  0  0  0
 32 58  1  0  0  0
 33 59  1  0  0  0
 34 60  1  0  0  0
M  END
> <s_m_entry_id>
35258

> <s_m_entry_name>
dock_pv.108

> <s_m_Source_Path>
/home/csk/Desktop/cluster/DUD-E-result/thrb

> <s_m_Source_File>
dock_pv.maegz

> <i_m_Source_File_Index>
108

> <chembl_id>
CHEMBL190075

> <chembl_pref_name>
None

> <i_lp_mmshare_version>
53161

> <r_lp_tautomer_probability>
1

> <s_lp_Force_Field>
OPLS_2005

> <r_lp_Energy>
47.484377

> <b_lp_Chiralities_Consistent>
1

> <s_lp_Variant>
CHEMBL204_lig4106-1

> <s_i_glide_gridfile>
glide-grid_1ype

> <i_i_glide_lignum>
5708

> <i_i_glide_rotatable_bonds>
8

> <r_i_docking_score>
-7.64685377860902

> <r_i_glide_ligand_efficiency>
-0.224907464076736

> <r_i_glide_ligand_efficiency_sa>
-0.728612873961935

> <r_i_glide_ligand_efficiency_ln>
-1.68940448667806

> <r_i_glide_gscore>
-7.64685377860902

> <r_i_glide_lipo>
-3.5760091774957

> <r_i_glide_hbond>
-0.257669481627065

> <r_i_glide_metal>
0

> <r_i_glide_rewards>
-0.962486346439541

> <r_i_glide_evdw>
-44.1721382141113

> <r_i_glide_ecoul>
-7.85535383224487

> <r_i_glide_erotb>
0.536221212495583

> <r_i_glide_esite>
0

> <r_i_glide_emodel>
-74.2279454530685

> <r_i_glide_energy>
-52.0274920463562

> <r_i_glide_einternal>
1.82852745056152

> <i_i_glide_confnum>
14

> <i_i_glide_posenum>
219

> <r_i_glide_eff_state_penalty>
0

> <s_user_duplicate_titles>
CHEMBL204_lig4106

> <i_f3d_flags>
0

> <s_m_subgroup_title>
dock_pv

> <s_m_subgroupid>
dock_pv

> <b_m_subgroup_collapsed>
1

$$$$
CHEMBL204_lig4363
                    3D
 Schrodinger Suite 2021-1.
 68 70  0  0  1  0            999 V2000
   12.1076  -11.8956   21.1144 C   0  0  0  0  0  0
   13.5708  -13.0445   21.3557 S   0  0  0  0  0  0
   13.6471  -13.8666   19.8239 N   0  0  2  0  0  0
   14.9482  -14.4315   19.3714 C   0  0  1  0  0  0
   15.1881  -15.8454   19.9748 C   0  0  0  0  0  0
   14.4112  -16.2734   20.9895 N   0  0  0  0  0  0
   16.0842  -16.5501   19.5095 O   0  0  0  0  0  0
   14.9653  -14.4109   17.8276 C   0  0  0  0  0  0
   14.5615  -13.0479   17.1955 C   0  0  0  0  0  0
   15.6308  -12.0787   16.6995 C   0  0  0  0  0  0
   15.2401  -10.9597   16.0201 N   0  3  0  0  0  0
   16.1180  -10.0998   15.4722 C   0  0  0  0  0  0
   17.4814  -10.3063   15.6302 C   0  0  0  0  0  0
   17.9261  -11.4363   16.3213 C   0  0  0  0  0  0
   16.9979  -12.3094   16.8815 C   0  0  0  0  0  0
   14.4206  -17.6010   21.6118 C   0  0  0  0  0  0
   15.5764  -17.7706   22.6085 C   0  0  0  0  0  0
   16.7900  -17.3692   22.2066 N   0  0  0  0  0  0
   15.3580  -18.2557   23.7180 O   0  0  0  0  0  0
   14.0185  -10.6531   15.9197 O   0  5  0  0  0  0
   18.0224  -17.4380   22.9822 C   0  0  0  0  0  0
   18.5783  -16.0507   23.3079 C   0  0  0  0  0  0
   19.0421  -15.2702   22.2400 C   0  0  0  0  0  0
   19.5566  -13.9958   22.4589 C   0  0  0  0  0  0
   19.6155  -13.4870   23.7523 C   0  0  0  0  0  0
   19.1557  -14.2503   24.8239 C   0  0  0  0  0  0
   18.6343  -15.5405   24.6232 C   0  0  0  0  0  0
   18.1189  -16.3809   25.8014 C   0  0  0  0  0  0
   18.4152  -15.8482   27.1208 N   0  0  0  0  0  0
   20.1196  -13.0533   21.1262 Cl  0  0  0  0  0  0
   14.7965  -12.2535   21.5108 O   0  0  0  0  0  0
   13.2155  -14.0800   22.3210 O   0  0  0  0  0  0
   12.0511  -10.8438   22.1982 C   0  0  0  0  0  0
   12.8449   -9.6977   22.0967 C   0  0  0  0  0  0
   12.8325   -8.7566   23.1221 C   0  0  0  0  0  0
   12.0157   -8.9571   24.2304 C   0  0  0  0  0  0
   11.2163  -10.0954   24.3214 C   0  0  0  0  0  0
   11.2394  -11.0474   23.3128 C   0  0  0  0  0  0
   11.2191  -12.5268   21.1170 H   0  0  0  0  0  0
   12.2085  -11.4278   20.1361 H   0  0  0  0  0  0
   13.2208  -13.3153   19.0766 H   0  0  0  0  0  0
   15.7532  -13.7848   19.7247 H   0  0  0  0  0  0
   13.7498  -15.6073   21.3767 H   0  0  0  0  0  0
   15.9113  -14.7770   17.4277 H   0  0  0  0  0  0
   14.2347  -15.1518   17.4887 H   0  0  0  0  0  0
   14.0039  -13.3183   16.3212 H   0  0  0  0  0  0
   13.8711  -12.4796   17.8134 H   0  0  0  0  0  0
   15.6951   -9.2496   14.9550 H   0  0  0  0  0  0
   18.1638   -9.5682   15.2415 H   0  0  0  0  0  0
   18.9809  -11.6167   16.4708 H   0  0  0  0  0  0
   17.3516  -13.1581   17.4463 H   0  0  0  0  0  0
   13.4715  -17.7528   22.1264 H   0  0  0  0  0  0
   14.4928  -18.3734   20.8446 H   0  0  0  0  0  0
   16.8577  -16.9928   21.2676 H   0  0  0  0  0  0
   17.9174  -18.0677   23.8653 H   0  0  0  0  0  0
   18.7576  -17.9573   22.3651 H   0  0  0  0  0  0
   19.0001  -15.6545   21.2302 H   0  0  0  0  0  0
   20.0155  -12.4995   23.9295 H   0  0  0  0  0  0
   19.2126  -13.8242   25.8147 H   0  0  0  0  0  0
   17.0423  -16.5291   25.6983 H   0  0  0  0  0  0
   18.5870  -17.3654   25.7598 H   0  0  0  0  0  0
   17.8191  -15.0527   27.3048 H   0  0  0  0  0  0
   18.1776  -16.5335   27.8253 H   0  0  0  0  0  0
   13.4914   -9.5498   21.2436 H   0  0  0  0  0  0
   13.4688   -7.8849   23.0785 H   0  0  0  0  0  0
   12.0055   -8.2275   25.0276 H   0  0  0  0  0  0
   10.5745  -10.2535   25.1760 H   0  0  0  0  0  0
   10.6225  -11.9321   23.4007 H   0  0  0  0  0  0
  1  2  1  0  0  0
  1 33  1  0  0  0
  1 39  1  0  0  0
  1 40  1  0  0  0
  2  3  1  0  0  0
  2 31  2  0  0  0
  2 32  2  0  0  0
  3  4  1  0  0  0
  3 41  1  0  0  0
  4  5  1  0  0  0
  4  8  1  0  0  0
  4 42  1  0  0  0
  5  6  1  0  0  0
  5  7  2  0  0  0
  6 16  1  0  0  0
  6 43  1  0  0  0
  8  9  1  0  0  0
  8 44  1  0  0  0
  8 45  1  0  0  0
  9 10  1  0  0  0
  9 46  1  0  0  0
  9 47  1  0  0  0
 10 15  1  0  0  0
 10 11  2  0  0  0
 11 20  1  0  0  0
 11 12  1  0  0  0
 12 13  2  0  0  0
 12 48  1  0  0  0
 13 14  1  0  0  0
 13 49  1  0  0  0
 14 15  2  0  0  0
 14 50  1  0  0  0
 15 51  1  0  0  0
 16 17  1  0  0  0
 16 52  1  0  0  0
 16 53  1  0  0  0
 17 18  1  0  0  0
 17 19  2  0  0  0
 18 21  1  0  0  0
 18 54  1  0  0  0
 21 22  1  0  0  0
 21 55  1  0  0  0
 21 56  1  0  0  0
 22 23  2  0  0  0
 22 27  1  0  0  0
 23 24  1  0  0  0
 23 57  1  0  0  0
 24 25  2  0  0  0
 24 30  1  0  0  0
 25 26  1  0  0  0
 25 58  1  0  0  0
 26 27  2  0  0  0
 26 59  1  0  0  0
 27 28  1  0  0  0
 28 29  1  0  0  0
 28 60  1  0  0  0
 28 61  1  0  0  0
 29 62  1  0  0  0
 29 63  1  0  0  0
 33 34  2  0  0  0
 33 38  1  0  0  0
 34 35  1  0  0  0
 34 64  1  0  0  0
 35 36  2  0  0  0
 35 65  1  0  0  0
 36 37  1  0  0  0
 36 66  1  0  0  0
 37 38  2  0  0  0
 37 67  1  0  0  0
 38 68  1  0  0  0
M  CHG  2  11   1  20  -1
M  END
> <s_m_entry_id>
35259

> <s_m_entry_name>
dock_pv.109

> <s_m_Source_Path>
/home/csk/Desktop/cluster/DUD-E-result/thrb

> <s_m_Source_File>
dock_pv.maegz

> <i_m_Source_File_Index>
109

> <chembl_id>
CHEMBL397921

> <chembl_pref_name>
None

> <i_lp_mmshare_version>
53161

> <r_lp_tautomer_probability>
1

> <s_lp_Force_Field>
OPLS_2005

> <r_lp_Energy>
-1.71775

> <b_lp_Chiralities_Consistent>
1

> <s_lp_Variant>
CHEMBL204_lig4363-1

> <s_i_glide_gridfile>
glide-grid_1ype

> <i_i_glide_lignum>
6020

> <i_i_glide_rotatable_bonds>
15

> <r_i_docking_score>
-7.64677970049617

> <r_i_glide_ligand_efficiency>
-0.201231044749899

> <r_i_glide_ligand_efficiency_sa>
-0.676533822713306

> <r_i_glide_ligand_efficiency_ln>
-1.64887064889536

> <r_i_glide_gscore>
-7.64677970049617

> <r_i_glide_lipo>
-2.79514527970909

> <r_i_glide_hbond>
-0.16

> <r_i_glide_metal>
0

> <r_i_glide_rewards>
-0.781222768268541

> <r_i_glide_evdw>
-44.3382034301758

> <r_i_glide_ecoul>
-15.9542169570923

> <r_i_glide_erotb>
0.715667144608522

> <r_i_glide_esite>
-0.0160360820544305

> <r_i_glide_emodel>
-76.0205212628618

> <r_i_glide_energy>
-60.2924203872681

> <r_i_glide_einternal>
22.3824405670166

> <i_i_glide_confnum>
27

> <i_i_glide_posenum>
96

> <r_i_glide_eff_state_penalty>
0

> <s_user_duplicate_titles>
CHEMBL204_lig4363,384826

> <i_f3d_flags>
0

> <s_m_subgroup_title>
dock_pv

> <s_m_subgroupid>
dock_pv

> <b_m_subgroup_collapsed>
1

$$$$
CHEMBL204_lig5105
                    3D
 Schrodinger Suite 2021-1.
 55 58  0  0  1  0            999 V2000
   21.2045  -16.0865   21.4930 N   0  0  0  0  0  0
   20.7546  -14.8630   22.1282 C   0  0  0  0  0  0
   19.9189  -14.0256   21.1653 C   0  0  0  0  0  0
   20.5791  -13.0539   20.4045 C   0  0  0  0  0  0
   19.8772  -12.2567   19.5033 C   0  0  0  0  0  0
   18.5016  -12.4158   19.3652 C   0  0  0  0  0  0
   17.6160  -11.4530   18.2381 Cl  0  0  0  0  0  0
   17.8349  -13.3701   20.1272 C   0  0  0  0  0  0
   18.5250  -14.2098   21.0176 C   0  0  0  0  0  0
   17.7917  -15.3001   21.8305 C   0  0  0  0  0  0
   16.3303  -15.2503   21.9208 N   0  0  0  0  0  0
   15.4665  -15.5154   20.9279 C   0  0  0  0  0  0
   15.8047  -15.8969   19.8086 O   0  0  0  0  0  0
   13.9751  -15.2878   21.2415 C   0  0  2  0  0  0
   13.2010  -16.6217   21.1301 C   0  0  0  0  0  0
   11.9136  -16.2829   20.4077 C   0  0  0  0  0  0
   12.3625  -15.1803   19.4665 C   0  0  0  0  0  0
   13.3057  -14.3907   20.2662 N   0  0  0  0  0  0
   13.3912  -13.0382   20.0859 C   0  0  0  0  0  0
   12.8166  -12.5382   19.1213 O   0  0  0  0  0  0
   14.0764  -12.0348   21.0843 C   0  0  1  0  0  0
   15.0398  -12.6323   21.9210 O   0  0  0  0  0  0
   14.7081  -10.8024   20.3735 C   0  0  0  0  0  0
   14.3279   -9.5449   21.1623 C   0  0  0  0  0  0
   13.2054  -10.0105   22.0537 C   0  0  0  0  0  0
   12.4209   -9.2907   22.9535 C   0  0  0  0  0  0
   11.4419   -9.8580   23.6963 N   0  0  0  0  0  0
   11.2149  -11.1837   23.5286 C   0  0  0  0  0  0
   11.9731  -11.9853   22.6771 C   0  0  0  0  0  0
   13.0046  -11.3898   21.9456 C   0  0  0  0  0  0
   20.6065  -16.2934   20.7056 H   0  0  0  0  0  0
   22.1387  -15.9274   21.1118 H   0  0  0  0  0  0
   21.6265  -14.3004   22.4679 H   0  0  0  0  0  0
   20.1996  -15.1063   23.0331 H   0  0  0  0  0  0
   21.6455  -12.9203   20.5041 H   0  0  0  0  0  0
   20.4040  -11.5222   18.9144 H   0  0  0  0  0  0
   16.7701  -13.4501   19.9897 H   0  0  0  0  0  0
   18.1014  -16.2832   21.4683 H   0  0  0  0  0  0
   18.1195  -15.2302   22.8678 H   0  0  0  0  0  0
   15.9551  -14.9530   22.8130 H   0  0  0  0  0  0
   13.8249  -14.8909   22.2464 H   0  0  0  0  0  0
   13.7499  -17.3507   20.5305 H   0  0  0  0  0  0
   13.0190  -17.0852   22.0987 H   0  0  0  0  0  0
   11.4574  -17.1331   19.9000 H   0  0  0  0  0  0
   11.1910  -15.8807   21.1178 H   0  0  0  0  0  0
   12.8853  -15.5909   18.6015 H   0  0  0  0  0  0
   11.4960  -14.6232   19.1065 H   0  0  0  0  0  0
   14.5952  -13.3079   22.4421 H   0  0  0  0  0  0
   15.7915  -10.8901   20.2918 H   0  0  0  0  0  0
   14.3507  -10.6562   19.3548 H   0  0  0  0  0  0
   15.1806   -9.1744   21.7286 H   0  0  0  0  0  0
   14.0114   -8.7486   20.4898 H   0  0  0  0  0  0
   12.5790   -8.2390   23.1205 H   0  0  0  0  0  0
   10.4106  -11.6071   24.1163 H   0  0  0  0  0  0
   11.7755  -13.0474   22.6184 H   0  0  0  0  0  0
  1  2  1  0  0  0
  1 31  1  0  0  0
  1 32  1  0  0  0
  2  3  1  0  0  0
  2 33  1  0  0  0
  2 34  1  0  0  0
  3  4  2  0  0  0
  3  9  1  0  0  0
  4  5  1  0  0  0
  4 35  1  0  0  0
  5  6  2  0  0  0
  5 36  1  0  0  0
  6  7  1  0  0  0
  6  8  1  0  0  0
  8  9  2  0  0  0
  8 37  1  0  0  0
  9 10  1  0  0  0
 10 11  1  0  0  0
 10 38  1  0  0  0
 10 39  1  0  0  0
 11 12  1  0  0  0
 11 40  1  0  0  0
 12 13  2  0  0  0
 12 14  1  0  0  0
 14 15  1  0  0  0
 14 18  1  0  0  0
 14 41  1  0  0  0
 15 16  1  0  0  0
 15 42  1  0  0  0
 15 43  1  0  0  0
 16 17  1  0  0  0
 16 44  1  0  0  0
 16 45  1  0  0  0
 17 18  1  0  0  0
 17 46  1  0  0  0
 17 47  1  0  0  0
 18 19  1  0  0  0
 19 20  2  0  0  0
 19 21  1  0  0  0
 21 22  1  0  0  0
 21 23  1  0  0  0
 21 30  1  0  0  0
 22 48  1  0  0  0
 23 24  1  0  0  0
 23 49  1  0  0  0
 23 50  1  0  0  0
 24 25  1  0  0  0
 24 51  1  0  0  0
 24 52  1  0  0  0
 25 26  2  0  0  0
 25 30  1  0  0  0
 26 27  1  0  0  0
 26 53  1  0  0  0
 27 28  2  0  0  0
 28 29  1  0  0  0
 28 54  1  0  0  0
 29 30  2  0  0  0
 29 55  1  0  0  0
M  END
> <s_m_entry_id>
35260

> <s_m_entry_name>
dock_pv.110

> <s_m_Source_Path>
/home/csk/Desktop/cluster/DUD-E-result/thrb

> <s_m_Source_File>
dock_pv.maegz

> <i_m_Source_File_Index>
110

> <chembl_id>
CHEMBL3951697

> <chembl_pref_name>
None

> <i_lp_mmshare_version>
53161

> <r_lp_tautomer_probability>
1

> <s_lp_Force_Field>
OPLS_2005

> <r_lp_Energy>
39.394104

> <b_lp_Chiralities_Consistent>
1

> <s_lp_Variant>
CHEMBL204_lig5105-1

> <s_i_glide_gridfile>
glide-grid_1ype

> <i_i_glide_lignum>
6991

> <i_i_glide_rotatable_bonds>
8

> <r_i_docking_score>
-7.642560169613

> <r_i_glide_ligand_efficiency>
-0.254752005653767

> <r_i_glide_ligand_efficiency_sa>
-0.791573712026893

> <r_i_glide_ligand_efficiency_ln>
-1.73647294289871

> <r_i_glide_gscore>
-7.642560169613

> <r_i_glide_lipo>
-3.20491908203346

> <r_i_glide_hbond>
-0.662564686637819

> <r_i_glide_metal>
0

> <r_i_glide_rewards>
-0.901396029875277

> <r_i_glide_evdw>
-41.6145553588867

> <r_i_glide_ecoul>
-9.43893814086914

> <r_i_glide_erotb>
0.647987235276376

> <r_i_glide_esite>
-0.0250991172681139

> <r_i_glide_emodel>
-68.9694229678177

> <r_i_glide_energy>
-51.0534934997559

> <r_i_glide_einternal>
10.6494665145874

> <i_i_glide_confnum>
86

> <i_i_glide_posenum>
346

> <r_i_glide_eff_state_penalty>
0

> <s_user_duplicate_titles>
CHEMBL204_lig5105

> <i_f3d_flags>
0

> <s_m_subgroup_title>
dock_pv

> <s_m_subgroupid>
dock_pv

> <b_m_subgroup_collapsed>
1

$$$$
CHEMBL204_lig4235
                    3D
 Schrodinger Suite 2021-1.
 61 64  0  0  1  0            999 V2000
   15.0398  -12.9820   20.5794 C   0  0  0  0  0  0
   16.4282  -12.7514   21.2690 C   0  0  1  0  0  0
   16.4157  -13.0534   22.7145 N   0  0  0  0  0  0
   17.5685  -13.6395   20.6926 C   0  0  0  0  0  0
   17.3495  -14.8413   20.5239 O   0  0  0  0  0  0
   18.7851  -13.0697   20.4902 N   0  0  0  0  0  0
   19.0558  -11.6317   20.4703 C   0  0  0  0  0  0
   20.4691  -11.4992   19.9203 C   0  0  0  0  0  0
   21.1424  -12.7920   20.3316 C   0  0  0  0  0  0
   20.0304  -13.8522   20.3073 C   0  0  1  0  0  0
   15.1144  -12.9414   19.0435 C   0  0  0  0  0  0
   13.9356  -12.0803   21.1557 C   0  0  0  0  0  0
   14.6712  -14.0391   18.2970 C   0  0  0  0  0  0
   14.8159  -14.0489   16.9130 C   0  0  0  0  0  0
   15.3993  -12.9577   16.2723 C   0  0  0  0  0  0
   15.8355  -11.8559   17.0015 C   0  0  0  0  0  0
   15.6978  -11.8529   18.3854 C   0  0  0  0  0  0
   14.0552  -10.6841   21.1233 C   0  0  0  0  0  0
   13.0690   -9.8802   21.6893 C   0  0  0  0  0  0
   11.9603  -10.4703   22.2883 C   0  0  0  0  0  0
   11.8230  -11.8533   22.3201 C   0  0  0  0  0  0
   12.8094  -12.6575   21.7567 C   0  0  0  0  0  0
   20.2939  -14.9369   21.3729 C   0  0  0  0  0  0
   19.9108  -14.6368   22.6234 N   0  0  0  0  0  0
   20.8136  -15.9999   21.0411 O   0  0  0  0  0  0
   20.1360  -15.4574   23.8050 C   0  0  0  0  0  0
   20.7046  -14.5689   24.8832 C   0  0  0  0  0  0
   21.9933  -14.3910   25.3878 C   0  0  0  0  0  0
   22.0161  -13.4511   26.3211 N   0  0  0  0  0  0
   20.7852  -13.0315   26.4407 C   0  0  0  0  0  0
   19.9364  -13.6848   25.5956 N   0  0  0  0  0  0
   23.2789  -15.0847   25.0019 C   0  0  0  0  0  0
   14.7575  -14.0059   20.8365 H   0  0  0  0  0  0
   16.6639  -11.6971   21.1534 H   0  0  0  0  0  0
   15.7488  -13.7924   22.9321 H   0  0  0  0  0  0
   17.3125  -13.3998   23.0186 H   0  0  0  0  0  0
   18.3554  -11.0771   19.8452 H   0  0  0  0  0  0
   18.9756  -11.2472   21.4873 H   0  0  0  0  0  0
   20.4349  -11.4520   18.8309 H   0  0  0  0  0  0
   20.9908  -10.6195   20.2926 H   0  0  0  0  0  0
   21.9668  -13.0484   19.6681 H   0  0  0  0  0  0
   21.5587  -12.6784   21.3356 H   0  0  0  0  0  0
   19.9951  -14.3023   19.3165 H   0  0  0  0  0  0
   14.2344  -14.8959   18.7897 H   0  0  0  0  0  0
   14.4726  -14.8980   16.3374 H   0  0  0  0  0  0
   15.5069  -12.9707   15.1985 H   0  0  0  0  0  0
   16.2839  -11.0135   16.4973 H   0  0  0  0  0  0
   16.0602  -11.0055   18.9453 H   0  0  0  0  0  0
   14.9182  -10.2112   20.6805 H   0  0  0  0  0  0
   13.1697   -8.8064   21.6801 H   0  0  0  0  0  0
   11.1954   -9.8553   22.7403 H   0  0  0  0  0  0
   10.9548  -12.3011   22.7852 H   0  0  0  0  0  0
   12.6939  -13.7296   21.8004 H   0  0  0  0  0  0
   19.5388  -13.7155   22.7900 H   0  0  0  0  0  0
   19.1896  -15.9000   24.1197 H   0  0  0  0  0  0
   20.8164  -16.2877   23.6003 H   0  0  0  0  0  0
   18.9419  -13.5355   25.5091 H   0  0  0  0  0  0
   20.4162  -12.2622   27.1074 H   0  0  0  0  0  0
   23.1041  -15.9452   24.3534 H   0  0  0  0  0  0
   23.9542  -14.4097   24.4706 H   0  0  0  0  0  0
   23.8138  -15.4524   25.8799 H   0  0  0  0  0  0
  1 11  1  0  0  0
  1 12  1  0  0  0
  1  2  1  0  0  0
  1 33  1  0  0  0
  2  3  1  0  0  0
  2  4  1  0  0  0
  2 34  1  0  0  0
  3 35  1  0  0  0
  3 36  1  0  0  0
  4  5  2  0  0  0
  4  6  1  0  0  0
  6 10  1  0  0  0
  6  7  1  0  0  0
  7  8  1  0  0  0
  7 37  1  0  0  0
  7 38  1  0  0  0
  8  9  1  0  0  0
  8 39  1  0  0  0
  8 40  1  0  0  0
  9 10  1  0  0  0
  9 41  1  0  0  0
  9 42  1  0  0  0
 10 23  1  0  0  0
 10 43  1  0  0  0
 11 17  1  0  0  0
 11 13  2  0  0  0
 12 18  2  0  0  0
 12 22  1  0  0  0
 13 14  1  0  0  0
 13 44  1  0  0  0
 14 15  2  0  0  0
 14 45  1  0  0  0
 15 16  1  0  0  0
 15 46  1  0  0  0
 16 17  2  0  0  0
 16 47  1  0  0  0
 17 48  1  0  0  0
 18 19  1  0  0  0
 18 49  1  0  0  0
 19 20  2  0  0  0
 19 50  1  0  0  0
 20 21  1  0  0  0
 20 51  1  0  0  0
 21 22  2  0  0  0
 21 52  1  0  0  0
 22 53  1  0  0  0
 23 24  1  0  0  0
 23 25  2  0  0  0
 24 26  1  0  0  0
 24 54  1  0  0  0
 26 55  1  0  0  0
 26 56  1  0  0  0
 26 27  1  0  0  0
 27 28  2  0  0  0
 27 31  1  0  0  0
 28 32  1  0  0  0
 28 29  1  0  0  0
 29 30  2  0  0  0
 30 31  1  0  0  0
 30 58  1  0  0  0
 31 57  1  0  0  0
 32 59  1  0  0  0
 32 60  1  0  0  0
 32 61  1  0  0  0
M  END
> <s_m_entry_id>
35261

> <s_m_entry_name>
dock_pv.111

> <s_m_Source_Path>
/home/csk/Desktop/cluster/DUD-E-result/thrb

> <s_m_Source_File>
dock_pv.maegz

> <i_m_Source_File_Index>
111

> <chembl_id>
CHEMBL370557

> <chembl_pref_name>
None

> <i_lp_mmshare_version>
53161

> <r_lp_tautomer_probability>
0.499999999999999

> <s_lp_Force_Field>
OPLS_2005

> <r_lp_Energy>
24.182766

> <b_lp_Chiralities_Consistent>
1

> <s_lp_Variant>
CHEMBL204_lig4235-2

> <s_i_glide_gridfile>
glide-grid_1ype

> <i_i_glide_lignum>
5880

> <i_i_glide_rotatable_bonds>
9

> <r_i_docking_score>
-7.6393972066747

> <r_i_glide_ligand_efficiency>
-0.238731162708584

> <r_i_glide_ligand_efficiency_sa>
-0.757924196766808

> <r_i_glide_ligand_efficiency_ln>
-1.7106692766774

> <r_i_glide_gscore>
-7.6393972066747

> <r_i_glide_lipo>
-3.16698427005442

> <r_i_glide_hbond>
-0.546615616900287

> <r_i_glide_metal>
0

> <r_i_glide_rewards>
-1.46403989820416

> <r_i_glide_evdw>
-45.7915687561035

> <r_i_glide_ecoul>
-7.55668544769287

> <r_i_glide_erotb>
0.96132383344327

> <r_i_glide_esite>
0

> <r_i_glide_emodel>
-74.9320295087907

> <r_i_glide_energy>
-53.3482542037964

> <r_i_glide_einternal>
5.19318628311157

> <i_i_glide_confnum>
236

> <i_i_glide_posenum>
347

> <r_i_glide_eff_state_penalty>
0

> <s_user_duplicate_titles>
CHEMBL204_lig4235,334988

> <i_f3d_flags>
0

> <s_m_subgroup_title>
dock_pv

> <s_m_subgroupid>
dock_pv

> <b_m_subgroup_collapsed>
1

$$$$
CHEMBL204_lig4350
                    3D
 Schrodinger Suite 2021-1.
 68 70  0  0  1  0            999 V2000
   14.9482  -14.9479   19.8396 N   0  0  0  0  0  0
   15.2291  -15.9048   20.9411 C   0  0  1  0  0  0
   14.2822  -17.0716   20.6317 C   0  0  0  0  0  0
   13.0403  -16.3806   20.1015 C   0  0  0  0  0  0
   13.6012  -15.2027   19.3059 C   0  0  0  0  0  0
   17.2240  -16.0221   22.3489 N   0  0  0  0  0  0
   18.5403  -16.4497   22.8275 C   0  0  0  0  0  0
   19.3024  -15.3665   23.5932 C   0  0  0  0  0  0
   20.5098  -14.8937   23.0611 C   0  0  0  0  0  0
   21.2760  -13.9584   23.7539 C   0  0  0  0  0  0
   20.8305  -13.4588   24.9752 C   0  0  0  0  0  0
   19.6387  -13.9281   25.5224 C   0  0  0  0  0  0
   18.8793  -14.8966   24.8556 C   0  0  0  0  0  0
   17.6501  -15.4516   25.5639 C   0  0  0  0  0  0
   17.9626  -16.7290   26.1813 N   0  0  0  0  0  0
   22.7985  -13.4531   23.1210 Cl  0  0  0  0  0  0
   16.6760  -16.3815   21.1758 C   0  0  0  0  0  0
   17.2395  -17.0670   20.3230 O   0  0  0  0  0  0
   15.7551  -13.9274   19.4355 C   0  0  0  0  0  0
   15.5625  -13.0402   17.1327 N   0  0  2  0  0  0
   15.1750  -12.7831   18.5601 C   0  0  2  0  0  0
   16.9275  -13.8229   19.8022 O   0  0  0  0  0  0
   15.5835  -11.3728   19.0663 C   0  0  0  0  0  0
   15.4562  -11.0419   20.5687 C   0  0  0  0  0  0
   14.0742  -11.2879   21.1660 C   0  0  0  0  0  0
   13.0571  -10.3963   21.0038 N   0  3  0  0  0  0
   11.8490  -10.5645   21.5738 C   0  0  0  0  0  0
   11.5855  -11.7043   22.3308 C   0  0  0  0  0  0
   12.5897  -12.6531   22.4890 C   0  0  0  0  0  0
   13.8411  -12.4420   21.9203 C   0  0  0  0  0  0
   13.2168   -9.3590   20.3080 O   0  5  0  0  0  0
   15.7200  -11.6830   15.9954 S   0  0  0  0  0  0
   14.4177  -11.0126   15.9217 O   0  0  0  0  0  0
   16.9131  -10.9113   16.3644 O   0  0  0  0  0  0
   16.0661  -12.4800   14.3332 C   0  0  0  0  0  0
   16.4130  -11.4934   13.2289 C   0  0  0  0  0  0
   15.3766  -10.6533   12.9650 O   0  0  0  0  0  0
   17.5147  -11.4505   12.6893 O   0  0  0  0  0  0
   14.8789  -15.4262   21.8566 H   0  0  0  0  0  0
   14.0721  -17.6892   21.5040 H   0  0  0  0  0  0
   14.7046  -17.7164   19.8597 H   0  0  0  0  0  0
   12.4542  -16.0011   20.9415 H   0  0  0  0  0  0
   12.3950  -17.0334   19.5120 H   0  0  0  0  0  0
   12.9230  -14.3544   19.4079 H   0  0  0  0  0  0
   13.6830  -15.4594   18.2494 H   0  0  0  0  0  0
   16.6586  -15.4973   23.0021 H   0  0  0  0  0  0
   18.4075  -17.3092   23.4879 H   0  0  0  0  0  0
   19.1548  -16.8246   22.0055 H   0  0  0  0  0  0
   20.8758  -15.2702   22.1163 H   0  0  0  0  0  0
   21.4188  -12.7305   25.5152 H   0  0  0  0  0  0
   19.3221  -13.5565   26.4860 H   0  0  0  0  0  0
   17.3055  -14.7569   26.3316 H   0  0  0  0  0  0
   16.8175  -15.5733   24.8714 H   0  0  0  0  0  0
   18.6329  -16.5833   26.9242 H   0  0  0  0  0  0
   17.1354  -17.0983   26.6282 H   0  0  0  0  0  0
   14.9339  -13.7483   16.7463 H   0  0  0  0  0  0
   14.0881  -12.8014   18.5912 H   0  0  0  0  0  0
   14.9619  -10.6692   18.5274 H   0  0  0  0  0  0
   16.6181  -11.1684   18.7939 H   0  0  0  0  0  0
   15.7248   -9.9962   20.7338 H   0  0  0  0  0  0
   16.2025  -11.6093   21.1282 H   0  0  0  0  0  0
   11.1279   -9.7823   21.3923 H   0  0  0  0  0  0
   10.6144  -11.8505   22.7875 H   0  0  0  0  0  0
   12.4163  -13.5276   23.0970 H   0  0  0  0  0  0
   14.6260  -13.1637   22.0858 H   0  0  0  0  0  0
   16.9143  -13.1445   14.4853 H   0  0  0  0  0  0
   15.2160  -13.0925   14.0386 H   0  0  0  0  0  0
   15.6082   -9.9725   12.3239 H   0  0  0  0  0  0
  1 19  1  0  0  0
  1  5  1  0  0  0
  1  2  1  0  0  0
  2  3  1  0  0  0
  2 17  1  0  0  0
  2 39  1  0  0  0
  3  4  1  0  0  0
  3 40  1  0  0  0
  3 41  1  0  0  0
  4  5  1  0  0  0
  4 42  1  0  0  0
  4 43  1  0  0  0
  5 44  1  0  0  0
  5 45  1  0  0  0
  6  7  1  0  0  0
  6 17  1  0  0  0
  6 46  1  0  0  0
  7  8  1  0  0  0
  7 47  1  0  0  0
  7 48  1  0  0  0
  8 13  1  0  0  0
  8  9  2  0  0  0
  9 10  1  0  0  0
  9 49  1  0  0  0
 10 11  2  0  0  0
 10 16  1  0  0  0
 11 12  1  0  0  0
 11 50  1  0  0  0
 12 13  2  0  0  0
 12 51  1  0  0  0
 13 14  1  0  0  0
 14 15  1  0  0  0
 14 52  1  0  0  0
 14 53  1  0  0  0
 15 54  1  0  0  0
 15 55  1  0  0  0
 17 18  2  0  0  0
 19 21  1  0  0  0
 19 22  2  0  0  0
 20 21  1  0  0  0
 20 32  1  0  0  0
 20 56  1  0  0  0
 21 23  1  0  0  0
 21 57  1  0  0  0
 23 24  1  0  0  0
 23 58  1  0  0  0
 23 59  1  0  0  0
 24 25  1  0  0  0
 24 60  1  0  0  0
 24 61  1  0  0  0
 25 26  2  0  0  0
 25 30  1  0  0  0
 26 27  1  0  0  0
 26 31  1  0  0  0
 27 28  2  0  0  0
 27 62  1  0  0  0
 28 29  1  0  0  0
 28 63  1  0  0  0
 29 30  2  0  0  0
 29 64  1  0  0  0
 30 65  1  0  0  0
 32 33  2  0  0  0
 32 34  2  0  0  0
 32 35  1  0  0  0
 35 36  1  0  0  0
 35 66  1  0  0  0
 35 67  1  0  0  0
 36 37  1  0  0  0
 36 38  2  0  0  0
 37 68  1  0  0  0
M  CHG  2  26   1  31  -1
M  END
> <s_m_entry_id>
35262

> <s_m_entry_name>
dock_pv.112

> <s_m_Source_Path>
/home/csk/Desktop/cluster/DUD-E-result/thrb

> <s_m_Source_File>
dock_pv.maegz

> <i_m_Source_File_Index>
112

> <chembl_id>
CHEMBL389960

> <chembl_pref_name>
None

> <i_lp_mmshare_version>
53161

> <r_lp_tautomer_probability>
1

> <s_lp_Force_Field>
OPLS_2005

> <r_lp_Energy>
19.21065

> <b_lp_Chiralities_Consistent>
1

> <s_lp_Variant>
CHEMBL204_lig4350-1

> <s_i_glide_gridfile>
glide-grid_1ype

> <i_i_glide_lignum>
6000

> <i_i_glide_rotatable_bonds>
15

> <r_i_docking_score>
-7.63707586346928

> <r_i_glide_ligand_efficiency>
-0.200975680617613

> <r_i_glide_ligand_efficiency_sa>
-0.675675294781821

> <r_i_glide_ligand_efficiency_ln>
-1.64677821617439

> <r_i_glide_gscore>
-7.63707586346928

> <r_i_glide_lipo>
-2.41276757937839

> <r_i_glide_hbond>
-0.0923144479800225

> <r_i_glide_metal>
0

> <r_i_glide_rewards>
-0.618999265325821

> <r_i_glide_evdw>
-43.0453720092773

> <r_i_glide_ecoul>
-19.8062286376953

> <r_i_glide_erotb>
0.686889658846971

> <r_i_glide_esite>
-0.0766813335138511

> <r_i_glide_emodel>
-87.5564910798864

> <r_i_glide_energy>
-62.8516006469727

> <r_i_glide_einternal>
15.2640686035156

> <i_i_glide_confnum>
195

> <i_i_glide_posenum>
107

> <r_i_glide_eff_state_penalty>
0

> <s_user_duplicate_titles>
CHEMBL204_lig4350,384878

> <i_f3d_flags>
0

> <s_m_subgroup_title>
dock_pv

> <s_m_subgroupid>
dock_pv

> <b_m_subgroup_collapsed>
1

$$$$
CHEMBL204_lig944
                    3D
 Schrodinger Suite 2021-1.
 46 48  0  0  1  0            999 V2000
   16.4149  -12.4937   21.0205 N   0  0  0  0  0  0
   17.6387  -12.9653   21.3700 C   0  0  0  0  0  0
   16.2454  -11.9506   19.7847 C   0  0  0  0  0  0
   19.1009  -14.6753   24.4250 C   0  0  0  0  0  0
   18.1686  -15.6024   24.7704 C   0  0  0  0  0  0
   18.7684  -12.8848   20.5015 C   0  0  0  0  0  0
   11.2346  -10.7788   23.6556 C   0  0  0  0  0  0
   19.0056  -14.0411   23.0873 C   0  0  0  0  0  0
   18.5621  -12.3070   19.2110 C   0  0  0  0  0  0
   17.7731  -13.5580   22.6415 C   0  0  0  0  0  0
   18.0418  -16.2857   26.0344 C   0  0  0  0  0  0
   17.2855  -11.8540   18.8632 C   0  0  0  0  0  0
   20.0134  -13.3884   20.9697 C   0  0  0  0  0  0
   12.1662  -10.9568   22.5000 C   0  0  0  0  0  0
   11.2161   -9.7096   24.3209 N   0  0  0  0  0  0
   14.9982  -11.4524   19.4438 O   0  0  0  0  0  0
   20.1152  -13.9504   22.2415 C   0  0  0  0  0  0
   18.4157  -15.8565   27.1214 O   0  0  0  0  0  0
   12.2045  -12.1364   21.7284 C   0  0  0  0  0  0
   13.0612   -9.9271   22.1512 C   0  0  0  0  0  0
   10.4245  -11.8530   23.9209 N   0  0  0  0  0  0
   14.0266  -11.2761   20.4048 C   0  0  0  0  0  0
   17.3958  -17.4759   25.8830 O   0  0  0  0  0  0
   13.1213  -12.2940   20.6911 C   0  0  0  0  0  0
   13.9832  -10.0839   21.1210 C   0  0  0  0  0  0
   20.2432  -14.1712   25.3122 C   0  0  0  0  0  0
   19.7217  -12.1782   18.2330 C   0  0  0  0  0  0
   17.4130  -15.8771   24.0480 H   0  0  0  0  0  0
   16.8997  -13.6228   23.2759 H   0  0  0  0  0  0
   17.0960  -11.4135   17.8961 H   0  0  0  0  0  0
   20.8899  -13.3447   20.3396 H   0  0  0  0  0  0
   10.4943   -9.7546   25.0316 H   0  0  0  0  0  0
   21.0727  -14.3382   22.5573 H   0  0  0  0  0  0
   11.5349  -12.9607   21.9272 H   0  0  0  0  0  0
   13.0730   -8.9979   22.7043 H   0  0  0  0  0  0
    9.6644  -11.7565   24.5952 H   0  0  0  0  0  0
   10.5769  -12.7715   23.5209 H   0  0  0  0  0  0
   17.1902  -17.6539   24.9653 H   0  0  0  0  0  0
   13.1521  -13.2173   20.1320 H   0  0  0  0  0  0
   14.6879   -9.2950   20.9017 H   0  0  0  0  0  0
   21.2054  -14.2699   24.8120 H   0  0  0  0  0  0
   20.0869  -13.1189   25.5526 H   0  0  0  0  0  0
   20.3407  -14.7014   26.2560 H   0  0  0  0  0  0
   19.3862  -11.8534   17.2480 H   0  0  0  0  0  0
   20.4483  -11.4547   18.6047 H   0  0  0  0  0  0
   20.2339  -13.1313   18.1075 H   0  0  0  0  0  0
  1  2  1  0  0  0
  1  3  2  0  0  0
  2  6  1  0  0  0
  2 10  2  0  0  0
  3 12  1  0  0  0
  3 16  1  0  0  0
  4  8  1  0  0  0
  4  5  2  0  0  0
  4 26  1  0  0  0
  5 11  1  0  0  0
  5 28  1  0  0  0
  6 13  2  0  0  0
  6  9  1  0  0  0
  7 14  1  0  0  0
  7 15  2  0  0  0
  7 21  1  0  0  0
  8 10  1  0  0  0
  8 17  2  0  0  0
  9 12  2  0  0  0
  9 27  1  0  0  0
 10 29  1  0  0  0
 11 18  2  0  0  0
 11 23  1  0  0  0
 12 30  1  0  0  0
 13 17  1  0  0  0
 13 31  1  0  0  0
 14 20  1  0  0  0
 14 19  2  0  0  0
 15 32  1  0  0  0
 16 22  1  0  0  0
 17 33  1  0  0  0
 19 24  1  0  0  0
 19 34  1  0  0  0
 20 25  2  0  0  0
 20 35  1  0  0  0
 21 36  1  0  0  0
 21 37  1  0  0  0
 22 24  2  0  0  0
 22 25  1  0  0  0
 23 38  1  0  0  0
 24 39  1  0  0  0
 25 40  1  0  0  0
 26 41  1  0  0  0
 26 42  1  0  0  0
 26 43  1  0  0  0
 27 44  1  0  0  0
 27 45  1  0  0  0
 27 46  1  0  0  0
M  END
> <s_m_entry_id>
35263

> <s_m_entry_name>
dock_pv.113

> <s_m_Source_Path>
/home/csk/Desktop/cluster/DUD-E-result/thrb

> <s_m_Source_File>
dock_pv.maegz

> <i_m_Source_File_Index>
113

> <chembl_id>
CHEMBL308517

> <chembl_pref_name>
None

> <i_lp_mmshare_version>
53161

> <r_lp_tautomer_probability>
1

> <s_lp_Force_Field>
OPLS_2005

> <r_lp_Energy>
21.453396

> <b_lp_Chiralities_Consistent>
1

> <s_lp_Variant>
CHEMBL204_lig944-1

> <s_i_glide_gridfile>
glide-grid_1ype

> <i_i_glide_lignum>
1488

> <i_i_glide_rotatable_bonds>
6

> <r_i_docking_score>
-7.63590051897321

> <r_i_glide_ligand_efficiency>
-0.282811130332341

> <r_i_glide_ligand_efficiency_sa>
-0.848433390064924

> <r_i_glide_ligand_efficiency_ln>
-1.77751175315825

> <r_i_glide_gscore>
-7.63590051897321

> <r_i_glide_lipo>
-3.17171496649071

> <r_i_glide_hbond>
-0.522785957650645

> <r_i_glide_metal>
0

> <r_i_glide_rewards>
-1.23859465741637

> <r_i_glide_evdw>
-40.8917694091797

> <r_i_glide_ecoul>
-7.42311859130859

> <r_i_glide_erotb>
0.587724093938396

> <r_i_glide_esite>
-0.132472772198609

> <r_i_glide_emodel>
-69.609237062892

> <r_i_glide_energy>
-48.3148880004883

> <r_i_glide_einternal>
3.5055046081543

> <i_i_glide_confnum>
10

> <i_i_glide_posenum>
296

> <r_i_glide_eff_state_penalty>
0

> <s_user_duplicate_titles>
CHEMBL204_lig944,118627

> <i_f3d_flags>
0

> <s_m_subgroup_title>
dock_pv

> <s_m_subgroupid>
dock_pv

> <b_m_subgroup_collapsed>
1

$$$$
CHEMBL204_lig3456
                    3D
 Schrodinger Suite 2021-1.
 44 46  0  0  1  0            999 V2000
   18.5673  -13.9648   22.8869 C   0  0  0  0  0  0
   20.0266  -13.9518   21.9091 S   0  0  0  0  0  0
   18.8385  -13.9534   24.2462 C   0  0  0  0  0  0
   21.0192  -13.9090   23.3531 C   0  0  0  0  0  0
   17.2763  -13.8363   22.2580 C   0  0  0  0  0  0
   20.2310  -13.9237   24.5411 C   0  0  0  0  0  0
   11.6004  -10.8032   23.5210 C   0  0  0  0  0  0
   12.4555  -11.0805   22.3439 C   0  0  0  0  0  0
   22.4165  -13.8529   23.4009 C   0  0  0  0  0  0
   12.5425  -12.3483   21.7352 C   0  0  0  0  0  0
   13.3278  -12.5722   20.6007 C   0  0  0  0  0  0
   11.6115   -9.6763   24.0840 N   0  0  0  0  0  0
   14.0210  -11.4938   20.0364 C   0  0  0  0  0  0
   16.4318  -13.0531   22.6952 O   0  0  0  0  0  0
   13.2368  -10.0505   21.8024 C   0  0  0  0  0  0
   20.8944  -13.8985   25.7810 C   0  0  0  0  0  0
   14.0158  -10.2587   20.6773 C   0  0  0  0  0  0
   17.1058  -14.5832   21.1495 N   0  0  0  0  0  0
   23.0397  -13.8253   24.6418 C   0  0  0  0  0  0
   10.8118  -11.8530   23.9214 N   0  0  0  0  0  0
   22.2901  -13.8595   25.8147 C   0  0  0  0  0  0
   24.7620  -13.7297   24.7210 Cl  0  0  0  0  0  0
   14.7048  -11.6166   18.8560 O   0  0  0  0  0  0
   13.4450  -13.9991   20.0604 C   0  0  0  0  0  0
   16.0033  -14.4247   20.2045 C   0  0  0  0  0  0
   14.5935  -14.7906   20.7332 C   0  0  0  0  0  0
   18.0713  -13.9379   25.0072 H   0  0  0  0  0  0
   22.9956  -13.8133   22.4932 H   0  0  0  0  0  0
   12.0112  -13.1920   22.1515 H   0  0  0  0  0  0
   10.9452   -9.6543   24.8423 H   0  0  0  0  0  0
   13.2506   -9.0635   22.2464 H   0  0  0  0  0  0
   20.3323  -13.9095   26.7021 H   0  0  0  0  0  0
   14.6135   -9.4397   20.3212 H   0  0  0  0  0  0
   17.7897  -15.2965   20.9471 H   0  0  0  0  0  0
   10.0787  -11.6885   24.6022 H   0  0  0  0  0  0
   10.8628  -12.7820   23.5201 H   0  0  0  0  0  0
   22.8017  -13.8526   26.7659 H   0  0  0  0  0  0
   14.6313  -12.4978   18.4855 H   0  0  0  0  0  0
   12.5024  -14.5136   20.2597 H   0  0  0  0  0  0
   13.5306  -14.0063   18.9723 H   0  0  0  0  0  0
   16.2160  -14.9904   19.2964 H   0  0  0  0  0  0
   16.0450  -13.3817   19.9038 H   0  0  0  0  0  0
   14.5313  -14.6579   21.8159 H   0  0  0  0  0  0
   14.4375  -15.8574   20.5745 H   0  0  0  0  0  0
  1  2  1  0  0  0
  1  3  2  0  0  0
  1  5  1  0  0  0
  2  4  1  0  0  0
  3  6  1  0  0  0
  3 27  1  0  0  0
  4  9  1  0  0  0
  4  6  2  0  0  0
  5 14  2  0  0  0
  5 18  1  0  0  0
  6 16  1  0  0  0
  7  8  1  0  0  0
  7 12  2  0  0  0
  7 20  1  0  0  0
  8 10  1  0  0  0
  8 15  2  0  0  0
  9 19  2  0  0  0
  9 28  1  0  0  0
 10 11  2  0  0  0
 10 29  1  0  0  0
 11 24  1  0  0  0
 11 13  1  0  0  0
 12 30  1  0  0  0
 13 17  2  0  0  0
 13 23  1  0  0  0
 15 17  1  0  0  0
 15 31  1  0  0  0
 16 21  2  0  0  0
 16 32  1  0  0  0
 17 33  1  0  0  0
 18 25  1  0  0  0
 18 34  1  0  0  0
 19 22  1  0  0  0
 19 21  1  0  0  0
 20 35  1  0  0  0
 20 36  1  0  0  0
 21 37  1  0  0  0
 23 38  1  0  0  0
 24 26  1  0  0  0
 24 39  1  0  0  0
 24 40  1  0  0  0
 25 26  1  0  0  0
 25 41  1  0  0  0
 25 42  1  0  0  0
 26 43  1  0  0  0
 26 44  1  0  0  0
M  END
> <s_m_entry_id>
35264

> <s_m_entry_name>
dock_pv.114

> <s_m_Source_Path>
/home/csk/Desktop/cluster/DUD-E-result/thrb

> <s_m_Source_File>
dock_pv.maegz

> <i_m_Source_File_Index>
114

> <chembl_id>
CHEMBL70660

> <chembl_pref_name>
None

> <i_lp_mmshare_version>
53161

> <r_lp_tautomer_probability>
1

> <s_lp_Force_Field>
OPLS_2005

> <r_lp_Energy>
7.369855

> <b_lp_Chiralities_Consistent>
1

> <s_lp_Variant>
CHEMBL204_lig3456-1

> <s_i_glide_gridfile>
glide-grid_1ype

> <i_i_glide_lignum>
4811

> <i_i_glide_rotatable_bonds>
8

> <r_i_docking_score>
-7.63358716238611

> <r_i_glide_ligand_efficiency>
-0.29359950624562

> <r_i_glide_ligand_efficiency_sa>
-0.869787381994377

> <r_i_glide_ligand_efficiency_ln>
-1.79272289724391

> <r_i_glide_gscore>
-7.63358716238611

> <r_i_glide_lipo>
-3.59967953981469

> <r_i_glide_hbond>
-0.376148360252362

> <r_i_glide_metal>
0

> <r_i_glide_rewards>
-0.981939097000927

> <r_i_glide_evdw>
-41.9494209289551

> <r_i_glide_ecoul>
-7.54104900360107

> <r_i_glide_erotb>
0.647318485122276

> <r_i_glide_esite>
-0.0945102534524979

> <r_i_glide_emodel>
-69.8618396845434

> <r_i_glide_energy>
-49.4904699325562

> <r_i_glide_einternal>
6.04785203933716

> <i_i_glide_confnum>
2

> <i_i_glide_posenum>
306

> <r_i_glide_eff_state_penalty>
0

> <s_user_duplicate_titles>
CHEMBL204_lig3456

> <i_f3d_flags>
0

> <s_m_subgroup_title>
dock_pv

> <s_m_subgroupid>
dock_pv

> <b_m_subgroup_collapsed>
1

$$$$
CHEMBL204_lig4713
                    3D
 Schrodinger Suite 2021-1.
 59 61  0  0  1  0            999 V2000
   16.8153  -15.5689   22.7211 N   0  0  0  0  0  0
   18.0817  -14.8130   22.6846 C   0  0  2  0  0  0
   18.6399  -14.4615   24.0992 C   0  0  0  0  0  0
   18.8618  -15.6911   25.0075 C   0  0  0  0  0  0
   19.1095  -15.2054   26.4539 C   0  0  0  0  0  0
   20.3570  -14.2833   26.5152 C   0  0  0  0  0  0
   20.3399  -13.1546   25.4576 C   0  0  0  0  0  0
   20.0021  -13.7173   24.0630 C   0  0  0  0  0  0
   17.8238  -13.5431   21.8149 C   0  0  0  0  0  0
   16.9034  -12.7822   22.1312 O   0  0  0  0  0  0
   18.6199  -13.3343   20.7327 N   0  0  0  0  0  0
   19.8183  -14.1116   20.4017 C   0  0  0  0  0  0
   20.6155  -13.2443   19.4450 C   0  0  0  0  0  0
   19.5497  -12.4383   18.7379 C   0  0  0  0  0  0
   18.4364  -12.2169   19.7725 C   0  0  1  0  0  0
   17.0683  -12.0862   19.0589 C   0  0  0  0  0  0
   16.8239  -11.0537   18.4361 O   0  0  0  0  0  0
   16.1991  -13.1049   19.1514 N   0  0  0  0  0  0
   14.7917  -13.0151   18.7596 C   0  0  0  0  0  0
   13.9195  -12.4553   19.8810 C   0  0  0  0  0  0
   14.1286  -11.1611   20.3618 C   0  0  0  0  0  0
   13.3714  -10.6770   21.4200 C   0  0  0  0  0  0
   12.3864  -11.4681   22.0341 C   0  0  0  0  0  0
   12.1708  -12.7581   21.5122 C   0  0  0  0  0  0
   12.9216  -13.2446   20.4476 C   0  0  0  0  0  0
   11.6158  -10.9358   23.1926 C   0  0  0  0  0  0
   11.7055   -9.7305   23.5439 N   0  0  0  0  0  0
   10.8159  -11.8530   23.8223 N   0  0  0  0  0  0
   16.1592  -15.1428   23.3751 H   0  0  0  0  0  0
   16.3577  -15.5981   21.8226 H   0  0  0  0  0  0
   18.8010  -15.4791   22.2138 H   0  0  0  0  0  0
   17.8772  -13.8466   24.5727 H   0  0  0  0  0  0
   19.6563  -16.3362   24.6294 H   0  0  0  0  0  0
   17.9714  -16.3211   25.0049 H   0  0  0  0  0  0
   19.2314  -16.0592   27.1207 H   0  0  0  0  0  0
   18.2352  -14.6635   26.8193 H   0  0  0  0  0  0
   21.2451  -14.8935   26.3505 H   0  0  0  0  0  0
   20.4673  -13.8503   27.5117 H   0  0  0  0  0  0
   21.3075  -12.6543   25.4361 H   0  0  0  0  0  0
   19.6161  -12.3911   25.7381 H   0  0  0  0  0  0
   19.9592  -12.8759   23.3714 H   0  0  0  0  0  0
   20.7917  -14.3546   23.6618 H   0  0  0  0  0  0
   20.4332  -14.3615   21.2664 H   0  0  0  0  0  0
   19.5112  -15.0406   19.9213 H   0  0  0  0  0  0
   21.2697  -12.5799   20.0117 H   0  0  0  0  0  0
   21.2195  -13.8329   18.7553 H   0  0  0  0  0  0
   19.9437  -11.5114   18.3221 H   0  0  0  0  0  0
   19.1629  -13.0408   17.9188 H   0  0  0  0  0  0
   18.6298  -11.2920   20.3193 H   0  0  0  0  0  0
   16.4589  -13.9065   19.7049 H   0  0  0  0  0  0
   14.6671  -12.3783   17.8807 H   0  0  0  0  0  0
   14.4482  -14.0094   18.4668 H   0  0  0  0  0  0
   14.8981  -10.5319   19.9419 H   0  0  0  0  0  0
   13.5803   -9.6778   21.7780 H   0  0  0  0  0  0
   11.4142  -13.4122   21.9209 H   0  0  0  0  0  0
   12.7327  -14.2443   20.0840 H   0  0  0  0  0  0
   11.1001   -9.5458   24.3311 H   0  0  0  0  0  0
   10.1285  -11.5550   24.5067 H   0  0  0  0  0  0
   10.8133  -12.8321   23.5551 H   0  0  0  0  0  0
  1  2  1  0  0  0
  1 29  1  0  0  0
  1 30  1  0  0  0
  2  3  1  0  0  0
  2  9  1  0  0  0
  2 31  1  0  0  0
  3  4  1  0  0  0
  3  8  1  0  0  0
  3 32  1  0  0  0
  4  5  1  0  0  0
  4 33  1  0  0  0
  4 34  1  0  0  0
  5  6  1  0  0  0
  5 35  1  0  0  0
  5 36  1  0  0  0
  6  7  1  0  0  0
  6 37  1  0  0  0
  6 38  1  0  0  0
  7  8  1  0  0  0
  7 39  1  0  0  0
  7 40  1  0  0  0
  8 41  1  0  0  0
  8 42  1  0  0  0
  9 10  2  0  0  0
  9 11  1  0  0  0
 11 12  1  0  0  0
 11 15  1  0  0  0
 12 13  1  0  0  0
 12 43  1  0  0  0
 12 44  1  0  0  0
 13 14  1  0  0  0
 13 45  1  0  0  0
 13 46  1  0  0  0
 14 15  1  0  0  0
 14 47  1  0  0  0
 14 48  1  0  0  0
 15 16  1  0  0  0
 15 49  1  0  0  0
 16 17  2  0  0  0
 16 18  1  0  0  0
 18 19  1  0  0  0
 18 50  1  0  0  0
 19 20  1  0  0  0
 19 51  1  0  0  0
 19 52  1  0  0  0
 20 21  2  0  0  0
 20 25  1  0  0  0
 21 22  1  0  0  0
 21 53  1  0  0  0
 22 23  2  0  0  0
 22 54  1  0  0  0
 23 24  1  0  0  0
 23 26  1  0  0  0
 24 25  2  0  0  0
 24 55  1  0  0  0
 25 56  1  0  0  0
 26 27  2  0  0  0
 26 28  1  0  0  0
 27 57  1  0  0  0
 28 58  1  0  0  0
 28 59  1  0  0  0
M  END
> <s_m_entry_id>
35265

> <s_m_entry_name>
dock_pv.115

> <s_m_Source_Path>
/home/csk/Desktop/cluster/DUD-E-result/thrb

> <s_m_Source_File>
dock_pv.maegz

> <i_m_Source_File_Index>
115

> <chembl_id>
CHEMBL598849

> <chembl_pref_name>
None

> <i_lp_mmshare_version>
53161

> <r_lp_tautomer_probability>
1

> <s_lp_Force_Field>
OPLS_2005

> <r_lp_Energy>
27.526909

> <b_lp_Chiralities_Consistent>
1

> <s_lp_Variant>
CHEMBL204_lig4713-1

> <s_i_glide_gridfile>
glide-grid_1ype

> <i_i_glide_lignum>
6454

> <i_i_glide_rotatable_bonds>
8

> <r_i_docking_score>
-7.6234071283639

> <r_i_glide_ligand_efficiency>
-0.272264540298711

> <r_i_glide_ligand_efficiency_sa>
-0.826755499585555

> <r_i_glide_ligand_efficiency_ln>
-1.75970619818583

> <r_i_glide_gscore>
-7.6234071283639

> <r_i_glide_lipo>
-3.24296902869567

> <r_i_glide_hbond>
-0.355600208220191

> <r_i_glide_metal>
0

> <r_i_glide_rewards>
-1.34000950032016

> <r_i_glide_evdw>
-40.9863815307617

> <r_i_glide_ecoul>
-9.64847564697266

> <r_i_glide_erotb>
0.916313661304046

> <r_i_glide_esite>
-0.104551628847946

> <r_i_glide_emodel>
-71.5027493070583

> <r_i_glide_energy>
-50.6348571777344

> <r_i_glide_einternal>
3.39420580863953

> <i_i_glide_confnum>
30

> <i_i_glide_posenum>
385

> <r_i_glide_eff_state_penalty>
0

> <s_user_duplicate_titles>
CHEMBL204_lig4713,CHEMBL204_lig5023,596747

> <i_f3d_flags>
0

> <s_m_subgroup_title>
dock_pv

> <s_m_subgroupid>
dock_pv

> <b_m_subgroup_collapsed>
1

$$$$
CHEMBL204_lig4165
                    3D
 Schrodinger Suite 2021-1.
 54 58  0  0  1  0            999 V2000
   17.0427  -12.8515   21.3110 C   0  0  0  0  0  0
   15.7630  -12.4198   21.5211 N   0  0  0  0  0  0
   12.7187  -12.9026   20.9626 N   0  0  0  0  0  0
   12.8168  -12.8748   19.6254 N   0  0  0  0  0  0
   15.6436  -11.3771   20.7212 C   0  0  0  0  0  0
   12.9827  -14.1956   19.2491 N   0  0  0  0  0  0
   12.9773  -15.0189   20.3686 N   0  0  0  0  0  0
   16.7507  -11.0845   19.9731 O   0  0  0  0  0  0
   17.6556  -12.0286   20.3533 C   0  0  0  0  0  0
   12.8160  -14.2076   21.3840 C   0  0  0  0  0  0
   17.7963  -13.9075   21.8555 C   0  0  0  0  0  0
   12.5231  -11.7409   21.7395 C   0  0  0  0  0  0
   13.3111  -10.5753   21.5943 C   0  0  0  0  0  0
   14.4528  -10.4403   20.5753 C   0  0  0  0  0  0
   19.0835  -14.1149   21.4490 N   0  0  0  0  0  0
   20.7858  -14.6970   24.0635 N   0  0  2  0  0  0
   17.2161  -14.7518   22.8170 N   0  0  0  0  0  0
   18.9744  -12.2151   19.9280 C   0  0  0  0  0  0
   19.6426  -13.2905   20.5217 C   0  0  0  0  0  0
   19.6429  -14.2478   24.8676 C   0  0  1  0  0  0
   17.9658  -15.7679   23.5534 C   0  0  0  0  0  0
   18.4978  -15.2840   24.9187 C   0  0  0  0  0  0
   13.0278   -9.4712   22.4130 C   0  0  0  0  0  0
   11.5090  -11.7774   22.7042 C   0  0  0  0  0  0
   21.9032  -13.7528   24.0213 C   0  0  0  0  0  0
   20.0907  -13.8542   26.2963 C   0  0  0  0  0  0
   12.0167   -9.5249   23.3720 C   0  0  0  0  0  0
   22.3992  -13.3921   25.4341 C   0  0  0  0  0  0
   11.2566  -10.6778   23.5197 C   0  0  0  0  0  0
   21.2557  -12.8536   26.3047 C   0  0  0  0  0  0
   12.7540  -14.4598   22.4308 H   0  0  0  0  0  0
   14.8396   -9.4225   20.6309 H   0  0  0  0  0  0
   14.0330  -10.5306   19.5739 H   0  0  0  0  0  0
   20.4579  -14.8472   23.1164 H   0  0  0  0  0  0
   16.2955  -14.5142   23.1740 H   0  0  0  0  0  0
   19.4451  -11.5766   19.1986 H   0  0  0  0  0  0
   20.6645  -13.5144   20.2548 H   0  0  0  0  0  0
   19.2629  -13.3555   24.3637 H   0  0  0  0  0  0
   18.7923  -16.1321   22.9440 H   0  0  0  0  0  0
   17.3240  -16.6380   23.6911 H   0  0  0  0  0  0
   18.8404  -16.1572   25.4772 H   0  0  0  0  0  0
   17.6654  -14.8710   25.4930 H   0  0  0  0  0  0
   13.6070   -8.5645   22.3270 H   0  0  0  0  0  0
   10.8857  -12.6529   22.8112 H   0  0  0  0  0  0
   22.7123  -14.1936   23.4376 H   0  0  0  0  0  0
   21.5767  -12.8569   23.4932 H   0  0  0  0  0  0
   20.4148  -14.7534   26.8201 H   0  0  0  0  0  0
   19.2513  -13.4529   26.8616 H   0  0  0  0  0  0
   11.8249   -8.6700   24.0033 H   0  0  0  0  0  0
   22.8661  -14.2636   25.8962 H   0  0  0  0  0  0
   23.1949  -12.6529   25.3626 H   0  0  0  0  0  0
   10.4580  -10.7171   24.2483 H   0  0  0  0  0  0
   21.6056  -12.6825   27.3222 H   0  0  0  0  0  0
   20.9214  -11.8848   25.9272 H   0  0  0  0  0  0
  1  2  1  0  0  0
  1  9  2  0  0  0
  1 11  1  0  0  0
  2  5  2  0  0  0
  3 12  1  0  0  0
  3  4  1  0  0  0
  3 10  1  0  0  0
  4  6  2  0  0  0
  5 14  1  0  0  0
  5  8  1  0  0  0
  6  7  1  0  0  0
  7 10  2  0  0  0
  8  9  1  0  0  0
  9 18  1  0  0  0
 10 31  1  0  0  0
 11 15  2  0  0  0
 11 17  1  0  0  0
 12 13  1  0  0  0
 12 24  2  0  0  0
 13 14  1  0  0  0
 13 23  2  0  0  0
 14 32  1  0  0  0
 14 33  1  0  0  0
 15 19  1  0  0  0
 16 20  1  0  0  0
 16 25  1  0  0  0
 16 34  1  0  0  0
 17 21  1  0  0  0
 17 35  1  0  0  0
 18 19  2  0  0  0
 18 36  1  0  0  0
 19 37  1  0  0  0
 20 22  1  0  0  0
 20 26  1  0  0  0
 20 38  1  0  0  0
 21 22  1  0  0  0
 21 39  1  0  0  0
 21 40  1  0  0  0
 22 41  1  0  0  0
 22 42  1  0  0  0
 23 27  1  0  0  0
 23 43  1  0  0  0
 24 29  1  0  0  0
 24 44  1  0  0  0
 25 28  1  0  0  0
 25 45  1  0  0  0
 25 46  1  0  0  0
 26 30  1  0  0  0
 26 47  1  0  0  0
 26 48  1  0  0  0
 27 29  2  0  0  0
 27 49  1  0  0  0
 28 30  1  0  0  0
 28 50  1  0  0  0
 28 51  1  0  0  0
 29 52  1  0  0  0
 30 53  1  0  0  0
 30 54  1  0  0  0
M  END
> <s_m_entry_id>
35266

> <s_m_entry_name>
dock_pv.116

> <s_m_Source_Path>
/home/csk/Desktop/cluster/DUD-E-result/thrb

> <s_m_Source_File>
dock_pv.maegz

> <i_m_Source_File_Index>
116

> <chembl_id>
CHEMBL194486

> <chembl_pref_name>
None

> <i_lp_mmshare_version>
53161

> <r_lp_tautomer_probability>
1

> <s_lp_Force_Field>
OPLS_2005

> <r_lp_Energy>
33.341974

> <b_lp_Chiralities_Consistent>
1

> <s_lp_Variant>
CHEMBL204_lig4165-2

> <s_i_glide_gridfile>
glide-grid_1ype

> <i_i_glide_lignum>
5788

> <i_i_glide_rotatable_bonds>
7

> <r_i_docking_score>
-7.61886650301988

> <r_i_glide_ligand_efficiency>
-0.253962216767329

> <r_i_glide_ligand_efficiency_sa>
-0.789119654328895

> <r_i_glide_ligand_efficiency_ln>
-1.73108948368558

> <r_i_glide_gscore>
-7.61886650301988

> <r_i_glide_lipo>
-3.97633376071533

> <r_i_glide_hbond>
-0.32

> <r_i_glide_metal>
0

> <r_i_glide_rewards>
-0.942990993861729

> <r_i_glide_evdw>
-49.0234756469727

> <r_i_glide_ecoul>
-4.24204778671265

> <r_i_glide_erotb>
0.720442030245531

> <r_i_glide_esite>
-0.0125028283328188

> <r_i_glide_emodel>
-77.1151412907947

> <r_i_glide_energy>
-53.2655234336853

> <r_i_glide_einternal>
1.58082187175751

> <i_i_glide_confnum>
46

> <i_i_glide_posenum>
362

> <r_i_glide_eff_state_penalty>
0

> <s_user_duplicate_titles>
CHEMBL204_lig4165,329968

> <i_f3d_flags>
0

> <s_m_subgroup_title>
dock_pv

> <s_m_subgroupid>
dock_pv

> <b_m_subgroup_collapsed>
1

$$$$
CHEMBL204_lig150
                    3D
 Schrodinger Suite 2021-1.
 58 61  0  0  1  0            999 V2000
   21.0217  -13.8356   25.1488 S   0  0  0  0  0  0
   16.5128  -13.0523   22.3687 O   0  0  0  0  0  0
   22.4333  -13.4531   25.2711 O   0  0  0  0  0  0
   20.0165  -13.1519   25.9673 O   0  0  0  0  0  0
   15.5066  -11.8526   18.4051 O   0  0  0  0  0  0
   13.2160   -8.2533   23.4361 O   0  0  0  0  0  0
   11.5526   -9.1447   24.6908 O   0  0  0  0  0  0
   19.4222  -12.7370   19.4597 N   0  0  0  0  0  0
   20.8683  -15.6047   25.3798 N   0  0  0  0  0  0
   14.6976  -12.3943   20.4263 N   0  0  0  0  0  0
   18.8183  -13.1389   21.7822 C   0  0  0  0  0  0
   19.8145  -13.0476   20.7852 C   0  0  0  0  0  0
   20.5560  -13.5641   23.4416 C   0  0  0  0  0  0
   17.3561  -12.9316   21.4754 C   0  0  0  0  0  0
   17.0554  -12.5606   20.0573 C   0  0  0  0  0  0
   19.2114  -13.4100   23.1031 C   0  0  0  0  0  0
   21.1597  -13.2358   21.1313 C   0  0  0  0  0  0
   18.0883  -12.4945   19.1742 C   0  0  0  0  0  0
   21.5297  -13.4900   22.4489 C   0  0  0  0  0  0
   15.7115  -12.2450   19.5557 C   0  0  0  0  0  0
   20.4030  -12.6526   18.3752 C   0  0  0  0  0  0
   12.7844   -9.4049   22.8601 C   0  0  0  0  0  0
   11.7941   -9.9477   23.6251 C   0  0  0  0  0  0
   12.7265  -11.3017   21.3969 C   0  0  0  0  0  0
   21.9306  -16.4742   24.7953 C   0  0  0  0  0  0
   19.4983  -16.2041   25.3152 C   0  0  0  0  0  0
   13.2864  -12.0787   20.2134 C   0  0  0  0  0  0
   13.2733  -10.0485   21.7293 C   0  0  0  0  0  0
   11.2162  -11.1720   23.3159 C   0  0  0  0  0  0
   11.6921  -11.8501   22.1839 C   0  0  0  0  0  0
   12.3590   -8.0125   24.5227 C   0  0  0  0  0  0
   23.3292  -16.2663   25.4009 C   0  0  0  0  0  0
   18.5005  -15.6623   26.3530 C   0  0  0  0  0  0
   14.9338  -12.7719   21.3346 H   0  0  0  0  0  0
   18.4725  -13.4659   23.8915 H   0  0  0  0  0  0
   21.9401  -13.1583   20.3916 H   0  0  0  0  0  0
   17.9124  -12.2341   18.1380 H   0  0  0  0  0  0
   22.5733  -13.6070   22.6994 H   0  0  0  0  0  0
   21.1156  -11.8494   18.5657 H   0  0  0  0  0  0
   20.9594  -13.5865   18.2962 H   0  0  0  0  0  0
   19.9455  -12.4683   17.4032 H   0  0  0  0  0  0
   21.6522  -17.5162   24.9611 H   0  0  0  0  0  0
   21.9479  -16.3382   23.7136 H   0  0  0  0  0  0
   19.1035  -16.0795   24.3061 H   0  0  0  0  0  0
   19.5894  -17.2803   25.4768 H   0  0  0  0  0  0
   12.7383  -13.0107   20.0663 H   0  0  0  0  0  0
   13.1311  -11.4944   19.3037 H   0  0  0  0  0  0
   14.0821   -9.6267   21.1499 H   0  0  0  0  0  0
   10.4250  -11.5933   23.9225 H   0  0  0  0  0  0
   11.2609  -12.8120   21.9386 H   0  0  0  0  0  0
   12.9456   -7.8530   25.4271 H   0  0  0  0  0  0
   11.7213   -7.1492   24.3192 H   0  0  0  0  0  0
   23.9807  -17.1045   25.1479 H   0  0  0  0  0  0
   23.8181  -15.3750   25.0134 H   0  0  0  0  0  0
   23.2937  -16.1949   26.4877 H   0  0  0  0  0  0
   17.6178  -16.3009   26.3958 H   0  0  0  0  0  0
   18.9314  -15.6385   27.3536 H   0  0  0  0  0  0
   18.1372  -14.6669   26.1088 H   0  0  0  0  0  0
  1  3  2  0  0  0
  1  4  2  0  0  0
  1  9  1  0  0  0
  1 13  1  0  0  0
  2 14  2  0  0  0
  5 20  2  0  0  0
  6 22  1  0  0  0
  6 31  1  0  0  0
  7 23  1  0  0  0
  7 31  1  0  0  0
  8 12  1  0  0  0
  8 18  1  0  0  0
  8 21  1  0  0  0
  9 25  1  0  0  0
  9 26  1  0  0  0
 10 20  1  0  0  0
 10 27  1  0  0  0
 10 34  1  0  0  0
 11 12  1  0  0  0
 11 14  1  0  0  0
 11 16  2  0  0  0
 12 17  2  0  0  0
 13 16  1  0  0  0
 13 19  2  0  0  0
 14 15  1  0  0  0
 15 18  2  0  0  0
 15 20  1  0  0  0
 16 35  1  0  0  0
 17 19  1  0  0  0
 17 36  1  0  0  0
 18 37  1  0  0  0
 19 38  1  0  0  0
 21 39  1  0  0  0
 21 40  1  0  0  0
 21 41  1  0  0  0
 22 23  1  0  0  0
 22 28  2  0  0  0
 23 29  2  0  0  0
 24 27  1  0  0  0
 24 28  1  0  0  0
 24 30  2  0  0  0
 25 32  1  0  0  0
 25 42  1  0  0  0
 25 43  1  0  0  0
 26 33  1  0  0  0
 26 44  1  0  0  0
 26 45  1  0  0  0
 27 46  1  0  0  0
 27 47  1  0  0  0
 28 48  1  0  0  0
 29 30  1  0  0  0
 29 49  1  0  0  0
 30 50  1  0  0  0
 31 51  1  0  0  0
 31 52  1  0  0  0
 32 53  1  0  0  0
 32 54  1  0  0  0
 32 55  1  0  0  0
 33 56  1  0  0  0
 33 57  1  0  0  0
 33 58  1  0  0  0
M  END
> <s_m_entry_id>
35267

> <s_m_entry_name>
dock_pv.117

> <s_m_Source_Path>
/home/csk/Desktop/cluster/DUD-E-result/thrb

> <s_m_Source_File>
dock_pv.maegz

> <i_m_Source_File_Index>
117

> <chembl_id>
CHEMBL1386363

> <chembl_pref_name>
None

> <i_lp_mmshare_version>
53161

> <r_lp_tautomer_probability>
1

> <s_lp_Force_Field>
OPLS_2005

> <r_lp_Energy>
23.941027

> <b_lp_Chiralities_Consistent>
1

> <s_lp_Variant>
CHEMBL204_lig150-1

> <s_i_glide_gridfile>
glide-grid_1ype

> <i_i_glide_lignum>
174

> <i_i_glide_rotatable_bonds>
8

> <r_i_docking_score>
-7.61702085716567

> <r_i_glide_ligand_efficiency>
-0.230818813853505

> <r_i_glide_ligand_efficiency_sa>
-0.740359268581143

> <r_i_glide_ligand_efficiency_ln>
-1.69398599981037

> <r_i_glide_gscore>
-7.61702085716567

> <r_i_glide_lipo>
-3.50090853932092

> <r_i_glide_hbond>
-0.171894971622362

> <r_i_glide_metal>
0

> <r_i_glide_rewards>
-1.44959714515574

> <r_i_glide_evdw>
-54.443115234375

> <r_i_glide_ecoul>
-1.51350593566895

> <r_i_glide_erotb>
0.454561451002448

> <r_i_glide_esite>
0

> <r_i_glide_emodel>
-80.7807509653224

> <r_i_glide_energy>
-55.9566211700439

> <r_i_glide_einternal>
2.82022619247437

> <i_i_glide_confnum>
1

> <i_i_glide_posenum>
157

> <r_i_glide_eff_state_penalty>
0

> <s_user_duplicate_titles>
CHEMBL204_lig150

> <i_f3d_flags>
0

> <s_m_subgroup_title>
dock_pv

> <s_m_subgroupid>
dock_pv

> <b_m_subgroup_collapsed>
1

$$$$
CHEMBL204_lig329
                    3D
 Schrodinger Suite 2021-1.
 61 64  0  0  1  0            999 V2000
   18.8304  -13.1914   20.2521 N   0  0  0  0  0  0
   17.7291  -13.7508   20.8184 C   0  0  0  0  0  0
   16.5599  -12.8275   21.2668 C   0  0  1  0  0  0
   20.0652  -13.9574   20.0088 C   0  0  2  0  0  0
   20.7977  -14.2768   21.3212 C   0  0  0  0  0  0
   15.2174  -13.0790   20.4970 C   0  0  0  0  0  0
   20.4777  -15.4559   21.8808 N   0  0  0  0  0  0
   17.6340  -14.9641   21.0342 O   0  0  0  0  0  0
   21.5726  -13.4543   21.8094 O   0  0  0  0  0  0
   15.3469  -13.0405   18.9633 C   0  0  0  0  0  0
   14.0642  -12.2090   21.0271 C   0  0  0  0  0  0
   16.4170  -13.0531   22.7205 N   0  0  0  0  0  0
   19.0105  -11.8169   19.7911 C   0  0  0  0  0  0
   21.0480  -16.0015   23.1118 C   0  0  0  0  0  0
   21.0937  -15.0420   24.2981 C   0  0  0  0  0  0
   20.8809  -13.0873   19.0268 C   0  0  0  0  0  0
   19.9596  -11.9587   18.6099 C   0  0  0  0  0  0
   14.1934  -10.8158   21.1190 C   0  0  0  0  0  0
   15.7299  -11.8685   18.3021 C   0  0  0  0  0  0
   15.0956  -14.1975   18.2156 C   0  0  0  0  0  0
   12.8863  -12.8209   21.4730 C   0  0  0  0  0  0
   19.9781  -14.2650   24.6334 C   0  0  0  0  0  0
   22.2909  -14.8875   24.9972 C   0  0  0  0  0  0
   15.8613  -11.8513   16.9162 C   0  0  0  0  0  0
   15.2251  -14.1820   16.8297 C   0  0  0  0  0  0
   13.1617  -10.0482   21.6507 C   0  0  0  0  0  0
   11.8563  -12.0531   22.0078 C   0  0  0  0  0  0
   20.0720  -13.3178   25.6487 C   0  0  0  0  0  0
   22.3792  -13.9487   26.0153 C   0  0  0  0  0  0
   12.0003  -10.6711   22.0972 C   0  0  0  0  0  0
   15.6137  -13.0104   16.1867 C   0  0  0  0  0  0
   21.2740  -13.1605   26.3326 C   0  0  0  0  0  0
   16.8407  -11.7840   21.1485 H   0  0  0  0  0  0
   19.8108  -14.8943   19.5217 H   0  0  0  0  0  0
   14.9442  -14.1084   20.7426 H   0  0  0  0  0  0
   19.7904  -16.0281   21.4099 H   0  0  0  0  0  0
   15.7490  -13.7968   22.9209 H   0  0  0  0  0  0
   17.2968  -13.3554   23.1195 H   0  0  0  0  0  0
   18.0994  -11.3160   19.4763 H   0  0  0  0  0  0
   19.4622  -11.2303   20.5926 H   0  0  0  0  0  0
   20.4434  -16.8627   23.3992 H   0  0  0  0  0  0
   22.0422  -16.3910   22.8828 H   0  0  0  0  0  0
   21.2162  -13.6616   18.1627 H   0  0  0  0  0  0
   21.7719  -12.6615   19.4903 H   0  0  0  0  0  0
   19.3911  -12.2583   17.7273 H   0  0  0  0  0  0
   20.5105  -11.0527   18.3707 H   0  0  0  0  0  0
   15.0988  -10.3197   20.8048 H   0  0  0  0  0  0
   15.9264  -10.9677   18.8588 H   0  0  0  0  0  0
   14.7979  -15.1135   18.7047 H   0  0  0  0  0  0
   12.7658  -13.8933   21.4218 H   0  0  0  0  0  0
   19.0530  -14.3752   24.0872 H   0  0  0  0  0  0
   23.1597  -15.4788   24.7459 H   0  0  0  0  0  0
   16.1495  -10.9428   16.4106 H   0  0  0  0  0  0
   15.0190  -15.0743   16.2549 H   0  0  0  0  0  0
   13.2676   -8.9771   21.7331 H   0  0  0  0  0  0
   10.9505  -12.5301   22.3582 H   0  0  0  0  0  0
   19.2266  -12.6937   25.9026 H   0  0  0  0  0  0
   23.3055  -13.8529   26.5584 H   0  0  0  0  0  0
   11.2012  -10.0809   22.5217 H   0  0  0  0  0  0
   15.7065  -12.9994   15.1106 H   0  0  0  0  0  0
   21.3462  -12.4227   27.1184 H   0  0  0  0  0  0
  1  2  1  0  0  0
  1  4  1  0  0  0
  1 13  1  0  0  0
  2  3  1  0  0  0
  2  8  2  0  0  0
  3  6  1  0  0  0
  3 12  1  0  0  0
  3 33  1  0  0  0
  4  5  1  0  0  0
  4 16  1  0  0  0
  4 34  1  0  0  0
  5  7  1  0  0  0
  5  9  2  0  0  0
  6 10  1  0  0  0
  6 11  1  0  0  0
  6 35  1  0  0  0
  7 14  1  0  0  0
  7 36  1  0  0  0
 10 19  2  0  0  0
 10 20  1  0  0  0
 11 18  1  0  0  0
 11 21  2  0  0  0
 12 37  1  0  0  0
 12 38  1  0  0  0
 13 17  1  0  0  0
 13 39  1  0  0  0
 13 40  1  0  0  0
 14 15  1  0  0  0
 14 41  1  0  0  0
 14 42  1  0  0  0
 15 22  2  0  0  0
 15 23  1  0  0  0
 16 17  1  0  0  0
 16 43  1  0  0  0
 16 44  1  0  0  0
 17 45  1  0  0  0
 17 46  1  0  0  0
 18 26  2  0  0  0
 18 47  1  0  0  0
 19 24  1  0  0  0
 19 48  1  0  0  0
 20 25  2  0  0  0
 20 49  1  0  0  0
 21 27  1  0  0  0
 21 50  1  0  0  0
 22 28  1  0  0  0
 22 51  1  0  0  0
 23 29  2  0  0  0
 23 52  1  0  0  0
 24 31  2  0  0  0
 24 53  1  0  0  0
 25 31  1  0  0  0
 25 54  1  0  0  0
 26 30  1  0  0  0
 26 55  1  0  0  0
 27 30  2  0  0  0
 27 56  1  0  0  0
 28 32  2  0  0  0
 28 57  1  0  0  0
 29 32  1  0  0  0
 29 58  1  0  0  0
 30 59  1  0  0  0
 31 60  1  0  0  0
 32 61  1  0  0  0
M  END
> <s_m_entry_id>
35268

> <s_m_entry_name>
dock_pv.118

> <s_m_Source_Path>
/home/csk/Desktop/cluster/DUD-E-result/thrb

> <s_m_Source_File>
dock_pv.maegz

> <i_m_Source_File_Index>
118

> <chembl_id>
CHEMBL3142667

> <chembl_pref_name>
None

> <i_lp_mmshare_version>
53161

> <r_lp_tautomer_probability>
1

> <s_lp_Force_Field>
OPLS_2005

> <r_lp_Energy>
35.477895

> <b_lp_Chiralities_Consistent>
1

> <s_lp_Variant>
CHEMBL204_lig329-2

> <s_i_glide_gridfile>
glide-grid_1ype

> <i_i_glide_lignum>
422

> <i_i_glide_rotatable_bonds>
9

> <r_i_docking_score>
-7.60838797239805

> <r_i_glide_ligand_efficiency>
-0.237762124137439

> <r_i_glide_ligand_efficiency_sa>
-0.754847691075895

> <r_i_glide_ligand_efficiency_ln>
-1.70372546384306

> <r_i_glide_gscore>
-7.60838797239805

> <r_i_glide_lipo>
-3.63183552541518

> <r_i_glide_hbond>
-0.539492779959993

> <r_i_glide_metal>
0

> <r_i_glide_rewards>
-1.041808160031

> <r_i_glide_evdw>
-43.7088012695312

> <r_i_glide_ecoul>
-7.19217920303345

> <r_i_glide_erotb>
0.869015436939706

> <r_i_glide_esite>
0

> <r_i_glide_emodel>
-70.7026750574073

> <r_i_glide_energy>
-50.9009804725647

> <r_i_glide_einternal>
4.21567010879517

> <i_i_glide_confnum>
85

> <i_i_glide_posenum>
259

> <r_i_glide_eff_state_penalty>
0

> <s_user_duplicate_titles>
CHEMBL204_lig329,1526

> <i_f3d_flags>
0

> <s_m_subgroup_title>
dock_pv

> <s_m_subgroupid>
dock_pv

> <b_m_subgroup_collapsed>
1

$$$$
CHEMBL204_lig4527
                    3D
 Schrodinger Suite 2021-1.
 74 78  0  0  1  0            999 V2000
   18.9220  -11.8721   20.7358 C   0  0  1  0  0  0
   20.0812  -11.5783   19.7688 C   0  0  0  0  0  0
   21.1406  -12.6043   20.0903 C   0  0  0  0  0  0
   17.6074  -12.1420   19.9693 C   0  0  0  0  0  0
   16.5421  -11.4420   20.4098 N   0  0  0  0  0  0
   17.5726  -12.9929   19.0803 O   0  0  0  0  0  0
   15.0894  -11.6342   20.2135 C   0  0  2  0  0  0
   14.7379  -12.2527   18.8539 C   0  0  0  0  0  0
   14.3994  -10.2592   20.4342 C   0  0  0  0  0  0
   13.8046  -10.0620   21.8328 C   0  0  0  0  0  0
   14.9910  -11.6527   17.8045 O   0  0  0  0  0  0
   14.1362  -13.5874   18.8542 C   0  0  0  0  0  0
   12.3462   -9.5898   21.8081 C   0  0  0  0  0  0
   11.6168  -10.2234   22.8775 N   0  0  0  0  0  0
   14.4178  -14.6553   17.4901 S   0  0  0  0  0  0
   13.3738  -14.0767   19.7951 N   0  0  0  0  0  0
   12.8989  -15.3089   19.4842 C   0  0  0  0  0  0
   13.3398  -15.8244   18.2400 C   0  0  0  0  0  0
   12.8993  -17.0682   17.7758 C   0  0  0  0  0  0
   12.0121  -17.7850   18.5795 C   0  0  0  0  0  0
   11.5822  -17.2899   19.8082 C   0  0  0  0  0  0
   12.0226  -16.0547   20.2843 C   0  0  0  0  0  0
   11.2545  -11.5549   22.8639 C   0  0  0  0  0  0
   10.4354  -11.8529   23.9214 N   0  0  0  0  0  0
   11.6189  -12.4009   22.0041 N   0  0  0  0  0  0
   19.3334  -13.0504   21.5399 N   0  0  0  0  0  0
   20.5599  -13.5600   21.0148 N   0  0  2  0  0  0
   21.4314  -13.8901   22.1307 C   0  0  0  0  0  0
   20.8083  -15.1026   22.8212 C   0  0  0  0  0  0
   19.2860  -14.9737   23.1611 C   0  0  1  0  0  0
   18.5777  -13.7632   22.4411 C   0  0  0  0  0  0
   17.4063  -13.4531   22.6879 O   0  0  0  0  0  0
   18.5259  -16.1216   22.6760 N   0  0  0  0  0  0
   19.0712  -14.7855   24.7083 C   0  0  0  0  0  0
   19.1335  -16.0270   25.6130 C   0  0  0  0  0  0
   18.4152  -16.0081   26.8135 C   0  0  0  0  0  0
   18.4188  -17.1146   27.6565 C   0  0  0  0  0  0
   19.1684  -18.2375   27.3153 C   0  0  0  0  0  0
   19.9031  -18.2646   26.1327 C   0  0  0  0  0  0
   19.8870  -17.1627   25.2850 C   0  0  0  0  0  0
   18.7719  -11.0376   21.4234 H   0  0  0  0  0  0
   19.8175  -11.6697   18.7145 H   0  0  0  0  0  0
   20.4894  -10.5885   19.9651 H   0  0  0  0  0  0
   21.4780  -13.1240   19.1952 H   0  0  0  0  0  0
   22.0155  -12.1070   20.5096 H   0  0  0  0  0  0
   16.7420  -10.7914   21.1561 H   0  0  0  0  0  0
   14.7839  -12.3275   20.9985 H   0  0  0  0  0  0
   15.1158   -9.4498   20.3211 H   0  0  0  0  0  0
   13.6209  -10.0880   19.6869 H   0  0  0  0  0  0
   13.8846  -10.9883   22.4027 H   0  0  0  0  0  0
   14.3994   -9.3328   22.3840 H   0  0  0  0  0  0
   12.2730   -8.5102   21.8846 H   0  0  0  0  0  0
   11.8356   -9.8778   20.8890 H   0  0  0  0  0  0
   11.1325   -9.6238   23.5292 H   0  0  0  0  0  0
   13.2142  -17.4446   16.8153 H   0  0  0  0  0  0
   11.6408  -18.7393   18.2397 H   0  0  0  0  0  0
   10.8871  -17.8760   20.3918 H   0  0  0  0  0  0
   11.6731  -15.6654   21.2281 H   0  0  0  0  0  0
   10.4264  -12.8237   24.2012 H   0  0  0  0  0  0
   10.4863  -11.2432   24.7238 H   0  0  0  0  0  0
   11.2285  -13.3117   22.2133 H   0  0  0  0  0  0
   22.4148  -14.1276   21.7414 H   0  0  0  0  0  0
   21.5406  -13.0487   22.8174 H   0  0  0  0  0  0
   21.0086  -15.9821   22.2071 H   0  0  0  0  0  0
   21.3893  -15.2898   23.7234 H   0  0  0  0  0  0
   18.5857  -16.8442   23.3800 H   0  0  0  0  0  0
   17.5477  -15.8537   22.6688 H   0  0  0  0  0  0
   19.7888  -14.0621   25.0940 H   0  0  0  0  0  0
   18.0933  -14.3416   24.9038 H   0  0  0  0  0  0
   17.8445  -15.1354   27.1002 H   0  0  0  0  0  0
   17.8789  -17.0891   28.5907 H   0  0  0  0  0  0
   19.1795  -19.0906   27.9751 H   0  0  0  0  0  0
   20.4825  -19.1389   25.8775 H   0  0  0  0  0  0
   20.4652  -17.2181   24.3762 H   0  0  0  0  0  0
  1  4  1  0  0  0
  1 26  1  0  0  0
  1  2  1  0  0  0
  1 41  1  0  0  0
  2  3  1  0  0  0
  2 42  1  0  0  0
  2 43  1  0  0  0
  3 27  1  0  0  0
  3 44  1  0  0  0
  3 45  1  0  0  0
  4  5  1  0  0  0
  4  6  2  0  0  0
  5  7  1  0  0  0
  5 46  1  0  0  0
  7  8  1  0  0  0
  7  9  1  0  0  0
  7 47  1  0  0  0
  8 12  1  0  0  0
  8 11  2  0  0  0
  9 10  1  0  0  0
  9 48  1  0  0  0
  9 49  1  0  0  0
 10 13  1  0  0  0
 10 50  1  0  0  0
 10 51  1  0  0  0
 12 15  1  0  0  0
 12 16  2  0  0  0
 13 14  1  0  0  0
 13 52  1  0  0  0
 13 53  1  0  0  0
 14 23  1  0  0  0
 14 54  1  0  0  0
 15 18  1  0  0  0
 16 17  1  0  0  0
 17 22  1  0  0  0
 17 18  2  0  0  0
 18 19  1  0  0  0
 19 20  2  0  0  0
 19 55  1  0  0  0
 20 21  1  0  0  0
 20 56  1  0  0  0
 21 22  2  0  0  0
 21 57  1  0  0  0
 22 58  1  0  0  0
 23 24  1  0  0  0
 23 25  2  0  0  0
 24 59  1  0  0  0
 24 60  1  0  0  0
 25 61  1  0  0  0
 26 27  1  0  0  0
 26 31  1  0  0  0
 27 28  1  0  0  0
 28 29  1  0  0  0
 28 62  1  0  0  0
 28 63  1  0  0  0
 29 30  1  0  0  0
 29 64  1  0  0  0
 29 65  1  0  0  0
 30 31  1  0  0  0
 30 33  1  0  0  0
 30 34  1  0  0  0
 31 32  2  0  0  0
 33 66  1  0  0  0
 33 67  1  0  0  0
 34 35  1  0  0  0
 34 68  1  0  0  0
 34 69  1  0  0  0
 35 36  2  0  0  0
 35 40  1  0  0  0
 36 37  1  0  0  0
 36 70  1  0  0  0
 37 38  2  0  0  0
 37 71  1  0  0  0
 38 39  1  0  0  0
 38 72  1  0  0  0
 39 40  2  0  0  0
 39 73  1  0  0  0
 40 74  1  0  0  0
M  END
> <s_m_entry_id>
35269

> <s_m_entry_name>
dock_pv.119

> <s_m_Source_Path>
/home/csk/Desktop/cluster/DUD-E-result/thrb

> <s_m_Source_File>
dock_pv.maegz

> <i_m_Source_File_Index>
119

> <chembl_id>
CHEMBL270225

> <chembl_pref_name>
None

> <i_lp_mmshare_version>
53161

> <r_lp_tautomer_probability>
0.99990000499975

> <s_lp_Force_Field>
OPLS_2005

> <r_lp_Energy>
38.111225

> <b_lp_Chiralities_Consistent>
1

> <s_lp_Variant>
CHEMBL204_lig4527-1

> <s_i_glide_gridfile>
glide-grid_1ype

> <i_i_glide_lignum>
6195

> <i_i_glide_rotatable_bonds>
12

> <r_i_docking_score>
-7.60340735205746

> <r_i_glide_ligand_efficiency>
-0.190085183801436

> <r_i_glide_ligand_efficiency_sa>
-0.650082183440792

> <r_i_glide_ligand_efficiency_ln>
-1.62158302990416

> <r_i_glide_gscore>
-7.60340735205746

> <r_i_glide_lipo>
-3.1473438061488

> <r_i_glide_hbond>
-0.579605447790214

> <r_i_glide_metal>
0

> <r_i_glide_rewards>
-0.860730542223572

> <r_i_glide_evdw>
-47.872730255127

> <r_i_glide_ecoul>
-7.81955528259277

> <r_i_glide_erotb>
0.640365476221364

> <r_i_glide_esite>
-0.0895232269709715

> <r_i_glide_emodel>
-67.7986901864988

> <r_i_glide_energy>
-55.6922855377197

> <r_i_glide_einternal>
26.1090755462646

> <i_i_glide_confnum>
6

> <i_i_glide_posenum>
61

> <r_i_glide_eff_state_penalty>
0

> <s_user_duplicate_titles>
CHEMBL204_lig4527,435019

> <i_f3d_flags>
0

> <s_m_subgroup_title>
dock_pv

> <s_m_subgroupid>
dock_pv

> <b_m_subgroup_collapsed>
1

$$$$
CHEMBL204_lig940
                    3D
 Schrodinger Suite 2021-1.
 48 50  0  0  1  0            999 V2000
   16.9467  -12.5232   21.0104 N   0  0  0  0  0  0
   18.2103  -12.9363   21.3090 C   0  0  0  0  0  0
   16.6827  -12.0839   19.7481 C   0  0  0  0  0  0
   19.2747  -12.8789   20.3549 C   0  0  0  0  0  0
   11.6167  -10.5898   23.5207 C   0  0  0  0  0  0
   18.9717  -12.3740   19.0550 C   0  0  0  0  0  0
   17.6602  -11.9988   18.7612 C   0  0  0  0  0  0
   20.5598  -13.3425   20.7431 C   0  0  0  0  0  0
   21.0368  -13.7615   25.1452 C   0  0  0  0  0  0
   12.5476  -10.8936   22.3931 C   0  0  0  0  0  0
   11.6159   -9.4553   24.0662 N   0  0  0  0  0  0
   18.4627  -13.4536   22.6036 C   0  0  0  0  0  0
   15.3972  -11.6873   19.4229 O   0  0  0  0  0  0
   19.7365  -13.9006   22.9595 C   0  0  0  0  0  0
   20.7437  -13.0418   26.0998 O   0  0  0  0  0  0
   19.9579  -14.5040   24.3478 C   0  0  0  0  0  0
   13.4600   -9.9129   21.9621 C   0  0  0  0  0  0
   12.5921  -12.1479   21.7533 C   0  0  0  0  0  0
   10.8158  -11.6279   23.9206 N   0  0  0  0  0  0
   20.7692  -13.8527   22.0197 C   0  0  0  0  0  0
   14.4537  -11.4400   20.3924 C   0  0  0  0  0  0
   13.5306  -12.4175   20.7578 C   0  0  0  0  0  0
   14.4139  -10.1876   20.9943 C   0  0  0  0  0  0
   22.2819  -14.0181   24.6963 O   0  0  0  0  0  0
   20.0654  -12.2531   18.0033 C   0  0  0  0  0  0
   23.4153  -13.4153   25.2986 C   0  0  0  0  0  0
   24.6015  -13.5312   24.3329 C   0  0  0  0  0  0
   17.3944  -11.6328   17.7813 H   0  0  0  0  0  0
   21.3840  -13.3207   20.0452 H   0  0  0  0  0  0
   10.9215   -9.4203   24.8002 H   0  0  0  0  0  0
   17.6477  -13.5091   23.3099 H   0  0  0  0  0  0
   20.2461  -15.5499   24.2478 H   0  0  0  0  0  0
   19.0289  -14.4858   24.9187 H   0  0  0  0  0  0
   13.4722   -8.9326   22.4168 H   0  0  0  0  0  0
   11.9122  -12.9420   22.0273 H   0  0  0  0  0  0
   10.0682  -11.4538   24.5862 H   0  0  0  0  0  0
   10.8377  -12.5344   23.4763 H   0  0  0  0  0  0
   21.7528  -14.2263   22.2656 H   0  0  0  0  0  0
   13.5560  -13.3894   20.2864 H   0  0  0  0  0  0
   15.1320   -9.4295   20.7213 H   0  0  0  0  0  0
   19.6635  -11.9822   17.0279 H   0  0  0  0  0  0
   20.7922  -11.4958   18.2992 H   0  0  0  0  0  0
   20.5970  -13.1987   17.8918 H   0  0  0  0  0  0
   23.6218  -13.9132   26.2467 H   0  0  0  0  0  0
   23.2246  -12.3638   25.5206 H   0  0  0  0  0  0
   25.4859  -13.0307   24.7273 H   0  0  0  0  0  0
   24.3703  -13.0660   23.3745 H   0  0  0  0  0  0
   24.8644  -14.5731   24.1522 H   0  0  0  0  0  0
  1  2  1  0  0  0
  1  3  2  0  0  0
  2  4  1  0  0  0
  2 12  2  0  0  0
  3  7  1  0  0  0
  3 13  1  0  0  0
  4  8  2  0  0  0
  4  6  1  0  0  0
  5 10  1  0  0  0
  5 11  2  0  0  0
  5 19  1  0  0  0
  6  7  2  0  0  0
  6 25  1  0  0  0
  7 28  1  0  0  0
  8 20  1  0  0  0
  8 29  1  0  0  0
  9 16  1  0  0  0
  9 15  2  0  0  0
  9 24  1  0  0  0
 10 17  2  0  0  0
 10 18  1  0  0  0
 11 30  1  0  0  0
 12 14  1  0  0  0
 12 31  1  0  0  0
 13 21  1  0  0  0
 14 16  1  0  0  0
 14 20  2  0  0  0
 16 32  1  0  0  0
 16 33  1  0  0  0
 17 23  1  0  0  0
 17 34  1  0  0  0
 18 22  2  0  0  0
 18 35  1  0  0  0
 19 36  1  0  0  0
 19 37  1  0  0  0
 20 38  1  0  0  0
 21 22  1  0  0  0
 21 23  2  0  0  0
 22 39  1  0  0  0
 23 40  1  0  0  0
 24 26  1  0  0  0
 25 41  1  0  0  0
 25 42  1  0  0  0
 25 43  1  0  0  0
 26 27  1  0  0  0
 26 44  1  0  0  0
 26 45  1  0  0  0
 27 46  1  0  0  0
 27 47  1  0  0  0
 27 48  1  0  0  0
M  END
> <s_m_entry_id>
35270

> <s_m_entry_name>
dock_pv.120

> <s_m_Source_Path>
/home/csk/Desktop/cluster/DUD-E-result/thrb

> <s_m_Source_File>
dock_pv.maegz

> <i_m_Source_File_Index>
120

> <chembl_id>
CHEMBL310265

> <chembl_pref_name>
None

> <i_lp_mmshare_version>
53161

> <r_lp_tautomer_probability>
1

> <s_lp_Force_Field>
OPLS_2005

> <r_lp_Energy>
16.3705

> <b_lp_Chiralities_Consistent>
1

> <s_lp_Variant>
CHEMBL204_lig940-1

> <s_i_glide_gridfile>
glide-grid_1ype

> <i_i_glide_lignum>
1453

> <i_i_glide_rotatable_bonds>
7

> <r_i_docking_score>
-7.60234999917328

> <r_i_glide_ligand_efficiency>
-0.281568518487899

> <r_i_glide_ligand_efficiency_sa>
-0.844705554535694

> <r_i_glide_ligand_efficiency_ln>
-1.76970174527238

> <r_i_glide_gscore>
-7.60234999917328

> <r_i_glide_lipo>
-3.35547963750832

> <r_i_glide_hbond>
-0.379958652478378

> <r_i_glide_metal>
0

> <r_i_glide_rewards>
-1.48811012133288

> <r_i_glide_evdw>
-48.3888511657715

> <r_i_glide_ecoul>
-4.0823130607605

> <r_i_glide_erotb>
0.727401794524077

> <r_i_glide_esite>
-0.0744138649751357

> <r_i_glide_emodel>
-74.0656098311525

> <r_i_glide_energy>
-52.471164226532

> <r_i_glide_einternal>
5.05034112930298

> <i_i_glide_confnum>
15

> <i_i_glide_posenum>
308

> <r_i_glide_eff_state_penalty>
0

> <s_user_duplicate_titles>
CHEMBL204_lig940

> <i_f3d_flags>
0

> <s_m_subgroup_title>
dock_pv

> <s_m_subgroupid>
dock_pv

> <b_m_subgroup_collapsed>
1

$$$$
CHEMBL204_lig3862
                    3D
 Schrodinger Suite 2021-1.
 66 69  0  0  1  0            999 V2000
   18.5197  -15.1079   22.5487 N   0  0  0  0  0  0
   18.9694  -13.4049   21.3374 N   0  0  0  0  0  0
   18.1139  -13.8525   22.2678 C   0  0  0  0  0  0
   19.5555  -15.4878   21.7762 C   0  0  0  0  0  0
   19.7752  -14.4681   20.9308 N   0  0  0  0  0  0
   17.6426  -16.1172   23.2165 C   0  0  2  0  0  0
   18.7714  -12.2936   20.3461 C   0  0  2  0  0  0
   17.5229  -12.3474   19.4373 C   0  0  0  0  0  0
   16.4087  -16.5536   22.3700 C   0  0  0  0  0  0
   17.3344  -15.7765   24.7090 C   0  0  0  0  0  0
   17.1442  -13.2499   22.7210 O   0  0  0  0  0  0
   20.2098  -16.5285   21.8616 O   0  0  0  0  0  0
   16.7527  -13.4489   19.4477 N   0  0  0  0  0  0
   20.0597  -12.0451   19.5753 C   0  0  0  0  0  0
   18.5782  -16.2733   25.9355 S   0  0  0  0  0  0
   21.1288  -12.8385   19.6757 C   0  0  0  0  0  0
   21.1540  -14.0696   20.5632 C   0  0  0  0  0  0
   17.2194  -11.3464   18.7854 O   0  0  0  0  0  0
   15.4137  -17.0582   22.9017 O   0  0  0  0  0  0
   20.0823  -15.4570   25.5198 C   0  0  0  0  0  0
   15.3784  -13.4997   18.9462 C   0  0  0  0  0  0
   16.5566  -16.3711   21.0326 O   0  0  0  0  0  0
   22.4674  -14.2109   24.8533 C   0  0  0  0  0  0
   11.2158  -11.8530   22.7201 N   0  0  0  0  0  0
   23.9548  -13.4530   24.4180 Cl  0  0  0  0  0  0
   12.1081  -11.9113   21.5819 C   0  0  1  0  0  0
   14.3386  -13.2414   20.0679 C   0  0  1  0  0  0
   20.2631  -14.1082   25.8312 C   0  0  0  0  0  0
   21.0891  -16.1844   24.8888 C   0  0  0  0  0  0
   22.2812  -15.5570   24.5463 C   0  0  0  0  0  0
   21.4646  -13.4841   25.4998 C   0  0  0  0  0  0
   13.5802  -11.7974   22.0171 C   0  0  0  0  0  0
   11.8609  -13.1204   20.6447 C   0  0  0  0  0  0
   14.5398  -11.9014   20.8224 C   0  0  0  0  0  0
   12.9022  -13.2321   19.5109 C   0  0  0  0  0  0
   15.5572  -16.8313   20.1332 C   0  0  0  0  0  0
   18.2025  -17.0526   23.2657 H   0  0  0  0  0  0
   18.5674  -11.4071   20.9519 H   0  0  0  0  0  0
   16.4156  -16.2532   25.0450 H   0  0  0  0  0  0
   17.1763  -14.7071   24.8417 H   0  0  0  0  0  0
   17.0717  -14.2610   19.9559 H   0  0  0  0  0  0
   20.1360  -11.1757   18.9424 H   0  0  0  0  0  0
   22.0158  -12.5747   19.1189 H   0  0  0  0  0  0
   21.7538  -13.8819   21.4556 H   0  0  0  0  0  0
   21.6158  -14.9036   20.0323 H   0  0  0  0  0  0
   15.2405  -12.7483   18.1656 H   0  0  0  0  0  0
   15.1760  -14.4406   18.4355 H   0  0  0  0  0  0
   10.2790  -11.5683   22.4533 H   0  0  0  0  0  0
   11.1109  -12.7817   23.1216 H   0  0  0  0  0  0
   11.9245  -11.0251   20.9719 H   0  0  0  0  0  0
   14.4167  -14.0529   20.7949 H   0  0  0  0  0  0
   19.4834  -13.5514   26.3311 H   0  0  0  0  0  0
   20.9429  -17.2282   24.6454 H   0  0  0  0  0  0
   23.0582  -16.1135   24.0439 H   0  0  0  0  0  0
   21.6133  -12.4443   25.7508 H   0  0  0  0  0  0
   13.8146  -12.6032   22.7169 H   0  0  0  0  0  0
   13.7430  -10.8524   22.5377 H   0  0  0  0  0  0
   11.9068  -14.0442   21.2265 H   0  0  0  0  0  0
   10.8741  -13.0532   20.1953 H   0  0  0  0  0  0
   15.5518  -11.8210   21.2102 H   0  0  0  0  0  0
   14.4400  -11.0533   20.1421 H   0  0  0  0  0  0
   12.7893  -12.4279   18.7823 H   0  0  0  0  0  0
   12.7193  -14.1467   18.9448 H   0  0  0  0  0  0
   15.8572  -16.6173   19.1066 H   0  0  0  0  0  0
   15.4165  -17.9100   20.2260 H   0  0  0  0  0  0
   14.5980  -16.3452   20.3209 H   0  0  0  0  0  0
  1  3  1  0  0  0
  1  4  1  0  0  0
  1  6  1  0  0  0
  2  3  1  0  0  0
  2  7  1  0  0  0
  2  5  1  0  0  0
  3 11  2  0  0  0
  4  5  1  0  0  0
  4 12  2  0  0  0
  5 17  1  0  0  0
  6  9  1  0  0  0
  6 10  1  0  0  0
  6 37  1  0  0  0
  7  8  1  0  0  0
  7 14  1  0  0  0
  7 38  1  0  0  0
  8 13  1  0  0  0
  8 18  2  0  0  0
  9 19  2  0  0  0
  9 22  1  0  0  0
 10 15  1  0  0  0
 10 39  1  0  0  0
 10 40  1  0  0  0
 13 21  1  0  0  0
 13 41  1  0  0  0
 14 16  2  0  0  0
 14 42  1  0  0  0
 15 20  1  0  0  0
 16 17  1  0  0  0
 16 43  1  0  0  0
 17 44  1  0  0  0
 17 45  1  0  0  0
 20 28  2  0  0  0
 20 29  1  0  0  0
 21 27  1  0  0  0
 21 46  1  0  0  0
 21 47  1  0  0  0
 22 36  1  0  0  0
 23 30  1  0  0  0
 23 25  1  0  0  0
 23 31  2  0  0  0
 24 26  1  0  0  0
 24 48  1  0  0  0
 24 49  1  0  0  0
 26 33  1  0  0  0
 26 32  1  0  0  0
 26 50  1  0  0  0
 27 34  1  0  0  0
 27 35  1  0  0  0
 27 51  1  0  0  0
 28 31  1  0  0  0
 28 52  1  0  0  0
 29 30  2  0  0  0
 29 53  1  0  0  0
 30 54  1  0  0  0
 31 55  1  0  0  0
 32 34  1  0  0  0
 32 56  1  0  0  0
 32 57  1  0  0  0
 33 35  1  0  0  0
 33 58  1  0  0  0
 33 59  1  0  0  0
 34 60  1  0  0  0
 34 61  1  0  0  0
 35 62  1  0  0  0
 35 63  1  0  0  0
 36 64  1  0  0  0
 36 65  1  0  0  0
 36 66  1  0  0  0
M  END
> <s_m_entry_id>
35271

> <s_m_entry_name>
dock_pv.121

> <s_m_Source_Path>
/home/csk/Desktop/cluster/DUD-E-result/thrb

> <s_m_Source_File>
dock_pv.maegz

> <i_m_Source_File_Index>
121

> <chembl_id>
CHEMBL274796

> <chembl_pref_name>
None

> <i_lp_mmshare_version>
53161

> <r_lp_tautomer_probability>
1

> <s_lp_Force_Field>
OPLS_2005

> <r_lp_Energy>
16.588018

> <b_lp_Chiralities_Consistent>
1

> <s_lp_Variant>
CHEMBL204_lig3862-1

> <s_i_glide_gridfile>
glide-grid_1ype

> <i_i_glide_lignum>
5316

> <i_i_glide_rotatable_bonds>
10

> <r_i_docking_score>
-7.60080245217213

> <r_i_glide_ligand_efficiency>
-0.211133401449226

> <r_i_glide_ligand_efficiency_sa>
-0.69714713056426

> <r_i_glide_ligand_efficiency_ln>
-1.65828974511281

> <r_i_glide_gscore>
-7.60080245217213

> <r_i_glide_lipo>
-3.22574257167665

> <r_i_glide_hbond>
-0.608

> <r_i_glide_metal>
0

> <r_i_glide_rewards>
-0.980192592113355

> <r_i_glide_evdw>
-47.8048400878906

> <r_i_glide_ecoul>
-6.41564559936523

> <r_i_glide_erotb>
0.574868051640842

> <r_i_glide_esite>
-0.00914649572365297

> <r_i_glide_emodel>
-76.0276374927052

> <r_i_glide_energy>
-54.2204856872559

> <r_i_glide_einternal>
7.42968988418579

> <i_i_glide_confnum>
3

> <i_i_glide_posenum>
308

> <r_i_glide_eff_state_penalty>
0

> <s_user_duplicate_titles>
CHEMBL204_lig3862

> <i_f3d_flags>
0

> <s_m_subgroup_title>
dock_pv

> <s_m_subgroupid>
dock_pv

> <b_m_subgroup_collapsed>
1

$$$$
CHEMBL204_lig4190
                    3D
 Schrodinger Suite 2021-1.
 53 55  0  0  1  0            999 V2000
   17.4851  -15.4540   20.8122 C   0  0  0  0  0  0
   16.5252  -14.7191   20.0948 C   0  0  0  0  0  0
   16.7285  -13.3723   19.7843 C   0  0  0  0  0  0
   17.8897  -12.7417   20.2481 C   0  0  0  0  0  0
   18.8461  -13.4550   20.9662 C   0  0  0  0  0  0
   18.6673  -14.8221   21.2312 C   0  0  0  0  0  0
   17.3448  -16.7962   21.1198 O   0  0  0  0  0  0
   16.1687  -17.4924   20.7226 C   0  0  0  0  0  0
   19.5989  -15.6095   21.8883 O   0  0  0  0  0  0
   20.8723  -15.0872   22.2791 C   0  0  0  0  0  0
   20.8569  -14.4688   23.6777 C   0  0  0  0  0  0
   22.0562  -13.9849   24.2092 C   0  0  0  0  0  0
   22.0878  -13.4530   25.4957 C   0  0  0  0  0  0
   20.9161  -13.3893   26.2452 C   0  0  0  0  0  0
   19.7171  -13.8707   25.7266 C   0  0  0  0  0  0
   19.6859  -14.4103   24.4441 C   0  0  0  0  0  0
   15.7062  -12.6341   18.9498 C   0  0  2  0  0  0
   16.2944  -12.1926   17.5862 C   0  0  0  0  0  0
   16.8950  -11.1293   17.4185 O   0  0  0  0  0  0
   16.1129  -13.1477   16.6283 O   0  0  0  0  0  0
   15.1900  -11.4529   19.6063 N   0  0  0  0  0  0
   14.2254  -11.3380   20.6134 C   0  0  0  0  0  0
   13.5501  -12.4453   21.1248 C   0  0  0  0  0  0
   12.5844  -12.2761   22.1135 C   0  0  0  0  0  0
   12.2661  -10.9990   22.6129 C   0  0  0  0  0  0
   12.9566   -9.8993   22.0738 C   0  0  0  0  0  0
   13.9304  -10.0669   21.0960 C   0  0  0  0  0  0
   11.2620  -10.7888   23.6918 C   0  0  0  0  0  0
   11.2159   -9.7006   24.3211 N   0  0  0  0  0  0
   10.4266  -11.8529   23.9208 N   0  0  0  0  0  0
   15.6196  -15.1941   19.7526 H   0  0  0  0  0  0
   18.0565  -11.6942   20.0420 H   0  0  0  0  0  0
   19.7244  -12.9270   21.3020 H   0  0  0  0  0  0
   16.2320  -18.5267   21.0606 H   0  0  0  0  0  0
   15.2748  -17.0543   21.1692 H   0  0  0  0  0  0
   16.0600  -17.5073   19.6368 H   0  0  0  0  0  0
   21.5557  -15.9365   22.3025 H   0  0  0  0  0  0
   21.2896  -14.3994   21.5421 H   0  0  0  0  0  0
   22.9679  -14.0303   23.6314 H   0  0  0  0  0  0
   23.0150  -13.0860   25.9107 H   0  0  0  0  0  0
   20.9367  -12.9678   27.2391 H   0  0  0  0  0  0
   18.8158  -13.8323   26.3191 H   0  0  0  0  0  0
   18.7491  -14.7875   24.0597 H   0  0  0  0  0  0
   14.8553  -13.2891   18.7583 H   0  0  0  0  0  0
   15.6244  -13.9136   16.9342 H   0  0  0  0  0  0
   15.6146  -10.5833   19.3015 H   0  0  0  0  0  0
   13.7684  -13.4411   20.7694 H   0  0  0  0  0  0
   12.0961  -13.1607   22.4934 H   0  0  0  0  0  0
   12.7544   -8.8964   22.4246 H   0  0  0  0  0  0
   14.4530   -9.1995   20.7212 H   0  0  0  0  0  0
   10.4565   -9.7162   24.9921 H   0  0  0  0  0  0
    9.6471  -11.7466   24.5707 H   0  0  0  0  0  0
   10.5654  -12.7675   23.5064 H   0  0  0  0  0  0
  1  6  1  0  0  0
  1  2  2  0  0  0
  1  7  1  0  0  0
  2  3  1  0  0  0
  2 31  1  0  0  0
  3  4  2  0  0  0
  3 17  1  0  0  0
  4  5  1  0  0  0
  4 32  1  0  0  0
  5  6  2  0  0  0
  5 33  1  0  0  0
  6  9  1  0  0  0
  7  8  1  0  0  0
  8 34  1  0  0  0
  8 35  1  0  0  0
  8 36  1  0  0  0
  9 10  1  0  0  0
 10 11  1  0  0  0
 10 37  1  0  0  0
 10 38  1  0  0  0
 11 16  1  0  0  0
 11 12  2  0  0  0
 12 13  1  0  0  0
 12 39  1  0  0  0
 13 14  2  0  0  0
 13 40  1  0  0  0
 14 15  1  0  0  0
 14 41  1  0  0  0
 15 16  2  0  0  0
 15 42  1  0  0  0
 16 43  1  0  0  0
 17 18  1  0  0  0
 17 21  1  0  0  0
 17 44  1  0  0  0
 18 19  2  0  0  0
 18 20  1  0  0  0
 20 45  1  0  0  0
 21 22  1  0  0  0
 21 46  1  0  0  0
 22 23  2  0  0  0
 22 27  1  0  0  0
 23 24  1  0  0  0
 23 47  1  0  0  0
 24 25  2  0  0  0
 24 48  1  0  0  0
 25 26  1  0  0  0
 25 28  1  0  0  0
 26 27  2  0  0  0
 26 49  1  0  0  0
 27 50  1  0  0  0
 28 29  2  0  0  0
 28 30  1  0  0  0
 29 51  1  0  0  0
 30 52  1  0  0  0
 30 53  1  0  0  0
M  END
> <s_m_entry_id>
35273

> <s_m_entry_name>
dock_pv.123

> <s_m_Source_Path>
/home/csk/Desktop/cluster/DUD-E-result/thrb

> <s_m_Source_File>
dock_pv.maegz

> <i_m_Source_File_Index>
123

> <chembl_id>
CHEMBL199268

> <chembl_pref_name>
None

> <i_lp_mmshare_version>
53161

> <r_lp_tautomer_probability>
1

> <s_lp_Force_Field>
OPLS_2005

> <r_lp_Energy>
26.401279

> <b_lp_Chiralities_Consistent>
1

> <s_lp_Variant>
CHEMBL204_lig4190-1

> <s_i_glide_gridfile>
glide-grid_1ype

> <i_i_glide_lignum>
5823

> <i_i_glide_rotatable_bonds>
10

> <r_i_docking_score>
-7.58431408224669

> <r_i_glide_ligand_efficiency>
-0.252810469408223

> <r_i_glide_ligand_efficiency_sa>
-0.785540907500091

> <r_i_glide_ligand_efficiency_ln>
-1.72323879720714

> <r_i_glide_gscore>
-7.58431408224669

> <r_i_glide_lipo>
-3.37247645292452

> <r_i_glide_hbond>
-0.689653854776311

> <r_i_glide_metal>
0

> <r_i_glide_rewards>
-0.818822296732163

> <r_i_glide_evdw>
-41.0368461608887

> <r_i_glide_ecoul>
-9.02849674224854

> <r_i_glide_erotb>
0.83686524016221

> <r_i_glide_esite>
-0.1341098985942

> <r_i_glide_emodel>
-73.1960997518988

> <r_i_glide_energy>
-50.0653429031372

> <r_i_glide_einternal>
2.10221266746521

> <i_i_glide_confnum>
16

> <i_i_glide_posenum>
225

> <r_i_glide_eff_state_penalty>
0

> <s_user_duplicate_titles>
CHEMBL204_lig4190

> <i_f3d_flags>
0

> <s_m_subgroup_title>
dock_pv

> <s_m_subgroupid>
dock_pv

> <b_m_subgroup_collapsed>
1

$$$$
CHEMBL204_lig4185
                    3D
 Schrodinger Suite 2021-1.
 52 55  0  0  1  0            999 V2000
   16.7816  -12.8407   21.4062 C   0  0  0  0  0  0
   15.4292  -12.6530   21.5365 N   0  0  0  0  0  0
   17.2976  -11.8819   20.5182 C   0  0  0  0  0  0
   15.1810  -11.6311   20.7386 C   0  0  0  0  0  0
   17.6819  -13.7744   21.9565 C   0  0  0  0  0  0
   16.2644  -11.1058   20.0917 O   0  0  0  0  0  0
   18.9961  -13.7583   21.5944 N   0  0  0  0  0  0
   18.6474  -11.8205   20.1663 C   0  0  0  0  0  0
   19.4512  -12.8141   20.7293 C   0  0  0  0  0  0
   20.9811  -14.8273   24.2534 N   0  0  1  0  0  0
   13.8291  -11.0267   20.4141 C   0  0  0  0  0  0
   17.2166  -14.7365   22.8683 N   0  0  0  0  0  0
   12.9493  -10.7748   21.6285 C   0  0  0  0  0  0
   13.0598   -9.5713   22.3315 C   0  0  0  0  0  0
   19.7847  -14.2656   24.8920 C   0  0  1  0  0  0
   12.2562   -9.3315   23.4487 C   0  0  0  0  0  0
   18.0933  -15.7024   23.5262 C   0  0  0  0  0  0
   18.5975  -15.2522   24.9120 C   0  0  0  0  0  0
   12.4164   -7.8532   24.3228 Cl  0  0  0  0  0  0
   11.2160  -11.4916   23.1606 C   0  0  0  0  0  0
   22.0949  -13.8820   24.1864 C   0  0  0  0  0  0
   12.0192  -11.7334   22.0442 C   0  0  0  0  0  0
   20.9271  -12.9143   20.3923 C   0  0  0  0  0  0
   11.3311  -10.2905   23.8614 C   0  0  0  0  0  0
   20.1359  -13.7949   26.3276 C   0  0  0  0  0  0
   22.5096  -13.4078   25.5928 C   0  0  0  0  0  0
   21.3194  -12.8133   26.3624 C   0  0  0  0  0  0
   19.0298  -11.0627   19.4998 H   0  0  0  0  0  0
   21.2586  -15.6474   24.7712 H   0  0  0  0  0  0
   13.9732  -10.0682   19.9211 H   0  0  0  0  0  0
   13.2977  -11.6570   19.6992 H   0  0  0  0  0  0
   16.2751  -14.6355   23.2308 H   0  0  0  0  0  0
   13.7793   -8.8253   22.0288 H   0  0  0  0  0  0
   19.4928  -13.3892   24.3079 H   0  0  0  0  0  0
   18.9410  -15.9448   22.8828 H   0  0  0  0  0  0
   17.5518  -16.6462   23.6136 H   0  0  0  0  0  0
   18.8810  -16.1407   25.4796 H   0  0  0  0  0  0
   17.7631  -14.8114   25.4596 H   0  0  0  0  0  0
   10.4941  -12.2326   23.4778 H   0  0  0  0  0  0
   22.9341  -14.3650   23.6846 H   0  0  0  0  0  0
   21.7944  -13.0340   23.5717 H   0  0  0  0  0  0
   11.9188  -12.6691   21.5167 H   0  0  0  0  0  0
   21.2691  -12.0669   19.7975 H   0  0  0  0  0  0
   21.5270  -12.9497   21.3001 H   0  0  0  0  0  0
   21.1204  -13.8269   19.8275 H   0  0  0  0  0  0
   10.6958  -10.1139   24.7205 H   0  0  0  0  0  0
   20.4006  -14.6621   26.9350 H   0  0  0  0  0  0
   19.2619  -13.3554   26.8050 H   0  0  0  0  0  0
   22.9607  -14.2337   26.1440 H   0  0  0  0  0  0
   23.2974  -12.6574   25.5141 H   0  0  0  0  0  0
   21.6154  -12.5996   27.3890 H   0  0  0  0  0  0
   21.0203  -11.8619   25.9210 H   0  0  0  0  0  0
  1  2  1  0  0  0
  1  3  2  0  0  0
  1  5  1  0  0  0
  2  4  2  0  0  0
  3  6  1  0  0  0
  3  8  1  0  0  0
  4 11  1  0  0  0
  4  6  1  0  0  0
  5  7  2  0  0  0
  5 12  1  0  0  0
  7  9  1  0  0  0
  8  9  2  0  0  0
  8 28  1  0  0  0
  9 23  1  0  0  0
 10 15  1  0  0  0
 10 21  1  0  0  0
 10 29  1  0  0  0
 11 13  1  0  0  0
 11 30  1  0  0  0
 11 31  1  0  0  0
 12 17  1  0  0  0
 12 32  1  0  0  0
 13 14  2  0  0  0
 13 22  1  0  0  0
 14 16  1  0  0  0
 14 33  1  0  0  0
 15 18  1  0  0  0
 15 25  1  0  0  0
 15 34  1  0  0  0
 16 19  1  0  0  0
 16 24  2  0  0  0
 17 18  1  0  0  0
 17 35  1  0  0  0
 17 36  1  0  0  0
 18 37  1  0  0  0
 18 38  1  0  0  0
 20 22  2  0  0  0
 20 24  1  0  0  0
 20 39  1  0  0  0
 21 26  1  0  0  0
 21 40  1  0  0  0
 21 41  1  0  0  0
 22 42  1  0  0  0
 23 43  1  0  0  0
 23 44  1  0  0  0
 23 45  1  0  0  0
 24 46  1  0  0  0
 25 27  1  0  0  0
 25 47  1  0  0  0
 25 48  1  0  0  0
 26 27  1  0  0  0
 26 49  1  0  0  0
 26 50  1  0  0  0
 27 51  1  0  0  0
 27 52  1  0  0  0
M  END
> <s_m_entry_id>
35274

> <s_m_entry_name>
dock_pv.124

> <s_m_Source_Path>
/home/csk/Desktop/cluster/DUD-E-result/thrb

> <s_m_Source_File>
dock_pv.maegz

> <i_m_Source_File_Index>
124

> <chembl_id>
CHEMBL198071

> <chembl_pref_name>
None

> <i_lp_mmshare_version>
53161

> <r_lp_tautomer_probability>
1

> <s_lp_Force_Field>
OPLS_2005

> <r_lp_Energy>
23.481673

> <b_lp_Chiralities_Consistent>
1

> <s_lp_Variant>
CHEMBL204_lig4185-2

> <s_i_glide_gridfile>
glide-grid_1ype

> <i_i_glide_lignum>
5818

> <i_i_glide_rotatable_bonds>
6

> <r_i_docking_score>
-7.5817291867985

> <r_i_glide_ligand_efficiency>
-0.280804784696241

> <r_i_glide_ligand_efficiency_sa>
-0.842414353163236

> <r_i_glide_ligand_efficiency_ln>
-1.76490156011219

> <r_i_glide_gscore>
-7.5817291867985

> <r_i_glide_lipo>
-4.44571066479024

> <r_i_glide_hbond>
-0.32

> <r_i_glide_metal>
0

> <r_i_glide_rewards>
-0.784758409090908

> <r_i_glide_evdw>
-46.8167991638184

> <r_i_glide_ecoul>
-2.21647191047668

> <r_i_glide_erotb>
0.656344338067387

> <r_i_glide_esite>
-0.0142937062223172

> <r_i_glide_emodel>
-69.6261900721958

> <r_i_glide_energy>
-49.033271074295

> <r_i_glide_einternal>
3.11824107170105

> <i_i_glide_confnum>
93

> <i_i_glide_posenum>
77

> <r_i_glide_eff_state_penalty>
0

> <s_user_duplicate_titles>
CHEMBL204_lig4185,329933

> <i_f3d_flags>
0

> <s_m_subgroup_title>
dock_pv

> <s_m_subgroupid>
dock_pv

> <b_m_subgroup_collapsed>
1

$$$$
CHEMBL204_lig4164
                    3D
 Schrodinger Suite 2021-1.
 44 47  0  0  1  0            999 V2000
   16.4926  -12.6921   21.6466 N   0  0  0  0  0  0
   17.7730  -13.1756   21.6093 C   0  0  0  0  0  0
   16.4833  -11.7527   20.7219 C   0  0  0  0  0  0
   17.6749  -11.5321   20.0901 O   0  0  0  0  0  0
   18.6452  -15.7491   25.4638 C   0  0  0  0  0  0
   18.5058  -12.4504   20.6535 C   0  0  0  0  0  0
   17.6441  -14.9656   23.2534 N   0  0  0  0  0  0
   18.3951  -14.2205   22.3219 C   0  0  0  0  0  0
   19.9818  -14.9975   25.5034 C   0  0  0  0  0  0
   18.1760  -16.0902   24.0274 C   0  0  0  0  0  0
   21.0732  -15.6929   25.0726 N   0  0  0  0  0  0
   15.3041  -10.9094   20.2756 C   0  0  0  0  0  0
   18.8013  -16.8779   26.1580 F   0  0  0  0  0  0
   17.7023  -15.0541   26.1029 F   0  0  0  0  0  0
   13.9794  -11.2687   20.9370 C   0  0  0  0  0  0
   13.4294  -10.4385   21.9209 C   0  0  0  0  0  0
   12.2579  -10.8156   22.5796 C   0  0  0  0  0  0
   11.6168   -9.8518   23.8564 Cl  0  0  0  0  0  0
   19.8486  -12.6962   20.3598 C   0  0  0  0  0  0
   20.4549  -13.7305   21.0746 C   0  0  0  0  0  0
   12.1411  -12.8149   21.2312 C   0  0  0  0  0  0
   19.7479  -14.4729   22.0264 C   0  0  0  0  0  0
   22.2800  -15.0712   25.0847 C   0  0  0  0  0  0
   13.3210  -12.4520   20.5847 C   0  0  0  0  0  0
   20.0800  -13.6725   25.9529 C   0  0  0  0  0  0
   11.6157  -11.9997   22.2318 C   0  0  0  0  0  0
   22.4514  -13.7569   25.5208 C   0  0  0  0  0  0
   21.3299  -13.0529   25.9613 C   0  0  0  0  0  0
   16.7187  -14.6300   23.5034 H   0  0  0  0  0  0
   18.9592  -16.6157   23.4817 H   0  0  0  0  0  0
   17.3638  -16.8143   24.0941 H   0  0  0  0  0  0
   15.5236   -9.8515   20.4203 H   0  0  0  0  0  0
   15.1828  -11.0520   19.2009 H   0  0  0  0  0  0
   13.9301   -9.5253   22.2102 H   0  0  0  0  0  0
   20.3836  -12.1249   19.6165 H   0  0  0  0  0  0
   21.4926  -13.9730   20.8874 H   0  0  0  0  0  0
   11.6378  -13.7348   20.9706 H   0  0  0  0  0  0
   20.2836  -15.2602   22.5313 H   0  0  0  0  0  0
   23.1241  -15.6557   24.7451 H   0  0  0  0  0  0
   13.7341  -13.1022   19.8278 H   0  0  0  0  0  0
   19.2156  -13.1270   26.2974 H   0  0  0  0  0  0
   10.7062  -12.2876   22.7402 H   0  0  0  0  0  0
   23.4298  -13.2983   25.5230 H   0  0  0  0  0  0
   21.4247  -12.0345   26.3130 H   0  0  0  0  0  0
  1  2  1  0  0  0
  1  3  2  0  0  0
  2  6  2  0  0  0
  2  8  1  0  0  0
  3  4  1  0  0  0
  3 12  1  0  0  0
  4  6  1  0  0  0
  5 10  1  0  0  0
  5  9  1  0  0  0
  5 13  1  0  0  0
  5 14  1  0  0  0
  6 19  1  0  0  0
  7  8  1  0  0  0
  7 10  1  0  0  0
  7 29  1  0  0  0
  8 22  2  0  0  0
  9 11  1  0  0  0
  9 25  2  0  0  0
 10 30  1  0  0  0
 10 31  1  0  0  0
 11 23  2  0  0  0
 12 15  1  0  0  0
 12 32  1  0  0  0
 12 33  1  0  0  0
 15 16  2  0  0  0
 15 24  1  0  0  0
 16 17  1  0  0  0
 16 34  1  0  0  0
 17 18  1  0  0  0
 17 26  2  0  0  0
 19 20  2  0  0  0
 19 35  1  0  0  0
 20 22  1  0  0  0
 20 36  1  0  0  0
 21 24  2  0  0  0
 21 26  1  0  0  0
 21 37  1  0  0  0
 22 38  1  0  0  0
 23 27  1  0  0  0
 23 39  1  0  0  0
 24 40  1  0  0  0
 25 28  1  0  0  0
 25 41  1  0  0  0
 26 42  1  0  0  0
 27 28  2  0  0  0
 27 43  1  0  0  0
 28 44  1  0  0  0
M  END
> <s_m_entry_id>
35275

> <s_m_entry_name>
dock_pv.125

> <s_m_Source_Path>
/home/csk/Desktop/cluster/DUD-E-result/thrb

> <s_m_Source_File>
dock_pv.maegz

> <i_m_Source_File_Index>
125

> <chembl_id>
CHEMBL199094

> <chembl_pref_name>
None

> <i_lp_mmshare_version>
53161

> <r_lp_tautomer_probability>
1

> <s_lp_Force_Field>
OPLS_2005

> <r_lp_Energy>
20.496276

> <b_lp_Chiralities_Consistent>
1

> <s_lp_Variant>
CHEMBL204_lig4164-1

> <s_i_glide_gridfile>
glide-grid_1ype

> <i_i_glide_lignum>
5786

> <i_i_glide_rotatable_bonds>
6

> <r_i_docking_score>
-7.57632089124737

> <r_i_glide_ligand_efficiency>
-0.27058288897312

> <r_i_glide_ligand_efficiency_sa>
-0.8216490157214

> <r_i_glide_ligand_efficiency_ln>
-1.74883731214734

> <r_i_glide_gscore>
-7.57632089124737

> <r_i_glide_lipo>
-4.10859907376536

> <r_i_glide_hbond>
-0.234623708267825

> <r_i_glide_metal>
0

> <r_i_glide_rewards>
-1.06966436027102

> <r_i_glide_evdw>
-45.033374786377

> <r_i_glide_ecoul>
-3.41909384727478

> <r_i_glide_erotb>
0.612994369133236

> <r_i_glide_esite>
-0.0118953016663384

> <r_i_glide_emodel>
-69.1035932636739

> <r_i_glide_energy>
-48.4524686336517

> <r_i_glide_einternal>
1.03776848316193

> <i_i_glide_confnum>
4

> <i_i_glide_posenum>
395

> <r_i_glide_eff_state_penalty>
0

> <s_user_duplicate_titles>
CHEMBL204_lig4164,329952

> <i_f3d_flags>
0

> <s_m_subgroup_title>
dock_pv

> <s_m_subgroupid>
dock_pv

> <b_m_subgroup_collapsed>
1

$$$$
CHEMBL204_lig3533
                    3D
 Schrodinger Suite 2021-1.
 53 56  0  0  1  0            999 V2000
   14.9396  -12.7098   18.1638 S   0  0  0  0  0  0
   19.3326  -12.6672   20.6481 N   0  0  0  0  0  0
   18.7707  -12.5563   19.4251 C   0  0  0  0  0  0
   17.2881  -12.2487   19.6656 C   0  0  1  0  0  0
   16.4665  -13.1983   18.8781 N   0  0  1  0  0  0
   13.8532  -12.3560   19.5488 C   0  0  0  0  0  0
   23.0363  -14.5680   25.0300 C   0  0  0  0  0  0
   13.1292  -10.8488   21.3318 C   0  0  0  0  0  0
   17.0636  -12.3173   21.1659 C   0  0  0  0  0  0
   13.9629  -11.1380   20.2238 C   0  0  0  0  0  0
   15.1566  -11.4530   17.4429 O   0  0  0  0  0  0
   14.4148  -13.8895   17.4725 O   0  0  0  0  0  0
   20.7443  -13.0253   20.8252 C   0  0  0  0  0  0
   22.0961  -14.8613   23.9080 C   0  0  0  0  0  0
   18.4506  -12.3612   21.7723 C   0  0  0  0  0  0
   23.6151  -13.4530   25.1210 N   0  0  0  0  0  0
   19.3179  -12.6521   18.3264 O   0  0  0  0  0  0
   21.8096  -13.8709   22.9489 C   0  0  0  0  0  0
   12.1727  -11.8228   21.7501 C   0  0  0  0  0  0
   13.2287   -9.6301   22.0477 C   0  0  0  0  0  0
   20.9773  -14.1180   21.8553 C   0  0  0  0  0  0
   12.9142  -13.3005   19.9595 C   0  0  0  0  0  0
   12.0809  -13.0471   21.0464 C   0  0  0  0  0  0
   11.3429  -11.5380   22.8627 C   0  0  0  0  0  0
   23.2220  -15.5942   25.9215 N   0  0  0  0  0  0
   12.4160   -9.3959   23.1517 C   0  0  0  0  0  0
   11.4777  -10.3376   23.5525 C   0  0  0  0  0  0
   12.5747   -8.2530   23.8940 O   0  0  0  0  0  0
   21.4726  -16.1139   23.7342 C   0  0  0  0  0  0
   20.6316  -16.3659   22.6510 C   0  0  0  0  0  0
   20.3915  -15.3739   21.7063 C   0  0  0  0  0  0
   17.0547  -11.2541   19.2804 H   0  0  0  0  0  0
   16.4649  -14.1558   19.2337 H   0  0  0  0  0  0
   16.5075  -13.2145   21.4410 H   0  0  0  0  0  0
   16.5002  -11.4556   21.5209 H   0  0  0  0  0  0
   14.7006  -10.4097   19.9214 H   0  0  0  0  0  0
   21.3031  -12.1391   21.1195 H   0  0  0  0  0  0
   21.1911  -13.3539   19.8847 H   0  0  0  0  0  0
   18.5209  -13.1083   22.5628 H   0  0  0  0  0  0
   18.7232  -11.4016   22.2060 H   0  0  0  0  0  0
   24.2187  -13.4233   25.9290 H   0  0  0  0  0  0
   22.2518  -12.8915   23.0440 H   0  0  0  0  0  0
   13.9649   -8.8950   21.7577 H   0  0  0  0  0  0
   12.8254  -14.2450   19.4377 H   0  0  0  0  0  0
   11.3588  -13.7874   21.3639 H   0  0  0  0  0  0
   10.6005  -12.2550   23.1824 H   0  0  0  0  0  0
   23.8616  -15.4695   26.6953 H   0  0  0  0  0  0
   22.7328  -16.4693   25.8256 H   0  0  0  0  0  0
   10.8396  -10.1542   24.4067 H   0  0  0  0  0  0
   12.0514   -8.2637   24.7001 H   0  0  0  0  0  0
   21.6401  -16.9219   24.4291 H   0  0  0  0  0  0
   20.1749  -17.3378   22.5388 H   0  0  0  0  0  0
   19.7513  -15.5804   20.8619 H   0  0  0  0  0  0
  1  5  1  0  0  0
  1  6  1  0  0  0
  1 11  2  0  0  0
  1 12  2  0  0  0
  2  3  1  0  0  0
  2 13  1  0  0  0
  2 15  1  0  0  0
  3  4  1  0  0  0
  3 17  2  0  0  0
  4  5  1  0  0  0
  4  9  1  0  0  0
  4 32  1  0  0  0
  5 33  1  0  0  0
  6 10  2  0  0  0
  6 22  1  0  0  0
  7 14  1  0  0  0
  7 16  2  0  0  0
  7 25  1  0  0  0
  8 10  1  0  0  0
  8 20  1  0  0  0
  8 19  2  0  0  0
  9 15  1  0  0  0
  9 34  1  0  0  0
  9 35  1  0  0  0
 10 36  1  0  0  0
 13 21  1  0  0  0
 13 37  1  0  0  0
 13 38  1  0  0  0
 14 18  2  0  0  0
 14 29  1  0  0  0
 15 39  1  0  0  0
 15 40  1  0  0  0
 16 41  1  0  0  0
 18 21  1  0  0  0
 18 42  1  0  0  0
 19 23  1  0  0  0
 19 24  1  0  0  0
 20 26  2  0  0  0
 20 43  1  0  0  0
 21 31  2  0  0  0
 22 23  2  0  0  0
 22 44  1  0  0  0
 23 45  1  0  0  0
 24 27  2  0  0  0
 24 46  1  0  0  0
 25 47  1  0  0  0
 25 48  1  0  0  0
 26 28  1  0  0  0
 26 27  1  0  0  0
 27 49  1  0  0  0
 28 50  1  0  0  0
 29 30  2  0  0  0
 29 51  1  0  0  0
 30 31  1  0  0  0
 30 52  1  0  0  0
 31 53  1  0  0  0
M  END
> <s_m_entry_id>
35276

> <s_m_entry_name>
dock_pv.126

> <s_m_Source_Path>
/home/csk/Desktop/cluster/DUD-E-result/thrb

> <s_m_Source_File>
dock_pv.maegz

> <i_m_Source_File_Index>
126

> <chembl_id>
CHEMBL118334

> <chembl_pref_name>
None

> <i_lp_mmshare_version>
53161

> <r_lp_tautomer_probability>
1

> <s_lp_Force_Field>
OPLS_2005

> <r_lp_Energy>
15.721334

> <b_lp_Chiralities_Consistent>
1

> <s_lp_Variant>
CHEMBL204_lig3533-1

> <s_i_glide_gridfile>
glide-grid_1ype

> <i_i_glide_lignum>
4924

> <i_i_glide_rotatable_bonds>
7

> <r_i_docking_score>
-7.56712184814558

> <r_i_glide_ligand_efficiency>
-0.24410070477889

> <r_i_glide_ligand_efficiency_sa>
-0.766813230349765

> <r_i_glide_ligand_efficiency_ln>
-1.7066178811908

> <r_i_glide_gscore>
-7.56712184814558

> <r_i_glide_lipo>
-3.23501727160224

> <r_i_glide_hbond>
-0.233752804702102

> <r_i_glide_metal>
0

> <r_i_glide_rewards>
-1.26995074881343

> <r_i_glide_evdw>
-49.6985054016113

> <r_i_glide_ecoul>
-5.74834537506104

> <r_i_glide_erotb>
0.518776053311915

> <r_i_glide_esite>
0

> <r_i_glide_emodel>
-76.3243364176805

> <r_i_glide_energy>
-55.4468507766724

> <r_i_glide_einternal>
7.54106855392456

> <i_i_glide_confnum>
40

> <i_i_glide_posenum>
296

> <r_i_glide_eff_state_penalty>
0

> <s_user_duplicate_titles>
CHEMBL204_lig3533

> <i_f3d_flags>
0

> <s_m_subgroup_title>
dock_pv

> <s_m_subgroupid>
dock_pv

> <b_m_subgroup_collapsed>
1

$$$$
CHEMBL204_lig4203
                    3D
 Schrodinger Suite 2021-1.
 56 58  0  0  1  0            999 V2000
   17.5040  -14.6131   20.7178 C   0  0  0  0  0  0
   16.5366  -13.9564   19.9399 C   0  0  0  0  0  0
   16.6806  -12.6123   19.5781 C   0  0  0  0  0  0
   17.7938  -11.9079   20.0425 C   0  0  0  0  0  0
   18.7746  -12.5524   20.7957 C   0  0  0  0  0  0
   18.6591  -13.9176   21.1084 C   0  0  0  0  0  0
   17.4092  -15.9453   21.0864 O   0  0  0  0  0  0
   16.1856  -16.6661   20.9337 C   0  0  0  0  0  0
   19.6193  -14.6476   21.7878 O   0  0  0  0  0  0
   20.9226  -14.1243   22.0569 C   0  0  0  0  0  0
   21.1083  -13.8351   23.5438 C   0  0  0  0  0  0
   20.0138  -13.5331   24.3594 C   0  0  0  0  0  0
   20.1999  -13.3016   25.7188 C   0  0  0  0  0  0
   21.4784  -13.3693   26.2628 C   0  0  0  0  0  0
   22.5777  -13.6584   25.4581 C   0  0  0  0  0  0
   22.3921  -13.8835   24.0956 C   0  0  0  0  0  0
   15.6714  -11.9359   18.6739 C   0  0  1  0  0  0
   15.8345  -12.4168   17.2051 C   0  0  0  0  0  0
   16.8378  -12.1332   16.5533 O   0  0  0  0  0  0
   14.8173  -13.2080   16.7418 O   0  0  0  0  0  0
   14.2989  -12.1077   19.1236 N   0  0  0  0  0  0
   13.6871  -11.5523   20.2522 C   0  0  0  0  0  0
   12.5797  -12.1923   20.7990 C   0  0  0  0  0  0
   11.9488  -11.6569   21.9189 C   0  0  0  0  0  0
   12.3943  -10.4569   22.5069 C   0  0  0  0  0  0
   13.5074   -9.8250   21.9229 C   0  0  0  0  0  0
   14.1550  -10.3701   20.8219 C   0  0  0  0  0  0
   11.7313   -9.8527   23.6994 C   0  0  0  0  0  0
   12.0160   -8.6863   24.0825 N   0  0  0  0  0  0
   10.8160  -10.6624   24.3208 N   0  0  0  0  0  0
   15.1048  -16.1925   21.9209 C   0  0  0  0  0  0
   15.6660  -14.4842   19.5858 H   0  0  0  0  0  0
   17.9178  -10.8612   19.8067 H   0  0  0  0  0  0
   19.6162  -11.9654   21.1231 H   0  0  0  0  0  0
   15.8322  -16.6426   19.9021 H   0  0  0  0  0  0
   16.4089  -17.7132   21.1390 H   0  0  0  0  0  0
   21.6158  -14.9193   21.7801 H   0  0  0  0  0  0
   21.2208  -13.2658   21.4562 H   0  0  0  0  0  0
   19.0168  -13.4829   23.9478 H   0  0  0  0  0  0
   19.3542  -13.0720   26.3484 H   0  0  0  0  0  0
   21.6163  -13.1859   27.3177 H   0  0  0  0  0  0
   23.5673  -13.7081   25.8886 H   0  0  0  0  0  0
   23.2476  -14.1084   23.4742 H   0  0  0  0  0  0
   15.8878  -10.8690   18.6625 H   0  0  0  0  0  0
   14.9962  -13.5056   15.8472 H   0  0  0  0  0  0
   13.8135  -12.8794   18.6846 H   0  0  0  0  0  0
   12.2044  -13.1100   20.3700 H   0  0  0  0  0  0
   11.0950  -12.1915   22.3103 H   0  0  0  0  0  0
   13.8945   -8.9037   22.3341 H   0  0  0  0  0  0
   15.0162   -9.8581   20.4190 H   0  0  0  0  0  0
   11.4725   -8.4342   24.8933 H   0  0  0  0  0  0
   10.1699  -10.2756   25.0044 H   0  0  0  0  0  0
   10.5409  -11.5401   23.9077 H   0  0  0  0  0  0
   14.2102  -16.8107   21.8477 H   0  0  0  0  0  0
   15.4700  -16.2541   22.9464 H   0  0  0  0  0  0
   14.8059  -15.1603   21.7444 H   0  0  0  0  0  0
  1  6  1  0  0  0
  1  2  2  0  0  0
  1  7  1  0  0  0
  2  3  1  0  0  0
  2 32  1  0  0  0
  3  4  2  0  0  0
  3 17  1  0  0  0
  4  5  1  0  0  0
  4 33  1  0  0  0
  5  6  2  0  0  0
  5 34  1  0  0  0
  6  9  1  0  0  0
  7  8  1  0  0  0
  8 31  1  0  0  0
  8 35  1  0  0  0
  8 36  1  0  0  0
  9 10  1  0  0  0
 10 11  1  0  0  0
 10 37  1  0  0  0
 10 38  1  0  0  0
 11 16  1  0  0  0
 11 12  2  0  0  0
 12 13  1  0  0  0
 12 39  1  0  0  0
 13 14  2  0  0  0
 13 40  1  0  0  0
 14 15  1  0  0  0
 14 41  1  0  0  0
 15 16  2  0  0  0
 15 42  1  0  0  0
 16 43  1  0  0  0
 17 18  1  0  0  0
 17 21  1  0  0  0
 17 44  1  0  0  0
 18 19  2  0  0  0
 18 20  1  0  0  0
 20 45  1  0  0  0
 21 22  1  0  0  0
 21 46  1  0  0  0
 22 23  2  0  0  0
 22 27  1  0  0  0
 23 24  1  0  0  0
 23 47  1  0  0  0
 24 25  2  0  0  0
 24 48  1  0  0  0
 25 26  1  0  0  0
 25 28  1  0  0  0
 26 27  2  0  0  0
 26 49  1  0  0  0
 27 50  1  0  0  0
 28 29  2  0  0  0
 28 30  1  0  0  0
 29 51  1  0  0  0
 30 52  1  0  0  0
 30 53  1  0  0  0
 31 54  1  0  0  0
 31 55  1  0  0  0
 31 56  1  0  0  0
M  END
> <s_m_entry_id>
35277

> <s_m_entry_name>
dock_pv.127

> <s_m_Source_Path>
/home/csk/Desktop/cluster/DUD-E-result/thrb

> <s_m_Source_File>
dock_pv.maegz

> <i_m_Source_File_Index>
127

> <chembl_id>
CHEMBL198631

> <chembl_pref_name>
None

> <i_lp_mmshare_version>
53161

> <r_lp_tautomer_probability>
1

> <s_lp_Force_Field>
OPLS_2005

> <r_lp_Energy>
26.332807

> <b_lp_Chiralities_Consistent>
1

> <s_lp_Variant>
CHEMBL204_lig4203-2

> <s_i_glide_gridfile>
glide-grid_1ype

> <i_i_glide_lignum>
5849

> <i_i_glide_rotatable_bonds>
11

> <r_i_docking_score>
-7.55980738427461

> <r_i_glide_ligand_efficiency>
-0.243864754331439

> <r_i_glide_ligand_efficiency_sa>
-0.766072020180069

> <r_i_glide_ligand_efficiency_ln>
-1.7049682454265

> <r_i_glide_gscore>
-7.55980738427461

> <r_i_glide_lipo>
-3.89758650262241

> <r_i_glide_hbond>
-0.16

> <r_i_glide_metal>
0

> <r_i_glide_rewards>
-1.00161450967747

> <r_i_glide_evdw>
-48.8337478637695

> <r_i_glide_ecoul>
-5.8278374671936

> <r_i_glide_erotb>
0.899474963815442

> <r_i_glide_esite>
-0.0842183225226551

> <r_i_glide_emodel>
-77.3716085630695

> <r_i_glide_energy>
-54.6615853309631

> <r_i_glide_einternal>
5.50171995162964

> <i_i_glide_confnum>
68

> <i_i_glide_posenum>
216

> <r_i_glide_eff_state_penalty>
0

> <s_user_duplicate_titles>
CHEMBL204_lig4203

> <i_f3d_flags>
0

> <s_m_subgroup_title>
dock_pv

> <s_m_subgroupid>
dock_pv

> <b_m_subgroup_collapsed>
1

$$$$
CHEMBL204_lig4370
                    3D
 Schrodinger Suite 2021-1.
 55 58  0  0  1  0            999 V2000
   24.6132  -13.4180   24.5646 C   0  0  0  0  0  0
   23.3011  -13.7492   24.0323 N   0  0  0  0  0  0
   22.1344  -13.6520   24.7534 C   0  0  0  0  0  0
   22.0130  -13.0531   25.9206 N   0  0  0  0  0  0
   20.7365  -13.1592   26.2412 C   0  0  0  0  0  0
   20.0258  -13.8485   25.2765 C   0  0  0  0  0  0
   20.9341  -14.1682   24.2936 N   0  0  0  0  0  0
   20.6761  -14.9391   23.0761 C   0  0  0  0  0  0
   19.6816  -14.2724   22.1419 C   0  0  0  0  0  0
   18.2808  -14.4334   22.1938 C   0  0  0  0  0  0
   17.4988  -15.4689   23.3363 Cl  0  0  0  0  0  0
   20.0368  -13.4416   21.0822 C   0  0  0  0  0  0
   18.6873  -12.8476   20.1697 S   0  0  0  0  0  0
   17.5985  -13.6986   21.2194 C   0  0  0  0  0  0
   16.1798  -13.6608   21.0093 C   0  0  0  0  0  0
   15.4384  -13.2924   21.9182 O   0  0  0  0  0  0
   15.7982  -14.1583   19.8103 N   0  0  0  0  0  0
   14.5128  -14.6152   19.4230 C   0  0  0  0  0  0
   14.5035  -15.8482   18.7369 C   0  0  0  0  0  0
   15.7257  -16.4395   18.4519 O   0  0  0  0  0  0
   15.7729  -17.6596   17.7155 C   0  0  0  0  0  0
   13.2769  -16.4442   18.4022 C   0  0  0  0  0  0
   12.0751  -15.8288   18.7247 C   0  0  0  0  0  0
   10.5736  -16.5778   18.3167 Cl  0  0  0  0  0  0
   12.0820  -14.5881   19.3479 C   0  0  0  0  0  0
   13.2835  -13.9467   19.6747 C   0  0  0  0  0  0
   13.2056  -12.5307   20.1782 C   0  0  0  0  0  0
   13.8212  -11.6344   19.5947 O   0  0  0  0  0  0
   12.4462  -12.3739   21.2841 N   0  0  0  0  0  0
   12.3167  -11.2297   22.0843 C   0  0  0  0  0  0
   11.3735  -11.2890   23.1153 C   0  0  0  0  0  0
   11.2161  -10.1800   23.9503 C   0  0  0  0  0  0
   12.0161   -9.0539   23.7513 C   0  0  0  0  0  0
   11.8575   -7.6422   24.7281 Cl  0  0  0  0  0  0
   12.9518   -9.0767   22.7210 C   0  0  0  0  0  0
   13.1111  -10.1366   21.8936 N   0  0  0  0  0  0
   25.4026  -13.7290   23.8802 H   0  0  0  0  0  0
   24.7720  -13.9197   25.5203 H   0  0  0  0  0  0
   24.7043  -12.3405   24.7255 H   0  0  0  0  0  0
   23.2427  -13.4813   23.0628 H   0  0  0  0  0  0
   20.3429  -12.7453   27.1630 H   0  0  0  0  0  0
   18.9855  -14.1294   25.2082 H   0  0  0  0  0  0
   21.6230  -15.1215   22.5665 H   0  0  0  0  0  0
   20.3304  -15.9228   23.3921 H   0  0  0  0  0  0
   21.0392  -13.1593   20.7927 H   0  0  0  0  0  0
   16.5461  -14.5365   19.2507 H   0  0  0  0  0  0
   16.8144  -17.9382   17.5576 H   0  0  0  0  0  0
   15.2901  -18.4744   18.2583 H   0  0  0  0  0  0
   15.3111  -17.5544   16.7311 H   0  0  0  0  0  0
   13.2350  -17.3950   17.8906 H   0  0  0  0  0  0
   11.1356  -14.0972   19.5204 H   0  0  0  0  0  0
   11.9513  -13.1849   21.6224 H   0  0  0  0  0  0
   10.7503  -12.1606   23.2636 H   0  0  0  0  0  0
   10.4684  -10.1957   24.7303 H   0  0  0  0  0  0
   13.6262   -8.2525   22.5655 H   0  0  0  0  0  0
  1  2  1  0  0  0
  1 37  1  0  0  0
  1 38  1  0  0  0
  1 39  1  0  0  0
  2  3  1  0  0  0
  2 40  1  0  0  0
  3  4  2  0  0  0
  3  7  1  0  0  0
  4  5  1  0  0  0
  5  6  2  0  0  0
  5 41  1  0  0  0
  6  7  1  0  0  0
  6 42  1  0  0  0
  7  8  1  0  0  0
  8  9  1  0  0  0
  8 43  1  0  0  0
  8 44  1  0  0  0
  9 12  2  0  0  0
  9 10  1  0  0  0
 10 11  1  0  0  0
 10 14  2  0  0  0
 12 13  1  0  0  0
 12 45  1  0  0  0
 13 14  1  0  0  0
 14 15  1  0  0  0
 15 17  1  0  0  0
 15 16  2  0  0  0
 17 18  1  0  0  0
 17 46  1  0  0  0
 18 19  2  0  0  0
 18 26  1  0  0  0
 19 20  1  0  0  0
 19 22  1  0  0  0
 20 21  1  0  0  0
 21 47  1  0  0  0
 21 48  1  0  0  0
 21 49  1  0  0  0
 22 23  2  0  0  0
 22 50  1  0  0  0
 23 25  1  0  0  0
 23 24  1  0  0  0
 25 26  2  0  0  0
 25 51  1  0  0  0
 26 27  1  0  0  0
 27 28  2  0  0  0
 27 29  1  0  0  0
 29 30  1  0  0  0
 29 52  1  0  0  0
 30 36  1  0  0  0
 30 31  2  0  0  0
 31 32  1  0  0  0
 31 53  1  0  0  0
 32 33  2  0  0  0
 32 54  1  0  0  0
 33 35  1  0  0  0
 33 34  1  0  0  0
 35 36  2  0  0  0
 35 55  1  0  0  0
M  END
> <s_m_entry_id>
35278

> <s_m_entry_name>
dock_pv.128

> <s_m_Source_Path>
/home/csk/Desktop/cluster/DUD-E-result/thrb

> <s_m_Source_File>
dock_pv.maegz

> <i_m_Source_File_Index>
128

> <chembl_id>
CHEMBL427421

> <chembl_pref_name>
None

> <i_lp_mmshare_version>
53161

> <r_lp_tautomer_probability>
0.999996246217491

> <s_lp_Force_Field>
OPLS_2005

> <r_lp_Energy>
30.767818

> <b_lp_Chiralities_Consistent>
1

> <s_lp_Variant>
CHEMBL204_lig4370-1

> <s_i_glide_gridfile>
glide-grid_1ype

> <i_i_glide_lignum>
6028

> <i_i_glide_rotatable_bonds>
10

> <r_i_docking_score>
-7.55916321224001

> <r_i_glide_ligand_efficiency>
-0.209976755895556

> <r_i_glide_ligand_efficiency_sa>
-0.693327971097847

> <r_i_glide_ligand_efficiency_ln>
-1.64920518792188

> <r_i_glide_gscore>
-7.55916321224001

> <r_i_glide_lipo>
-3.54159879407216

> <r_i_glide_hbond>
-0.0297850844308138

> <r_i_glide_metal>
0

> <r_i_glide_rewards>
-0.870825270155472

> <r_i_glide_evdw>
-60.6673736572266

> <r_i_glide_ecoul>
-3.45419812202454

> <r_i_glide_erotb>
0.434544337583445

> <r_i_glide_esite>
0

> <r_i_glide_emodel>
-88.9858929149747

> <r_i_glide_energy>
-64.1215717792511

> <r_i_glide_einternal>
8.20267868041992

> <i_i_glide_confnum>
4

> <i_i_glide_posenum>
254

> <r_i_glide_eff_state_penalty>
0

> <s_user_duplicate_titles>
CHEMBL204_lig4370

> <i_f3d_flags>
0

> <s_m_subgroup_title>
dock_pv

> <s_m_subgroupid>
dock_pv

> <b_m_subgroup_collapsed>
1

$$$$
CHEMBL204_lig4701
                    3D
 Schrodinger Suite 2021-1.
 53 54  0  0  1  0            999 V2000
   20.6286  -13.0517   26.5161 C   0  0  0  0  0  0
   20.2318  -13.2177   25.0395 C   0  0  0  0  0  0
   19.5002  -14.5469   24.7069 C   0  0  1  0  0  0
   18.1251  -14.6657   25.4017 C   0  0  0  0  0  0
   19.4283  -14.8330   23.1769 C   0  0  0  0  0  0
   18.7808  -13.7173   22.3230 C   0  0  0  0  0  0
   17.6327  -13.3682   22.5946 O   0  0  0  0  0  0
   19.4770  -13.1503   21.3080 N   0  0  0  0  0  0
   20.7861  -13.5922   20.8199 C   0  0  0  0  0  0
   20.9802  -12.8527   19.5059 C   0  0  0  0  0  0
   20.2486  -11.5497   19.7452 C   0  0  0  0  0  0
   19.0219  -11.9436   20.5854 C   0  0  1  0  0  0
   17.7625  -12.1865   19.7330 C   0  0  0  0  0  0
   17.8157  -12.9308   18.7540 O   0  0  0  0  0  0
   16.6553  -11.5459   20.1333 N   0  0  0  0  0  0
   15.3304  -11.7412   19.5517 C   0  0  0  0  0  0
   14.2325  -11.4893   20.5745 C   0  0  0  0  0  0
   13.4347  -12.5414   21.0169 C   0  0  0  0  0  0
   12.4628  -12.3178   21.9868 C   0  0  0  0  0  0
   12.2592  -11.0405   22.5445 C   0  0  0  0  0  0
   13.0485   -9.9869   22.0480 C   0  0  0  0  0  0
   14.0185  -10.2046   21.0733 C   0  0  0  0  0  0
   11.2676  -10.7938   23.6342 C   0  0  0  0  0  0
   11.2161   -9.6871   24.2328 N   0  0  0  0  0  0
   10.4452  -11.8530   23.9210 N   0  0  0  0  0  0
   21.1504  -12.1067   26.6722 H   0  0  0  0  0  0
   21.2929  -13.8529   26.8395 H   0  0  0  0  0  0
   19.7587  -13.0530   27.1729 H   0  0  0  0  0  0
   19.6166  -12.3674   24.7416 H   0  0  0  0  0  0
   21.1384  -13.1453   24.4363 H   0  0  0  0  0  0
   20.1142  -15.3480   25.1247 H   0  0  0  0  0  0
   17.4558  -13.8532   25.1208 H   0  0  0  0  0  0
   17.6283  -15.6001   25.1384 H   0  0  0  0  0  0
   18.2183  -14.6535   26.4872 H   0  0  0  0  0  0
   20.4346  -15.0706   22.8388 H   0  0  0  0  0  0
   18.8443  -15.7374   23.0009 H   0  0  0  0  0  0
   21.5511  -13.3023   21.5413 H   0  0  0  0  0  0
   20.8431  -14.6699   20.6627 H   0  0  0  0  0  0
   22.0178  -12.7003   19.2309 H   0  0  0  0  0  0
   20.5002  -13.4078   18.6987 H   0  0  0  0  0  0
   20.8825  -10.8748   20.3208 H   0  0  0  0  0  0
   20.0156  -11.0531   18.8076 H   0  0  0  0  0  0
   18.8151  -11.1446   21.3011 H   0  0  0  0  0  0
   16.7203  -10.9033   20.9109 H   0  0  0  0  0  0
   15.2057  -11.0531   18.7177 H   0  0  0  0  0  0
   15.2236  -12.7368   19.1130 H   0  0  0  0  0  0
   13.5818  -13.5419   20.6361 H   0  0  0  0  0  0
   11.8960  -13.1726   22.3210 H   0  0  0  0  0  0
   12.9297   -8.9841   22.4334 H   0  0  0  0  0  0
   14.6222   -9.3785   20.7241 H   0  0  0  0  0  0
   10.4637   -9.6932   24.9114 H   0  0  0  0  0  0
    9.6711  -11.7309   24.5744 H   0  0  0  0  0  0
   10.5763  -12.7747   23.5211 H   0  0  0  0  0  0
  1  2  1  0  0  0
  1 26  1  0  0  0
  1 27  1  0  0  0
  1 28  1  0  0  0
  2  3  1  0  0  0
  2 29  1  0  0  0
  2 30  1  0  0  0
  3  4  1  0  0  0
  3  5  1  0  0  0
  3 31  1  0  0  0
  4 32  1  0  0  0
  4 33  1  0  0  0
  4 34  1  0  0  0
  5  6  1  0  0  0
  5 35  1  0  0  0
  5 36  1  0  0  0
  6  7  2  0  0  0
  6  8  1  0  0  0
  8  9  1  0  0  0
  8 12  1  0  0  0
  9 10  1  0  0  0
  9 37  1  0  0  0
  9 38  1  0  0  0
 10 11  1  0  0  0
 10 39  1  0  0  0
 10 40  1  0  0  0
 11 12  1  0  0  0
 11 41  1  0  0  0
 11 42  1  0  0  0
 12 13  1  0  0  0
 12 43  1  0  0  0
 13 14  2  0  0  0
 13 15  1  0  0  0
 15 16  1  0  0  0
 15 44  1  0  0  0
 16 17  1  0  0  0
 16 45  1  0  0  0
 16 46  1  0  0  0
 17 18  2  0  0  0
 17 22  1  0  0  0
 18 19  1  0  0  0
 18 47  1  0  0  0
 19 20  2  0  0  0
 19 48  1  0  0  0
 20 21  1  0  0  0
 20 23  1  0  0  0
 21 22  2  0  0  0
 21 49  1  0  0  0
 22 50  1  0  0  0
 23 24  2  0  0  0
 23 25  1  0  0  0
 24 51  1  0  0  0
 25 52  1  0  0  0
 25 53  1  0  0  0
M  END
> <s_m_entry_id>
35279

> <s_m_entry_name>
dock_pv.129

> <s_m_Source_Path>
/home/csk/Desktop/cluster/DUD-E-result/thrb

> <s_m_Source_File>
dock_pv.maegz

> <i_m_Source_File_Index>
129

> <chembl_id>
CHEMBL597809

> <chembl_pref_name>
None

> <i_lp_mmshare_version>
53161

> <r_lp_tautomer_probability>
1

> <s_lp_Force_Field>
OPLS_2005

> <r_lp_Energy>
13.357794

> <b_lp_Chiralities_Consistent>
1

> <s_lp_Variant>
CHEMBL204_lig4701-2

> <s_i_glide_gridfile>
glide-grid_1ype

> <i_i_glide_lignum>
6442

> <i_i_glide_rotatable_bonds>
9

> <r_i_docking_score>
-7.55539607055345

> <r_i_glide_ligand_efficiency>
-0.302215842822138

> <r_i_glide_ligand_efficiency_sa>
-0.883684484232726

> <r_i_glide_ligand_efficiency_ln>
-1.79085528567068

> <r_i_glide_gscore>
-7.55539607055345

> <r_i_glide_lipo>
-3.28290063700687

> <r_i_glide_hbond>
-0.205905643375352

> <r_i_glide_metal>
0

> <r_i_glide_rewards>
-1.7795825216161

> <r_i_glide_evdw>
-40.2114715576172

> <r_i_glide_ecoul>
-8.43948364257812

> <r_i_glide_erotb>
1.12024314335512

> <r_i_glide_esite>
-0.130754287642669

> <r_i_glide_emodel>
-68.7219702961999

> <r_i_glide_energy>
-48.6509552001953

> <r_i_glide_einternal>
4.03527402877808

> <i_i_glide_confnum>
161

> <i_i_glide_posenum>
280

> <r_i_glide_eff_state_penalty>
0

> <s_user_duplicate_titles>
CHEMBL204_lig4701

> <i_f3d_flags>
0

> <s_m_subgroup_title>
dock_pv

> <s_m_subgroupid>
dock_pv

> <b_m_subgroup_collapsed>
1

$$$$
CHEMBL204_lig4197
                    3D
 Schrodinger Suite 2021-1.
 64 66  0  0  1  0            999 V2000
   16.2417  -15.8413   20.8134 C   0  0  0  0  0  0
   15.7302  -14.9850   19.8378 C   0  0  0  0  0  0
   16.0371  -13.6211   19.8354 C   0  0  0  0  0  0
   16.9004  -13.1269   20.8214 C   0  0  0  0  0  0
   17.4605  -13.9659   21.7820 C   0  0  0  0  0  0
   17.1190  -15.3244   21.7791 C   0  0  0  0  0  0
   15.8390  -17.1612   20.7457 O   0  0  0  0  0  0
   16.0580  -18.0427   21.8474 C   0  0  0  0  0  0
   15.4043  -12.7062   18.8073 C   0  0  2  0  0  0
   16.3897  -12.3684   17.6637 C   0  0  0  0  0  0
   17.2135  -11.4537   17.7286 O   0  0  0  0  0  0
   16.2592  -13.2317   16.6140 O   0  0  0  0  0  0
   14.9212  -11.4533   19.3604 N   0  0  0  0  0  0
   13.9739  -11.2955   20.3798 C   0  0  0  0  0  0
   13.0540  -12.2999   20.6763 C   0  0  0  0  0  0
   12.1591  -12.1368   21.7272 C   0  0  0  0  0  0
   12.1555  -10.9653   22.5082 C   0  0  0  0  0  0
   13.0732   -9.9545   22.1670 C   0  0  0  0  0  0
   13.9748  -10.1174   21.1200 C   0  0  0  0  0  0
   11.2286  -10.7802   23.6606 C   0  0  0  0  0  0
   11.2160   -9.7083   24.3209 N   0  0  0  0  0  0
   10.4161  -11.8530   23.9210 N   0  0  0  0  0  0
   15.1593  -17.6964   23.0481 C   0  0  0  0  0  0
   18.3064  -13.3713   22.6948 O   0  0  0  0  0  0
   19.2627  -14.1321   23.4342 C   0  0  0  0  0  0
   20.3066  -14.8371   22.5164 C   0  0  0  0  0  0
   21.5148  -15.3722   23.3156 C   0  0  0  0  0  0
   22.0843  -14.2533   24.0996 N   0  0  1  0  0  0
   21.1530  -13.7463   25.1320 C   0  0  0  0  0  0
   19.9181  -13.1523   24.4396 C   0  0  0  0  0  0
   23.7730  -14.3757   24.5974 S   0  0  0  0  0  0
   23.7205  -15.5977   26.0215 C   0  0  0  0  0  0
   24.5503  -14.9916   23.5210 O   0  0  0  0  0  0
   24.1413  -13.0589   25.1210 O   0  0  0  0  0  0
   15.0568  -15.3905   19.0967 H   0  0  0  0  0  0
   17.1489  -12.0756   20.8401 H   0  0  0  0  0  0
   17.5257  -15.9717   22.5362 H   0  0  0  0  0  0
   15.8136  -19.0485   21.5049 H   0  0  0  0  0  0
   17.1116  -18.0799   22.1284 H   0  0  0  0  0  0
   14.5327  -13.2033   18.3785 H   0  0  0  0  0  0
   15.5699  -13.8871   16.7369 H   0  0  0  0  0  0
   15.5331  -10.6622   19.2017 H   0  0  0  0  0  0
   13.0328  -13.2185   20.1102 H   0  0  0  0  0  0
   11.4736  -12.9493   21.9220 H   0  0  0  0  0  0
   13.1122   -9.0336   22.7322 H   0  0  0  0  0  0
   14.6843   -9.3312   20.9046 H   0  0  0  0  0  0
   10.4938   -9.7461   25.0313 H   0  0  0  0  0  0
    9.6573  -11.7573   24.5962 H   0  0  0  0  0  0
   10.5701  -12.7708   23.5206 H   0  0  0  0  0  0
   15.2914  -18.4186   23.8537 H   0  0  0  0  0  0
   15.3791  -16.7086   23.4531 H   0  0  0  0  0  0
   14.1090  -17.7080   22.7562 H   0  0  0  0  0  0
   18.7160  -14.8748   24.0177 H   0  0  0  0  0  0
   19.8576  -15.6768   21.9870 H   0  0  0  0  0  0
   20.6828  -14.1304   21.7747 H   0  0  0  0  0  0
   21.1404  -16.1353   24.0001 H   0  0  0  0  0  0
   22.2704  -15.7911   22.6508 H   0  0  0  0  0  0
   20.8096  -14.5827   25.7435 H   0  0  0  0  0  0
   21.6460  -12.9958   25.7527 H   0  0  0  0  0  0
   20.2375  -12.2518   23.9216 H   0  0  0  0  0  0
   19.2161  -12.8733   25.2231 H   0  0  0  0  0  0
   24.7427  -15.8503   26.3013 H   0  0  0  0  0  0
   23.2166  -15.1241   26.8580 H   0  0  0  0  0  0
   23.1887  -16.4922   25.7033 H   0  0  0  0  0  0
  1  6  1  0  0  0
  1  2  2  0  0  0
  1  7  1  0  0  0
  2  3  1  0  0  0
  2 35  1  0  0  0
  3  9  1  0  0  0
  3  4  2  0  0  0
  4  5  1  0  0  0
  4 36  1  0  0  0
  5  6  2  0  0  0
  5 24  1  0  0  0
  6 37  1  0  0  0
  7  8  1  0  0  0
  8 23  1  0  0  0
  8 38  1  0  0  0
  8 39  1  0  0  0
  9 10  1  0  0  0
  9 13  1  0  0  0
  9 40  1  0  0  0
 10 11  2  0  0  0
 10 12  1  0  0  0
 12 41  1  0  0  0
 13 14  1  0  0  0
 13 42  1  0  0  0
 14 19  2  0  0  0
 14 15  1  0  0  0
 15 16  2  0  0  0
 15 43  1  0  0  0
 16 17  1  0  0  0
 16 44  1  0  0  0
 17 18  2  0  0  0
 17 20  1  0  0  0
 18 19  1  0  0  0
 18 45  1  0  0  0
 19 46  1  0  0  0
 20 21  2  0  0  0
 20 22  1  0  0  0
 21 47  1  0  0  0
 22 48  1  0  0  0
 22 49  1  0  0  0
 23 50  1  0  0  0
 23 51  1  0  0  0
 23 52  1  0  0  0
 24 25  1  0  0  0
 25 26  1  0  0  0
 25 30  1  0  0  0
 25 53  1  0  0  0
 26 27  1  0  0  0
 26 54  1  0  0  0
 26 55  1  0  0  0
 27 28  1  0  0  0
 27 56  1  0  0  0
 27 57  1  0  0  0
 28 29  1  0  0  0
 28 31  1  0  0  0
 29 30  1  0  0  0
 29 58  1  0  0  0
 29 59  1  0  0  0
 30 60  1  0  0  0
 30 61  1  0  0  0
 31 32  1  0  0  0
 31 33  2  0  0  0
 31 34  2  0  0  0
 32 62  1  0  0  0
 32 63  1  0  0  0
 32 64  1  0  0  0
M  END
> <s_m_entry_id>
35280

> <s_m_entry_name>
dock_pv.130

> <s_m_Source_Path>
/home/csk/Desktop/cluster/DUD-E-result/thrb

> <s_m_Source_File>
dock_pv.maegz

> <i_m_Source_File_Index>
130

> <chembl_id>
CHEMBL199277

> <chembl_pref_name>
None

> <i_lp_mmshare_version>
53161

> <r_lp_tautomer_probability>
1

> <s_lp_Force_Field>
OPLS_2005

> <r_lp_Energy>
17.585391

> <b_lp_Chiralities_Consistent>
1

> <s_lp_Variant>
CHEMBL204_lig4197-1

> <s_i_glide_gridfile>
glide-grid_1ype

> <i_i_glide_lignum>
5836

> <i_i_glide_rotatable_bonds>
11

> <r_i_docking_score>
-7.54491545765422

> <r_i_glide_ligand_efficiency>
-0.2219092781663

> <r_i_glide_ligand_efficiency_sa>
-0.718899915515481

> <r_i_glide_ligand_efficiency_ln>
-1.6668834523061

> <r_i_glide_gscore>
-7.54491545765422

> <r_i_glide_lipo>
-2.57333393970205

> <r_i_glide_hbond>
-0.635916154854111

> <r_i_glide_metal>
0

> <r_i_glide_rewards>
-0.665156491774954

> <r_i_glide_evdw>
-44.0407752990723

> <r_i_glide_ecoul>
-12.3816146850586

> <r_i_glide_erotb>
0.59195144386212

> <r_i_glide_esite>
-0.203179347472824

> <r_i_glide_emodel>
-76.0203429696701

> <r_i_glide_energy>
-56.4223899841309

> <r_i_glide_einternal>
14.0779056549072

> <i_i_glide_confnum>
24

> <i_i_glide_posenum>
204

> <r_i_glide_eff_state_penalty>
0

> <s_user_duplicate_titles>
CHEMBL204_lig4197

> <i_f3d_flags>
0

> <s_m_subgroup_title>
dock_pv

> <s_m_subgroupid>
dock_pv

> <b_m_subgroup_collapsed>
1

$$$$
CHEMBL204_lig5014
                    3D
 Schrodinger Suite 2021-1.
 53 54  0  0  1  0            999 V2000
   19.2330  -13.1409   21.0512 N   0  0  0  0  0  0
   18.8635  -12.0709   20.0931 C   0  0  1  0  0  0
   20.0517  -12.0418   19.1098 C   0  0  0  0  0  0
   21.2168  -12.5789   19.9032 C   0  0  0  0  0  0
   20.5740  -13.6489   20.7637 C   0  0  0  0  0  0
   18.4612  -13.5472   22.0904 C   0  0  0  0  0  0
   18.9394  -14.6895   23.0107 C   0  0  0  0  0  0
   17.5154  -12.2820   19.3728 C   0  0  0  0  0  0
   16.4714  -11.5860   19.8442 N   0  0  0  0  0  0
   17.4440  -13.0530   18.4175 O   0  0  0  0  0  0
   15.1016  -11.7461   19.3596 C   0  0  0  0  0  0
   14.0661  -11.4793   20.4439 C   0  0  0  0  0  0
   14.0220  -10.2477   21.1000 C   0  0  0  0  0  0
   13.0932  -10.0301   22.1136 C   0  0  0  0  0  0
   12.1885  -11.0329   22.5071 C   0  0  0  0  0  0
   12.2314  -12.2524   21.8043 C   0  0  0  0  0  0
   13.1552  -12.4752   20.7896 C   0  0  0  0  0  0
   11.2398  -10.7961   23.6353 C   0  0  0  0  0  0
   11.2160   -9.7035   24.2603 N   0  0  0  0  0  0
   10.4160  -11.8530   23.9210 N   0  0  0  0  0  0
   17.3598  -13.0502   22.3209 O   0  0  0  0  0  0
   19.3261  -14.2303   24.4406 C   0  0  0  0  0  0
   20.6911  -13.5065   24.5799 C   0  0  0  0  0  0
   21.8868  -14.4625   24.3922 C   0  0  0  0  0  0
   20.8062  -12.7874   25.9370 C   0  0  0  0  0  0
   18.8401  -11.1332   20.6516 H   0  0  0  0  0  0
   20.2701  -11.0531   18.7230 H   0  0  0  0  0  0
   19.8871  -12.6988   18.2551 H   0  0  0  0  0  0
   21.6223  -11.7903   20.5369 H   0  0  0  0  0  0
   22.0160  -12.9540   19.2698 H   0  0  0  0  0  0
   21.1796  -13.8189   21.6499 H   0  0  0  0  0  0
   20.4881  -14.5874   20.2148 H   0  0  0  0  0  0
   19.7127  -15.3073   22.5597 H   0  0  0  0  0  0
   18.0830  -15.3594   23.0990 H   0  0  0  0  0  0
   16.6136  -10.9488   20.6150 H   0  0  0  0  0  0
   14.9395  -11.0530   18.5365 H   0  0  0  0  0  0
   14.9446  -12.7378   18.9258 H   0  0  0  0  0  0
   14.7190   -9.4641   20.8402 H   0  0  0  0  0  0
   13.0997   -9.0712   22.6137 H   0  0  0  0  0  0
   11.5552  -13.0596   22.0389 H   0  0  0  0  0  0
   13.1675  -13.4320   20.2886 H   0  0  0  0  0  0
   10.4814   -9.7193   24.9586 H   0  0  0  0  0  0
    9.6535  -11.7356   24.5891 H   0  0  0  0  0  0
   10.5487  -12.7753   23.5217 H   0  0  0  0  0  0
   19.3288  -15.1022   25.0970 H   0  0  0  0  0  0
   18.5311  -13.5975   24.8403 H   0  0  0  0  0  0
   20.7483  -12.7353   23.8095 H   0  0  0  0  0  0
   21.9078  -15.2261   25.1715 H   0  0  0  0  0  0
   22.8339  -13.9238   24.4377 H   0  0  0  0  0  0
   21.8576  -14.9822   23.4363 H   0  0  0  0  0  0
   20.7372  -13.4889   26.7715 H   0  0  0  0  0  0
   21.7548  -12.2575   26.0300 H   0  0  0  0  0  0
   20.0162  -12.0477   26.0620 H   0  0  0  0  0  0
  1  2  1  0  0  0
  1  5  1  0  0  0
  1  6  1  0  0  0
  2  3  1  0  0  0
  2  8  1  0  0  0
  2 26  1  0  0  0
  3  4  1  0  0  0
  3 27  1  0  0  0
  3 28  1  0  0  0
  4  5  1  0  0  0
  4 29  1  0  0  0
  4 30  1  0  0  0
  5 31  1  0  0  0
  5 32  1  0  0  0
  6  7  1  0  0  0
  6 21  2  0  0  0
  7 22  1  0  0  0
  7 33  1  0  0  0
  7 34  1  0  0  0
  8  9  1  0  0  0
  8 10  2  0  0  0
  9 11  1  0  0  0
  9 35  1  0  0  0
 11 12  1  0  0  0
 11 36  1  0  0  0
 11 37  1  0  0  0
 12 13  2  0  0  0
 12 17  1  0  0  0
 13 14  1  0  0  0
 13 38  1  0  0  0
 14 15  2  0  0  0
 14 39  1  0  0  0
 15 16  1  0  0  0
 15 18  1  0  0  0
 16 17  2  0  0  0
 16 40  1  0  0  0
 17 41  1  0  0  0
 18 19  2  0  0  0
 18 20  1  0  0  0
 19 42  1  0  0  0
 20 43  1  0  0  0
 20 44  1  0  0  0
 22 23  1  0  0  0
 22 45  1  0  0  0
 22 46  1  0  0  0
 23 24  1  0  0  0
 23 25  1  0  0  0
 23 47  1  0  0  0
 24 48  1  0  0  0
 24 49  1  0  0  0
 24 50  1  0  0  0
 25 51  1  0  0  0
 25 52  1  0  0  0
 25 53  1  0  0  0
M  END
> <s_m_entry_id>
35281

> <s_m_entry_name>
dock_pv.131

> <s_m_Source_Path>
/home/csk/Desktop/cluster/DUD-E-result/thrb

> <s_m_Source_File>
dock_pv.maegz

> <i_m_Source_File_Index>
131

> <chembl_id>
CHEMBL3423005

> <chembl_pref_name>
None

> <i_lp_mmshare_version>
53161

> <r_lp_tautomer_probability>
1

> <s_lp_Force_Field>
OPLS_2005

> <r_lp_Energy>
12.662384

> <b_lp_Chiralities_Consistent>
1

> <s_lp_Variant>
CHEMBL204_lig5014-1

> <s_i_glide_gridfile>
glide-grid_1ype

> <i_i_glide_lignum>
6861

> <i_i_glide_rotatable_bonds>
9

> <r_i_docking_score>
-7.5437037986767

> <r_i_glide_ligand_efficiency>
-0.301748151947068

> <r_i_glide_ligand_efficiency_sa>
-0.882316947819488

> <r_i_glide_ligand_efficiency_ln>
-1.78808386684677

> <r_i_glide_gscore>
-7.5437037986767

> <r_i_glide_lipo>
-3.32686353768409

> <r_i_glide_hbond>
-0.204205839261885

> <r_i_glide_metal>
0

> <r_i_glide_rewards>
-1.77117558033293

> <r_i_glide_evdw>
-39.1412620544434

> <r_i_glide_ecoul>
-8.47179889678955

> <r_i_glide_erotb>
1.12024314335512

> <r_i_glide_esite>
-0.133869047512302

> <r_i_glide_emodel>
-67.8614092794598

> <r_i_glide_energy>
-47.6130609512329

> <r_i_glide_einternal>
3.62049412727356

> <i_i_glide_confnum>
31

> <i_i_glide_posenum>
312

> <r_i_glide_eff_state_penalty>
0

> <s_user_duplicate_titles>
CHEMBL204_lig5014,CHEMBL204_lig5169

> <i_f3d_flags>
0

> <s_m_subgroup_title>
dock_pv

> <s_m_subgroupid>
dock_pv

> <b_m_subgroup_collapsed>
1

$$$$
CHEMBL204_lig4087
                    3D
 Schrodinger Suite 2021-1.
 50 52  0  0  1  0            999 V2000
   11.9073   -9.8529   23.3690 C   0  0  0  0  0  0
   19.0403  -12.3853   19.6383 C   0  0  0  0  0  0
   12.4796  -10.7001   22.2813 C   0  0  0  0  0  0
   19.1531  -13.3014   20.6969 C   0  0  0  0  0  0
   12.4165   -8.7330   23.6520 N   0  0  0  0  0  0
   20.3862  -13.4062   21.3119 O   0  0  0  0  0  0
   17.8240  -12.2282   18.9668 C   0  0  0  0  0  0
   14.1912  -13.1344   19.2708 N   0  0  0  0  0  0
   18.0156  -14.0345   21.0745 C   0  0  0  0  0  0
   13.6164  -10.2686   21.5721 C   0  0  0  0  0  0
   11.9376  -11.9498   21.9266 C   0  0  0  0  0  0
   10.8162  -10.3865   24.0088 N   0  0  0  0  0  0
   13.6439  -12.2916   20.2502 C   0  0  0  0  0  0
   16.7004  -12.9764   19.3285 C   0  0  0  0  0  0
   15.4064  -12.8096   18.5234 C   0  0  0  0  0  0
   20.7318  -14.5445   22.0996 C   0  0  0  0  0  0
   14.1969  -11.0534   20.5790 C   0  0  0  0  0  0
   12.5052  -12.7285   20.9219 C   0  0  0  0  0  0
   16.8084  -13.8787   20.3935 C   0  0  0  0  0  0
   20.1038  -11.6061   19.2495 O   0  0  0  0  0  0
   21.0542  -14.1183   23.5220 C   0  0  0  0  0  0
   21.1231  -12.2940   18.5358 C   0  0  0  0  0  0
   20.0743  -13.4915   24.2980 C   0  0  0  0  0  0
   22.3208  -14.3641   24.0625 C   0  0  0  0  0  0
   22.6042  -13.9953   25.3755 C   0  0  0  0  0  0
   20.3586  -13.1276   25.6111 C   0  0  0  0  0  0
   21.6177  -13.3840   26.1451 C   0  0  0  0  0  0
   11.9231   -8.2928   24.4120 H   0  0  0  0  0  0
   17.7620  -11.5199   18.1543 H   0  0  0  0  0  0
   13.6439  -13.9268   18.9654 H   0  0  0  0  0  0
   18.0359  -14.7223   21.9049 H   0  0  0  0  0  0
   14.0807   -9.3192   21.8018 H   0  0  0  0  0  0
   11.0664  -12.3494   22.4264 H   0  0  0  0  0  0
   10.2944   -9.8625   24.7021 H   0  0  0  0  0  0
   10.3390  -11.1913   23.6302 H   0  0  0  0  0  0
   15.4584  -13.4632   17.6514 H   0  0  0  0  0  0
   15.3358  -11.7918   18.1363 H   0  0  0  0  0  0
   20.0069  -15.3575   22.1097 H   0  0  0  0  0  0
   21.6156  -14.9791   21.6368 H   0  0  0  0  0  0
   15.0826  -10.6867   20.0837 H   0  0  0  0  0  0
   12.0599  -13.6852   20.6863 H   0  0  0  0  0  0
   15.9549  -14.4660   20.7005 H   0  0  0  0  0  0
   21.8834  -11.5767   18.2269 H   0  0  0  0  0  0
   21.6161  -13.0531   19.1439 H   0  0  0  0  0  0
   20.7312  -12.7709   17.6359 H   0  0  0  0  0  0
   19.0956  -13.2927   23.8841 H   0  0  0  0  0  0
   23.0864  -14.8440   23.4710 H   0  0  0  0  0  0
   23.5801  -14.1867   25.7984 H   0  0  0  0  0  0
   19.6072  -12.6521   26.2228 H   0  0  0  0  0  0
   21.8262  -13.1003   27.1637 H   0  0  0  0  0  0
  1  3  1  0  0  0
  1  5  2  0  0  0
  1 12  1  0  0  0
  2  7  2  0  0  0
  2 20  1  0  0  0
  2  4  1  0  0  0
  3 10  2  0  0  0
  3 11  1  0  0  0
  4  9  2  0  0  0
  4  6  1  0  0  0
  5 28  1  0  0  0
  6 16  1  0  0  0
  7 14  1  0  0  0
  7 29  1  0  0  0
  8 13  1  0  0  0
  8 15  1  0  0  0
  8 30  1  0  0  0
  9 19  1  0  0  0
  9 31  1  0  0  0
 10 17  1  0  0  0
 10 32  1  0  0  0
 11 18  2  0  0  0
 11 33  1  0  0  0
 12 34  1  0  0  0
 12 35  1  0  0  0
 13 18  1  0  0  0
 13 17  2  0  0  0
 14 15  1  0  0  0
 14 19  2  0  0  0
 15 36  1  0  0  0
 15 37  1  0  0  0
 16 21  1  0  0  0
 16 38  1  0  0  0
 16 39  1  0  0  0
 17 40  1  0  0  0
 18 41  1  0  0  0
 19 42  1  0  0  0
 20 22  1  0  0  0
 21 23  2  0  0  0
 21 24  1  0  0  0
 22 43  1  0  0  0
 22 44  1  0  0  0
 22 45  1  0  0  0
 23 26  1  0  0  0
 23 46  1  0  0  0
 24 25  2  0  0  0
 24 47  1  0  0  0
 25 27  1  0  0  0
 25 48  1  0  0  0
 26 27  2  0  0  0
 26 49  1  0  0  0
 27 50  1  0  0  0
M  END
> <s_m_entry_id>
35283

> <s_m_entry_name>
dock_pv.133

> <s_m_Source_Path>
/home/csk/Desktop/cluster/DUD-E-result/thrb

> <s_m_Source_File>
dock_pv.maegz

> <i_m_Source_File_Index>
133

> <chembl_id>
CHEMBL179938

> <chembl_pref_name>
None

> <i_lp_mmshare_version>
53161

> <r_lp_tautomer_probability>
1

> <s_lp_Force_Field>
OPLS_2005

> <r_lp_Energy>
22.961978

> <b_lp_Chiralities_Consistent>
1

> <s_lp_Variant>
CHEMBL204_lig4087-1

> <s_i_glide_gridfile>
glide-grid_1ype

> <i_i_glide_lignum>
5682

> <i_i_glide_rotatable_bonds>
8

> <r_i_docking_score>
-7.53795916857776

> <r_i_glide_ligand_efficiency>
-0.279183672910288

> <r_i_glide_ligand_efficiency_sa>
-0.837551017810719

> <r_i_glide_ligand_efficiency_ln>
-1.75471262147555

> <r_i_glide_gscore>
-7.53795916857776

> <r_i_glide_lipo>
-3.89389243312669

> <r_i_glide_hbond>
-0.104742701394958

> <r_i_glide_metal>
0

> <r_i_glide_rewards>
-1.3715373324725

> <r_i_glide_evdw>
-46.1388626098633

> <r_i_glide_ecoul>
-4.63221979141235

> <r_i_glide_erotb>
0.881398855277595

> <r_i_glide_esite>
-0.0474094576561972

> <r_i_glide_emodel>
-69.8767370297382

> <r_i_glide_energy>
-50.7710824012756

> <r_i_glide_einternal>
9.77944087982178

> <i_i_glide_confnum>
68

> <i_i_glide_posenum>
362

> <r_i_glide_eff_state_penalty>
0

> <s_user_duplicate_titles>
CHEMBL204_lig4087,303014

> <i_f3d_flags>
0

> <s_m_subgroup_title>
dock_pv

> <s_m_subgroupid>
dock_pv

> <b_m_subgroup_collapsed>
1

$$$$
CHEMBL204_lig4369
                    3D
 Schrodinger Suite 2021-1.
 58 61  0  0  1  0            999 V2000
   20.4502  -15.2747   22.7258 C   0  0  0  0  0  0
   19.6935  -14.4800   21.6773 C   0  0  0  0  0  0
   20.2349  -13.4053   20.9810 C   0  0  0  0  0  0
   19.1517  -12.6987   19.8370 S   0  0  0  0  0  0
   17.9148  -13.8481   20.2637 C   0  0  0  0  0  0
   18.3712  -14.7364   21.2583 C   0  0  0  0  0  0
   17.4561  -16.0523   21.9117 Cl  0  0  0  0  0  0
   16.6717  -13.8525   19.5199 C   0  0  0  0  0  0
   15.6240  -14.3555   20.1986 N   0  0  0  0  0  0
   16.6093  -13.4516   18.3541 O   0  0  0  0  0  0
   14.4140  -14.7834   19.6212 C   0  0  0  0  0  0
   13.2318  -14.0346   19.8098 C   0  0  0  0  0  0
   12.0165  -14.5697   19.3714 C   0  0  0  0  0  0
   11.9678  -15.7978   18.7213 C   0  0  0  0  0  0
   13.1401  -16.5135   18.4994 C   0  0  0  0  0  0
   14.3772  -16.0242   18.9519 C   0  0  0  0  0  0
   13.2544  -12.6443   20.3935 C   0  0  0  0  0  0
   14.0480  -11.8137   19.9472 O   0  0  0  0  0  0
   12.3716  -12.4171   21.3909 N   0  0  0  0  0  0
   10.4521  -16.4156   18.1734 Cl  0  0  0  0  0  0
   12.2506  -11.2535   22.1679 C   0  0  0  0  0  0
   13.0222  -10.1537   21.9264 N   0  0  0  0  0  0
   12.9000   -9.0841   22.7431 C   0  0  0  0  0  0
   12.0161   -9.0530   23.8173 C   0  0  0  0  0  0
   11.2161  -10.1734   24.0546 C   0  0  0  0  0  0
   11.3301  -11.2886   23.2199 C   0  0  0  0  0  0
   11.9161   -7.6369   24.7955 Cl  0  0  0  0  0  0
   15.5685  -16.7170   18.8004 O   0  0  0  0  0  0
   15.5867  -17.9400   18.0732 C   0  0  0  0  0  0
   20.4153  -14.6251   24.0326 N   0  0  0  0  0  0
   19.3389  -14.5488   24.8808 C   0  0  0  0  0  0
   19.7920  -13.8529   25.9882 C   0  0  0  0  0  0
   21.0577  -13.4968   25.8635 N   0  0  0  0  0  0
   21.4328  -13.9663   24.6937 C   0  0  0  0  0  0
   22.6880  -13.8526   24.1508 N   0  0  0  0  0  0
   23.8758  -13.4178   24.8609 C   0  0  0  0  0  0
   25.1412  -14.0214   24.2543 C   0  0  0  0  0  0
   21.4891  -15.4223   22.4295 H   0  0  0  0  0  0
   20.0506  -16.2810   22.8530 H   0  0  0  0  0  0
   21.2290  -12.9971   21.0908 H   0  0  0  0  0  0
   15.7748  -14.6248   21.1593 H   0  0  0  0  0  0
   11.1004  -14.0121   19.4943 H   0  0  0  0  0  0
   13.0663  -17.4577   17.9820 H   0  0  0  0  0  0
   11.7763  -13.1831   21.6683 H   0  0  0  0  0  0
   13.5537   -8.2527   22.5382 H   0  0  0  0  0  0
   10.5010  -10.1827   24.8655 H   0  0  0  0  0  0
   10.7115  -12.1566   23.4042 H   0  0  0  0  0  0
   16.6096  -18.3144   18.0296 H   0  0  0  0  0  0
   14.9773  -18.7030   18.5592 H   0  0  0  0  0  0
   15.2409  -17.8002   17.0474 H   0  0  0  0  0  0
   18.3832  -14.9840   24.6269 H   0  0  0  0  0  0
   19.2167  -13.6010   26.8675 H   0  0  0  0  0  0
   22.7814  -13.7210   23.1555 H   0  0  0  0  0  0
   23.8052  -13.7013   25.9126 H   0  0  0  0  0  0
   23.9304  -12.3291   24.8296 H   0  0  0  0  0  0
   26.0158  -13.5801   24.7210 H   0  0  0  0  0  0
   25.2157  -13.8403   23.1820 H   0  0  0  0  0  0
   25.1850  -15.0989   24.4189 H   0  0  0  0  0  0
  1 30  1  0  0  0
  1  2  1  0  0  0
  1 38  1  0  0  0
  1 39  1  0  0  0
  2  3  2  0  0  0
  2  6  1  0  0  0
  3  4  1  0  0  0
  3 40  1  0  0  0
  4  5  1  0  0  0
  5  8  1  0  0  0
  5  6  2  0  0  0
  6  7  1  0  0  0
  8  9  1  0  0  0
  8 10  2  0  0  0
  9 11  1  0  0  0
  9 41  1  0  0  0
 11 12  2  0  0  0
 11 16  1  0  0  0
 12 13  1  0  0  0
 12 17  1  0  0  0
 13 14  2  0  0  0
 13 42  1  0  0  0
 14 15  1  0  0  0
 14 20  1  0  0  0
 15 16  2  0  0  0
 15 43  1  0  0  0
 16 28  1  0  0  0
 17 18  2  0  0  0
 17 19  1  0  0  0
 19 21  1  0  0  0
 19 44  1  0  0  0
 21 22  2  0  0  0
 21 26  1  0  0  0
 22 23  1  0  0  0
 23 24  2  0  0  0
 23 45  1  0  0  0
 24 25  1  0  0  0
 24 27  1  0  0  0
 25 26  2  0  0  0
 25 46  1  0  0  0
 26 47  1  0  0  0
 28 29  1  0  0  0
 29 48  1  0  0  0
 29 49  1  0  0  0
 29 50  1  0  0  0
 30 31  1  0  0  0
 30 34  1  0  0  0
 31 32  2  0  0  0
 31 51  1  0  0  0
 32 33  1  0  0  0
 32 52  1  0  0  0
 33 34  2  0  0  0
 34 35  1  0  0  0
 35 36  1  0  0  0
 35 53  1  0  0  0
 36 37  1  0  0  0
 36 54  1  0  0  0
 36 55  1  0  0  0
 37 56  1  0  0  0
 37 57  1  0  0  0
 37 58  1  0  0  0
M  END
> <s_m_entry_id>
35284

> <s_m_entry_name>
dock_pv.134

> <s_m_Source_Path>
/home/csk/Desktop/cluster/DUD-E-result/thrb

> <s_m_Source_File>
dock_pv.maegz

> <i_m_Source_File_Index>
134

> <chembl_id>
CHEMBL226879

> <chembl_pref_name>
None

> <i_lp_mmshare_version>
53161

> <r_lp_tautomer_probability>
0.999996246217491

> <s_lp_Force_Field>
OPLS_2005

> <r_lp_Energy>
27.630636

> <b_lp_Chiralities_Consistent>
1

> <s_lp_Variant>
CHEMBL204_lig4369-1

> <s_i_glide_gridfile>
glide-grid_1ype

> <i_i_glide_lignum>
6027

> <i_i_glide_rotatable_bonds>
11

> <r_i_docking_score>
-7.53335568708726

> <r_i_glide_ligand_efficiency>
-0.203604207759115

> <r_i_glide_ligand_efficiency_sa>
-0.678454389365372

> <r_i_glide_ligand_efficiency_ln>
-1.63380824161476

> <r_i_glide_gscore>
-7.53335568708726

> <r_i_glide_lipo>
-3.62461245803335

> <r_i_glide_hbond>
0

> <r_i_glide_metal>
0

> <r_i_glide_rewards>
-0.722506477107713

> <r_i_glide_evdw>
-59.8642425537109

> <r_i_glide_ecoul>
-4.35346174240112

> <r_i_glide_erotb>
0.459994637099512

> <r_i_glide_esite>
0

> <r_i_glide_emodel>
-89.5240754838326

> <r_i_glide_energy>
-64.2177042961121

> <r_i_glide_einternal>
7.54144334793091

> <i_i_glide_confnum>
14

> <i_i_glide_posenum>
288

> <r_i_glide_eff_state_penalty>
0

> <s_user_duplicate_titles>
CHEMBL204_lig4369

> <i_f3d_flags>
0

> <s_m_subgroup_title>
dock_pv

> <s_m_subgroupid>
dock_pv

> <b_m_subgroup_collapsed>
1

$$$$
CHEMBL204_lig4973
                    3D
 Schrodinger Suite 2021-1.
 48 50  0  0  1  0            999 V2000
   16.7016  -12.4590   15.1529 C   0  0  0  0  0  0
   16.5189  -12.3959   16.6523 C   0  0  0  0  0  0
   17.6114  -12.0767   17.4716 C   0  0  0  0  0  0
   17.4916  -12.0508   18.8588 C   0  0  0  0  0  0
   16.2518  -12.3103   19.4447 C   0  0  0  0  0  0
   15.1280  -12.5643   18.6487 C   0  0  0  0  0  0
   15.2757  -12.6347   17.2621 C   0  0  0  0  0  0
   17.6150  -11.8537   14.5918 O   0  0  0  0  0  0
   15.8518  -13.2153   14.4594 N   0  0  0  0  0  0
   13.8761  -12.7799   19.1865 O   0  0  0  0  0  0
   13.3970  -12.0381   20.2498 C   0  0  0  0  0  0
   13.8212  -10.7345   20.5297 C   0  0  0  0  0  0
   13.2989  -10.0391   21.6132 C   0  0  0  0  0  0
   12.3277  -10.6133   22.4527 C   0  0  0  0  0  0
   11.8969  -11.9184   22.1386 C   0  0  0  0  0  0
   12.4183  -12.6155   21.0521 C   0  0  0  0  0  0
   11.7953   -9.8530   23.6223 C   0  0  0  0  0  0
   10.8161  -10.5043   24.3219 N   0  0  0  0  0  0
   12.2293   -8.7056   23.9157 N   0  0  0  0  0  0
   18.5889  -11.6914   19.6041 O   0  0  0  0  0  0
   19.1080  -12.5810   20.5106 C   0  0  0  0  0  0
   20.1856  -13.3822   20.1459 C   0  0  0  0  0  0
   20.7800  -14.2171   21.0879 C   0  0  0  0  0  0
   20.3231  -14.2721   22.4204 C   0  0  0  0  0  0
   19.2161  -13.4649   22.7528 C   0  0  0  0  0  0
   18.6171  -12.6310   21.8122 C   0  0  0  0  0  0
   21.0077  -15.1439   23.4253 C   0  0  0  0  0  0
   20.4647  -15.1149   24.6880 N   0  0  0  0  0  0
   22.0119  -15.8421   23.1220 N   0  0  0  0  0  0
   18.5765  -11.8586   17.0377 H   0  0  0  0  0  0
   16.1461  -12.2750   20.5167 H   0  0  0  0  0  0
   14.4022  -12.8588   16.6675 H   0  0  0  0  0  0
   15.9420  -13.2757   13.4568 H   0  0  0  0  0  0
   15.1552  -13.7761   14.9265 H   0  0  0  0  0  0
   14.5684  -10.2546   19.9210 H   0  0  0  0  0  0
   13.6744   -9.0421   21.7891 H   0  0  0  0  0  0
   11.1510  -12.4282   22.7319 H   0  0  0  0  0  0
   12.0673  -13.6153   20.8423 H   0  0  0  0  0  0
   10.2794   -9.9911   25.0150 H   0  0  0  0  0  0
   10.3353  -11.2921   23.9125 H   0  0  0  0  0  0
   12.9593   -8.3918   23.2980 H   0  0  0  0  0  0
   20.5758  -13.3424   19.1398 H   0  0  0  0  0  0
   21.6159  -14.8155   20.7569 H   0  0  0  0  0  0
   18.8067  -13.4523   23.7514 H   0  0  0  0  0  0
   17.7952  -11.9932   22.1024 H   0  0  0  0  0  0
   20.8969  -15.6678   25.4114 H   0  0  0  0  0  0
   19.6676  -14.5404   24.9103 H   0  0  0  0  0  0
   22.2930  -15.7453   22.1544 H   0  0  0  0  0  0
  1  2  1  0  0  0
  1  8  2  0  0  0
  1  9  1  0  0  0
  2  3  1  0  0  0
  2  7  2  0  0  0
  3  4  2  0  0  0
  3 30  1  0  0  0
  4  5  1  0  0  0
  4 20  1  0  0  0
  5  6  2  0  0  0
  5 31  1  0  0  0
  6  7  1  0  0  0
  6 10  1  0  0  0
  7 32  1  0  0  0
  9 33  1  0  0  0
  9 34  1  0  0  0
 10 11  1  0  0  0
 11 12  1  0  0  0
 11 16  2  0  0  0
 12 13  2  0  0  0
 12 35  1  0  0  0
 13 14  1  0  0  0
 13 36  1  0  0  0
 14 15  2  0  0  0
 14 17  1  0  0  0
 15 16  1  0  0  0
 15 37  1  0  0  0
 16 38  1  0  0  0
 17 18  1  0  0  0
 17 19  2  0  0  0
 18 39  1  0  0  0
 18 40  1  0  0  0
 19 41  1  0  0  0
 20 21  1  0  0  0
 21 22  1  0  0  0
 21 26  2  0  0  0
 22 23  2  0  0  0
 22 42  1  0  0  0
 23 24  1  0  0  0
 23 43  1  0  0  0
 24 25  2  0  0  0
 24 27  1  0  0  0
 25 26  1  0  0  0
 25 44  1  0  0  0
 26 45  1  0  0  0
 27 28  1  0  0  0
 27 29  2  0  0  0
 28 46  1  0  0  0
 28 47  1  0  0  0
 29 48  1  0  0  0
M  END
> <s_m_entry_id>
35285

> <s_m_entry_name>
dock_pv.135

> <s_m_Source_Path>
/home/csk/Desktop/cluster/DUD-E-result/thrb

> <s_m_Source_File>
dock_pv.maegz

> <i_m_Source_File_Index>
135

> <chembl_id>
CHEMBL3289015

> <chembl_pref_name>
None

> <i_lp_mmshare_version>
53161

> <r_lp_tautomer_probability>
1

> <s_lp_Force_Field>
OPLS_2005

> <r_lp_Energy>
14.698767

> <b_lp_Chiralities_Consistent>
1

> <s_lp_Variant>
CHEMBL204_lig4973-1

> <s_i_glide_gridfile>
glide-grid_1ype

> <i_i_glide_lignum>
6784

> <i_i_glide_rotatable_bonds>
7

> <r_i_docking_score>
-7.52798128107138

> <r_i_glide_ligand_efficiency>
-0.259585561416254

> <r_i_glide_ligand_efficiency_sa>
-0.797529087149093

> <r_i_glide_ligand_efficiency_ln>
-1.72371682023077

> <r_i_glide_gscore>
-7.52798128107138

> <r_i_glide_lipo>
-2.80035115637508

> <r_i_glide_hbond>
-0.271764822453121

> <r_i_glide_metal>
0

> <r_i_glide_rewards>
-1.38282847876872

> <r_i_glide_evdw>
-43.2307968139648

> <r_i_glide_ecoul>
-8.51384258270264

> <r_i_glide_erotb>
0.514223149589743

> <r_i_glide_esite>
-0.148643744960566

> <r_i_glide_emodel>
-76.2024407405068

> <r_i_glide_energy>
-51.7446393966675

> <r_i_glide_einternal>
3.39725542068481

> <i_i_glide_confnum>
2

> <i_i_glide_posenum>
383

> <r_i_glide_eff_state_penalty>
0

> <s_user_duplicate_titles>
CHEMBL204_lig4973

> <i_f3d_flags>
0

> <s_m_subgroup_title>
dock_pv

> <s_m_subgroupid>
dock_pv

> <b_m_subgroup_collapsed>
1

$$$$
CHEMBL204_lig566
                    3D
 Schrodinger Suite 2021-1.
 68 72  0  0  1  0            999 V2000
   20.0359  -15.7234   22.7157 C   0  0  0  0  0  0
   18.6831  -12.2530   18.3243 N   0  0  0  0  0  0
   17.3809  -11.8911   18.0532 C   0  0  0  0  0  0
   16.6924  -13.2290   20.0209 N   0  0  0  0  0  0
   16.4038  -12.4768   19.0181 C   0  0  0  0  0  0
   20.0672  -14.5485   24.9404 C   0  0  0  0  0  0
   20.7237  -15.1328   23.8902 N   0  0  0  0  0  0
   18.0438  -13.5335   20.2736 C   0  0  0  0  0  0
   19.0787  -13.0319   19.4542 C   0  0  0  0  0  0
   20.5327  -17.0953   22.2540 C   0  0  0  0  0  0
   19.2064  -16.9930   22.9229 C   0  0  0  0  0  0
   19.6655  -14.7270   21.6176 C   0  0  0  0  0  0
   18.5404  -14.6667   25.0722 C   0  0  0  0  0  0
   18.3368  -14.3794   21.3446 C   0  0  0  0  0  0
   11.6143  -10.8464   23.3957 C   0  0  0  0  0  0
   18.0674  -15.8701   25.8934 C   0  0  0  0  0  0
   20.4070  -13.3642   19.7480 C   0  0  0  0  0  0
   14.9117  -12.1939   18.7581 C   0  0  0  0  0  0
   20.6505  -13.9216   25.8264 O   0  0  0  0  0  0
   17.0600  -11.1704   17.1024 O   0  0  0  0  0  0
   12.4612  -11.2204   22.2259 C   0  0  0  0  0  0
   11.6315   -9.6851   23.8807 N   0  0  0  0  0  0
   20.6818  -14.2101   20.8146 C   0  0  0  0  0  0
   22.1996  -15.0516   23.7195 C   0  0  0  0  0  0
   18.7531  -16.4627   26.7235 O   0  0  0  0  0  0
   13.4393  -10.3297   21.7478 C   0  0  0  0  0  0
   12.3196  -12.4495   21.5521 C   0  0  0  0  0  0
   10.8160  -11.8528   23.8814 N   0  0  0  0  0  0
   14.0688  -11.8649   19.9923 C   0  0  0  0  0  0
   19.7438  -11.8536   17.3793 C   0  0  0  0  0  0
   16.8160  -16.2526   25.5210 O   0  0  0  0  0  0
   13.1038  -12.7639   20.4452 C   0  0  0  0  0  0
   14.2414  -10.6521   20.6583 C   0  0  0  0  0  0
   22.7631  -13.6138   23.5981 C   0  0  0  0  0  0
   23.0105  -15.7246   24.8481 C   0  0  0  0  0  0
   24.3179  -14.9388   24.9134 C   0  0  0  0  0  0
   23.8859  -13.4982   24.6393 C   0  0  0  0  0  0
   20.5738  -17.3000   21.1842 H   0  0  0  0  0  0
   21.3473  -17.5826   22.7913 H   0  0  0  0  0  0
   19.1202  -17.4413   23.9115 H   0  0  0  0  0  0
   18.3055  -17.1396   22.3275 H   0  0  0  0  0  0
   18.1556  -13.7533   25.5209 H   0  0  0  0  0  0
   18.0869  -14.7055   24.0876 H   0  0  0  0  0  0
   17.5287  -14.7855   21.9353 H   0  0  0  0  0  0
   21.2318  -13.0088   19.1494 H   0  0  0  0  0  0
   14.7714  -11.3657   18.0625 H   0  0  0  0  0  0
   14.4801  -13.0559   18.2472 H   0  0  0  0  0  0
   10.9735   -9.6117   24.6442 H   0  0  0  0  0  0
   21.6982  -14.4907   21.0091 H   0  0  0  0  0  0
   22.5399  -15.5653   22.8193 H   0  0  0  0  0  0
   13.5940   -9.3727   22.2293 H   0  0  0  0  0  0
   11.5837  -13.1775   21.8618 H   0  0  0  0  0  0
   10.0851  -11.6330   24.5514 H   0  0  0  0  0  0
   10.8359  -12.8004   23.5200 H   0  0  0  0  0  0
   19.3578  -11.4389   16.4492 H   0  0  0  0  0  0
   20.4161  -11.1270   17.8383 H   0  0  0  0  0  0
   20.3493  -12.7156   17.0993 H   0  0  0  0  0  0
   16.3578  -15.6186   24.9577 H   0  0  0  0  0  0
   12.9556  -13.7086   19.9435 H   0  0  0  0  0  0
   14.9914   -9.9506   20.3230 H   0  0  0  0  0  0
   22.0014  -12.8517   23.7493 H   0  0  0  0  0  0
   23.1758  -13.4532   22.6033 H   0  0  0  0  0  0
   23.1517  -16.7915   24.6724 H   0  0  0  0  0  0
   22.5066  -15.6489   25.8124 H   0  0  0  0  0  0
   24.8117  -15.0557   25.8777 H   0  0  0  0  0  0
   25.0113  -15.2828   24.1444 H   0  0  0  0  0  0
   23.4943  -13.0521   25.5541 H   0  0  0  0  0  0
   24.7137  -12.8737   24.3007 H   0  0  0  0  0  0
  1  7  1  0  0  0
  1 10  1  0  0  0
  1 11  1  0  0  0
  1 12  1  0  0  0
  2  9  1  0  0  0
  2  3  1  0  0  0
  2 30  1  0  0  0
  3 20  2  0  0  0
  3  5  1  0  0  0
  4  8  1  0  0  0
  4  5  2  0  0  0
  5 18  1  0  0  0
  6  7  1  0  0  0
  6 13  1  0  0  0
  6 19  2  0  0  0
  7 24  1  0  0  0
  8 14  2  0  0  0
  8  9  1  0  0  0
  9 17  2  0  0  0
 10 11  1  0  0  0
 10 38  1  0  0  0
 10 39  1  0  0  0
 11 40  1  0  0  0
 11 41  1  0  0  0
 12 14  1  0  0  0
 12 23  2  0  0  0
 13 16  1  0  0  0
 13 42  1  0  0  0
 13 43  1  0  0  0
 14 44  1  0  0  0
 15 21  1  0  0  0
 15 22  2  0  0  0
 15 28  1  0  0  0
 16 25  2  0  0  0
 16 31  1  0  0  0
 17 23  1  0  0  0
 17 45  1  0  0  0
 18 29  1  0  0  0
 18 46  1  0  0  0
 18 47  1  0  0  0
 21 26  2  0  0  0
 21 27  1  0  0  0
 22 48  1  0  0  0
 23 49  1  0  0  0
 24 34  1  0  0  0
 24 35  1  0  0  0
 24 50  1  0  0  0
 26 33  1  0  0  0
 26 51  1  0  0  0
 27 32  2  0  0  0
 27 52  1  0  0  0
 28 53  1  0  0  0
 28 54  1  0  0  0
 29 32  1  0  0  0
 29 33  2  0  0  0
 30 55  1  0  0  0
 30 56  1  0  0  0
 30 57  1  0  0  0
 31 58  1  0  0  0
 32 59  1  0  0  0
 33 60  1  0  0  0
 34 37  1  0  0  0
 34 61  1  0  0  0
 34 62  1  0  0  0
 35 36  1  0  0  0
 35 63  1  0  0  0
 35 64  1  0  0  0
 36 37  1  0  0  0
 36 65  1  0  0  0
 36 66  1  0  0  0
 37 67  1  0  0  0
 37 68  1  0  0  0
M  END
> <s_m_entry_id>
35286

> <s_m_entry_name>
dock_pv.136

> <s_m_Source_Path>
/home/csk/Desktop/cluster/DUD-E-result/thrb

> <s_m_Source_File>
dock_pv.maegz

> <i_m_Source_File_Index>
136

> <chembl_id>
CHEMBL74263

> <chembl_pref_name>
None

> <i_lp_mmshare_version>
53161

> <r_lp_tautomer_probability>
1

> <s_lp_Force_Field>
OPLS_2005

> <r_lp_Energy>
83.649236

> <b_lp_Chiralities_Consistent>
1

> <s_lp_Variant>
CHEMBL204_lig566-1

> <s_i_glide_gridfile>
glide-grid_1ype

> <i_i_glide_lignum>
772

> <i_i_glide_rotatable_bonds>
10

> <r_i_docking_score>
-7.52168920735426

> <r_i_glide_ligand_efficiency>
-0.203288897496061

> <r_i_glide_ligand_efficiency_sa>
-0.677403705618039

> <r_i_glide_ligand_efficiency_ln>
-1.63127805566176

> <r_i_glide_gscore>
-7.52168920735426

> <r_i_glide_lipo>
-3.13818677129532

> <r_i_glide_hbond>
-0.395865611332659

> <r_i_glide_metal>
0

> <r_i_glide_rewards>
-0.55326209594113

> <r_i_glide_evdw>
-51.2394218444824

> <r_i_glide_ecoul>
-9.45201683044434

> <r_i_glide_erotb>
0.649572287219028

> <r_i_glide_esite>
-0.104173399213409

> <r_i_glide_emodel>
-86.1843010269596

> <r_i_glide_energy>
-60.6914386749268

> <r_i_glide_einternal>
2.5677170753479

> <i_i_glide_confnum>
59

> <i_i_glide_posenum>
295

> <r_i_glide_eff_state_penalty>
0

> <s_user_duplicate_titles>
CHEMBL204_lig566,119120

> <i_f3d_flags>
0

> <s_m_subgroup_title>
dock_pv

> <s_m_subgroupid>
dock_pv

> <b_m_subgroup_collapsed>
1

$$$$
CHEMBL204_lig4085
                    3D
 Schrodinger Suite 2021-1.
 70 73  0  0  1  0            999 V2000
   15.9395  -12.1016   19.0168 C   0  0  2  0  0  0
   16.3107  -12.5228   17.5669 C   0  0  0  0  0  0
   16.8117  -12.8805   19.9802 C   0  0  0  0  0  0
   11.7343   -9.8530   23.6992 C   0  0  0  0  0  0
   14.5109  -12.2246   19.2983 N   0  0  0  0  0  0
   16.4914  -14.1976   20.3332 C   0  0  0  0  0  0
   15.4152  -13.1876   16.8072 N   0  0  0  0  0  0
   17.3691  -14.9860   21.0934 C   0  0  0  0  0  0
   18.6020  -14.4457   21.4896 C   0  0  0  0  0  0
   12.4162  -10.4684   22.5217 C   0  0  0  0  0  0
   12.0160   -8.6830   24.0751 N   0  0  0  0  0  0
   19.4673  -15.2887   22.1662 O   0  0  0  0  0  0
   18.0112  -12.3330   20.4424 C   0  0  0  0  0  0
   17.4477  -12.2522   17.1711 O   0  0  0  0  0  0
   18.8984  -13.1067   21.1858 C   0  0  0  0  0  0
   13.5199   -9.8232   21.9360 C   0  0  0  0  0  0
   12.0153  -11.6971   21.9606 C   0  0  0  0  0  0
   13.8176  -11.6202   20.3563 C   0  0  0  0  0  0
   10.8161  -10.6583   24.3209 N   0  0  0  0  0  0
   15.7070  -13.7859   15.4979 C   0  0  0  0  0  0
   20.8399  -14.9337   22.3522 C   0  0  0  0  0  0
   14.2189  -10.3931   20.8805 C   0  0  0  0  0  0
   12.7024  -12.2623   20.8879 C   0  0  0  0  0  0
   17.1135  -16.3039   21.4396 O   0  0  0  0  0  0
   16.1879  -12.8568   14.3807 C   0  0  0  0  0  0
   21.0963  -14.3089   23.7208 C   0  0  0  0  0  0
   15.8597  -16.9173   21.1376 C   0  0  0  0  0  0
   20.0745  -13.6797   24.4422 C   0  0  0  0  0  0
   22.3837  -14.3811   24.2611 C   0  0  0  0  0  0
   15.9992  -11.4719   14.4484 C   0  0  0  0  0  0
   16.8636  -13.4104   13.2889 C   0  0  0  0  0  0
   14.7373  -16.4373   22.0732 C   0  0  0  0  0  0
   16.4925  -10.6525   13.4426 C   0  0  0  0  0  0
   17.3418  -12.5891   12.2708 C   0  0  0  0  0  0
   20.3391  -13.1409   25.6965 C   0  0  0  0  0  0
   22.6437  -13.8503   25.5213 C   0  0  0  0  0  0
   17.1524  -11.2111   12.3504 C   0  0  0  0  0  0
   21.6160  -13.2367   26.2335 C   0  0  0  0  0  0
   16.1996  -11.0466   19.0812 H   0  0  0  0  0  0
   14.0675  -13.0577   18.9447 H   0  0  0  0  0  0
   15.5650  -14.6101   19.9683 H   0  0  0  0  0  0
   14.4952  -13.3618   17.1788 H   0  0  0  0  0  0
   11.4682   -8.4233   24.8809 H   0  0  0  0  0  0
   18.2818  -11.3178   20.1900 H   0  0  0  0  0  0
   19.8227  -12.6531   21.5065 H   0  0  0  0  0  0
   13.8731   -8.8767   22.3217 H   0  0  0  0  0  0
   11.1659  -12.2417   22.3489 H   0  0  0  0  0  0
   10.1702  -10.2682   25.0019 H   0  0  0  0  0  0
   10.5348  -11.5311   23.9027 H   0  0  0  0  0  0
   14.8158  -14.3002   15.1387 H   0  0  0  0  0  0
   16.4449  -14.5769   15.6488 H   0  0  0  0  0  0
   21.3977  -15.8694   22.2954 H   0  0  0  0  0  0
   21.2431  -14.3093   21.5539 H   0  0  0  0  0  0
   15.0738   -9.8658   20.4888 H   0  0  0  0  0  0
   12.3710  -13.2105   20.4915 H   0  0  0  0  0  0
   15.5936  -16.7910   20.0873 H   0  0  0  0  0  0
   15.9891  -17.9914   21.2733 H   0  0  0  0  0  0
   19.0721  -13.6119   24.0470 H   0  0  0  0  0  0
   23.1812  -14.8628   23.7144 H   0  0  0  0  0  0
   15.4821  -11.0214   15.2824 H   0  0  0  0  0  0
   17.0119  -14.4790   13.2229 H   0  0  0  0  0  0
   13.7984  -16.9414   21.8439 H   0  0  0  0  0  0
   14.9856  -16.6514   23.1133 H   0  0  0  0  0  0
   14.5643  -15.3649   21.9914 H   0  0  0  0  0  0
   16.3567   -9.5835   13.5209 H   0  0  0  0  0  0
   17.8502  -13.0226   11.4222 H   0  0  0  0  0  0
   19.5585  -12.6542   26.2591 H   0  0  0  0  0  0
   23.6350  -13.9154   25.9455 H   0  0  0  0  0  0
   17.5142  -10.5711   11.5584 H   0  0  0  0  0  0
   21.8045  -12.8248   27.2126 H   0  0  0  0  0  0
  1  2  1  0  0  0
  1  3  1  0  0  0
  1  5  1  0  0  0
  1 39  1  0  0  0
  2  7  1  0  0  0
  2 14  2  0  0  0
  3  6  1  0  0  0
  3 13  2  0  0  0
  4 10  1  0  0  0
  4 11  2  0  0  0
  4 19  1  0  0  0
  5 18  1  0  0  0
  5 40  1  0  0  0
  6  8  2  0  0  0
  6 41  1  0  0  0
  7 20  1  0  0  0
  7 42  1  0  0  0
  8 24  1  0  0  0
  8  9  1  0  0  0
  9 15  2  0  0  0
  9 12  1  0  0  0
 10 17  1  0  0  0
 10 16  2  0  0  0
 11 43  1  0  0  0
 12 21  1  0  0  0
 13 15  1  0  0  0
 13 44  1  0  0  0
 15 45  1  0  0  0
 16 22  1  0  0  0
 16 46  1  0  0  0
 17 23  2  0  0  0
 17 47  1  0  0  0
 18 22  2  0  0  0
 18 23  1  0  0  0
 19 48  1  0  0  0
 19 49  1  0  0  0
 20 25  1  0  0  0
 20 50  1  0  0  0
 20 51  1  0  0  0
 21 26  1  0  0  0
 21 52  1  0  0  0
 21 53  1  0  0  0
 22 54  1  0  0  0
 23 55  1  0  0  0
 24 27  1  0  0  0
 25 30  1  0  0  0
 25 31  2  0  0  0
 26 28  2  0  0  0
 26 29  1  0  0  0
 27 32  1  0  0  0
 27 56  1  0  0  0
 27 57  1  0  0  0
 28 35  1  0  0  0
 28 58  1  0  0  0
 29 36  2  0  0  0
 29 59  1  0  0  0
 30 33  2  0  0  0
 30 60  1  0  0  0
 31 34  1  0  0  0
 31 61  1  0  0  0
 32 62  1  0  0  0
 32 63  1  0  0  0
 32 64  1  0  0  0
 33 37  1  0  0  0
 33 65  1  0  0  0
 34 37  2  0  0  0
 34 66  1  0  0  0
 35 38  2  0  0  0
 35 67  1  0  0  0
 36 38  1  0  0  0
 36 68  1  0  0  0
 37 69  1  0  0  0
 38 70  1  0  0  0
M  END
> <s_m_entry_id>
35287

> <s_m_entry_name>
dock_pv.137

> <s_m_Source_Path>
/home/csk/Desktop/cluster/DUD-E-result/thrb

> <s_m_Source_File>
dock_pv.maegz

> <i_m_Source_File_Index>
137

> <chembl_id>
CHEMBL180857

> <chembl_pref_name>
None

> <i_lp_mmshare_version>
53161

> <r_lp_tautomer_probability>
1

> <s_lp_Force_Field>
OPLS_2005

> <r_lp_Energy>
26.211615

> <b_lp_Chiralities_Consistent>
1

> <s_lp_Variant>
CHEMBL204_lig4085-1

> <s_i_glide_gridfile>
glide-grid_1ype

> <i_i_glide_lignum>
5679

> <i_i_glide_rotatable_bonds>
13

> <r_i_docking_score>
-7.5196552142435

> <r_i_glide_ligand_efficiency>
-0.197885663532724

> <r_i_glide_ligand_efficiency_sa>
-0.665286733348432

> <r_i_glide_ligand_efficiency_ln>
-1.62145887003578

> <r_i_glide_gscore>
-7.5196552142435

> <r_i_glide_lipo>
-3.67802242495028

> <r_i_glide_hbond>
-0.16

> <r_i_glide_metal>
0

> <r_i_glide_rewards>
-0.411647505350836

> <r_i_glide_evdw>
-55.6996574401855

> <r_i_glide_ecoul>
-7.94913148880005

> <r_i_glide_erotb>
0.791481709356029

> <r_i_glide_esite>
-0.0841143979691306

> <r_i_glide_emodel>
-90.1065140025306

> <r_i_glide_energy>
-63.6487889289856

> <r_i_glide_einternal>
7.62051153182983

> <i_i_glide_confnum>
15

> <i_i_glide_posenum>
316

> <r_i_glide_eff_state_penalty>
0

> <s_user_duplicate_titles>
CHEMBL204_lig4085

> <i_f3d_flags>
0

> <s_m_subgroup_title>
dock_pv

> <s_m_subgroupid>
dock_pv

> <b_m_subgroup_collapsed>
1

$$$$
CHEMBL204_lig4745
                    3D
 Schrodinger Suite 2021-1.
 58 60  0  0  1  0            999 V2000
   21.1300  -14.0200   23.1226 C   0  0  0  0  0  0
   22.4780  -13.6677   23.2120 C   0  0  0  0  0  0
   23.1210  -13.5886   24.4427 C   0  0  0  0  0  0
   22.4094  -13.8528   25.6071 C   0  0  0  0  0  0
   21.0545  -14.1672   25.5364 C   0  0  0  0  0  0
   20.4002  -14.2789   24.2957 C   0  0  0  0  0  0
   20.5136  -14.1973   21.7370 C   0  0  0  0  0  0
   19.4945  -13.1965   21.4350 N   0  0  0  0  0  0
   19.4292  -12.4509   20.3200 C   0  0  0  0  0  0
   18.2483  -11.4761   20.2239 C   0  0  0  0  0  0
   16.9872  -12.1834   19.8891 N   0  0  0  0  0  0
   20.2559  -12.4938   19.4095 O   0  0  0  0  0  0
   16.5030  -12.3388   18.5834 C   0  0  0  0  0  0
   15.3115  -12.9586   18.3663 C   0  0  0  0  0  0
   14.5117  -13.4069   19.3787 N   0  0  0  0  0  0
   14.9600  -13.2964   20.5830 C   0  0  0  0  0  0
   16.2756  -12.6981   20.9685 C   0  0  0  0  0  0
   14.1577  -13.6851   21.6435 N   0  0  0  0  0  0
   12.7332  -13.9834   21.5911 C   0  0  0  0  0  0
   11.8504  -12.7881   21.1787 C   0  0  0  0  0  0
   12.0967  -11.4890   21.9274 C   0  0  0  0  0  0
   11.4164  -11.1904   23.1127 C   0  0  0  0  0  0
   11.6334   -9.9455   23.7057 C   0  0  0  0  0  0
   12.5401   -9.0559   23.1217 C   0  0  0  0  0  0
   13.1999   -9.4444   21.9538 C   0  0  0  0  0  0
   12.9821  -10.6350   21.3482 N   0  0  0  0  0  0
   17.3616  -11.8392   17.4295 C   0  0  0  0  0  0
   16.6770  -12.6553   22.1421 O   0  0  0  0  0  0
   24.7882  -13.1532   24.5180 Cl  0  0  0  0  0  0
   19.0700  -14.6366   24.1593 O   0  0  0  0  0  0
   18.3270  -15.1290   25.2825 C   0  0  0  0  0  0
   18.6599  -16.5984   25.6442 C   0  0  0  0  0  0
   18.0090  -16.9708   26.7440 F   0  0  0  0  0  0
   18.2924  -17.4247   24.6651 F   0  0  0  0  0  0
   19.9517  -16.8167   25.8819 F   0  0  0  0  0  0
   23.0382  -13.4524   22.3179 H   0  0  0  0  0  0
   22.9037  -13.8229   26.5676 H   0  0  0  0  0  0
   20.5417  -14.3503   26.4659 H   0  0  0  0  0  0
   21.2883  -14.2662   20.9679 H   0  0  0  0  0  0
   20.0059  -15.1641   21.7096 H   0  0  0  0  0  0
   18.7173  -13.1459   22.0852 H   0  0  0  0  0  0
   18.1485  -10.9366   21.1681 H   0  0  0  0  0  0
   18.4540  -10.6749   19.5226 H   0  0  0  0  0  0
   14.9379  -13.0980   17.3611 H   0  0  0  0  0  0
   14.5811  -13.7763   22.5598 H   0  0  0  0  0  0
   12.5514  -14.8163   20.9105 H   0  0  0  0  0  0
   12.4214  -14.3404   22.5689 H   0  0  0  0  0  0
   11.9379  -12.6079   20.1076 H   0  0  0  0  0  0
   10.8144  -13.0561   21.3382 H   0  0  0  0  0  0
   10.7109  -11.8876   23.5466 H   0  0  0  0  0  0
   11.1023   -9.6817   24.6095 H   0  0  0  0  0  0
   12.7380   -8.0997   23.5816 H   0  0  0  0  0  0
   13.9230   -8.7927   21.4861 H   0  0  0  0  0  0
   16.9584  -12.1555   16.4672 H   0  0  0  0  0  0
   17.3852  -10.7512   17.4222 H   0  0  0  0  0  0
   18.3796  -12.2240   17.4922 H   0  0  0  0  0  0
   18.4277  -14.4695   26.1451 H   0  0  0  0  0  0
   17.2707  -15.0736   25.0158 H   0  0  0  0  0  0
  1  6  1  0  0  0
  1  2  2  0  0  0
  1  7  1  0  0  0
  2  3  1  0  0  0
  2 36  1  0  0  0
  3 29  1  0  0  0
  3  4  2  0  0  0
  4  5  1  0  0  0
  4 37  1  0  0  0
  5  6  2  0  0  0
  5 38  1  0  0  0
  6 30  1  0  0  0
  7  8  1  0  0  0
  7 39  1  0  0  0
  7 40  1  0  0  0
  8  9  1  0  0  0
  8 41  1  0  0  0
  9 10  1  0  0  0
  9 12  2  0  0  0
 10 11  1  0  0  0
 10 42  1  0  0  0
 10 43  1  0  0  0
 11 13  1  0  0  0
 11 17  1  0  0  0
 13 27  1  0  0  0
 13 14  2  0  0  0
 14 15  1  0  0  0
 14 44  1  0  0  0
 15 16  2  0  0  0
 16 17  1  0  0  0
 16 18  1  0  0  0
 17 28  2  0  0  0
 18 19  1  0  0  0
 18 45  1  0  0  0
 19 20  1  0  0  0
 19 46  1  0  0  0
 19 47  1  0  0  0
 20 21  1  0  0  0
 20 48  1  0  0  0
 20 49  1  0  0  0
 21 22  2  0  0  0
 21 26  1  0  0  0
 22 23  1  0  0  0
 22 50  1  0  0  0
 23 24  2  0  0  0
 23 51  1  0  0  0
 24 25  1  0  0  0
 24 52  1  0  0  0
 25 26  2  0  0  0
 25 53  1  0  0  0
 27 54  1  0  0  0
 27 55  1  0  0  0
 27 56  1  0  0  0
 30 31  1  0  0  0
 31 32  1  0  0  0
 31 57  1  0  0  0
 31 58  1  0  0  0
 32 33  1  0  0  0
 32 34  1  0  0  0
 32 35  1  0  0  0
M  END
> <s_m_entry_id>
35288

> <s_m_entry_name>
dock_pv.138

> <s_m_Source_Path>
/home/csk/Desktop/cluster/DUD-E-result/thrb

> <s_m_Source_File>
dock_pv.maegz

> <i_m_Source_File_Index>
138

> <chembl_id>
CHEMBL1682756

> <chembl_pref_name>
None

> <i_lp_mmshare_version>
53161

> <r_lp_tautomer_probability>
1

> <s_lp_Force_Field>
OPLS_2005

> <r_lp_Energy>
20.966243

> <b_lp_Chiralities_Consistent>
1

> <s_lp_Variant>
CHEMBL204_lig4745-1

> <s_i_glide_gridfile>
glide-grid_1ype

> <i_i_glide_lignum>
6487

> <i_i_glide_rotatable_bonds>
12

> <r_i_docking_score>
-7.51798254089106

> <r_i_glide_ligand_efficiency>
-0.214799501168316

> <r_i_glide_ligand_efficiency_sa>
-0.702623410884303

> <r_i_glide_ligand_efficiency_ln>
-1.6503640203583

> <r_i_glide_gscore>
-7.51798254089106

> <r_i_glide_lipo>
-3.69547257835813

> <r_i_glide_hbond>
-0.343779593702689

> <r_i_glide_metal>
0

> <r_i_glide_rewards>
-0.775305453459735

> <r_i_glide_evdw>
-53.8024101257324

> <r_i_glide_ecoul>
-5.34061670303345

> <r_i_glide_erotb>
0.787788096371128

> <r_i_glide_esite>
0

> <r_i_glide_emodel>
-81.3763698478053

> <r_i_glide_energy>
-59.1430268287659

> <r_i_glide_einternal>
8.07448577880859

> <i_i_glide_confnum>
4

> <i_i_glide_posenum>
358

> <r_i_glide_eff_state_penalty>
0

> <s_user_duplicate_titles>
CHEMBL204_lig4745

> <i_f3d_flags>
0

> <s_m_subgroup_title>
dock_pv

> <s_m_subgroupid>
dock_pv

> <b_m_subgroup_collapsed>
1

$$$$
CHEMBL204_lig4278
                    3D
 Schrodinger Suite 2021-1.
 78 81  0  0  1  0            999 V2000
   21.9968  -13.9755   25.7864 N   0  0  0  0  0  0
   19.4550  -13.4528   19.5206 N   0  0  0  0  0  0
   20.9167  -13.3844   19.4481 C   0  0  0  0  0  0
   21.3506  -12.6551   20.7317 C   0  0  0  0  0  0
   20.9088  -13.4759   21.8849 N   0  0  0  0  0  0
   19.4552  -13.7119   21.9549 C   0  0  0  0  0  0
   18.9847  -14.3270   20.6089 C   0  0  0  0  0  0
   18.6984  -12.6535   18.7166 C   0  0  0  0  0  0
   19.1870  -12.0890   17.7349 O   0  0  0  0  0  0
   17.2113  -12.3714   19.0063 C   0  0  1  0  0  0
   16.4362  -13.5849   18.6499 N   0  0  2  0  0  0
   16.9732  -11.9226   20.4611 C   0  0  0  0  0  0
   21.8095  -13.9492   22.7861 C   0  0  0  0  0  0
   22.9309  -13.4530   22.9043 O   0  0  0  0  0  0
   21.5058  -15.2060   23.6369 C   0  0  0  0  0  0
   15.5893  -11.4009   20.7209 C   0  0  0  0  0  0
   15.3683  -10.0357   20.7211 C   0  0  0  0  0  0
   14.1392   -9.5358   21.1210 C   0  0  0  0  0  0
   13.1035  -10.3993   21.4477 C   0  0  0  0  0  0
   13.2898  -11.7932   21.4119 C   0  0  0  0  0  0
   14.5604  -12.2733   21.0587 C   0  0  0  0  0  0
   15.1624  -13.4269   17.4496 S   0  0  0  0  0  0
   14.0160  -12.8093   18.1198 O   0  0  0  0  0  0
   15.7526  -12.7941   16.2662 O   0  0  0  0  0  0
   14.7237  -15.2158   17.0322 C   0  0  0  0  0  0
   22.1625  -15.2276   25.0466 C   0  0  0  0  0  0
   12.1932  -12.7033   21.7859 C   0  0  0  0  0  0
   11.1625  -12.2529   22.3335 N   0  0  0  0  0  0
   12.4159  -14.0312   21.5207 N   0  0  0  0  0  0
   20.7219  -13.4785   26.1499 C   0  0  0  0  0  0
   19.6157  -14.0280   25.9223 N   0  0  0  0  0  0
   20.8160  -12.2530   26.8105 N   0  0  0  0  0  0
   14.3657  -16.0196   18.2733 C   0  0  0  0  0  0
   13.0330  -16.2528   18.6111 C   0  0  0  0  0  0
   12.7077  -16.9823   19.7544 C   0  0  0  0  0  0
   15.3862  -16.5206   19.0795 C   0  0  0  0  0  0
   15.0944  -17.2302   20.2658 C   0  0  0  0  0  0
   13.7306  -17.4771   20.6046 C   0  0  0  0  0  0
   13.4436  -18.2130   21.7805 C   0  0  0  0  0  0
   14.4717  -18.6492   22.6120 C   0  0  0  0  0  0
   15.7990  -18.3924   22.2887 C   0  0  0  0  0  0
   16.1204  -17.6989   21.1253 C   0  0  0  0  0  0
   22.8001  -13.6453   26.2971 H   0  0  0  0  0  0
   21.2939  -12.9011   18.5454 H   0  0  0  0  0  0
   21.3131  -14.4000   19.4227 H   0  0  0  0  0  0
   20.8832  -11.6718   20.7210 H   0  0  0  0  0  0
   22.4160  -12.4810   20.7210 H   0  0  0  0  0  0
   19.1191  -14.3145   22.7934 H   0  0  0  0  0  0
   19.0010  -12.7333   22.1013 H   0  0  0  0  0  0
   19.4593  -15.3007   20.4763 H   0  0  0  0  0  0
   17.9175  -14.5343   20.5676 H   0  0  0  0  0  0
   16.9095  -11.5480   18.3538 H   0  0  0  0  0  0
   16.0781  -14.0379   19.4935 H   0  0  0  0  0  0
   17.1085  -12.7217   21.1813 H   0  0  0  0  0  0
   17.6957  -11.1552   20.7498 H   0  0  0  0  0  0
   21.8762  -16.0614   23.0713 H   0  0  0  0  0  0
   20.4443  -15.3832   23.7631 H   0  0  0  0  0  0
   16.1692   -9.3510   20.4881 H   0  0  0  0  0  0
   14.0108   -8.4785   21.1965 H   0  0  0  0  0  0
   12.1561   -9.9707   21.7459 H   0  0  0  0  0  0
   14.7773  -13.3311   21.0675 H   0  0  0  0  0  0
   13.8986  -15.1857   16.3204 H   0  0  0  0  0  0
   15.5813  -15.6518   16.5205 H   0  0  0  0  0  0
   23.2377  -15.3809   24.9422 H   0  0  0  0  0  0
   21.7672  -16.0518   25.6439 H   0  0  0  0  0  0
   10.5230  -12.9905   22.6024 H   0  0  0  0  0  0
   11.7281  -14.6962   21.8433 H   0  0  0  0  0  0
   13.1631  -14.3372   20.9194 H   0  0  0  0  0  0
   18.8491  -13.4870   26.2924 H   0  0  0  0  0  0
   19.9761  -11.7218   26.9935 H   0  0  0  0  0  0
   21.6174  -11.6539   26.6758 H   0  0  0  0  0  0
   12.2411  -15.8705   17.9817 H   0  0  0  0  0  0
   11.6716  -17.1643   20.0030 H   0  0  0  0  0  0
   16.4161  -16.3519   18.8122 H   0  0  0  0  0  0
   12.4186  -18.4318   22.0313 H   0  0  0  0  0  0
   14.2382  -19.1935   23.5149 H   0  0  0  0  0  0
   16.5861  -18.7394   22.9427 H   0  0  0  0  0  0
   17.1548  -17.5113   20.8753 H   0  0  0  0  0  0
  1 26  1  0  0  0
  1 30  1  0  0  0
  1 43  1  0  0  0
  2  8  1  0  0  0
  2  3  1  0  0  0
  2  7  1  0  0  0
  3  4  1  0  0  0
  3 44  1  0  0  0
  3 45  1  0  0  0
  4  5  1  0  0  0
  4 46  1  0  0  0
  4 47  1  0  0  0
  5  6  1  0  0  0
  5 13  1  0  0  0
  6  7  1  0  0  0
  6 48  1  0  0  0
  6 49  1  0  0  0
  7 50  1  0  0  0
  7 51  1  0  0  0
  8  9  2  0  0  0
  8 10  1  0  0  0
 10 11  1  0  0  0
 10 12  1  0  0  0
 10 52  1  0  0  0
 11 22  1  0  0  0
 11 53  1  0  0  0
 12 16  1  0  0  0
 12 54  1  0  0  0
 12 55  1  0  0  0
 13 14  2  0  0  0
 13 15  1  0  0  0
 15 26  1  0  0  0
 15 56  1  0  0  0
 15 57  1  0  0  0
 16 21  2  0  0  0
 16 17  1  0  0  0
 17 18  2  0  0  0
 17 58  1  0  0  0
 18 19  1  0  0  0
 18 59  1  0  0  0
 19 20  2  0  0  0
 19 60  1  0  0  0
 20 27  1  0  0  0
 20 21  1  0  0  0
 21 61  1  0  0  0
 22 23  2  0  0  0
 22 24  2  0  0  0
 22 25  1  0  0  0
 25 33  1  0  0  0
 25 62  1  0  0  0
 25 63  1  0  0  0
 26 64  1  0  0  0
 26 65  1  0  0  0
 27 28  2  0  0  0
 27 29  1  0  0  0
 28 66  1  0  0  0
 29 67  1  0  0  0
 29 68  1  0  0  0
 30 31  2  0  0  0
 30 32  1  0  0  0
 31 69  1  0  0  0
 32 70  1  0  0  0
 32 71  1  0  0  0
 33 34  2  0  0  0
 33 36  1  0  0  0
 34 35  1  0  0  0
 34 72  1  0  0  0
 35 38  2  0  0  0
 35 73  1  0  0  0
 36 37  2  0  0  0
 36 74  1  0  0  0
 37 38  1  0  0  0
 37 42  1  0  0  0
 38 39  1  0  0  0
 39 40  2  0  0  0
 39 75  1  0  0  0
 40 41  1  0  0  0
 40 76  1  0  0  0
 41 42  2  0  0  0
 41 77  1  0  0  0
 42 78  1  0  0  0
M  END
> <s_m_entry_id>
35289

> <s_m_entry_name>
dock_pv.139

> <s_m_Source_Path>
/home/csk/Desktop/cluster/DUD-E-result/thrb

> <s_m_Source_File>
dock_pv.maegz

> <i_m_Source_File_Index>
139

> <chembl_id>
CHEMBL209334

> <chembl_pref_name>
None

> <i_lp_mmshare_version>
53161

> <r_lp_tautomer_probability>
1

> <s_lp_Force_Field>
OPLS_2005

> <r_lp_Energy>
46.984079

> <b_lp_Chiralities_Consistent>
1

> <s_lp_Variant>
CHEMBL204_lig4278-1

> <s_i_glide_gridfile>
glide-grid_1ype

> <i_i_glide_lignum>
5925

> <i_i_glide_rotatable_bonds>
14

> <r_i_docking_score>
-7.51735582498608

> <r_i_glide_ligand_efficiency>
-0.178984662499669

> <r_i_glide_ligand_efficiency_sa>
-0.622155455099719

> <r_i_glide_ligand_efficiency_ln>
-1.58672014527469

> <r_i_glide_gscore>
-7.51735582498608

> <r_i_glide_lipo>
-2.71089333344826

> <r_i_glide_hbond>
-0.672515510350662

> <r_i_glide_metal>
0

> <r_i_glide_rewards>
-0.808512862268286

> <r_i_glide_evdw>
-44.5217170715332

> <r_i_glide_ecoul>
-11.0526933670044

> <r_i_glide_erotb>
0.605412340065747

> <r_i_glide_esite>
-0.0468566003572975

> <r_i_glide_emodel>
-66.2242282291026

> <r_i_glide_energy>
-55.5744104385376

> <r_i_glide_einternal>
21.1950531005859

> <i_i_glide_confnum>
24

> <i_i_glide_posenum>
12

> <r_i_glide_eff_state_penalty>
0

> <s_user_duplicate_titles>
CHEMBL204_lig4278

> <i_f3d_flags>
0

> <s_m_subgroup_title>
dock_pv

> <s_m_subgroupid>
dock_pv

> <b_m_subgroup_collapsed>
1

$$$$
CHEMBL204_lig4361
                    3D
 Schrodinger Suite 2021-1.
 74 76  0  0  1  0            999 V2000
   11.8975  -11.9574   21.5718 C   0  0  0  0  0  0
   12.2244  -13.2130   21.0785 C   0  0  0  0  0  0
   13.3717  -13.3879   20.3055 C   0  0  0  0  0  0
   14.2129  -12.3013   20.0566 C   0  0  0  0  0  0
   13.8792  -11.0380   20.5429 C   0  0  0  0  0  0
   12.6962  -10.8542   21.2669 C   0  0  0  0  0  0
   12.2418   -9.4516   21.6575 C   0  0  0  0  0  0
   12.4252   -9.1151   23.1394 C   0  0  0  0  0  0
   11.5986   -9.8283   23.9562 O   0  0  0  0  0  0
   13.2148   -8.2539   23.5208 O   0  0  0  0  0  0
   13.6752  -14.7572   19.7116 C   0  0  0  0  0  0
   13.9782  -16.0927   21.0123 S   0  0  0  0  0  0
   12.8308  -16.1197   21.9186 O   0  0  0  0  0  0
   14.3985  -17.3151   20.3196 O   0  0  0  0  0  0
   15.3527  -15.4757   21.9210 N   0  0  2  0  0  0
   20.8817  -16.2189   25.0072 C   0  0  0  0  0  0
   20.6661  -15.0512   25.7522 C   0  0  0  0  0  0
   21.0635  -13.8090   25.2642 C   0  0  0  0  0  0
   21.6780  -13.7201   24.0198 C   0  0  0  0  0  0
   21.9092  -14.8716   23.2753 C   0  0  0  0  0  0
   21.5227  -16.1297   23.7529 C   0  0  0  0  0  0
   20.8144  -12.3862   26.2087 Cl  0  0  0  0  0  0
   21.8540  -17.3578   22.9057 C   0  0  0  0  0  0
   21.1912  -17.3245   21.6158 N   0  0  0  0  0  0
   20.5034  -17.5604   25.6405 C   0  0  0  0  0  0
   19.2509  -18.1211   25.1414 N   0  0  0  0  0  0
   18.0378  -17.6579   25.4814 C   0  0  0  0  0  0
   16.8372  -18.2763   24.7564 C   0  0  0  0  0  0
   17.8641  -16.7778   26.3204 O   0  0  0  0  0  0
   16.4224  -17.3592   23.6977 N   0  0  0  0  0  0
   17.1342  -17.1303   22.5763 C   0  0  0  0  0  0
   16.7214  -15.9802   21.6304 C   0  0  2  0  0  0
   18.1424  -17.7836   22.2937 O   0  0  0  0  0  0
   17.7540  -14.8408   21.6545 C   0  0  0  0  0  0
   17.4906  -13.7375   20.6051 C   0  0  0  0  0  0
   18.7674  -13.1209   20.0328 C   0  0  0  0  0  0
   18.7892  -12.6666   18.7513 N   0  3  0  0  0  0
   19.9203  -12.2445   18.1525 C   0  0  0  0  0  0
   21.1089  -12.1721   18.8739 C   0  0  0  0  0  0
   21.1120  -12.5633   20.2100 C   0  0  0  0  0  0
   19.9419  -13.0432   20.7913 C   0  0  0  0  0  0
   17.7324  -12.6509   18.0629 O   0  5  0  0  0  0
   10.9808  -11.8442   22.1344 H   0  0  0  0  0  0
   11.5657  -14.0422   21.2881 H   0  0  0  0  0  0
   15.1014  -12.4239   19.4551 H   0  0  0  0  0  0
   14.5254  -10.2001   20.3211 H   0  0  0  0  0  0
   11.1981   -9.3180   21.3842 H   0  0  0  0  0  0
   12.7902   -8.7142   21.0711 H   0  0  0  0  0  0
   10.9803  -10.3976   23.4936 H   0  0  0  0  0  0
   12.8361  -15.0949   19.1037 H   0  0  0  0  0  0
   14.5574  -14.7366   19.0723 H   0  0  0  0  0  0
   15.1636  -15.0532   22.8419 H   0  0  0  0  0  0
   20.1870  -15.1048   26.7185 H   0  0  0  0  0  0
   21.9840  -12.7626   23.6288 H   0  0  0  0  0  0
   22.4064  -14.7785   22.3221 H   0  0  0  0  0  0
   22.9338  -17.3918   22.7483 H   0  0  0  0  0  0
   21.5781  -18.2889   23.3944 H   0  0  0  0  0  0
   20.1849  -17.3521   21.7393 H   0  0  0  0  0  0
   21.4305  -16.4812   21.1126 H   0  0  0  0  0  0
   20.4426  -17.4564   26.7209 H   0  0  0  0  0  0
   21.3109  -18.2770   25.4961 H   0  0  0  0  0  0
   19.3145  -18.7850   24.3832 H   0  0  0  0  0  0
   16.0150  -18.4127   25.4614 H   0  0  0  0  0  0
   17.0827  -19.2544   24.3447 H   0  0  0  0  0  0
   15.6271  -16.7683   23.8938 H   0  0  0  0  0  0
   16.7147  -16.4027   20.6243 H   0  0  0  0  0  0
   17.8223  -14.3993   22.6510 H   0  0  0  0  0  0
   18.7274  -15.2962   21.4548 H   0  0  0  0  0  0
   16.9325  -14.1775   19.7808 H   0  0  0  0  0  0
   16.8609  -12.9531   21.0215 H   0  0  0  0  0  0
   19.8247  -11.9506   17.1198 H   0  0  0  0  0  0
   22.0156  -11.8170   18.4072 H   0  0  0  0  0  0
   22.0179  -12.5126   20.7932 H   0  0  0  0  0  0
   19.9584  -13.3607   21.8233 H   0  0  0  0  0  0
  1  6  1  0  0  0
  1  2  2  0  0  0
  1 43  1  0  0  0
  2  3  1  0  0  0
  2 44  1  0  0  0
  3 11  1  0  0  0
  3  4  2  0  0  0
  4  5  1  0  0  0
  4 45  1  0  0  0
  5  6  2  0  0  0
  5 46  1  0  0  0
  6  7  1  0  0  0
  7  8  1  0  0  0
  7 47  1  0  0  0
  7 48  1  0  0  0
  8  9  1  0  0  0
  8 10  2  0  0  0
  9 49  1  0  0  0
 11 12  1  0  0  0
 11 50  1  0  0  0
 11 51  1  0  0  0
 12 13  2  0  0  0
 12 14  2  0  0  0
 12 15  1  0  0  0
 15 32  1  0  0  0
 15 52  1  0  0  0
 16 25  1  0  0  0
 16 17  2  0  0  0
 16 21  1  0  0  0
 17 18  1  0  0  0
 17 53  1  0  0  0
 18 22  1  0  0  0
 18 19  2  0  0  0
 19 20  1  0  0  0
 19 54  1  0  0  0
 20 21  2  0  0  0
 20 55  1  0  0  0
 21 23  1  0  0  0
 23 24  1  0  0  0
 23 56  1  0  0  0
 23 57  1  0  0  0
 24 58  1  0  0  0
 24 59  1  0  0  0
 25 26  1  0  0  0
 25 60  1  0  0  0
 25 61  1  0  0  0
 26 27  1  0  0  0
 26 62  1  0  0  0
 27 28  1  0  0  0
 27 29  2  0  0  0
 28 30  1  0  0  0
 28 63  1  0  0  0
 28 64  1  0  0  0
 30 31  1  0  0  0
 30 65  1  0  0  0
 31 32  1  0  0  0
 31 33  2  0  0  0
 32 34  1  0  0  0
 32 66  1  0  0  0
 34 35  1  0  0  0
 34 67  1  0  0  0
 34 68  1  0  0  0
 35 36  1  0  0  0
 35 69  1  0  0  0
 35 70  1  0  0  0
 36 37  2  0  0  0
 36 41  1  0  0  0
 37 38  1  0  0  0
 37 42  1  0  0  0
 38 39  2  0  0  0
 38 71  1  0  0  0
 39 40  1  0  0  0
 39 72  1  0  0  0
 40 41  2  0  0  0
 40 73  1  0  0  0
 41 74  1  0  0  0
M  CHG  2  37   1  42  -1
M  END
> <s_m_entry_id>
35290

> <s_m_entry_name>
dock_pv.140

> <s_m_Source_Path>
/home/csk/Desktop/cluster/DUD-E-result/thrb

> <s_m_Source_File>
dock_pv.maegz

> <i_m_Source_File_Index>
140

> <chembl_id>
CHEMBL388481

> <chembl_pref_name>
None

> <i_lp_mmshare_version>
53161

> <r_lp_tautomer_probability>
1

> <s_lp_Force_Field>
OPLS_2005

> <r_lp_Energy>
5.553851

> <b_lp_Chiralities_Consistent>
1

> <s_lp_Variant>
CHEMBL204_lig4361-1

> <s_i_glide_gridfile>
glide-grid_1ype

> <i_i_glide_lignum>
6016

> <i_i_glide_rotatable_bonds>
18

> <r_i_docking_score>
-7.51638536480034

> <r_i_glide_ligand_efficiency>
-0.17896155630477

> <r_i_glide_ligand_efficiency_sa>
-0.62207513735069

> <r_i_glide_ligand_efficiency_ln>
-1.58651530613141

> <r_i_glide_gscore>
-7.51638536480034

> <r_i_glide_lipo>
-3.36078049535335

> <r_i_glide_hbond>
-0.32

> <r_i_glide_metal>
0

> <r_i_glide_rewards>
-0.785275795765939

> <r_i_glide_evdw>
-50.6000938415527

> <r_i_glide_ecoul>
-7.83770751953125

> <r_i_glide_erotb>
0.697585450539083

> <r_i_glide_esite>
-0.0422537042128056

> <r_i_glide_emodel>
-69.0037023363712

> <r_i_glide_energy>
-58.437801361084

> <r_i_glide_einternal>
27.0496387481689

> <i_i_glide_confnum>
19

> <i_i_glide_posenum>
56

> <r_i_glide_eff_state_penalty>
0

> <s_user_duplicate_titles>
CHEMBL204_lig4361

> <i_f3d_flags>
0

> <s_m_subgroup_title>
dock_pv

> <s_m_subgroupid>
dock_pv

> <b_m_subgroup_collapsed>
1

$$$$
CHEMBL204_lig4701
                    3D
 Schrodinger Suite 2021-1.
 53 54  0  0  1  0            999 V2000
   20.5823  -12.8324   26.4836 C   0  0  0  0  0  0
   20.4221  -13.2068   25.0006 C   0  0  0  0  0  0
   19.5080  -14.4344   24.7309 C   0  0  2  0  0  0
   19.9322  -15.6719   25.5494 C   0  0  0  0  0  0
   19.4290  -14.8011   23.2232 C   0  0  0  0  0  0
   18.8138  -13.7010   22.3314 C   0  0  0  0  0  0
   17.6934  -13.2880   22.6265 O   0  0  0  0  0  0
   19.4989  -13.2239   21.2644 N   0  0  0  0  0  0
   20.7978  -13.7198   20.8035 C   0  0  0  0  0  0
   20.9758  -13.1210   19.4202 C   0  0  0  0  0  0
   20.2434  -11.7995   19.5194 C   0  0  0  0  0  0
   19.0534  -12.0647   20.4607 C   0  0  1  0  0  0
   17.7391  -12.2998   19.6907 C   0  0  0  0  0  0
   17.7302  -13.0529   18.7194 O   0  0  0  0  0  0
   16.6629  -11.6325   20.1296 N   0  0  0  0  0  0
   15.3235  -11.7706   19.5588 C   0  0  0  0  0  0
   14.2332  -11.5089   20.5872 C   0  0  0  0  0  0
   14.0603  -10.2320   21.1210 C   0  0  0  0  0  0
   13.0866  -10.0087   22.0910 C   0  0  0  0  0  0
   12.2534  -11.0472   22.5492 C   0  0  0  0  0  0
   12.4153  -12.3129   21.9543 C   0  0  0  0  0  0
   13.3914  -12.5432   20.9903 C   0  0  0  0  0  0
   11.2624  -10.7984   23.6384 C   0  0  0  0  0  0
   11.2161   -9.6945   24.2406 N   0  0  0  0  0  0
   10.4322  -11.8527   23.9210 N   0  0  0  0  0  0
   21.0469  -11.8529   26.5904 H   0  0  0  0  0  0
   21.2087  -13.5489   27.0150 H   0  0  0  0  0  0
   19.6169  -12.8010   26.9880 H   0  0  0  0  0  0
   20.0170  -12.3363   24.4815 H   0  0  0  0  0  0
   21.4111  -13.3746   24.5700 H   0  0  0  0  0  0
   18.5013  -14.1789   25.0686 H   0  0  0  0  0  0
   20.9592  -15.9665   25.3251 H   0  0  0  0  0  0
   19.8651  -15.4875   26.6220 H   0  0  0  0  0  0
   19.2895  -16.5261   25.3397 H   0  0  0  0  0  0
   20.4278  -15.0843   22.8991 H   0  0  0  0  0  0
   18.8245  -15.6989   23.0894 H   0  0  0  0  0  0
   21.5738  -13.3617   21.4796 H   0  0  0  0  0  0
   20.8514  -14.8076   20.7516 H   0  0  0  0  0  0
   22.0157  -13.0035   19.1240 H   0  0  0  0  0  0
   20.4833  -13.7605   18.6866 H   0  0  0  0  0  0
   20.9004  -11.0529   19.9657 H   0  0  0  0  0  0
   19.9561  -11.4530   18.5296 H   0  0  0  0  0  0
   18.9173  -11.2008   21.1165 H   0  0  0  0  0  0
   16.7656  -10.9869   20.8991 H   0  0  0  0  0  0
   15.2190  -11.0534   18.7464 H   0  0  0  0  0  0
   15.1781  -12.7486   19.0902 H   0  0  0  0  0  0
   14.6973   -9.4158   20.8096 H   0  0  0  0  0  0
   12.9995   -9.0138   22.5059 H   0  0  0  0  0  0
   11.8030  -13.1516   22.2468 H   0  0  0  0  0  0
   13.5024  -13.5363   20.5783 H   0  0  0  0  0  0
   10.4641   -9.7003   24.9200 H   0  0  0  0  0  0
    9.6577  -11.7288   24.5732 H   0  0  0  0  0  0
   10.5603  -12.7769   23.5221 H   0  0  0  0  0  0
  1  2  1  0  0  0
  1 26  1  0  0  0
  1 27  1  0  0  0
  1 28  1  0  0  0
  2  3  1  0  0  0
  2 29  1  0  0  0
  2 30  1  0  0  0
  3  4  1  0  0  0
  3  5  1  0  0  0
  3 31  1  0  0  0
  4 32  1  0  0  0
  4 33  1  0  0  0
  4 34  1  0  0  0
  5  6  1  0  0  0
  5 35  1  0  0  0
  5 36  1  0  0  0
  6  7  2  0  0  0
  6  8  1  0  0  0
  8  9  1  0  0  0
  8 12  1  0  0  0
  9 10  1  0  0  0
  9 37  1  0  0  0
  9 38  1  0  0  0
 10 11  1  0  0  0
 10 39  1  0  0  0
 10 40  1  0  0  0
 11 12  1  0  0  0
 11 41  1  0  0  0
 11 42  1  0  0  0
 12 13  1  0  0  0
 12 43  1  0  0  0
 13 14  2  0  0  0
 13 15  1  0  0  0
 15 16  1  0  0  0
 15 44  1  0  0  0
 16 17  1  0  0  0
 16 45  1  0  0  0
 16 46  1  0  0  0
 17 18  2  0  0  0
 17 22  1  0  0  0
 18 19  1  0  0  0
 18 47  1  0  0  0
 19 20  2  0  0  0
 19 48  1  0  0  0
 20 21  1  0  0  0
 20 23  1  0  0  0
 21 22  2  0  0  0
 21 49  1  0  0  0
 22 50  1  0  0  0
 23 24  2  0  0  0
 23 25  1  0  0  0
 24 51  1  0  0  0
 25 52  1  0  0  0
 25 53  1  0  0  0
M  END
> <s_m_entry_id>
35291

> <s_m_entry_name>
dock_pv.141

> <s_m_Source_Path>
/home/csk/Desktop/cluster/DUD-E-result/thrb

> <s_m_Source_File>
dock_pv.maegz

> <i_m_Source_File_Index>
141

> <chembl_id>
CHEMBL597809

> <chembl_pref_name>
None

> <i_lp_mmshare_version>
53161

> <r_lp_tautomer_probability>
1

> <s_lp_Force_Field>
OPLS_2005

> <r_lp_Energy>
14.714625

> <b_lp_Chiralities_Consistent>
1

> <s_lp_Variant>
CHEMBL204_lig4701-1

> <s_i_glide_gridfile>
glide-grid_1ype

> <i_i_glide_lignum>
6441

> <i_i_glide_rotatable_bonds>
9

> <r_i_docking_score>
-7.51387835704711

> <r_i_glide_ligand_efficiency>
-0.300555134281884

> <r_i_glide_ligand_efficiency_sa>
-0.878828543008233

> <r_i_glide_ligand_efficiency_ln>
-1.7810143433842

> <r_i_glide_gscore>
-7.51387835704711

> <r_i_glide_lipo>
-3.22507699245765

> <r_i_glide_hbond>
-0.206369969831779

> <r_i_glide_metal>
0

> <r_i_glide_rewards>
-1.78834907712388

> <r_i_glide_evdw>
-38.7426986694336

> <r_i_glide_ecoul>
-8.96498775482178

> <r_i_glide_erotb>
1.12024314335512

> <r_i_glide_esite>
-0.132442364293971

> <r_i_glide_emodel>
-66.8693808809475

> <r_i_glide_energy>
-47.7076864242554

> <r_i_glide_einternal>
4.49408674240112

> <i_i_glide_confnum>
125

> <i_i_glide_posenum>
353

> <r_i_glide_eff_state_penalty>
0

> <s_user_duplicate_titles>
CHEMBL204_lig4701

> <i_f3d_flags>
0

> <s_m_subgroup_title>
dock_pv

> <s_m_subgroupid>
dock_pv

> <b_m_subgroup_collapsed>
1

$$$$
CHEMBL204_lig4534
                    3D
 Schrodinger Suite 2021-1.
 79 83  0  0  1  0            999 V2000
   18.7845  -13.5713   22.5002 C   0  0  0  0  0  0
   19.5502  -13.0532   21.5092 N   0  0  0  0  0  0
   19.0144  -12.1233   20.4899 C   0  0  1  0  0  0
   20.1455  -12.0222   19.4550 C   0  0  0  0  0  0
   21.4009  -12.3271   20.2260 C   0  0  0  0  0  0
   20.9486  -13.3808   21.2354 C   0  0  0  0  0  0
   17.6510  -13.1449   22.7209 O   0  0  0  0  0  0
   19.3047  -14.7536   23.3416 C   0  0  0  0  0  0
   18.1834  -15.7462   23.7960 C   0  0  0  0  0  0
   18.6741  -16.7099   24.8764 C   0  0  0  0  0  0
   18.0516  -16.7158   26.1278 C   0  0  0  0  0  0
   18.4995  -17.5737   27.1275 C   0  0  0  0  0  0
   19.5686  -18.4293   26.8712 C   0  0  0  0  0  0
   20.1941  -18.4317   25.6266 C   0  0  0  0  0  0
   19.7477  -17.5706   24.6277 C   0  0  0  0  0  0
   17.4115  -16.4693   22.6766 C   0  0  0  0  0  0
   17.9590  -16.6774   21.4024 C   0  0  0  0  0  0
   17.2088  -17.3069   20.4108 C   0  0  0  0  0  0
   15.9150  -17.7397   20.6914 C   0  0  0  0  0  0
   15.3651  -17.5511   21.9552 C   0  0  0  0  0  0
   16.1137  -16.9192   22.9437 C   0  0  0  0  0  0
   17.7694  -12.6763   19.7967 C   0  0  0  0  0  0
   16.8023  -11.8194   19.4558 N   0  0  0  0  0  0
   17.7330  -13.8672   19.5322 O   0  0  0  0  0  0
   15.5995  -12.1620   18.6732 C   0  0  2  0  0  0
   14.5260  -12.7793   19.5855 C   0  0  0  0  0  0
   15.9422  -13.0323   17.4231 C   0  0  0  0  0  0
   14.8948  -12.9394   16.3202 C   0  0  0  0  0  0
   14.2270  -13.9706   19.4821 O   0  0  0  0  0  0
   13.8055  -11.9307   20.5437 C   0  0  0  0  0  0
   14.8159  -11.5336   15.7210 C   0  0  0  0  0  0
   16.0583  -11.1652   15.0735 N   0  0  0  0  0  0
   14.2754  -10.2531   20.7399 S   0  0  0  0  0  0
   12.8046  -12.3116   21.2968 N   0  0  0  0  0  0
   12.4167  -11.3327   22.1557 C   0  0  0  0  0  0
   13.1404  -10.1202   22.0479 C   0  0  0  0  0  0
   12.9241   -9.0529   22.9203 C   0  0  0  0  0  0
   11.9789   -9.2268   23.9241 C   0  0  0  0  0  0
   11.2160  -10.3920   24.0067 C   0  0  0  0  0  0
   11.4135  -11.4539   23.1217 C   0  0  0  0  0  0
   16.1936  -10.0754   14.2415 C   0  0  0  0  0  0
   15.0967   -9.2393   14.3210 N   0  0  0  0  0  0
   17.2160   -9.8530   13.5409 N   0  0  0  0  0  0
   18.8160  -11.1585   20.9603 H   0  0  0  0  0  0
   20.0344  -12.7734   18.6687 H   0  0  0  0  0  0
   20.1989  -11.0530   18.9692 H   0  0  0  0  0  0
   22.1953  -12.6533   19.5636 H   0  0  0  0  0  0
   21.7274  -11.4163   20.7208 H   0  0  0  0  0  0
   20.9949  -14.3761   20.7914 H   0  0  0  0  0  0
   21.5695  -13.3708   22.1325 H   0  0  0  0  0  0
   20.0726  -15.3030   22.8019 H   0  0  0  0  0  0
   19.8067  -14.3413   24.2174 H   0  0  0  0  0  0
   17.4292  -15.1184   24.2779 H   0  0  0  0  0  0
   17.2171  -16.0562   26.3194 H   0  0  0  0  0  0
   18.0258  -17.5721   28.0981 H   0  0  0  0  0  0
   19.9211  -19.0928   27.6465 H   0  0  0  0  0  0
   21.0258  -19.0938   25.4382 H   0  0  0  0  0  0
   20.2334  -17.5749   23.6622 H   0  0  0  0  0  0
   18.9551  -16.3421   21.1604 H   0  0  0  0  0  0
   17.6161  -17.4522   19.4223 H   0  0  0  0  0  0
   15.3297  -18.2176   19.9194 H   0  0  0  0  0  0
   14.3588  -17.8816   22.1623 H   0  0  0  0  0  0
   15.6756  -16.7557   23.9175 H   0  0  0  0  0  0
   16.9078  -10.8481   19.7138 H   0  0  0  0  0  0
   15.2430  -11.1939   18.3427 H   0  0  0  0  0  0
   16.9138  -12.7479   17.0182 H   0  0  0  0  0  0
   16.0484  -14.0846   17.6927 H   0  0  0  0  0  0
   15.1167  -13.6677   15.5372 H   0  0  0  0  0  0
   13.9326  -13.2228   16.7351 H   0  0  0  0  0  0
   14.0278  -11.4530   14.9780 H   0  0  0  0  0  0
   14.5528  -10.7803   16.4584 H   0  0  0  0  0  0
   16.6448  -11.9517   14.8367 H   0  0  0  0  0  0
   13.5063   -8.1462   22.8562 H   0  0  0  0  0  0
   11.8024   -8.4331   24.6363 H   0  0  0  0  0  0
   10.4546  -10.4789   24.7721 H   0  0  0  0  0  0
   10.8219  -12.3530   23.2095 H   0  0  0  0  0  0
   15.1069   -8.5221   13.6036 H   0  0  0  0  0  0
   15.0073   -8.7891   15.2184 H   0  0  0  0  0  0
   17.0541   -9.0267   12.9701 H   0  0  0  0  0  0
  1  2  1  0  0  0
  1  7  2  0  0  0
  1  8  1  0  0  0
  2  6  1  0  0  0
  2  3  1  0  0  0
  3  4  1  0  0  0
  3 22  1  0  0  0
  3 44  1  0  0  0
  4  5  1  0  0  0
  4 45  1  0  0  0
  4 46  1  0  0  0
  5  6  1  0  0  0
  5 47  1  0  0  0
  5 48  1  0  0  0
  6 49  1  0  0  0
  6 50  1  0  0  0
  8  9  1  0  0  0
  8 51  1  0  0  0
  8 52  1  0  0  0
  9 16  1  0  0  0
  9 10  1  0  0  0
  9 53  1  0  0  0
 10 11  2  0  0  0
 10 15  1  0  0  0
 11 12  1  0  0  0
 11 54  1  0  0  0
 12 13  2  0  0  0
 12 55  1  0  0  0
 13 14  1  0  0  0
 13 56  1  0  0  0
 14 15  2  0  0  0
 14 57  1  0  0  0
 15 58  1  0  0  0
 16 21  1  0  0  0
 16 17  2  0  0  0
 17 18  1  0  0  0
 17 59  1  0  0  0
 18 19  2  0  0  0
 18 60  1  0  0  0
 19 20  1  0  0  0
 19 61  1  0  0  0
 20 21  2  0  0  0
 20 62  1  0  0  0
 21 63  1  0  0  0
 22 23  1  0  0  0
 22 24  2  0  0  0
 23 25  1  0  0  0
 23 64  1  0  0  0
 25 27  1  0  0  0
 25 26  1  0  0  0
 25 65  1  0  0  0
 26 29  2  0  0  0
 26 30  1  0  0  0
 27 28  1  0  0  0
 27 66  1  0  0  0
 27 67  1  0  0  0
 28 31  1  0  0  0
 28 68  1  0  0  0
 28 69  1  0  0  0
 30 33  1  0  0  0
 30 34  2  0  0  0
 31 32  1  0  0  0
 31 70  1  0  0  0
 31 71  1  0  0  0
 32 41  1  0  0  0
 32 72  1  0  0  0
 33 36  1  0  0  0
 34 35  1  0  0  0
 35 36  2  0  0  0
 35 40  1  0  0  0
 36 37  1  0  0  0
 37 38  2  0  0  0
 37 73  1  0  0  0
 38 39  1  0  0  0
 38 74  1  0  0  0
 39 40  2  0  0  0
 39 75  1  0  0  0
 40 76  1  0  0  0
 41 42  1  0  0  0
 41 43  2  0  0  0
 42 77  1  0  0  0
 42 78  1  0  0  0
 43 79  1  0  0  0
M  END
> <s_m_entry_id>
35292

> <s_m_entry_name>
dock_pv.142

> <s_m_Source_Path>
/home/csk/Desktop/cluster/DUD-E-result/thrb

> <s_m_Source_File>
dock_pv.maegz

> <i_m_Source_File_Index>
142

> <chembl_id>
CHEMBL403735

> <chembl_pref_name>
None

> <i_lp_mmshare_version>
53161

> <r_lp_tautomer_probability>
0.99990000499975

> <s_lp_Force_Field>
OPLS_2005

> <r_lp_Energy>
30.017134

> <b_lp_Chiralities_Consistent>
1

> <s_lp_Variant>
CHEMBL204_lig4534-1

> <s_i_glide_gridfile>
glide-grid_1ype

> <i_i_glide_lignum>
6202

> <i_i_glide_rotatable_bonds>
15

> <r_i_docking_score>
-7.51011019320193

> <r_i_glide_ligand_efficiency>
-0.174653725423301

> <r_i_glide_ligand_efficiency_sa>
-0.611881522120171

> <r_i_glide_ligand_efficiency_ln>
-1.57735655101906

> <r_i_glide_gscore>
-7.51011019320193

> <r_i_glide_lipo>
-3.12100163853103

> <r_i_glide_hbond>
-0.565278619368221

> <r_i_glide_metal>
0

> <r_i_glide_rewards>
-0.920158324812658

> <r_i_glide_evdw>
-43.8380584716797

> <r_i_glide_ecoul>
-9.11185836791992

> <r_i_glide_erotb>
0.710947937204458

> <r_i_glide_esite>
-0.0559378689225052

> <r_i_glide_emodel>
-61.520336633807

> <r_i_glide_energy>
-52.9499168395996

> <r_i_glide_einternal>
19.7931327819824

> <i_i_glide_confnum>
15

> <i_i_glide_posenum>
105

> <r_i_glide_eff_state_penalty>
0

> <s_user_duplicate_titles>
CHEMBL204_lig4534,297130,435309

> <i_f3d_flags>
0

> <s_m_subgroup_title>
dock_pv

> <s_m_subgroupid>
dock_pv

> <b_m_subgroup_collapsed>
1

$$$$
CHEMBL204_lig3015
                    3D
 Schrodinger Suite 2021-1.
 60 63  0  0  1  0            999 V2000
   16.1912  -11.4484   16.2430 C   0  0  0  0  0  0
   15.5361  -11.8747   17.3967 C   0  0  0  0  0  0
   16.3330  -12.3042   18.4666 C   0  0  0  0  0  0
   17.7587  -12.2924   18.3869 C   0  0  0  0  0  0
   18.3923  -11.8531   17.2075 C   0  0  0  0  0  0
   17.5788  -11.4419   16.1487 C   0  0  0  0  0  0
   15.9864  -12.7863   19.7261 N   0  0  0  0  0  0
   17.1441  -13.0553   20.4511 C   0  0  0  0  0  0
   18.2378  -12.7724   19.6404 C   0  0  0  0  0  0
   19.9112  -11.8692   17.0430 C   0  0  0  0  0  0
   17.1905  -13.4838   21.8315 C   0  0  0  0  0  0
   18.1379  -14.4101   22.0504 N   0  0  0  0  0  0
   18.4387  -15.0484   23.3271 C   0  0  0  0  0  0
   19.6985  -14.4828   23.9646 C   0  0  0  0  0  0
   14.6032  -12.8673   20.2302 C   0  0  0  0  0  0
   14.0955  -11.6136   20.9417 C   0  0  0  0  0  0
   14.7045  -10.3743   20.7345 C   0  0  0  0  0  0
   14.2687   -9.2536   21.4206 C   0  0  0  0  0  0
   13.2158   -9.3578   22.3209 C   0  0  0  0  0  0
   12.5705  -10.5828   22.5678 C   0  0  0  0  0  0
   13.0241  -11.7025   21.8399 C   0  0  0  0  0  0
   19.6145  -13.7775   25.1673 C   0  0  0  0  0  0
   20.7634  -13.2482   25.7506 C   0  0  0  0  0  0
   22.0067  -13.4529   25.1625 C   0  0  0  0  0  0
   22.1010  -14.1349   23.9554 C   0  0  0  0  0  0
   20.9506  -14.6633   23.3613 C   0  0  0  0  0  0
   11.4858  -10.6554   23.5868 C   0  0  0  0  0  0
   10.8160  -11.8520   23.6506 N   0  0  0  0  0  0
   20.6679  -12.4290   27.0066 C   0  0  0  0  0  0
   23.4456  -14.2520   23.2812 C   0  0  0  0  0  0
   16.4165  -13.0531   22.6898 O   0  0  0  0  0  0
   11.2160   -9.6675   24.3206 N   0  0  0  0  0  0
   15.6065  -11.1217   15.3944 H   0  0  0  0  0  0
   14.4576  -11.8778   17.4489 H   0  0  0  0  0  0
   18.0156  -11.1100   15.2226 H   0  0  0  0  0  0
   19.2722  -12.8741   19.9354 H   0  0  0  0  0  0
   20.2095  -11.8541   15.9960 H   0  0  0  0  0  0
   20.4161  -11.0541   17.5656 H   0  0  0  0  0  0
   20.3138  -12.7904   17.4653 H   0  0  0  0  0  0
   18.7270  -14.6605   21.2721 H   0  0  0  0  0  0
   18.5922  -16.1125   23.1423 H   0  0  0  0  0  0
   17.5984  -14.9780   24.0225 H   0  0  0  0  0  0
   13.9415  -13.1029   19.3971 H   0  0  0  0  0  0
   14.5370  -13.7317   20.8920 H   0  0  0  0  0  0
   15.5446  -10.2646   20.0655 H   0  0  0  0  0  0
   14.7764   -8.3116   21.2742 H   0  0  0  0  0  0
   12.9238   -8.4636   22.8539 H   0  0  0  0  0  0
   12.5787  -12.6737   21.9979 H   0  0  0  0  0  0
   18.6551  -13.6130   25.6364 H   0  0  0  0  0  0
   22.8942  -13.0351   25.6142 H   0  0  0  0  0  0
   21.0281  -15.1945   22.4236 H   0  0  0  0  0  0
    9.9826  -11.9061   24.2265 H   0  0  0  0  0  0
   11.0860  -12.6818   23.1411 H   0  0  0  0  0  0
   19.9255  -12.8364   27.6883 H   0  0  0  0  0  0
   21.6179  -12.4246   27.5211 H   0  0  0  0  0  0
   20.4161  -11.4030   26.7539 H   0  0  0  0  0  0
   23.6819  -15.3024   23.1230 H   0  0  0  0  0  0
   24.2513  -13.8057   23.8639 H   0  0  0  0  0  0
   23.3842  -13.7365   22.3215 H   0  0  0  0  0  0
   10.4077   -9.8529   24.9084 H   0  0  0  0  0  0
  1  2  2  0  0  0
  1  6  1  0  0  0
  1 33  1  0  0  0
  2  3  1  0  0  0
  2 34  1  0  0  0
  3  4  2  0  0  0
  3  7  1  0  0  0
  4  5  1  0  0  0
  4  9  1  0  0  0
  5  6  2  0  0  0
  5 10  1  0  0  0
  6 35  1  0  0  0
  7  8  1  0  0  0
  7 15  1  0  0  0
  8  9  2  0  0  0
  8 11  1  0  0  0
  9 36  1  0  0  0
 10 37  1  0  0  0
 10 38  1  0  0  0
 10 39  1  0  0  0
 11 12  1  0  0  0
 11 31  2  0  0  0
 12 13  1  0  0  0
 12 40  1  0  0  0
 13 14  1  0  0  0
 13 41  1  0  0  0
 13 42  1  0  0  0
 14 22  2  0  0  0
 14 26  1  0  0  0
 15 16  1  0  0  0
 15 43  1  0  0  0
 15 44  1  0  0  0
 16 17  2  0  0  0
 16 21  1  0  0  0
 17 18  1  0  0  0
 17 45  1  0  0  0
 18 19  2  0  0  0
 18 46  1  0  0  0
 19 20  1  0  0  0
 19 47  1  0  0  0
 20 21  2  0  0  0
 20 27  1  0  0  0
 21 48  1  0  0  0
 22 23  1  0  0  0
 22 49  1  0  0  0
 23 24  2  0  0  0
 23 29  1  0  0  0
 24 25  1  0  0  0
 24 50  1  0  0  0
 25 26  2  0  0  0
 25 30  1  0  0  0
 26 51  1  0  0  0
 27 28  1  0  0  0
 27 32  2  0  0  0
 28 52  1  0  0  0
 28 53  1  0  0  0
 29 54  1  0  0  0
 29 55  1  0  0  0
 29 56  1  0  0  0
 30 57  1  0  0  0
 30 58  1  0  0  0
 30 59  1  0  0  0
 32 60  1  0  0  0
M  END
> <s_m_entry_id>
35293

> <s_m_entry_name>
dock_pv.143

> <s_m_Source_Path>
/home/csk/Desktop/cluster/DUD-E-result/thrb

> <s_m_Source_File>
dock_pv.maegz

> <i_m_Source_File_Index>
143

> <chembl_id>
CHEMBL93087

> <chembl_pref_name>
None

> <i_lp_mmshare_version>
53161

> <r_lp_tautomer_probability>
1

> <s_lp_Force_Field>
OPLS_2005

> <r_lp_Energy>
15.151685

> <b_lp_Chiralities_Consistent>
1

> <s_lp_Variant>
CHEMBL204_lig3015-1

> <s_i_glide_gridfile>
glide-grid_1ype

> <i_i_glide_lignum>
4288

> <i_i_glide_rotatable_bonds>
7

> <r_i_docking_score>
-7.504517150544

> <r_i_glide_ligand_efficiency>
-0.2345161609545

> <r_i_glide_ligand_efficiency_sa>
-0.744542400345305

> <r_i_glide_ligand_efficiency_ln>
-1.68046595541827

> <r_i_glide_gscore>
-7.504517150544

> <r_i_glide_lipo>
-3.58580091357717

> <r_i_glide_hbond>
-0.622670157777008

> <r_i_glide_metal>
0

> <r_i_glide_rewards>
-0.839490542893773

> <r_i_glide_evdw>
-42.2800559997559

> <r_i_glide_ecoul>
-6.11786985397339

> <r_i_glide_erotb>
0.660123027321837

> <r_i_glide_esite>
-0.0849952855340902

> <r_i_glide_emodel>
-64.9929968910786

> <r_i_glide_energy>
-48.3979258537292

> <r_i_glide_einternal>
4.78770446777344

> <i_i_glide_confnum>
29

> <i_i_glide_posenum>
21

> <r_i_glide_eff_state_penalty>
0

> <s_user_duplicate_titles>
CHEMBL204_lig3015

> <i_f3d_flags>
0

> <s_m_subgroup_title>
dock_pv

> <s_m_subgroupid>
dock_pv

> <b_m_subgroup_collapsed>
1

$$$$
CHEMBL204_lig314
                    3D
 Schrodinger Suite 2021-1.
 64 67  0  0  1  0            999 V2000
   18.8208  -13.2160   20.2391 N   0  0  0  0  0  0
   17.7343  -13.7828   20.8235 C   0  0  0  0  0  0
   16.5541  -12.8659   21.2609 C   0  0  1  0  0  0
   20.0627  -13.9694   19.9974 C   0  0  2  0  0  0
   20.8160  -14.2533   21.3065 C   0  0  0  0  0  0
   15.2116  -13.1483   20.5032 C   0  0  0  0  0  0
   20.6948  -15.4909   21.8113 N   0  0  0  0  0  0
   17.6585  -14.9941   21.0542 O   0  0  0  0  0  0
   21.4856  -13.3622   21.8255 O   0  0  0  0  0  0
   15.3400  -13.1389   18.9694 C   0  0  0  0  0  0
   14.0495  -12.2810   21.0207 C   0  0  0  0  0  0
   16.4159  -13.0531   22.7203 N   0  0  0  0  0  0
   18.9703  -11.8450   19.7566 C   0  0  0  0  0  0
   21.3422  -15.9403   23.0431 C   0  0  0  0  0  0
   19.7100  -15.6009   24.9459 C   0  0  0  0  0  0
   20.8773  -15.1997   24.2906 C   0  0  0  0  0  0
   19.2743  -14.9249   26.0867 C   0  0  0  0  0  0
   20.8659  -13.0915   19.0106 C   0  0  0  0  0  0
   19.9330  -11.9740   18.5859 C   0  0  0  0  0  0
   21.1940  -13.4531   25.9374 C   0  0  0  0  0  0
   14.1737  -10.8874   21.1153 C   0  0  0  0  0  0
   15.1367  -14.3208   18.2469 C   0  0  0  0  0  0
   15.6787  -11.9674   18.2841 C   0  0  0  0  0  0
   12.8687  -12.8953   21.4543 C   0  0  0  0  0  0
   21.6322  -14.1405   24.8078 C   0  0  0  0  0  0
   20.0168  -13.8435   26.5717 C   0  0  0  0  0  0
   18.0191  -15.3874   26.8031 C   0  0  0  0  0  0
   15.8159  -11.9729   16.8991 C   0  0  0  0  0  0
   13.1362  -10.1218   21.6388 C   0  0  0  0  0  0
   11.8325  -12.1301   21.9803 C   0  0  0  0  0  0
   15.2706  -14.3292   16.8605 C   0  0  0  0  0  0
   11.9725  -10.7481   22.0738 C   0  0  0  0  0  0
   15.6150  -13.1561   16.1934 C   0  0  0  0  0  0
   16.8208  -11.8213   21.1191 H   0  0  0  0  0  0
   19.8210  -14.9155   19.5211 H   0  0  0  0  0  0
   14.9507  -14.1750   20.7716 H   0  0  0  0  0  0
   20.0858  -16.1468   21.3442 H   0  0  0  0  0  0
   15.7915  -13.8257   22.9446 H   0  0  0  0  0  0
   17.3088  -13.2867   23.1349 H   0  0  0  0  0  0
   18.0482  -11.3753   19.4255 H   0  0  0  0  0  0
   19.3974  -11.2338   20.5531 H   0  0  0  0  0  0
   21.1353  -17.0043   23.1673 H   0  0  0  0  0  0
   22.4263  -15.8698   22.9419 H   0  0  0  0  0  0
   19.1350  -16.4310   24.5612 H   0  0  0  0  0  0
   21.2165  -13.6643   18.1519 H   0  0  0  0  0  0
   21.7506  -12.6533   19.4741 H   0  0  0  0  0  0
   19.3785  -12.2828   17.6987 H   0  0  0  0  0  0
   20.4664  -11.0539   18.3533 H   0  0  0  0  0  0
   21.7627  -12.6181   26.3197 H   0  0  0  0  0  0
   15.0801  -10.3890   20.8089 H   0  0  0  0  0  0
   14.8745  -15.2374   18.7558 H   0  0  0  0  0  0
   15.8392  -11.0503   18.8241 H   0  0  0  0  0  0
   12.7507  -13.9681   21.4016 H   0  0  0  0  0  0
   22.5429  -13.8281   24.3172 H   0  0  0  0  0  0
   19.6862  -13.3012   27.4463 H   0  0  0  0  0  0
   18.0069  -15.0559   27.8417 H   0  0  0  0  0  0
   17.1288  -15.0191   26.2953 H   0  0  0  0  0  0
   17.9715  -16.4766   26.8216 H   0  0  0  0  0  0
   16.0722  -11.0640   16.3759 H   0  0  0  0  0  0
   13.2381   -9.0502   21.7225 H   0  0  0  0  0  0
   10.9248  -12.6089   22.3215 H   0  0  0  0  0  0
   15.1032  -15.2405   16.3040 H   0  0  0  0  0  0
   11.1669  -10.1608   22.4904 H   0  0  0  0  0  0
   15.7103  -13.1657   15.1170 H   0  0  0  0  0  0
  1  2  1  0  0  0
  1  4  1  0  0  0
  1 13  1  0  0  0
  2  3  1  0  0  0
  2  8  2  0  0  0
  3  6  1  0  0  0
  3 12  1  0  0  0
  3 34  1  0  0  0
  4  5  1  0  0  0
  4 18  1  0  0  0
  4 35  1  0  0  0
  5  7  1  0  0  0
  5  9  2  0  0  0
  6 10  1  0  0  0
  6 11  1  0  0  0
  6 36  1  0  0  0
  7 14  1  0  0  0
  7 37  1  0  0  0
 10 22  2  0  0  0
 10 23  1  0  0  0
 11 21  1  0  0  0
 11 24  2  0  0  0
 12 38  1  0  0  0
 12 39  1  0  0  0
 13 19  1  0  0  0
 13 40  1  0  0  0
 13 41  1  0  0  0
 14 16  1  0  0  0
 14 42  1  0  0  0
 14 43  1  0  0  0
 15 16  2  0  0  0
 15 17  1  0  0  0
 15 44  1  0  0  0
 16 25  1  0  0  0
 17 27  1  0  0  0
 17 26  2  0  0  0
 18 19  1  0  0  0
 18 45  1  0  0  0
 18 46  1  0  0  0
 19 47  1  0  0  0
 19 48  1  0  0  0
 20 25  2  0  0  0
 20 26  1  0  0  0
 20 49  1  0  0  0
 21 29  2  0  0  0
 21 50  1  0  0  0
 22 31  1  0  0  0
 22 51  1  0  0  0
 23 28  2  0  0  0
 23 52  1  0  0  0
 24 30  1  0  0  0
 24 53  1  0  0  0
 25 54  1  0  0  0
 26 55  1  0  0  0
 27 56  1  0  0  0
 27 57  1  0  0  0
 27 58  1  0  0  0
 28 33  1  0  0  0
 28 59  1  0  0  0
 29 32  1  0  0  0
 29 60  1  0  0  0
 30 32  2  0  0  0
 30 61  1  0  0  0
 31 33  2  0  0  0
 31 62  1  0  0  0
 32 63  1  0  0  0
 33 64  1  0  0  0
M  END
> <s_m_entry_id>
35294

> <s_m_entry_name>
dock_pv.144

> <s_m_Source_Path>
/home/csk/Desktop/cluster/DUD-E-result/thrb

> <s_m_Source_File>
dock_pv.maegz

> <i_m_Source_File_Index>
144

> <chembl_id>
CHEMBL3142752

> <chembl_pref_name>
None

> <i_lp_mmshare_version>
53161

> <r_lp_tautomer_probability>
1

> <s_lp_Force_Field>
OPLS_2005

> <r_lp_Energy>
27.120507

> <b_lp_Chiralities_Consistent>
1

> <s_lp_Variant>
CHEMBL204_lig314-2

> <s_i_glide_gridfile>
glide-grid_1ype

> <i_i_glide_lignum>
400

> <i_i_glide_rotatable_bonds>
9

> <r_i_docking_score>
-7.49543105270271

> <r_i_glide_ligand_efficiency>
-0.227134274324325

> <r_i_glide_ligand_efficiency_sa>
-0.728540981564845

> <r_i_glide_ligand_efficiency_ln>
-1.66694505685612

> <r_i_glide_gscore>
-7.49543105270271

> <r_i_glide_lipo>
-3.76696637412162

> <r_i_glide_hbond>
-0.544215212238398

> <r_i_glide_metal>
0

> <r_i_glide_rewards>
-0.899625913316593

> <r_i_glide_evdw>
-44.3046722412109

> <r_i_glide_ecoul>
-6.60973453521729

> <r_i_glide_erotb>
0.922070239317033

> <r_i_glide_esite>
0

> <r_i_glide_emodel>
-73.460978119733

> <r_i_glide_energy>
-50.9144067764282

> <r_i_glide_einternal>
4.13434171676636

> <i_i_glide_confnum>
192

> <i_i_glide_posenum>
286

> <r_i_glide_eff_state_penalty>
0

> <s_user_duplicate_titles>
CHEMBL204_lig314,1639

> <i_f3d_flags>
0

> <s_m_subgroup_title>
dock_pv

> <s_m_subgroupid>
dock_pv

> <b_m_subgroup_collapsed>
1

$$$$
CHEMBL204_lig1781
                    3D
 Schrodinger Suite 2021-1.
 58 62  0  0  1  0            999 V2000
   21.2397  -12.1674   19.6138 C   0  0  0  0  0  0
   19.8537  -11.9330   19.8282 O   0  0  0  0  0  0
   19.2065  -12.6772   20.7946 C   0  0  0  0  0  0
   19.7572  -13.6924   21.5950 C   0  0  0  0  0  0
   19.0033  -14.3637   22.5796 C   0  0  0  0  0  0
   17.6316  -14.0777   22.7237 C   0  0  0  0  0  0
   17.0525  -13.0951   21.9125 C   0  0  0  0  0  0
   15.7615  -12.6529   21.8255 N   0  0  0  0  0  0
   15.8211  -11.7464   20.8743 C   0  0  0  0  0  0
   14.8090  -11.0531   20.2751 N   0  0  0  0  0  0
   13.3701  -11.3087   20.3431 C   0  0  1  0  0  0
   13.0173  -12.6995   19.7629 C   0  0  0  0  0  0
   13.5889  -12.9431   18.5826 F   0  0  0  0  0  0
   12.7550  -10.9655   21.7131 C   0  0  0  0  0  0
   11.8318  -11.8209   22.3338 C   0  0  0  0  0  0
   11.1985  -11.4438   23.5158 C   0  0  0  0  0  0
   11.4813  -10.2132   24.1041 C   0  0  0  0  0  0
   12.4150   -9.3588   23.5201 C   0  0  0  0  0  0
   12.7909   -7.8531   24.2846 Cl  0  0  0  0  0  0
   13.0365   -9.7287   22.3215 C   0  0  0  0  0  0
   17.0527  -11.5227   20.3334 O   0  0  0  0  0  0
   17.8497  -12.4100   20.9859 C   0  0  0  0  0  0
   19.6106  -15.4750   23.4207 C   0  0  0  0  0  0
   18.9200  -16.4788   23.6229 O   0  0  0  0  0  0
   20.9057  -15.3888   23.8522 N   0  0  0  0  0  0
   21.5948  -16.6569   24.2328 C   0  0  0  0  0  0
   22.5773  -16.3540   25.3952 C   0  0  1  0  0  0
   23.8364  -17.2372   25.5371 C   0  0  0  0  0  0
   24.7609  -16.0550   25.1339 C   0  0  0  0  0  0
   23.5039  -15.3120   24.9178 N   0  0  0  0  0  0
   23.1219  -14.2057   24.2514 C   0  0  0  0  0  0
   23.9150  -13.4529   23.6928 O   0  0  0  0  0  0
   21.5716  -14.0788   24.1620 C   0  0  2  0  0  0
   21.0364  -13.3446   25.3967 C   0  0  0  0  0  0
   21.6183  -11.4530   18.8826 H   0  0  0  0  0  0
   21.8175  -12.0360   20.5287 H   0  0  0  0  0  0
   21.4150  -13.1710   19.2221 H   0  0  0  0  0  0
   20.7855  -13.9813   21.4330 H   0  0  0  0  0  0
   17.0202  -14.6156   23.4373 H   0  0  0  0  0  0
   15.0669  -10.5669   19.4293 H   0  0  0  0  0  0
   12.9174  -10.5796   19.6692 H   0  0  0  0  0  0
   11.9431  -12.8087   19.6125 H   0  0  0  0  0  0
   13.3449  -13.4987   20.4305 H   0  0  0  0  0  0
   11.5651  -12.7778   21.9101 H   0  0  0  0  0  0
   10.4683  -12.0997   23.9714 H   0  0  0  0  0  0
   10.9678   -9.9289   25.0128 H   0  0  0  0  0  0
   13.7399   -9.0488   21.8636 H   0  0  0  0  0  0
   22.1311  -17.0424   23.3641 H   0  0  0  0  0  0
   20.9027  -17.4242   24.5851 H   0  0  0  0  0  0
   22.0558  -16.0942   26.3182 H   0  0  0  0  0  0
   23.8048  -18.0690   24.8319 H   0  0  0  0  0  0
   23.9299  -17.5589   26.5746 H   0  0  0  0  0  0
   25.2550  -16.1947   24.1722 H   0  0  0  0  0  0
   25.3326  -15.5647   25.9212 H   0  0  0  0  0  0
   21.4513  -13.4073   23.3188 H   0  0  0  0  0  0
   21.5483  -12.3909   25.5353 H   0  0  0  0  0  0
   19.9721  -13.1331   25.2705 H   0  0  0  0  0  0
   21.1606  -13.9473   26.2973 H   0  0  0  0  0  0
  1  2  1  0  0  0
  1 35  1  0  0  0
  1 36  1  0  0  0
  1 37  1  0  0  0
  2  3  1  0  0  0
  3  4  2  0  0  0
  3 22  1  0  0  0
  4  5  1  0  0  0
  4 38  1  0  0  0
  5  6  2  0  0  0
  5 23  1  0  0  0
  6  7  1  0  0  0
  6 39  1  0  0  0
  7  8  1  0  0  0
  7 22  2  0  0  0
  8  9  2  0  0  0
  9 10  1  0  0  0
  9 21  1  0  0  0
 10 11  1  0  0  0
 10 40  1  0  0  0
 11 12  1  0  0  0
 11 14  1  0  0  0
 11 41  1  0  0  0
 12 13  1  0  0  0
 12 42  1  0  0  0
 12 43  1  0  0  0
 14 15  2  0  0  0
 14 20  1  0  0  0
 15 16  1  0  0  0
 15 44  1  0  0  0
 16 17  2  0  0  0
 16 45  1  0  0  0
 17 18  1  0  0  0
 17 46  1  0  0  0
 18 19  1  0  0  0
 18 20  2  0  0  0
 20 47  1  0  0  0
 21 22  1  0  0  0
 23 24  2  0  0  0
 23 25  1  0  0  0
 25 26  1  0  0  0
 25 33  1  0  0  0
 26 27  1  0  0  0
 26 48  1  0  0  0
 26 49  1  0  0  0
 27 28  1  0  0  0
 27 30  1  0  0  0
 27 50  1  0  0  0
 28 29  1  0  0  0
 28 51  1  0  0  0
 28 52  1  0  0  0
 29 30  1  0  0  0
 29 53  1  0  0  0
 29 54  1  0  0  0
 30 31  1  0  0  0
 31 32  2  0  0  0
 31 33  1  0  0  0
 33 34  1  0  0  0
 33 55  1  0  0  0
 34 56  1  0  0  0
 34 57  1  0  0  0
 34 58  1  0  0  0
M  END
> <s_m_entry_id>
35295

> <s_m_entry_name>
dock_pv.145

> <s_m_Source_Path>
/home/csk/Desktop/cluster/DUD-E-result/thrb

> <s_m_Source_File>
dock_pv.maegz

> <i_m_Source_File_Index>
145

> <chembl_id>
CHEMBL3948587

> <chembl_pref_name>
None

> <i_lp_mmshare_version>
53161

> <r_lp_tautomer_probability>
1

> <s_lp_Force_Field>
OPLS_2005

> <r_lp_Energy>
50.731126

> <b_lp_Chiralities_Consistent>
1

> <s_lp_Variant>
CHEMBL204_lig1781-8

> <s_i_glide_gridfile>
glide-grid_1ype

> <i_i_glide_lignum>
2664

> <i_i_glide_rotatable_bonds>
7

> <r_i_docking_score>
-7.49433892136086

> <r_i_glide_ligand_efficiency>
-0.220421732981202

> <r_i_glide_ligand_efficiency_sa>
-0.714080846584566

> <r_i_glide_ligand_efficiency_ln>
-1.6557096768151

> <r_i_glide_gscore>
-7.49433892136086

> <r_i_glide_lipo>
-3.68097100337336

> <r_i_glide_hbond>
-0.285472603936759

> <r_i_glide_metal>
0

> <r_i_glide_rewards>
-0.694031117832123

> <r_i_glide_evdw>
-52.0191421508789

> <r_i_glide_ecoul>
-4.41032838821411

> <r_i_glide_erotb>
0.42864216955745

> <r_i_glide_esite>
0

> <r_i_glide_emodel>
-76.2717218040411

> <r_i_glide_energy>
-56.429470539093

> <r_i_glide_einternal>
11.6761798858643

> <i_i_glide_confnum>
32

> <i_i_glide_posenum>
128

> <r_i_glide_eff_state_penalty>
0

> <s_user_duplicate_titles>
CHEMBL204_lig1781

> <i_f3d_flags>
0

> <s_m_subgroup_title>
dock_pv

> <s_m_subgroupid>
dock_pv

> <b_m_subgroup_collapsed>
1

$$$$
CHEMBL204_lig290
                    3D
 Schrodinger Suite 2021-1.
 62 65  0  0  1  0            999 V2000
   16.2400  -15.5456   20.8870 N   0  0  0  0  0  0
   16.5407  -14.5243   21.7384 C   0  0  0  0  0  0
   17.5971  -14.7081   22.8752 C   0  0  2  0  0  0
   15.5433  -15.3426   19.5928 C   0  0  2  0  0  0
   14.2187  -14.5538   19.5718 C   0  0  0  0  0  0
   19.0937  -14.7348   22.3830 C   0  0  0  0  0  0
   13.4600  -14.5790   20.6799 N   0  0  0  0  0  0
   16.0638  -13.3925   21.6195 O   0  0  0  0  0  0
   13.9169  -13.9436   18.5492 O   0  0  0  0  0  0
   20.1184  -14.7012   23.5291 C   0  0  0  0  0  0
   19.4576  -13.6900   21.3124 C   0  0  0  0  0  0
   17.2161  -15.8392   23.7468 N   0  0  0  0  0  0
   16.6376  -16.9521   21.0294 C   0  0  0  0  0  0
   12.2061  -13.8475   20.8309 C   0  0  0  0  0  0
   12.6258  -11.3817   20.4042 C   0  0  0  0  0  0
   12.3805  -12.4117   21.3156 C   0  0  0  0  0  0
   12.6502  -10.0549   20.8318 C   0  0  0  0  0  0
   15.3345  -16.7659   19.0473 C   0  0  0  0  0  0
   12.8116   -9.0533   19.9185 O   0  0  0  0  0  0
   16.4581  -17.5816   19.6548 C   0  0  0  0  0  0
   12.1911  -10.7622   23.0857 C   0  0  0  0  0  0
   21.1834  -15.6119   23.5299 C   0  0  0  0  0  0
   20.0271  -13.7538   24.5560 C   0  0  0  0  0  0
   18.9049  -12.4023   21.3173 C   0  0  0  0  0  0
   20.3732  -14.0387   20.3118 C   0  0  0  0  0  0
   12.4407   -9.7432   22.1719 C   0  0  0  0  0  0
   12.1734  -12.0913   22.6609 C   0  0  0  0  0  0
   20.9903  -13.7011   25.5579 C   0  0  0  0  0  0
   20.7192  -13.1189   19.3285 C   0  0  0  0  0  0
   19.2315  -11.4915   20.3200 C   0  0  0  0  0  0
   22.1499  -15.5619   24.5319 C   0  0  0  0  0  0
   20.1449  -11.8530   19.3339 C   0  0  0  0  0  0
   22.0523  -14.6033   25.5383 C   0  0  0  0  0  0
   17.4823  -13.8264   23.5036 H   0  0  0  0  0  0
   16.2481  -14.8146   18.9487 H   0  0  0  0  0  0
   19.2263  -15.7012   21.8978 H   0  0  0  0  0  0
   13.8218  -15.0322   21.5055 H   0  0  0  0  0  0
   17.8414  -15.8936   24.5380 H   0  0  0  0  0  0
   16.2940  -15.6461   24.1304 H   0  0  0  0  0  0
   17.6572  -17.1001   21.3809 H   0  0  0  0  0  0
   15.9641  -17.4220   21.7463 H   0  0  0  0  0  0
   11.6517  -13.8303   19.8896 H   0  0  0  0  0  0
   11.5704  -14.3976   21.5206 H   0  0  0  0  0  0
   12.7648  -11.6136   19.3594 H   0  0  0  0  0  0
   15.3406  -16.7992   17.9567 H   0  0  0  0  0  0
   14.3761  -17.1667   19.3843 H   0  0  0  0  0  0
   12.1384   -9.1391   19.2307 H   0  0  0  0  0  0
   17.3679  -17.4533   19.0693 H   0  0  0  0  0  0
   16.2424  -18.6490   19.6940 H   0  0  0  0  0  0
   12.0113  -10.5250   24.1247 H   0  0  0  0  0  0
   21.2782  -16.3464   22.7445 H   0  0  0  0  0  0
   19.2155  -13.0498   24.5820 H   0  0  0  0  0  0
   18.2190  -12.0953   22.0920 H   0  0  0  0  0  0
   20.8243  -15.0208   20.2975 H   0  0  0  0  0  0
   12.4481   -8.7145   22.4985 H   0  0  0  0  0  0
   12.0026  -12.8750   23.3826 H   0  0  0  0  0  0
   20.9171  -12.9633   26.3453 H   0  0  0  0  0  0
   21.4288  -13.3889   18.5619 H   0  0  0  0  0  0
   18.7959  -10.5015   20.3385 H   0  0  0  0  0  0
   22.9755  -16.2600   24.5246 H   0  0  0  0  0  0
   20.4204  -11.1450   18.5681 H   0  0  0  0  0  0
   22.8054  -14.5615   26.3124 H   0  0  0  0  0  0
  1  2  1  0  0  0
  1  4  1  0  0  0
  1 13  1  0  0  0
  2  3  1  0  0  0
  2  8  2  0  0  0
  3  6  1  0  0  0
  3 12  1  0  0  0
  3 34  1  0  0  0
  4  5  1  0  0  0
  4 18  1  0  0  0
  4 35  1  0  0  0
  5  7  1  0  0  0
  5  9  2  0  0  0
  6 10  1  0  0  0
  6 11  1  0  0  0
  6 36  1  0  0  0
  7 14  1  0  0  0
  7 37  1  0  0  0
 10 22  2  0  0  0
 10 23  1  0  0  0
 11 24  2  0  0  0
 11 25  1  0  0  0
 12 38  1  0  0  0
 12 39  1  0  0  0
 13 20  1  0  0  0
 13 40  1  0  0  0
 13 41  1  0  0  0
 14 16  1  0  0  0
 14 42  1  0  0  0
 14 43  1  0  0  0
 15 16  2  0  0  0
 15 17  1  0  0  0
 15 44  1  0  0  0
 16 27  1  0  0  0
 17 19  1  0  0  0
 17 26  2  0  0  0
 18 20  1  0  0  0
 18 45  1  0  0  0
 18 46  1  0  0  0
 19 47  1  0  0  0
 20 48  1  0  0  0
 20 49  1  0  0  0
 21 27  2  0  0  0
 21 26  1  0  0  0
 21 50  1  0  0  0
 22 31  1  0  0  0
 22 51  1  0  0  0
 23 28  2  0  0  0
 23 52  1  0  0  0
 24 30  1  0  0  0
 24 53  1  0  0  0
 25 29  2  0  0  0
 25 54  1  0  0  0
 26 55  1  0  0  0
 27 56  1  0  0  0
 28 33  1  0  0  0
 28 57  1  0  0  0
 29 32  1  0  0  0
 29 58  1  0  0  0
 30 32  2  0  0  0
 30 59  1  0  0  0
 31 33  2  0  0  0
 31 60  1  0  0  0
 32 61  1  0  0  0
 33 62  1  0  0  0
M  END
> <s_m_entry_id>
35296

> <s_m_entry_name>
dock_pv.146

> <s_m_Source_Path>
/home/csk/Desktop/cluster/DUD-E-result/thrb

> <s_m_Source_File>
dock_pv.maegz

> <i_m_Source_File_Index>
146

> <chembl_id>
CHEMBL3142679

> <chembl_pref_name>
None

> <i_lp_mmshare_version>
53161

> <r_lp_tautomer_probability>
0.999999999997365

> <s_lp_Force_Field>
OPLS_2005

> <r_lp_Energy>
29.2016

> <b_lp_Chiralities_Consistent>
1

> <s_lp_Variant>
CHEMBL204_lig290-1

> <s_i_glide_gridfile>
glide-grid_1ype

> <i_i_glide_lignum>
361

> <i_i_glide_rotatable_bonds>
10

> <r_i_docking_score>
-7.4938472620179

> <r_i_glide_ligand_efficiency>
-0.227086280667209

> <r_i_glide_ligand_efficiency_sa>
-0.728387040262203

> <r_i_glide_ligand_efficiency_ln>
-1.66659283000825

> <r_i_glide_gscore>
-7.4938472620179

> <r_i_glide_lipo>
-3.55522135335782

> <r_i_glide_hbond>
-0.819098958069517

> <r_i_glide_metal>
0

> <r_i_glide_rewards>
-0.616219149367813

> <r_i_glide_evdw>
-42.7189903259277

> <r_i_glide_ecoul>
-8.51938247680664

> <r_i_glide_erotb>
0.914637088813917

> <r_i_glide_esite>
-0.00408800221928295

> <r_i_glide_emodel>
-69.8035829864735

> <r_i_glide_energy>
-51.2383728027344

> <r_i_glide_einternal>
8.02845573425293

> <i_i_glide_confnum>
102

> <i_i_glide_posenum>
111

> <r_i_glide_eff_state_penalty>
0

> <s_user_duplicate_titles>
CHEMBL204_lig290,1561

> <i_f3d_flags>
0

> <s_m_subgroup_title>
dock_pv

> <s_m_subgroupid>
dock_pv

> <b_m_subgroup_collapsed>
1

$$$$
CHEMBL204_lig4288
                    3D
 Schrodinger Suite 2021-1.
 81 85  0  0  1  0            999 V2000
   13.0232   -8.8913   23.2020 N   0  0  0  0  0  0
   13.6096  -14.2118   19.1590 N   0  0  0  0  0  0
   13.0894  -12.8839   18.8322 C   0  0  0  0  0  0
   13.3636  -11.9202   19.9893 C   0  0  0  0  0  0
   12.7440  -12.4750   21.1976 N   0  0  0  0  0  0
   13.0896  -13.8646   21.5757 C   0  0  0  0  0  0
   12.9602  -14.8089   20.3457 C   0  0  0  0  0  0
   14.5881  -14.8554   18.4618 C   0  0  0  0  0  0
   15.0598  -15.9217   18.8636 O   0  0  0  0  0  0
   15.1771  -14.2540   17.1502 C   0  0  1  0  0  0
   16.5693  -13.8241   17.4064 N   0  0  3  0  0  0
   15.1779  -15.2570   15.9558 C   0  0  0  0  0  0
   12.0159  -11.6935   22.0281 C   0  0  0  0  0  0
   11.6161  -12.0764   23.1211 O   0  0  0  0  0  0
   11.6080  -10.2809   21.5934 C   0  0  0  0  0  0
   16.0162  -14.8181   14.7440 C   0  0  0  0  0  0
   16.9240  -15.7055   14.1629 C   0  0  0  0  0  0
   17.7471  -15.2847   13.1204 C   0  0  0  0  0  0
   17.6646  -13.9757   12.6471 C   0  0  0  0  0  0
   16.7380  -13.0614   13.1793 C   0  0  0  0  0  0
   15.9210  -13.5179   14.2319 C   0  0  0  0  0  0
   17.0764  -12.3634   18.2464 S   0  0  0  0  0  0
   18.2852  -11.8933   17.5617 O   0  0  0  0  0  0
   15.9266  -11.4669   18.3942 O   0  0  0  0  0  0
   17.5754  -12.9297   19.8760 C   0  0  0  0  0  0
   12.6152   -9.1465   21.8201 C   0  0  0  0  0  0
   18.9247  -12.9651   20.2156 C   0  0  0  0  0  0
   17.0416  -13.8618   22.0451 C   0  0  0  0  0  0
   16.6431  -13.3907   20.7979 C   0  0  0  0  0  0
   16.6462  -11.6707   12.6506 C   0  0  0  0  0  0
   17.6103  -11.1374   12.0368 N   0  0  0  0  0  0
   15.4445  -11.0530   12.8957 N   0  0  0  0  0  0
   18.3941  -13.8846   22.4093 C   0  0  0  0  0  0
   19.3481  -13.4456   21.4653 C   0  0  0  0  0  0
   20.8076  -13.4530   21.7701 C   0  0  0  0  0  0
   18.8006  -14.3575   23.7801 C   0  0  0  0  0  0
   20.2663  -14.2796   24.1117 C   0  0  0  0  0  0
   21.2185  -13.8575   23.1544 C   0  0  0  0  0  0
   22.5724  -13.7837   23.5193 C   0  0  0  0  0  0
   22.9922  -14.1229   24.7990 C   0  0  0  0  0  0
   22.0580  -14.5438   25.7356 C   0  0  0  0  0  0
   20.7079  -14.6186   25.4007 C   0  0  0  0  0  0
   21.6160  -13.0530   20.9361 O   0  0  0  0  0  0
   17.9725  -14.7522   24.6034 O   0  0  0  0  0  0
   12.0654   -8.5698   24.2011 C   0  0  0  0  0  0
   12.0160   -7.4335   24.7210 N   0  0  0  0  0  0
   11.2160   -9.6210   24.5838 N   0  0  0  0  0  0
   13.8023   -8.2522   23.2138 H   0  0  0  0  0  0
   12.0159  -12.9957   18.7200 H   0  0  0  0  0  0
   13.4625  -12.4410   17.9213 H   0  0  0  0  0  0
   12.9845  -10.9463   19.6891 H   0  0  0  0  0  0
   14.4282  -11.8057   20.1653 H   0  0  0  0  0  0
   14.1130  -13.8836   21.9408 H   0  0  0  0  0  0
   12.4220  -14.2455   22.3502 H   0  0  0  0  0  0
   13.3520  -15.8001   20.5827 H   0  0  0  0  0  0
   11.9031  -14.9275   20.1037 H   0  0  0  0  0  0
   14.6482  -13.3859   16.7833 H   0  0  0  0  0  0
   17.2832  -14.3066   16.8566 H   0  0  0  0  0  0
   15.5627  -16.2203   16.2977 H   0  0  0  0  0  0
   14.1565  -15.4522   15.6270 H   0  0  0  0  0  0
   10.7475  -10.0254   22.1826 H   0  0  0  0  0  0
   11.2194  -10.2639   20.5814 H   0  0  0  0  0  0
   17.0145  -16.7168   14.5315 H   0  0  0  0  0  0
   18.4546  -15.9741   12.6835 H   0  0  0  0  0  0
   18.3171  -13.6841   11.8362 H   0  0  0  0  0  0
   15.2161  -12.8424   14.6905 H   0  0  0  0  0  0
   12.1841   -8.2530   21.3767 H   0  0  0  0  0  0
   13.5312   -9.3553   21.2666 H   0  0  0  0  0  0
   19.6518  -12.6251   19.4913 H   0  0  0  0  0  0
   16.2804  -14.2228   22.7210 H   0  0  0  0  0  0
   15.6049  -13.4089   20.5443 H   0  0  0  0  0  0
   17.3616  -10.2079   11.7291 H   0  0  0  0  0  0
   15.2933  -10.1042   12.5763 H   0  0  0  0  0  0
   14.6369  -11.6141   13.1204 H   0  0  0  0  0  0
   23.3159  -13.4522   22.8071 H   0  0  0  0  0  0
   24.0379  -14.0603   25.0659 H   0  0  0  0  0  0
   22.3923  -14.8147   26.7209 H   0  0  0  0  0  0
   20.0078  -14.9446   26.1576 H   0  0  0  0  0  0
   11.2861   -7.3621   25.4144 H   0  0  0  0  0  0
   10.3511   -9.4548   25.0923 H   0  0  0  0  0  0
   11.2218  -10.5033   24.0819 H   0  0  0  0  0  0
  1 26  1  0  0  0
  1 45  1  0  0  0
  1 48  1  0  0  0
  2  8  1  0  0  0
  2  3  1  0  0  0
  2  7  1  0  0  0
  3  4  1  0  0  0
  3 49  1  0  0  0
  3 50  1  0  0  0
  4  5  1  0  0  0
  4 51  1  0  0  0
  4 52  1  0  0  0
  5  6  1  0  0  0
  5 13  1  0  0  0
  6  7  1  0  0  0
  6 53  1  0  0  0
  6 54  1  0  0  0
  7 55  1  0  0  0
  7 56  1  0  0  0
  8  9  2  0  0  0
  8 10  1  0  0  0
 10 12  1  0  0  0
 10 11  1  0  0  0
 10 57  1  0  0  0
 11 22  1  0  0  0
 11 58  1  0  0  0
 12 16  1  0  0  0
 12 59  1  0  0  0
 12 60  1  0  0  0
 13 14  2  0  0  0
 13 15  1  0  0  0
 15 26  1  0  0  0
 15 61  1  0  0  0
 15 62  1  0  0  0
 16 17  2  0  0  0
 16 21  1  0  0  0
 17 18  1  0  0  0
 17 63  1  0  0  0
 18 19  2  0  0  0
 18 64  1  0  0  0
 19 20  1  0  0  0
 19 65  1  0  0  0
 20 30  1  0  0  0
 20 21  2  0  0  0
 21 66  1  0  0  0
 22 24  2  0  0  0
 22 25  1  0  0  0
 22 23  2  0  0  0
 25 27  2  0  0  0
 25 29  1  0  0  0
 26 67  1  0  0  0
 26 68  1  0  0  0
 27 34  1  0  0  0
 27 69  1  0  0  0
 28 33  1  0  0  0
 28 29  2  0  0  0
 28 70  1  0  0  0
 29 71  1  0  0  0
 30 31  2  0  0  0
 30 32  1  0  0  0
 31 72  1  0  0  0
 32 73  1  0  0  0
 32 74  1  0  0  0
 33 34  2  0  0  0
 33 36  1  0  0  0
 34 35  1  0  0  0
 35 38  1  0  0  0
 35 43  2  0  0  0
 36 37  1  0  0  0
 36 44  2  0  0  0
 37 38  1  0  0  0
 37 42  2  0  0  0
 38 39  2  0  0  0
 39 40  1  0  0  0
 39 75  1  0  0  0
 40 41  2  0  0  0
 40 76  1  0  0  0
 41 42  1  0  0  0
 41 77  1  0  0  0
 42 78  1  0  0  0
 45 46  2  0  0  0
 45 47  1  0  0  0
 46 79  1  0  0  0
 47 80  1  0  0  0
 47 81  1  0  0  0
M  END
> <s_m_entry_id>
35297

> <s_m_entry_name>
dock_pv.147

> <s_m_Source_Path>
/home/csk/Desktop/cluster/DUD-E-result/thrb

> <s_m_Source_File>
dock_pv.maegz

> <i_m_Source_File_Index>
147

> <chembl_id>
CHEMBL3706847

> <chembl_pref_name>
None

> <i_lp_mmshare_version>
53161

> <r_lp_tautomer_probability>
1

> <s_lp_Force_Field>
OPLS_2005

> <r_lp_Energy>
49.96681

> <b_lp_Chiralities_Consistent>
1

> <s_lp_Variant>
CHEMBL204_lig4288-1

> <s_i_glide_gridfile>
glide-grid_1ype

> <i_i_glide_lignum>
5935

> <i_i_glide_rotatable_bonds>
13

> <r_i_docking_score>
-7.48584383459349

> <r_i_glide_ligand_efficiency>
-0.159273273076457

> <r_i_glide_ligand_efficiency_sa>
-0.574789541009696

> <r_i_glide_ligand_efficiency_ln>
-1.54342598397503

> <r_i_glide_gscore>
-7.48584383459349

> <r_i_glide_lipo>
-3.10871113676726

> <r_i_glide_hbond>
-0.361956650453259

> <r_i_glide_metal>
0

> <r_i_glide_rewards>
-0.925747956728448

> <r_i_glide_evdw>
-57.2001762390137

> <r_i_glide_ecoul>
-3.0867292881012

> <r_i_glide_erotb>
0.383602802864764

> <r_i_glide_esite>
-0.150012688343421

> <r_i_glide_emodel>
-75.7256473540202

> <r_i_glide_energy>
-60.2869055271149

> <r_i_glide_einternal>
24.5659561157227

> <i_i_glide_confnum>
1

> <i_i_glide_posenum>
40

> <r_i_glide_eff_state_penalty>
0

> <s_user_duplicate_titles>
CHEMBL204_lig4288

> <i_f3d_flags>
0

> <s_m_subgroup_title>
dock_pv

> <s_m_subgroupid>
dock_pv

> <b_m_subgroup_collapsed>
1

$$$$
CHEMBL204_lig5019
                    3D
 Schrodinger Suite 2021-1.
 46 47  0  0  1  0            999 V2000
   18.9151  -13.1574   21.0397 N   0  0  0  0  0  0
   18.7043  -11.8860   20.3007 C   0  0  1  0  0  0
   20.0658  -11.6736   19.6111 C   0  0  0  0  0  0
   20.5441  -13.0752   19.2990 C   0  0  0  0  0  0
   20.1202  -13.8350   20.5471 C   0  0  0  0  0  0
   17.4819  -11.8533   19.3392 C   0  0  0  0  0  0
   16.2951  -12.1265   19.8882 N   0  0  0  0  0  0
   17.6162  -11.5503   18.1533 O   0  0  0  0  0  0
   14.9851  -12.0371   19.2563 C   0  0  0  0  0  0
   13.9319  -11.6760   20.2940 C   0  0  0  0  0  0
   13.9962  -10.4532   20.9630 C   0  0  0  0  0  0
   13.0975  -10.1718   21.9875 C   0  0  0  0  0  0
   12.1213  -11.1046   22.3823 C   0  0  0  0  0  0
   12.0402  -12.3051   21.6513 C   0  0  0  0  0  0
   12.9290  -12.5877   20.6190 C   0  0  0  0  0  0
   18.1244  -13.5571   22.0743 C   0  0  0  0  0  0
   18.5104  -14.8345   22.9060 C   0  0  2  0  0  0
   17.0782  -12.9566   22.3440 O   0  0  0  0  0  0
   17.6164  -14.9347   24.0811 N   0  0  0  0  0  0
   19.9656  -14.9191   23.4209 C   0  0  0  0  0  0
   11.2293  -10.8179   23.5448 C   0  0  0  0  0  0
   11.2407   -9.7044   24.1282 N   0  0  0  0  0  0
   10.4163  -11.8530   23.9209 N   0  0  0  0  0  0
   18.5529  -11.0724   21.0133 H   0  0  0  0  0  0
   20.7521  -11.1998   20.3159 H   0  0  0  0  0  0
   20.0441  -11.0530   18.7221 H   0  0  0  0  0  0
   21.6151  -13.1309   19.1008 H   0  0  0  0  0  0
   20.0144  -13.4533   18.4249 H   0  0  0  0  0  0
   20.9178  -13.7179   21.2794 H   0  0  0  0  0  0
   19.9671  -14.8968   20.3466 H   0  0  0  0  0  0
   16.3042  -12.4433   20.8556 H   0  0  0  0  0  0
   14.9814  -11.2942   18.4561 H   0  0  0  0  0  0
   14.7523  -12.9957   18.7884 H   0  0  0  0  0  0
   14.7686   -9.7371   20.7207 H   0  0  0  0  0  0
   13.1974   -9.2288   22.5077 H   0  0  0  0  0  0
   11.2965  -13.0532   21.8842 H   0  0  0  0  0  0
   12.8571  -13.5356   20.1059 H   0  0  0  0  0  0
   18.3009  -15.7019   22.2786 H   0  0  0  0  0  0
   16.6424  -14.7588   23.8474 H   0  0  0  0  0  0
   17.6506  -15.8496   24.5044 H   0  0  0  0  0  0
   20.6425  -15.3399   22.6794 H   0  0  0  0  0  0
   20.0498  -15.5810   24.2844 H   0  0  0  0  0  0
   20.3451  -13.9453   23.7348 H   0  0  0  0  0  0
   10.5435   -9.6926   24.8631 H   0  0  0  0  0  0
    9.6739  -11.6997   24.6042 H   0  0  0  0  0  0
   10.5101  -12.7853   23.5335 H   0  0  0  0  0  0
  1  2  1  0  0  0
  1  5  1  0  0  0
  1 16  1  0  0  0
  2  3  1  0  0  0
  2  6  1  0  0  0
  2 24  1  0  0  0
  3  4  1  0  0  0
  3 25  1  0  0  0
  3 26  1  0  0  0
  4  5  1  0  0  0
  4 27  1  0  0  0
  4 28  1  0  0  0
  5 29  1  0  0  0
  5 30  1  0  0  0
  6  7  1  0  0  0
  6  8  2  0  0  0
  7  9  1  0  0  0
  7 31  1  0  0  0
  9 10  1  0  0  0
  9 32  1  0  0  0
  9 33  1  0  0  0
 10 11  2  0  0  0
 10 15  1  0  0  0
 11 12  1  0  0  0
 11 34  1  0  0  0
 12 13  2  0  0  0
 12 35  1  0  0  0
 13 14  1  0  0  0
 13 21  1  0  0  0
 14 15  2  0  0  0
 14 36  1  0  0  0
 15 37  1  0  0  0
 16 17  1  0  0  0
 16 18  2  0  0  0
 17 19  1  0  0  0
 17 20  1  0  0  0
 17 38  1  0  0  0
 19 39  1  0  0  0
 19 40  1  0  0  0
 20 41  1  0  0  0
 20 42  1  0  0  0
 20 43  1  0  0  0
 21 22  2  0  0  0
 21 23  1  0  0  0
 22 44  1  0  0  0
 23 45  1  0  0  0
 23 46  1  0  0  0
M  END
> <s_m_entry_id>
35298

> <s_m_entry_name>
dock_pv.148

> <s_m_Source_Path>
/home/csk/Desktop/cluster/DUD-E-result/thrb

> <s_m_Source_File>
dock_pv.maegz

> <i_m_Source_File_Index>
148

> <chembl_id>
CHEMBL3423014

> <chembl_pref_name>
None

> <i_lp_mmshare_version>
53161

> <r_lp_tautomer_probability>
1

> <s_lp_Force_Field>
OPLS_2005

> <r_lp_Energy>
10.255748

> <b_lp_Chiralities_Consistent>
1

> <s_lp_Variant>
CHEMBL204_lig5019-1

> <s_i_glide_gridfile>
glide-grid_1ype

> <i_i_glide_lignum>
6866

> <i_i_glide_rotatable_bonds>
7

> <r_i_docking_score>
-7.4661866349907

> <r_i_glide_ligand_efficiency>
-0.324616810216987

> <r_i_glide_ligand_efficiency_sa>
-0.92316702671597

> <r_i_glide_ligand_efficiency_ln>
-1.80539162797819

> <r_i_glide_gscore>
-7.4661866349907

> <r_i_glide_lipo>
-2.28739601468665

> <r_i_glide_hbond>
-0.744431770365375

> <r_i_glide_metal>
0

> <r_i_glide_rewards>
-1.88429684591288

> <r_i_glide_evdw>
-33.4807052612305

> <r_i_glide_ecoul>
-11.11767578125

> <r_i_glide_erotb>
0.924719797966628

> <r_i_glide_esite>
-0.133095171743401

> <r_i_glide_emodel>
-61.0007123138853

> <r_i_glide_energy>
-44.5983810424805

> <r_i_glide_einternal>
8.48037624359131

> <i_i_glide_confnum>
39

> <i_i_glide_posenum>
369

> <r_i_glide_eff_state_penalty>
0

> <s_user_duplicate_titles>
CHEMBL204_lig5019,CHEMBL204_lig4707

> <i_f3d_flags>
0

> <s_m_subgroup_title>
dock_pv

> <s_m_subgroupid>
dock_pv

> <b_m_subgroup_collapsed>
1

$$$$
CHEMBL204_lig4645
                    3D
 Schrodinger Suite 2021-1.
 60 63  0  0  1  0            999 V2000
   15.5420  -11.5926   20.8293 C   0  0  0  0  0  0
   16.6172  -11.0725   20.0964 C   0  0  0  0  0  0
   17.8436  -11.7371   20.0509 C   0  0  0  0  0  0
   15.7488  -12.7580   21.5871 C   0  0  0  0  0  0
   16.9789  -13.4047   21.5537 C   0  0  0  0  0  0
   18.0375  -12.9252   20.7708 C   0  0  0  0  0  0
   19.2125  -13.7104   20.6985 N   0  0  0  0  0  0
   19.4996  -14.7371   21.5471 C   0  0  0  0  0  0
   18.4482  -14.7895   22.7356 C   0  0  1  0  0  0
   17.1216  -14.5489   22.3156 O   0  0  0  0  0  0
   20.2066  -13.3759   19.6616 C   0  0  0  0  0  0
   20.4566  -15.5055   21.4342 O   0  0  0  0  0  0
   18.5647  -16.0625   23.3139 O   0  0  0  0  0  0
   19.0665  -16.1060   24.6562 C   0  0  0  0  0  0
   20.5381  -15.7103   24.6806 C   0  0  0  0  0  0
   21.4798  -16.5629   24.1109 C   0  0  0  0  0  0
   22.7858  -16.1260   23.9211 C   0  0  0  0  0  0
   23.1859  -14.8309   24.2963 C   0  0  0  0  0  0
   22.2402  -14.0283   24.9684 C   0  0  0  0  0  0
   20.9302  -14.4601   25.1577 C   0  0  0  0  0  0
   24.5473  -14.3389   23.9346 C   0  0  0  0  0  0
   24.8159  -13.0533   24.3209 N   0  0  0  0  0  0
   25.3642  -15.0530   23.2943 N   0  0  0  0  0  0
   14.2001  -10.8842   20.8189 C   0  0  0  0  0  0
   14.1794   -9.6573   20.7210 O   0  0  0  0  0  0
   13.0559  -11.6238   20.9836 N   0  0  0  0  0  0
   11.7893  -10.9753   21.4562 C   0  0  0  0  0  0
   12.9403  -12.9254   20.3942 C   0  0  0  0  0  0
   13.6110  -13.2809   19.2060 C   0  0  0  0  0  0
   13.5520  -14.5825   18.7179 C   0  0  0  0  0  0
   12.7863  -15.5369   19.3782 C   0  0  0  0  0  0
   12.0886  -15.1999   20.5311 C   0  0  0  0  0  0
   12.1660  -13.9019   21.0293 C   0  0  0  0  0  0
   11.9073  -10.2594   22.8263 C   0  0  0  0  0  0
   10.8348  -10.5302   23.6263 O   0  0  0  0  0  0
   12.8140   -9.5119   23.1225 O   0  0  0  0  0  0
   16.4812  -10.1748   19.5191 H   0  0  0  0  0  0
   18.6349  -11.3197   19.4474 H   0  0  0  0  0  0
   14.9613  -13.1794   22.1974 H   0  0  0  0  0  0
   18.7002  -13.9869   23.4346 H   0  0  0  0  0  0
   21.0116  -14.1087   19.5703 H   0  0  0  0  0  0
   19.7263  -13.3130   18.6860 H   0  0  0  0  0  0
   20.6692  -12.4133   19.8803 H   0  0  0  0  0  0
   18.4679  -15.4751   25.3161 H   0  0  0  0  0  0
   18.9687  -17.1225   25.0367 H   0  0  0  0  0  0
   21.1835  -17.5319   23.7365 H   0  0  0  0  0  0
   23.4694  -16.7914   23.4134 H   0  0  0  0  0  0
   22.4838  -13.0359   25.3118 H   0  0  0  0  0  0
   20.2114  -13.7942   25.6127 H   0  0  0  0  0  0
   25.7043  -12.6441   24.0697 H   0  0  0  0  0  0
   24.1595  -12.5204   24.8695 H   0  0  0  0  0  0
   26.2262  -14.5490   23.1246 H   0  0  0  0  0  0
   11.4775  -10.2328   20.7210 H   0  0  0  0  0  0
   10.9876  -11.7059   21.5220 H   0  0  0  0  0  0
   14.1984  -12.5602   18.6572 H   0  0  0  0  0  0
   14.0787  -14.8479   17.8128 H   0  0  0  0  0  0
   12.7260  -16.5421   18.9869 H   0  0  0  0  0  0
   11.4836  -15.9365   21.0383 H   0  0  0  0  0  0
   11.6184  -13.6689   21.9214 H   0  0  0  0  0  0
   10.1217  -11.0435   23.2341 H   0  0  0  0  0  0
  1 24  1  0  0  0
  1  2  2  0  0  0
  1  4  1  0  0  0
  2  3  1  0  0  0
  2 37  1  0  0  0
  3  6  2  0  0  0
  3 38  1  0  0  0
  4  5  2  0  0  0
  4 39  1  0  0  0
  5 10  1  0  0  0
  5  6  1  0  0  0
  6  7  1  0  0  0
  7  8  1  0  0  0
  7 11  1  0  0  0
  8  9  1  0  0  0
  8 12  2  0  0  0
  9 10  1  0  0  0
  9 13  1  0  0  0
  9 40  1  0  0  0
 11 41  1  0  0  0
 11 42  1  0  0  0
 11 43  1  0  0  0
 13 14  1  0  0  0
 14 15  1  0  0  0
 14 44  1  0  0  0
 14 45  1  0  0  0
 15 20  1  0  0  0
 15 16  2  0  0  0
 16 17  1  0  0  0
 16 46  1  0  0  0
 17 18  2  0  0  0
 17 47  1  0  0  0
 18 19  1  0  0  0
 18 21  1  0  0  0
 19 20  2  0  0  0
 19 48  1  0  0  0
 20 49  1  0  0  0
 21 22  1  0  0  0
 21 23  2  0  0  0
 22 50  1  0  0  0
 22 51  1  0  0  0
 23 52  1  0  0  0
 24 25  2  0  0  0
 24 26  1  0  0  0
 26 27  1  0  0  0
 26 28  1  0  0  0
 27 34  1  0  0  0
 27 53  1  0  0  0
 27 54  1  0  0  0
 28 29  2  0  0  0
 28 33  1  0  0  0
 29 30  1  0  0  0
 29 55  1  0  0  0
 30 31  2  0  0  0
 30 56  1  0  0  0
 31 32  1  0  0  0
 31 57  1  0  0  0
 32 33  2  0  0  0
 32 58  1  0  0  0
 33 59  1  0  0  0
 34 35  1  0  0  0
 34 36  2  0  0  0
 35 60  1  0  0  0
M  END
> <s_m_entry_id>
35299

> <s_m_entry_name>
dock_pv.149

> <s_m_Source_Path>
/home/csk/Desktop/cluster/DUD-E-result/thrb

> <s_m_Source_File>
dock_pv.maegz

> <i_m_Source_File_Index>
149

> <chembl_id>
CHEMBL461417

> <chembl_pref_name>
None

> <i_lp_mmshare_version>
53161

> <r_lp_tautomer_probability>
1

> <s_lp_Force_Field>
OPLS_2005

> <r_lp_Energy>
54.930994

> <b_lp_Chiralities_Consistent>
1

> <s_lp_Variant>
CHEMBL204_lig4645-2

> <s_i_glide_gridfile>
glide-grid_1ype

> <i_i_glide_lignum>
6346

> <i_i_glide_rotatable_bonds>
10

> <r_i_docking_score>
-7.46534014395356

> <r_i_glide_ligand_efficiency>
-0.207370559554266

> <r_i_glide_ligand_efficiency_sa>
-0.68472250039285

> <r_i_glide_ligand_efficiency_ln>
-1.62873552922815

> <r_i_glide_gscore>
-7.46534014395356

> <r_i_glide_lipo>
-2.66108150971302

> <r_i_glide_hbond>
-0.690939697944513

> <r_i_glide_metal>
0

> <r_i_glide_rewards>
-0.851874998276721

> <r_i_glide_evdw>
-49.483512878418

> <r_i_glide_ecoul>
-9.79380035400391

> <r_i_glide_erotb>
0.681801759002173

> <r_i_glide_esite>
0

> <r_i_glide_emodel>
-80.2083241390498

> <r_i_glide_energy>
-59.2773132324219

> <r_i_glide_einternal>
8.58037185668945

> <i_i_glide_confnum>
39

> <i_i_glide_posenum>
269

> <r_i_glide_eff_state_penalty>
0

> <s_user_duplicate_titles>
CHEMBL204_lig4645

> <i_f3d_flags>
0

> <s_m_subgroup_title>
dock_pv

> <s_m_subgroupid>
dock_pv

> <b_m_subgroup_collapsed>
1

$$$$
CHEMBL204_lig2998
                    3D
 Schrodinger Suite 2021-1.
 73 77  0  0  1  0            999 V2000
   15.7241  -12.5879   15.3439 C   0  0  0  0  0  0
   18.8052  -16.5554   23.0667 S   0  0  0  0  0  0
   18.9624  -15.0030   22.2269 N   0  0  1  0  0  0
   15.0665  -12.1061   16.5738 C   0  0  0  0  0  0
   18.7634  -12.9876   20.3417 N   0  0  0  0  0  0
   17.9842  -12.8187   21.4553 C   0  0  0  0  0  0
   15.7120  -11.8646   14.1595 N   0  0  0  0  0  0
   16.8796  -13.6584   13.8714 N   0  0  0  0  0  0
   16.4144  -13.6924   15.1817 N   0  0  0  0  0  0
   16.4317  -12.5166   13.2374 N   0  0  0  0  0  0
   18.1114  -13.8521   22.6140 C   0  0  0  0  0  0
   17.6835  -12.0879   18.1824 C   0  0  0  0  0  0
   16.5442  -12.7279   18.5295 N   0  0  0  0  0  0
   19.8209  -14.0091   20.1979 C   0  0  2  0  0  0
   15.2267  -12.9327   17.8681 C   0  0  1  0  0  0
   18.8355  -12.0310   19.2185 C   0  0  2  0  0  0
   20.2023  -14.6713   21.5219 C   0  0  0  0  0  0
   20.3630  -16.6988   24.1328 C   0  0  0  0  0  0
   17.6240  -16.5006   23.9360 O   0  0  0  0  0  0
   18.9189  -17.6003   22.0441 O   0  0  0  0  0  0
   20.2350  -12.2293   18.6032 C   0  0  0  0  0  0
   14.4267  -11.0528   16.5739 O   0  0  0  0  0  0
   17.2153  -11.8632   21.5313 O   0  0  0  0  0  0
   20.9344  -13.2097   19.5294 C   0  0  0  0  0  0
   14.0440  -12.7627   18.8937 C   0  0  1  0  0  0
   17.8452  -11.5117   17.1049 O   0  0  0  0  0  0
   13.9498  -13.9251   19.9122 C   0  0  0  0  0  0
   14.1565  -11.4839   19.7542 C   0  0  0  0  0  0
   15.0951  -10.5894   13.8018 C   0  0  0  0  0  0
   20.7228  -15.4157   24.8633 C   0  0  0  0  0  0
   11.4158  -12.2531   22.3204 N   0  0  0  0  0  0
   12.6133  -12.4427   21.5281 C   0  0  1  0  0  0
   12.6567  -13.7925   20.7595 C   0  0  0  0  0  0
   12.8856  -11.2441   20.5893 C   0  0  0  0  0  0
   19.8839  -14.9180   25.8614 C   0  0  0  0  0  0
   21.8984  -14.7349   24.5287 C   0  0  0  0  0  0
   20.2128  -13.7301   26.5056 C   0  0  0  0  0  0
   22.2280  -13.5532   25.1819 C   0  0  0  0  0  0
   21.3771  -13.0526   26.1627 C   0  0  0  0  0  0
   19.4568  -14.7772   19.5224 H   0  0  0  0  0  0
   18.5185  -13.3725   23.5036 H   0  0  0  0  0  0
   17.1115  -14.2094   22.8591 H   0  0  0  0  0  0
   16.5858  -13.1769   19.4334 H   0  0  0  0  0  0
   15.2157  -13.9779   17.5548 H   0  0  0  0  0  0
   18.7180  -11.0345   19.6370 H   0  0  0  0  0  0
   20.8037  -15.5690   21.3714 H   0  0  0  0  0  0
   20.7665  -13.9746   22.1440 H   0  0  0  0  0  0
   20.1997  -17.5147   24.8356 H   0  0  0  0  0  0
   21.1672  -17.0023   23.4622 H   0  0  0  0  0  0
   20.1905  -12.6972   17.6185 H   0  0  0  0  0  0
   20.7919  -11.2967   18.5179 H   0  0  0  0  0  0
   21.6157  -13.8605   18.9976 H   0  0  0  0  0  0
   21.5259  -12.6700   20.2716 H   0  0  0  0  0  0
   13.1152  -12.7441   18.3210 H   0  0  0  0  0  0
   13.9340  -14.8771   19.3798 H   0  0  0  0  0  0
   14.8451  -13.9839   20.5336 H   0  0  0  0  0  0
   15.0487  -11.4835   20.3753 H   0  0  0  0  0  0
   14.3056  -10.6529   19.0840 H   0  0  0  0  0  0
   14.0172  -10.6607   13.9413 H   0  0  0  0  0  0
   15.2913  -10.3366   12.7583 H   0  0  0  0  0  0
   15.4997   -9.7984   14.4355 H   0  0  0  0  0  0
   11.1917  -13.0993   22.8452 H   0  0  0  0  0  0
   11.5173  -11.5064   22.9926 H   0  0  0  0  0  0
   13.4561  -12.4776   22.2198 H   0  0  0  0  0  0
   11.7923  -13.8609   20.0951 H   0  0  0  0  0  0
   12.5887  -14.6262   21.4601 H   0  0  0  0  0  0
   12.0364  -11.1084   19.9207 H   0  0  0  0  0  0
   12.9912  -10.3252   21.1675 H   0  0  0  0  0  0
   18.9765  -15.4409   26.1302 H   0  0  0  0  0  0
   22.5565  -15.1173   23.7616 H   0  0  0  0  0  0
   19.5825  -13.3301   27.2822 H   0  0  0  0  0  0
   23.1355  -13.0280   24.9264 H   0  0  0  0  0  0
   21.6155  -12.1306   26.6706 H   0  0  0  0  0  0
  1  4  1  0  0  0
  1  7  1  0  0  0
  1  9  2  0  0  0
  2  3  1  0  0  0
  2 18  1  0  0  0
  2 19  2  0  0  0
  2 20  2  0  0  0
  3 17  1  0  0  0
  3 11  1  0  0  0
  4 15  1  0  0  0
  4 22  2  0  0  0
  5 16  1  0  0  0
  5  6  1  0  0  0
  5 14  1  0  0  0
  6 11  1  0  0  0
  6 23  2  0  0  0
  7 10  1  0  0  0
  7 29  1  0  0  0
  8  9  1  0  0  0
  8 10  2  0  0  0
 11 41  1  0  0  0
 11 42  1  0  0  0
 12 13  1  0  0  0
 12 16  1  0  0  0
 12 26  2  0  0  0
 13 15  1  0  0  0
 13 43  1  0  0  0
 14 17  1  0  0  0
 14 40  1  0  0  0
 14 24  1  0  0  0
 15 25  1  0  0  0
 15 44  1  0  0  0
 16 21  1  0  0  0
 16 45  1  0  0  0
 17 46  1  0  0  0
 17 47  1  0  0  0
 18 30  1  0  0  0
 18 48  1  0  0  0
 18 49  1  0  0  0
 21 24  1  0  0  0
 21 50  1  0  0  0
 21 51  1  0  0  0
 24 52  1  0  0  0
 24 53  1  0  0  0
 25 27  1  0  0  0
 25 28  1  0  0  0
 25 54  1  0  0  0
 27 33  1  0  0  0
 27 55  1  0  0  0
 27 56  1  0  0  0
 28 34  1  0  0  0
 28 57  1  0  0  0
 28 58  1  0  0  0
 29 59  1  0  0  0
 29 60  1  0  0  0
 29 61  1  0  0  0
 30 35  1  0  0  0
 30 36  2  0  0  0
 31 32  1  0  0  0
 31 62  1  0  0  0
 31 63  1  0  0  0
 32 34  1  0  0  0
 32 33  1  0  0  0
 32 64  1  0  0  0
 33 65  1  0  0  0
 33 66  1  0  0  0
 34 67  1  0  0  0
 34 68  1  0  0  0
 35 37  2  0  0  0
 35 69  1  0  0  0
 36 38  1  0  0  0
 36 70  1  0  0  0
 37 39  1  0  0  0
 37 71  1  0  0  0
 38 39  2  0  0  0
 38 72  1  0  0  0
 39 73  1  0  0  0
M  END
> <s_m_entry_id>
35300

> <s_m_entry_name>
dock_pv.150

> <s_m_Source_Path>
/home/csk/Desktop/cluster/DUD-E-result/thrb

> <s_m_Source_File>
dock_pv.maegz

> <i_m_Source_File_Index>
150

> <chembl_id>
CHEMBL3084836

> <chembl_pref_name>
None

> <i_lp_mmshare_version>
53161

> <r_lp_tautomer_probability>
0.99990000499975

> <s_lp_Force_Field>
OPLS_2005

> <r_lp_Energy>
23.361311

> <b_lp_Chiralities_Consistent>
1

> <s_lp_Variant>
CHEMBL204_lig2998-1

> <s_i_glide_gridfile>
glide-grid_1ype

> <i_i_glide_lignum>
4270

> <i_i_glide_rotatable_bonds>
9

> <r_i_docking_score>
-7.46306121640364

> <r_i_glide_ligand_efficiency>
-0.19136054401035

> <r_i_glide_ligand_efficiency_sa>
-0.648944065796832

> <r_i_glide_ligand_efficiency_ln>
-1.60029217638783

> <r_i_glide_gscore>
-7.46306121640364

> <r_i_glide_lipo>
-3.20631882531687

> <r_i_glide_hbond>
-0.347555620576554

> <r_i_glide_metal>
0

> <r_i_glide_rewards>
-0.890851283390285

> <r_i_glide_evdw>
-44.9615669250488

> <r_i_glide_ecoul>
-7.58810567855835

> <r_i_glide_erotb>
0.521142605708396

> <r_i_glide_esite>
-0.153183894792134

> <r_i_glide_emodel>
-66.6419195934631

> <r_i_glide_energy>
-52.5496726036072

> <r_i_glide_einternal>
13.3049831390381

> <i_i_glide_confnum>
53

> <i_i_glide_posenum>
183

> <r_i_glide_eff_state_penalty>
0

> <s_user_duplicate_titles>
CHEMBL204_lig2998,CHEMBL204_lig4540,161612

> <i_f3d_flags>
0

> <s_m_subgroup_title>
dock_pv

> <s_m_subgroupid>
dock_pv

> <b_m_subgroup_collapsed>
1

$$$$
CHEMBL204_lig104
                    3D
 Schrodinger Suite 2021-1.
 41 43  0  0  1  0            999 V2000
   12.6934   -7.7042   24.3210 Br  0  0  0  0  0  0
   19.5812  -14.3819   24.7668 S   0  0  0  0  0  0
   13.2160  -10.4672   19.1210 O   0  0  0  0  0  0
   12.9494  -13.4532   19.1211 O   0  0  0  0  0  0
   15.0747  -13.0530   21.9468 O   0  0  0  0  0  0
   20.3532  -15.4664   25.3791 O   0  0  0  0  0  0
   18.1410  -14.2530   25.0042 O   0  0  0  0  0  0
   12.0140  -12.7884   21.1210 N   0  0  0  0  0  0
   19.8581  -14.5071   23.0157 N   0  0  0  0  0  0
   13.5411  -11.2978   20.2146 C   0  0  1  0  0  0
   12.9478  -10.7612   21.4869 C   0  0  0  0  0  0
   12.8160  -12.6572   20.0493 C   0  0  0  0  0  0
   12.0424  -11.6903   21.9653 C   0  0  0  0  0  0
   15.1024  -11.4447   20.1729 C   0  0  0  0  0  0
   13.1510   -9.5661   22.1833 C   0  0  0  0  0  0
   15.7744  -12.4388   21.1473 C   0  0  0  0  0  0
   11.3012  -11.4530   23.1210 C   0  0  0  0  0  0
   12.4160   -9.3150   23.3466 C   0  0  0  0  0  0
   17.2627  -12.6106   21.1157 C   0  0  0  0  0  0
   11.4887  -10.2530   23.8105 C   0  0  0  0  0  0
   17.8671  -13.4506   22.0669 C   0  0  0  0  0  0
   19.2492  -13.6594   22.0796 C   0  0  0  0  0  0
   18.0766  -11.9843   20.1606 C   0  0  0  0  0  0
   20.0357  -13.0530   21.0992 C   0  0  0  0  0  0
   19.4535  -12.2142   20.1488 C   0  0  0  0  0  0
   20.4160  -12.7592   25.1987 C   0  0  0  0  0  0
   12.2769  -10.2530   19.1746 H   0  0  0  0  0  0
   11.4422  -13.6047   21.2864 H   0  0  0  0  0  0
   20.7785  -14.8444   22.7795 H   0  0  0  0  0  0
   15.5464  -10.4698   20.3743 H   0  0  0  0  0  0
   15.4063  -11.7131   19.1609 H   0  0  0  0  0  0
   13.8642   -8.8338   21.8351 H   0  0  0  0  0  0
   10.5789  -12.1705   23.4863 H   0  0  0  0  0  0
   10.9110  -10.0561   24.7037 H   0  0  0  0  0  0
   17.2546  -13.9651   22.7943 H   0  0  0  0  0  0
   17.6582  -11.3294   19.4106 H   0  0  0  0  0  0
   21.1032  -13.2211   21.0747 H   0  0  0  0  0  0
   20.0747  -11.7426   19.4021 H   0  0  0  0  0  0
   20.2123  -12.5328   26.2447 H   0  0  0  0  0  0
   20.0160  -11.9724   24.5620 H   0  0  0  0  0  0
   21.4871  -12.8697   25.0423 H   0  0  0  0  0  0
  1 18  1  0  0  0
  2  6  2  0  0  0
  2  7  2  0  0  0
  2  9  1  0  0  0
  2 26  1  0  0  0
  3 10  1  0  0  0
  3 27  1  0  0  0
  4 12  2  0  0  0
  5 16  2  0  0  0
  8 12  1  0  0  0
  8 13  1  0  0  0
  8 28  1  0  0  0
  9 22  1  0  0  0
  9 29  1  0  0  0
 10 11  1  0  0  0
 10 12  1  0  0  0
 10 14  1  0  0  0
 11 13  1  0  0  0
 11 15  2  0  0  0
 13 17  2  0  0  0
 14 16  1  0  0  0
 14 30  1  0  0  0
 14 31  1  0  0  0
 15 18  1  0  0  0
 15 32  1  0  0  0
 16 19  1  0  0  0
 17 20  1  0  0  0
 17 33  1  0  0  0
 18 20  2  0  0  0
 19 21  2  0  0  0
 19 23  1  0  0  0
 20 34  1  0  0  0
 21 22  1  0  0  0
 21 35  1  0  0  0
 22 24  2  0  0  0
 23 25  2  0  0  0
 23 36  1  0  0  0
 24 25  1  0  0  0
 24 37  1  0  0  0
 25 38  1  0  0  0
 26 39  1  0  0  0
 26 40  1  0  0  0
 26 41  1  0  0  0
M  END
> <s_m_entry_id>
35301

> <s_m_entry_name>
dock_pv.151

> <s_m_Source_Path>
/home/csk/Desktop/cluster/DUD-E-result/thrb

> <s_m_Source_File>
dock_pv.maegz

> <i_m_Source_File_Index>
151

> <chembl_id>
CHEMBL1450585

> <chembl_pref_name>
None

> <i_lp_mmshare_version>
53161

> <r_lp_tautomer_probability>
0.99990000499975

> <s_lp_Force_Field>
OPLS_2005

> <r_lp_Energy>
34.02221

> <b_lp_Chiralities_Consistent>
1

> <s_lp_Variant>
CHEMBL204_lig104-2

> <s_i_glide_gridfile>
glide-grid_1ype

> <i_i_glide_lignum>
120

> <i_i_glide_rotatable_bonds>
6

> <r_i_docking_score>
-7.45979106984676

> <r_i_glide_ligand_efficiency>
-0.286915041147952

> <r_i_glide_ligand_efficiency_sa>
-0.849984680444637

> <r_i_glide_ligand_efficiency_ln>
-1.75190745518253

> <r_i_glide_gscore>
-7.45979106984676

> <r_i_glide_lipo>
-3.15290649245005

> <r_i_glide_hbond>
-0.0779983247820732

> <r_i_glide_metal>
0

> <r_i_glide_rewards>
-1.15993382121079

> <r_i_glide_evdw>
-48.3814392089844

> <r_i_glide_ecoul>
-7.09042406082153

> <r_i_glide_erotb>
0.41368313816861

> <r_i_glide_esite>
0

> <r_i_glide_emodel>
-76.1982000579689

> <r_i_glide_energy>
-55.4718632698059

> <r_i_glide_einternal>
7.17851781845093

> <i_i_glide_confnum>
18

> <i_i_glide_posenum>
303

> <r_i_glide_eff_state_penalty>
0

> <s_user_duplicate_titles>
CHEMBL204_lig104

> <i_f3d_flags>
0

> <s_m_subgroup_title>
dock_pv

> <s_m_subgroupid>
dock_pv

> <b_m_subgroup_collapsed>
1

$$$$
CHEMBL204_lig1763
                    3D
 Schrodinger Suite 2021-1.
 61 64  0  0  1  0            999 V2000
   21.0793  -12.1890   19.3459 C   0  0  0  0  0  0
   19.7115  -11.8997   19.6144 O   0  0  0  0  0  0
   19.0448  -12.7031   20.5194 C   0  0  0  0  0  0
   19.5755  -13.8005   21.2208 C   0  0  0  0  0  0
   18.8004  -14.5334   22.1348 C   0  0  0  0  0  0
   17.4509  -14.2155   22.3577 C   0  0  0  0  0  0
   16.8999  -13.1450   21.6540 C   0  0  0  0  0  0
   15.6289  -12.6531   21.6592 N   0  0  0  0  0  0
   15.6886  -11.6737   20.7866 C   0  0  0  0  0  0
   14.6665  -10.9322   20.2768 N   0  0  0  0  0  0
   13.2361  -11.2294   20.3317 C   0  0  1  0  0  0
   12.9215  -12.6247   19.7344 C   0  0  0  0  0  0
   13.5437  -12.8644   18.5782 F   0  0  0  0  0  0
   12.6126  -10.9314   21.7065 C   0  0  0  0  0  0
   11.7293  -11.8265   22.3292 C   0  0  0  0  0  0
   11.0941  -11.4846   23.5205 C   0  0  0  0  0  0
   11.3305  -10.2509   24.1155 C   0  0  0  0  0  0
   12.2193   -9.3571   23.5245 C   0  0  0  0  0  0
   12.5533   -7.8532   24.3106 Cl  0  0  0  0  0  0
   12.8487   -9.6905   22.3209 C   0  0  0  0  0  0
   16.9117  -11.4389   20.2250 O   0  0  0  0  0  0
   17.6979  -12.4100   20.7656 C   0  0  0  0  0  0
   19.4197  -15.6680   22.9025 C   0  0  0  0  0  0
   19.7645  -16.6828   22.2935 O   0  0  0  0  0  0
   19.5348  -15.5203   24.2554 N   0  0  0  0  0  0
   19.5042  -14.1910   24.9083 C   0  0  0  0  0  0
   20.9605  -13.7687   25.2531 C   0  0  0  0  0  0
   21.7985  -13.4528   23.9924 C   0  0  0  0  0  0
   20.8925  -12.5726   26.2168 C   0  0  0  0  0  0
   21.5584  -14.8274   26.0099 O   0  0  0  0  0  0
   21.5514  -16.1320   25.4219 C   0  0  0  0  0  0
   20.1111  -16.5964   25.0915 C   0  0  1  0  0  0
   19.2702  -16.9916   26.3282 C   0  0  0  0  0  0
   17.9484  -17.3332   25.9528 O   0  0  0  0  0  0
   21.4572  -11.4841   18.6053 H   0  0  0  0  0  0
   21.6930  -12.0870   20.2411 H   0  0  0  0  0  0
   21.2054  -13.1916   18.9374 H   0  0  0  0  0  0
   20.6084  -14.0850   21.0752 H   0  0  0  0  0  0
   16.8383  -14.7822   23.0489 H   0  0  0  0  0  0
   14.9070  -10.3088   19.5182 H   0  0  0  0  0  0
   12.7657  -10.5075   19.6631 H   0  0  0  0  0  0
   13.2317  -13.4244   20.4079 H   0  0  0  0  0  0
   11.8556  -12.7517   19.5485 H   0  0  0  0  0  0
   11.4969  -12.7908   21.9021 H   0  0  0  0  0  0
   10.3959  -12.1741   23.9778 H   0  0  0  0  0  0
   10.8165   -9.9943   25.0315 H   0  0  0  0  0  0
   13.5237   -8.9799   21.8695 H   0  0  0  0  0  0
   18.9488  -14.3333   25.8346 H   0  0  0  0  0  0
   18.9218  -13.4343   24.3892 H   0  0  0  0  0  0
   21.3386  -12.6542   23.4143 H   0  0  0  0  0  0
   21.9135  -14.3052   23.3260 H   0  0  0  0  0  0
   22.8026  -13.1281   24.2684 H   0  0  0  0  0  0
   20.4157  -11.7082   25.7519 H   0  0  0  0  0  0
   20.3344  -12.8134   27.1224 H   0  0  0  0  0  0
   21.8872  -12.2547   26.5264 H   0  0  0  0  0  0
   22.0236  -16.8338   26.1106 H   0  0  0  0  0  0
   22.1761  -16.1450   24.5294 H   0  0  0  0  0  0
   20.1770  -17.5201   24.5120 H   0  0  0  0  0  0
   19.7211  -17.8439   26.8359 H   0  0  0  0  0  0
   19.2279  -16.1770   27.0526 H   0  0  0  0  0  0
   17.5422  -16.5670   25.5402 H   0  0  0  0  0  0
  1  2  1  0  0  0
  1 35  1  0  0  0
  1 36  1  0  0  0
  1 37  1  0  0  0
  2  3  1  0  0  0
  3  4  2  0  0  0
  3 22  1  0  0  0
  4  5  1  0  0  0
  4 38  1  0  0  0
  5  6  2  0  0  0
  5 23  1  0  0  0
  6  7  1  0  0  0
  6 39  1  0  0  0
  7  8  1  0  0  0
  7 22  2  0  0  0
  8  9  2  0  0  0
  9 10  1  0  0  0
  9 21  1  0  0  0
 10 11  1  0  0  0
 10 40  1  0  0  0
 11 12  1  0  0  0
 11 14  1  0  0  0
 11 41  1  0  0  0
 12 13  1  0  0  0
 12 42  1  0  0  0
 12 43  1  0  0  0
 14 15  2  0  0  0
 14 20  1  0  0  0
 15 16  1  0  0  0
 15 44  1  0  0  0
 16 17  2  0  0  0
 16 45  1  0  0  0
 17 18  1  0  0  0
 17 46  1  0  0  0
 18 19  1  0  0  0
 18 20  2  0  0  0
 20 47  1  0  0  0
 21 22  1  0  0  0
 23 24  2  0  0  0
 23 25  1  0  0  0
 25 26  1  0  0  0
 25 32  1  0  0  0
 26 27  1  0  0  0
 26 48  1  0  0  0
 26 49  1  0  0  0
 27 28  1  0  0  0
 27 29  1  0  0  0
 27 30  1  0  0  0
 28 50  1  0  0  0
 28 51  1  0  0  0
 28 52  1  0  0  0
 29 53  1  0  0  0
 29 54  1  0  0  0
 29 55  1  0  0  0
 30 31  1  0  0  0
 31 32  1  0  0  0
 31 56  1  0  0  0
 31 57  1  0  0  0
 32 33  1  0  0  0
 32 58  1  0  0  0
 33 34  1  0  0  0
 33 59  1  0  0  0
 33 60  1  0  0  0
 34 61  1  0  0  0
M  END
> <s_m_entry_id>
35302

> <s_m_entry_name>
dock_pv.152

> <s_m_Source_Path>
/home/csk/Desktop/cluster/DUD-E-result/thrb

> <s_m_Source_File>
dock_pv.maegz

> <i_m_Source_File_Index>
152

> <chembl_id>
CHEMBL3944942

> <chembl_pref_name>
None

> <i_lp_mmshare_version>
53161

> <r_lp_tautomer_probability>
1

> <s_lp_Force_Field>
OPLS_2005

> <r_lp_Energy>
44.151261

> <b_lp_Chiralities_Consistent>
1

> <s_lp_Variant>
CHEMBL204_lig1763-2

> <s_i_glide_gridfile>
glide-grid_1ype

> <i_i_glide_lignum>
2570

> <i_i_glide_rotatable_bonds>
9

> <r_i_docking_score>
-7.45853530553258

> <r_i_glide_ligand_efficiency>
-0.219368685456841

> <r_i_glide_ligand_efficiency_sa>
-0.71066938140135

> <r_i_glide_ligand_efficiency_ln>
-1.64779965382123

> <r_i_glide_gscore>
-7.45853530553258

> <r_i_glide_lipo>
-4.21597272955727

> <r_i_glide_hbond>
-0.32

> <r_i_glide_metal>
0

> <r_i_glide_rewards>
-0.387157577036578

> <r_i_glide_evdw>
-51.2548027038574

> <r_i_glide_ecoul>
-3.18317008018494

> <r_i_glide_erotb>
0.504810648281881

> <r_i_glide_esite>
0

> <r_i_glide_emodel>
-73.8887939094164

> <r_i_glide_energy>
-54.4379727840424

> <r_i_glide_einternal>
10.266752243042

> <i_i_glide_confnum>
4

> <i_i_glide_posenum>
289

> <r_i_glide_eff_state_penalty>
0

> <s_user_duplicate_titles>
CHEMBL204_lig1763

> <i_f3d_flags>
0

> <s_m_subgroup_title>
dock_pv

> <s_m_subgroupid>
dock_pv

> <b_m_subgroup_collapsed>
1

$$$$
CHEMBL204_lig4426
                    3D
 Schrodinger Suite 2021-1.
 45 48  0  0  1  0            999 V2000
   17.1733  -12.0457   18.1578 C   0  0  0  0  0  0
   18.4085  -12.1190   18.8007 C   0  0  0  0  0  0
   18.4929  -12.0285   20.1879 C   0  0  0  0  0  0
   17.3362  -11.8399   20.9377 C   0  0  0  0  0  0
   16.0997  -11.7182   20.3016 C   0  0  0  0  0  0
   16.0142  -11.8518   18.9075 C   0  0  0  0  0  0
   19.8543  -12.2533   17.8670 Cl  0  0  0  0  0  0
   14.9834  -11.4758   21.1196 N   0  0  0  0  0  0
   13.8749  -10.7701   20.8162 C   0  0  0  0  0  0
   12.8801  -10.6657   21.9212 C   0  0  0  0  0  0
   13.6153  -10.2529   19.7361 O   0  0  0  0  0  0
   12.8262   -9.4493   22.6163 C   0  0  0  0  0  0
   12.0164   -9.2990   23.7350 C   0  0  0  0  0  0
   11.2115  -10.3515   24.1416 C   0  0  0  0  0  0
   11.2161  -11.5492   23.4353 C   0  0  0  0  0  0
   12.0501  -11.7410   22.3261 C   0  0  0  0  0  0
   12.0185   -7.8193   24.6248 Cl  0  0  0  0  0  0
   12.0266  -13.0536   21.7961 N   0  0  0  0  0  0
   12.2652  -13.5377   20.5522 C   0  0  0  0  0  0
   12.3127  -14.9699   20.4629 C   0  0  0  0  0  0
   12.4150  -12.8740   19.5307 O   0  0  0  0  0  0
   11.6199  -15.8047   19.5752 C   0  0  0  0  0  0
   13.3432  -15.8834   21.5209 S   0  0  0  0  0  0
   10.5802  -15.2438   18.3215 Cl  0  0  0  0  0  0
   12.7929  -17.3577   20.8087 C   0  0  0  0  0  0
   11.8419  -17.1744   19.8077 C   0  0  0  0  0  0
   11.1454  -18.3087   19.0748 C   0  0  0  0  0  0
   11.6400  -18.5309   17.7202 N   0  0  3  0  0  0
   10.8400  -18.9796   16.7497 N   0  0  0  0  0  0
   11.6978  -19.2212   15.6970 N   0  0  0  0  0  0
   12.8970  -18.9232   16.1585 C   0  0  0  0  0  0
   12.9448  -18.5349   17.4128 N   0  0  0  0  0  0
   17.1124  -12.1160   17.0820 H   0  0  0  0  0  0
   19.4524  -12.0863   20.6832 H   0  0  0  0  0  0
   17.4188  -11.7570   22.0111 H   0  0  0  0  0  0
   15.0625  -11.8027   18.3995 H   0  0  0  0  0  0
   15.0471  -11.8082   22.0677 H   0  0  0  0  0  0
   13.4646   -8.6247   22.3261 H   0  0  0  0  0  0
   10.5547  -10.2468   24.9940 H   0  0  0  0  0  0
   10.5600  -12.3308   23.7902 H   0  0  0  0  0  0
   11.6735  -13.7401   22.4572 H   0  0  0  0  0  0
   13.1779  -18.3019   21.1696 H   0  0  0  0  0  0
   10.0715  -18.1157   19.0163 H   0  0  0  0  0  0
   11.2486  -19.2515   19.6126 H   0  0  0  0  0  0
   13.7836  -19.0075   15.5447 H   0  0  0  0  0  0
  1  6  1  0  0  0
  1  2  2  0  0  0
  1 33  1  0  0  0
  2  3  1  0  0  0
  2  7  1  0  0  0
  3  4  2  0  0  0
  3 34  1  0  0  0
  4  5  1  0  0  0
  4 35  1  0  0  0
  5  8  1  0  0  0
  5  6  2  0  0  0
  6 36  1  0  0  0
  8  9  1  0  0  0
  8 37  1  0  0  0
  9 10  1  0  0  0
  9 11  2  0  0  0
 10 16  1  0  0  0
 10 12  2  0  0  0
 12 13  1  0  0  0
 12 38  1  0  0  0
 13 17  1  0  0  0
 13 14  2  0  0  0
 14 15  1  0  0  0
 14 39  1  0  0  0
 15 16  2  0  0  0
 15 40  1  0  0  0
 16 18  1  0  0  0
 18 19  1  0  0  0
 18 41  1  0  0  0
 19 20  1  0  0  0
 19 21  2  0  0  0
 20 22  2  0  0  0
 20 23  1  0  0  0
 22 26  1  0  0  0
 22 24  1  0  0  0
 23 25  1  0  0  0
 25 26  2  0  0  0
 25 42  1  0  0  0
 26 27  1  0  0  0
 27 28  1  0  0  0
 27 43  1  0  0  0
 27 44  1  0  0  0
 28 29  1  0  0  0
 28 32  1  0  0  0
 29 30  2  0  0  0
 30 31  1  0  0  0
 31 32  2  0  0  0
 31 45  1  0  0  0
M  END
> <s_m_entry_id>
35303

> <s_m_entry_name>
dock_pv.153

> <s_m_Source_Path>
/home/csk/Desktop/cluster/DUD-E-result/thrb

> <s_m_Source_File>
dock_pv.maegz

> <i_m_Source_File_Index>
153

> <chembl_id>
CHEMBL396805

> <chembl_pref_name>
None

> <i_lp_mmshare_version>
53161

> <r_lp_tautomer_probability>
1

> <s_lp_Force_Field>
OPLS_2005

> <r_lp_Energy>
34.639764

> <b_lp_Chiralities_Consistent>
1

> <s_lp_Variant>
CHEMBL204_lig4426-1

> <s_i_glide_gridfile>
glide-grid_1ype

> <i_i_glide_lignum>
6090

> <i_i_glide_rotatable_bonds>
8

> <r_i_docking_score>
-7.45081795899654

> <r_i_glide_ligand_efficiency>
-0.232838061218642

> <r_i_glide_ligand_efficiency_sa>
-0.739214765779442

> <r_i_glide_ligand_efficiency_ln>
-1.66844124264611

> <r_i_glide_gscore>
-7.45081795899654

> <r_i_glide_lipo>
-3.22378365857215

> <r_i_glide_hbond>
-0.484664666799385

> <r_i_glide_metal>
0

> <r_i_glide_rewards>
-0.565914686306836

> <r_i_glide_evdw>
-47.837085723877

> <r_i_glide_ecoul>
-9.21164131164551

> <r_i_glide_erotb>
0.635087511767498

> <r_i_glide_esite>
-0.0379419761449942

> <r_i_glide_emodel>
-76.4882255121534

> <r_i_glide_energy>
-57.0487270355225

> <r_i_glide_einternal>
12.686261177063

> <i_i_glide_confnum>
85

> <i_i_glide_posenum>
391

> <r_i_glide_eff_state_penalty>
0

> <s_user_duplicate_titles>
CHEMBL204_lig4426

> <i_f3d_flags>
0

> <s_m_subgroup_title>
dock_pv

> <s_m_subgroupid>
dock_pv

> <b_m_subgroup_collapsed>
1

$$$$
CHEMBL204_lig4131
                    3D
 Schrodinger Suite 2021-1.
 68 72  0  0  1  0            999 V2000
   19.9581  -13.7991   20.6264 C   0  0  0  0  0  0
   19.6511  -14.0269   22.1024 C   0  0  0  0  0  0
   19.3107  -12.8110   19.9376 N   0  0  0  0  0  0
   11.5775  -10.9969   23.1208 C   0  0  0  0  0  0
   20.6601  -13.8795   23.1224 C   0  0  0  0  0  0
   12.3958  -11.6755   22.0943 C   0  0  0  0  0  0
   14.5598  -11.8967   20.9822 C   0  0  0  0  0  0
   13.6331  -11.1362   21.7250 C   0  0  0  0  0  0
   17.6169  -11.4963   15.2989 N   0  0  0  0  0  0
   18.3160  -11.9169   20.5418 C   0  0  0  0  0  0
   11.6302   -9.7530   23.2766 N   0  0  0  0  0  0
   20.8139  -14.5079   20.0989 O   0  0  0  0  0  0
   15.8866  -11.4538   20.8073 C   0  0  0  0  0  0
   16.8578  -12.3369   20.3626 C   0  0  0  0  0  0
   14.1828  -13.1803   20.4939 C   0  0  0  0  0  0
   12.0157  -12.8968   21.5205 C   0  0  0  0  0  0
   12.8673  -13.6325   20.7093 C   0  0  0  0  0  0
   15.0055  -11.0412   14.2719 O   0  0  0  0  0  0
   20.3007  -14.0900   24.4954 C   0  0  0  0  0  0
   15.1479  -13.9864   19.8540 C   0  0  0  0  0  0
   10.8119  -11.8474   23.8730 N   0  0  0  0  0  0
   18.3592  -12.2531   17.6078 C   0  0  0  0  0  0
   16.4754  -13.5740   19.8319 C   0  0  0  0  0  0
   19.5928  -12.5423   18.5095 C   0  0  0  0  0  0
   18.3656  -14.4260   22.4933 C   0  0  0  0  0  0
   18.7414  -11.8194   16.1930 C   0  0  0  0  0  0
   16.7270  -12.6209   14.9759 C   0  0  0  0  0  0
   16.8760  -10.2688   15.6202 C   0  0  0  0  0  0
   22.0168  -13.5450   22.8434 C   0  0  0  0  0  0
   18.0278  -14.6160   23.8247 C   0  0  0  0  0  0
   15.8838   -9.9377   14.4796 C   0  0  0  0  0  0
   15.7143  -12.2178   13.8781 C   0  0  0  0  0  0
   18.9729  -14.4391   24.8254 C   0  0  0  0  0  0
   21.2845  -13.9598   25.5106 C   0  0  0  0  0  0
   22.9650  -13.4546   23.8611 C   0  0  0  0  0  0
   22.6015  -13.6561   25.1845 C   0  0  0  0  0  0
   13.9532  -10.1866   22.1310 H   0  0  0  0  0  0
   18.4409  -10.9091   20.1415 H   0  0  0  0  0  0
   18.5014  -11.8128   21.6122 H   0  0  0  0  0  0
   11.0102   -9.4674   24.0194 H   0  0  0  0  0  0
   16.1743  -10.4728   21.1504 H   0  0  0  0  0  0
   11.0470  -13.3189   21.7436 H   0  0  0  0  0  0
   12.5587  -14.5969   20.3301 H   0  0  0  0  0  0
   14.8718  -14.9616   19.4776 H   0  0  0  0  0  0
   10.1075  -11.4850   24.5076 H   0  0  0  0  0  0
   10.8156  -12.8475   23.6980 H   0  0  0  0  0  0
   17.7257  -13.1346   17.5453 H   0  0  0  0  0  0
   17.7598  -11.4517   18.0383 H   0  0  0  0  0  0
   17.2146  -14.2615   19.4479 H   0  0  0  0  0  0
   20.2605  -11.6827   18.4773 H   0  0  0  0  0  0
   20.1830  -13.3481   18.0667 H   0  0  0  0  0  0
   17.5999  -14.6200   21.7652 H   0  0  0  0  0  0
   19.3861  -10.9511   16.3095 H   0  0  0  0  0  0
   19.4070  -12.5363   15.7086 H   0  0  0  0  0  0
   17.3211  -13.4617   14.6156 H   0  0  0  0  0  0
   16.2096  -12.9770   15.8672 H   0  0  0  0  0  0
   16.3620  -10.3692   16.5772 H   0  0  0  0  0  0
   17.5751   -9.4423   15.7327 H   0  0  0  0  0  0
   22.3356  -13.3802   21.8268 H   0  0  0  0  0  0
   17.0241  -14.9217   24.0842 H   0  0  0  0  0  0
   15.2964   -9.0536   14.7215 H   0  0  0  0  0  0
   16.4163   -9.7056   13.5511 H   0  0  0  0  0  0
   15.0091  -13.0302   13.7028 H   0  0  0  0  0  0
   16.2227  -12.0548   12.9273 H   0  0  0  0  0  0
   18.7043  -14.6017   25.8584 H   0  0  0  0  0  0
   21.0087  -14.1168   26.5415 H   0  0  0  0  0  0
   23.9882  -13.2097   23.6188 H   0  0  0  0  0  0
   23.3485  -13.5765   25.9595 H   0  0  0  0  0  0
  1  2  1  0  0  0
  1  3  1  0  0  0
  1 12  2  0  0  0
  2  5  1  0  0  0
  2 25  2  0  0  0
  3 10  1  0  0  0
  3 24  1  0  0  0
  4  6  1  0  0  0
  4 11  2  0  0  0
  4 21  1  0  0  0
  5 19  1  0  0  0
  5 29  2  0  0  0
  6  8  1  0  0  0
  6 16  2  0  0  0
  7 13  1  0  0  0
  7  8  2  0  0  0
  7 15  1  0  0  0
  8 37  1  0  0  0
  9 26  1  0  0  0
  9 27  1  0  0  0
  9 28  1  0  0  0
 10 14  1  0  0  0
 10 38  1  0  0  0
 10 39  1  0  0  0
 11 40  1  0  0  0
 13 14  2  0  0  0
 13 41  1  0  0  0
 14 23  1  0  0  0
 15 20  1  0  0  0
 15 17  2  0  0  0
 16 17  1  0  0  0
 16 42  1  0  0  0
 17 43  1  0  0  0
 18 31  1  0  0  0
 18 32  1  0  0  0
 19 34  2  0  0  0
 19 33  1  0  0  0
 20 23  2  0  0  0
 20 44  1  0  0  0
 21 45  1  0  0  0
 21 46  1  0  0  0
 22 24  1  0  0  0
 22 26  1  0  0  0
 22 47  1  0  0  0
 22 48  1  0  0  0
 23 49  1  0  0  0
 24 50  1  0  0  0
 24 51  1  0  0  0
 25 30  1  0  0  0
 25 52  1  0  0  0
 26 53  1  0  0  0
 26 54  1  0  0  0
 27 32  1  0  0  0
 27 55  1  0  0  0
 27 56  1  0  0  0
 28 31  1  0  0  0
 28 57  1  0  0  0
 28 58  1  0  0  0
 29 35  1  0  0  0
 29 59  1  0  0  0
 30 33  2  0  0  0
 30 60  1  0  0  0
 31 61  1  0  0  0
 31 62  1  0  0  0
 32 63  1  0  0  0
 32 64  1  0  0  0
 33 65  1  0  0  0
 34 36  1  0  0  0
 34 66  1  0  0  0
 35 36  2  0  0  0
 35 67  1  0  0  0
 36 68  1  0  0  0
M  END
> <s_m_entry_id>
35304

> <s_m_entry_name>
dock_pv.154

> <s_m_Source_Path>
/home/csk/Desktop/cluster/DUD-E-result/thrb

> <s_m_Source_File>
dock_pv.maegz

> <i_m_Source_File_Index>
154

> <chembl_id>
CHEMBL197563

> <chembl_pref_name>
None

> <i_lp_mmshare_version>
53161

> <r_lp_tautomer_probability>
1

> <s_lp_Force_Field>
OPLS_2005

> <r_lp_Energy>
45.807117

> <b_lp_Chiralities_Consistent>
1

> <s_lp_Variant>
CHEMBL204_lig4131-1

> <s_i_glide_gridfile>
glide-grid_1ype

> <i_i_glide_lignum>
5745

> <i_i_glide_rotatable_bonds>
9

> <r_i_docking_score>
-7.45066258783258

> <r_i_glide_ligand_efficiency>
-0.206962849662016

> <r_i_glide_ligand_efficiency_sa>
-0.683376271991596

> <r_i_glide_ligand_efficiency_ln>
-1.62553328302429

> <r_i_glide_gscore>
-7.45066258783258

> <r_i_glide_lipo>
-3.19091452638402

> <r_i_glide_hbond>
-0.480901294950021

> <r_i_glide_metal>
0

> <r_i_glide_rewards>
-0.488892272503193

> <r_i_glide_evdw>
-48.2196083068848

> <r_i_glide_ecoul>
-8.63011837005615

> <r_i_glide_erotb>
0.526811702403238

> <r_i_glide_esite>
-0.11126802554593

> <r_i_glide_emodel>
-71.6479497713071

> <r_i_glide_energy>
-56.8497266769409

> <r_i_glide_einternal>
11.3759641647339

> <i_i_glide_confnum>
9

> <i_i_glide_posenum>
195

> <r_i_glide_eff_state_penalty>
0

> <s_user_duplicate_titles>
CHEMBL204_lig4131

> <i_f3d_flags>
0

> <s_m_subgroup_title>
dock_pv

> <s_m_subgroupid>
dock_pv

> <b_m_subgroup_collapsed>
1

$$$$
CHEMBL204_lig4355
                    3D
 Schrodinger Suite 2021-1.
 71 73  0  0  1  0            999 V2000
   10.8159  -11.4062   23.8603 C   0  0  0  0  0  0
   11.2155  -10.2532   24.5244 C   0  0  0  0  0  0
   12.0387   -9.3213   23.9086 C   0  0  0  0  0  0
   12.5311   -9.5806   22.6316 C   0  0  0  0  0  0
   12.1705  -10.7555   21.9620 C   0  0  0  0  0  0
   11.2863  -11.6506   22.5781 C   0  0  0  0  0  0
   12.7006  -10.9898   20.5469 C   0  0  0  0  0  0
   13.1217  -12.7820   20.0915 S   0  0  0  0  0  0
   12.0160  -13.6733   20.4355 O   0  0  0  0  0  0
   13.6455  -12.7931   18.7225 O   0  0  0  0  0  0
   14.3962  -13.0877   21.2635 N   0  0  2  0  0  0
   16.3548  -15.6214   21.6158 N   0  0  0  0  0  0
   16.5870  -17.0602   21.6361 C   0  0  2  0  0  0
   17.1221  -17.3710   23.0391 C   0  0  0  0  0  0
   16.3609  -17.8381   23.8851 O   0  0  0  0  0  0
   17.5557  -17.5013   20.5153 C   0  0  0  0  0  0
   18.4018  -17.0394   23.2731 N   0  0  0  0  0  0
   19.0632  -17.1059   24.5720 C   0  0  0  0  0  0
   20.0842  -15.9820   24.7523 C   0  0  0  0  0  0
   19.8302  -14.9894   25.7073 C   0  0  0  0  0  0
   20.7500  -13.9665   25.9339 C   0  0  0  0  0  0
   21.9457  -13.9315   25.2208 C   0  0  0  0  0  0
   22.2187  -14.9221   24.2788 C   0  0  0  0  0  0
   21.2999  -15.9505   24.0342 C   0  0  0  0  0  0
   21.6571  -17.0014   22.9866 C   0  0  0  0  0  0
   21.0460  -16.6983   21.7014 N   0  0  0  0  0  0
   20.4211  -12.7593   27.1211 Cl  0  0  0  0  0  0
   15.8825  -14.8681   20.6109 C   0  0  0  0  0  0
   15.8102  -13.3535   20.9178 C   0  0  1  0  0  0
   15.5114  -15.3283   19.5320 O   0  0  0  0  0  0
   16.4239  -12.3561   19.8735 C   0  0  0  0  0  0
   17.5354  -12.8586   18.9151 C   0  0  0  0  0  0
   18.9276  -12.8764   19.5443 C   0  0  0  0  0  0
   19.9945  -12.3264   18.8959 N   0  3  0  0  0  0
   21.2163  -12.2572   19.4541 C   0  0  0  0  0  0
   21.4353  -12.7987   20.7192 C   0  0  0  0  0  0
   20.3918  -13.4182   21.3915 C   0  0  0  0  0  0
   19.1369  -13.4588   20.8034 C   0  0  0  0  0  0
   19.8759  -11.8539   17.7305 O   0  5  0  0  0  0
   10.1287  -12.1010   24.3216 H   0  0  0  0  0  0
   10.8148  -10.0752   25.5129 H   0  0  0  0  0  0
   12.3163   -8.4151   24.4264 H   0  0  0  0  0  0
   13.1870   -8.8605   22.1660 H   0  0  0  0  0  0
   10.9146  -12.5349   22.0901 H   0  0  0  0  0  0
   12.0160  -10.6090   19.8072 H   0  0  0  0  0  0
   13.6307  -10.4404   20.4099 H   0  0  0  0  0  0
   14.0713  -13.5103   22.1389 H   0  0  0  0  0  0
   16.5479  -15.1726   22.5007 H   0  0  0  0  0  0
   15.6298  -17.5705   21.5139 H   0  0  0  0  0  0
   17.8965  -18.5256   20.6693 H   0  0  0  0  0  0
   17.0674  -17.4708   19.5417 H   0  0  0  0  0  0
   18.4352  -16.8603   20.4599 H   0  0  0  0  0  0
   18.9943  -16.7601   22.4987 H   0  0  0  0  0  0
   18.3449  -17.1118   25.3968 H   0  0  0  0  0  0
   19.5732  -18.0658   24.6538 H   0  0  0  0  0  0
   18.9130  -15.0056   26.2790 H   0  0  0  0  0  0
   22.6615  -13.1424   25.4038 H   0  0  0  0  0  0
   23.1514  -14.8860   23.7353 H   0  0  0  0  0  0
   22.7405  -17.0621   22.8634 H   0  0  0  0  0  0
   21.3361  -17.9895   23.3164 H   0  0  0  0  0  0
   21.5439  -15.9182   21.2857 H   0  0  0  0  0  0
   21.2072  -17.4734   21.0724 H   0  0  0  0  0  0
   16.3563  -13.1716   21.8447 H   0  0  0  0  0  0
   15.6681  -11.9074   19.2437 H   0  0  0  0  0  0
   16.8009  -11.4866   20.4166 H   0  0  0  0  0  0
   17.3114  -13.8416   18.4970 H   0  0  0  0  0  0
   17.5337  -12.1903   18.0529 H   0  0  0  0  0  0
   21.9883  -11.7976   18.8549 H   0  0  0  0  0  0
   22.4155  -12.7745   21.1628 H   0  0  0  0  0  0
   20.5464  -13.8509   22.3672 H   0  0  0  0  0  0
   18.3507  -13.9431   21.3503 H   0  0  0  0  0  0
  1  6  1  0  0  0
  1  2  2  0  0  0
  1 40  1  0  0  0
  2  3  1  0  0  0
  2 41  1  0  0  0
  3  4  2  0  0  0
  3 42  1  0  0  0
  4  5  1  0  0  0
  4 43  1  0  0  0
  5  6  2  0  0  0
  5  7  1  0  0  0
  6 44  1  0  0  0
  7  8  1  0  0  0
  7 45  1  0  0  0
  7 46  1  0  0  0
  8 10  2  0  0  0
  8 11  1  0  0  0
  8  9  2  0  0  0
 11 29  1  0  0  0
 11 47  1  0  0  0
 12 28  1  0  0  0
 12 13  1  0  0  0
 12 48  1  0  0  0
 13 14  1  0  0  0
 13 16  1  0  0  0
 13 49  1  0  0  0
 14 15  2  0  0  0
 14 17  1  0  0  0
 16 50  1  0  0  0
 16 51  1  0  0  0
 16 52  1  0  0  0
 17 18  1  0  0  0
 17 53  1  0  0  0
 18 19  1  0  0  0
 18 54  1  0  0  0
 18 55  1  0  0  0
 19 20  2  0  0  0
 19 24  1  0  0  0
 20 21  1  0  0  0
 20 56  1  0  0  0
 21 22  2  0  0  0
 21 27  1  0  0  0
 22 23  1  0  0  0
 22 57  1  0  0  0
 23 24  2  0  0  0
 23 58  1  0  0  0
 24 25  1  0  0  0
 25 26  1  0  0  0
 25 59  1  0  0  0
 25 60  1  0  0  0
 26 61  1  0  0  0
 26 62  1  0  0  0
 28 29  1  0  0  0
 28 30  2  0  0  0
 29 31  1  0  0  0
 29 63  1  0  0  0
 31 32  1  0  0  0
 31 64  1  0  0  0
 31 65  1  0  0  0
 32 33  1  0  0  0
 32 66  1  0  0  0
 32 67  1  0  0  0
 33 34  2  0  0  0
 33 38  1  0  0  0
 34 35  1  0  0  0
 34 39  1  0  0  0
 35 36  2  0  0  0
 35 68  1  0  0  0
 36 37  1  0  0  0
 36 69  1  0  0  0
 37 38  2  0  0  0
 37 70  1  0  0  0
 38 71  1  0  0  0
M  CHG  2  34   1  39  -1
M  END
> <s_m_entry_id>
35305

> <s_m_entry_name>
dock_pv.155

> <s_m_Source_Path>
/home/csk/Desktop/cluster/DUD-E-result/thrb

> <s_m_Source_File>
dock_pv.maegz

> <i_m_Source_File_Index>
155

> <chembl_id>
CHEMBL228983

> <chembl_pref_name>
None

> <i_lp_mmshare_version>
53161

> <r_lp_tautomer_probability>
1

> <s_lp_Force_Field>
OPLS_2005

> <r_lp_Energy>
8.276061

> <b_lp_Chiralities_Consistent>
1

> <s_lp_Variant>
CHEMBL204_lig4355-1

> <s_i_glide_gridfile>
glide-grid_1ype

> <i_i_glide_lignum>
6006

> <i_i_glide_rotatable_bonds>
15

> <r_i_docking_score>
-7.44796125679171

> <r_i_glide_ligand_efficiency>
-0.190973365558762

> <r_i_glide_ligand_efficiency_sa>
-0.647631061802922

> <r_i_glide_ligand_efficiency_ln>
-1.59705431640919

> <r_i_glide_gscore>
-7.44796125679171

> <r_i_glide_lipo>
-3.50578026649441

> <r_i_glide_hbond>
-0.014363869162084

> <r_i_glide_metal>
0

> <r_i_glide_rewards>
-0.935121972596836

> <r_i_glide_evdw>
-46.327693939209

> <r_i_glide_ecoul>
-8.90514469146729

> <r_i_glide_erotb>
0.66589351969397

> <r_i_glide_esite>
-0.00643226755181322

> <r_i_glide_emodel>
-68.9178676571965

> <r_i_glide_energy>
-55.2328386306763

> <r_i_glide_einternal>
21.570348739624

> <i_i_glide_confnum>
23

> <i_i_glide_posenum>
87

> <r_i_glide_eff_state_penalty>
0

> <s_user_duplicate_titles>
CHEMBL204_lig4355

> <i_f3d_flags>
0

> <s_m_subgroup_title>
dock_pv

> <s_m_subgroupid>
dock_pv

> <b_m_subgroup_collapsed>
1

$$$$
CHEMBL204_lig4731
                    3D
 Schrodinger Suite 2021-1.
 78 81  0  0  1  0            999 V2000
   14.7252  -16.0870   21.1234 S   0  0  0  0  0  0
   18.2625  -13.4601   20.9959 N   0  0  0  0  0  0
   17.3430  -14.0571   21.7904 C   0  0  0  0  0  0
   17.3777  -15.6049   21.9495 C   0  0  2  0  0  0
   16.0151  -16.0826   22.3214 N   0  0  1  0  0  0
   18.2554  -12.0154   20.7087 C   0  0  2  0  0  0
   16.9468  -11.4406   20.1304 C   0  0  0  0  0  0
   11.2164  -10.8103   23.5541 C   0  0  0  0  0  0
   16.1056  -12.2629   19.4778 N   0  0  0  0  0  0
   15.0658  -15.1177   20.0751 O   0  0  0  0  0  0
   13.4642  -15.9776   21.8634 O   0  0  0  0  0  0
   18.4097  -16.1393   22.9851 C   0  0  0  0  0  0
   12.0872  -11.0875   22.3776 C   0  0  0  0  0  0
   11.2160   -9.6963   24.1384 N   0  0  0  0  0  0
   16.4878  -13.3929   22.3852 O   0  0  0  0  0  0
   14.8126  -17.8232   20.3802 C   0  0  0  0  0  0
   16.7144  -10.2531   20.3209 O   0  0  0  0  0  0
   12.8544  -10.0602   21.8049 C   0  0  0  0  0  0
   12.1767  -12.3652   21.7929 C   0  0  0  0  0  0
   10.4160  -11.8530   23.9210 N   0  0  0  0  0  0
   19.4314  -14.1094   20.4032 C   0  0  0  0  0  0
   14.7581  -11.8917   19.0419 C   0  0  0  0  0  0
   13.8004  -11.5936   20.1934 C   0  0  0  0  0  0
   13.6901  -10.3060   20.7212 C   0  0  0  0  0  0
   13.0108  -12.6143   20.7115 C   0  0  0  0  0  0
   14.9853  -17.7880   18.8704 C   0  0  0  0  0  0
   18.6705  -15.2543   24.2355 C   0  0  0  0  0  0
   19.4459  -11.8129   19.7583 C   0  0  0  0  0  0
   20.3820  -12.9721   20.0530 C   0  0  0  0  0  0
   13.8792  -17.5456   18.0515 C   0  0  0  0  0  0
   16.2545  -17.9452   18.3078 C   0  0  0  0  0  0
   18.9267  -16.1136   25.4831 C   0  0  0  0  0  0
   19.8878  -14.3060   24.0601 C   0  0  0  0  0  0
   14.0441  -17.4599   16.6714 C   0  0  0  0  0  0
   16.4160  -17.8642   16.9272 C   0  0  0  0  0  0
   20.0562  -13.3651   25.2681 C   0  0  0  0  0  0
   19.0302  -15.2166   26.7229 C   0  0  0  0  0  0
   20.1481  -14.1539   26.5884 C   0  0  0  0  0  0
   15.3103  -17.6200   16.1151 C   0  0  0  0  0  0
   17.6035  -16.0610   20.9840 H   0  0  0  0  0  0
   15.6941  -15.7029   23.2215 H   0  0  0  0  0  0
   18.4651  -11.5064   21.6512 H   0  0  0  0  0  0
   16.3196  -13.2500   19.4446 H   0  0  0  0  0  0
   18.0847  -17.1335   23.2988 H   0  0  0  0  0  0
   19.3597  -16.3455   22.4934 H   0  0  0  0  0  0
   10.5178   -9.6922   24.8734 H   0  0  0  0  0  0
   13.8945  -18.3401   20.6559 H   0  0  0  0  0  0
   15.6374  -18.3457   20.8614 H   0  0  0  0  0  0
   12.8177   -9.0568   22.2060 H   0  0  0  0  0  0
   11.6162  -13.2033   22.1723 H   0  0  0  0  0  0
    9.6733  -11.7116   24.6061 H   0  0  0  0  0  0
   10.5094  -12.7794   23.5216 H   0  0  0  0  0  0
   19.9297  -14.8166   21.0604 H   0  0  0  0  0  0
   19.1144  -14.6523   19.5211 H   0  0  0  0  0  0
   14.8040  -11.0530   18.3492 H   0  0  0  0  0  0
   14.3546  -12.7172   18.4519 H   0  0  0  0  0  0
   14.2820   -9.4961   20.3249 H   0  0  0  0  0  0
   13.0572  -13.6118   20.3023 H   0  0  0  0  0  0
   17.7800  -14.6561   24.4443 H   0  0  0  0  0  0
   19.9362  -10.8522   19.9205 H   0  0  0  0  0  0
   19.1209  -11.8596   18.7180 H   0  0  0  0  0  0
   20.9878  -12.7304   20.9276 H   0  0  0  0  0  0
   21.0604  -13.2097   19.2325 H   0  0  0  0  0  0
   12.8976  -17.4058   18.4799 H   0  0  0  0  0  0
   17.1166  -18.1208   18.9348 H   0  0  0  0  0  0
   18.1081  -16.8228   25.6190 H   0  0  0  0  0  0
   19.8160  -16.7331   25.3545 H   0  0  0  0  0  0
   20.7943  -14.8876   23.8872 H   0  0  0  0  0  0
   19.7861  -13.6975   23.1658 H   0  0  0  0  0  0
   13.1973  -17.2599   16.0300 H   0  0  0  0  0  0
   17.3956  -17.9806   16.4875 H   0  0  0  0  0  0
   19.2160  -12.6743   25.3176 H   0  0  0  0  0  0
   20.9455  -12.7456   25.1422 H   0  0  0  0  0  0
   18.0743  -14.7230   26.9051 H   0  0  0  0  0  0
   19.2113  -15.8530   27.5843 H   0  0  0  0  0  0
   20.1189  -13.4532   27.4255 H   0  0  0  0  0  0
   21.1190  -14.6485   26.6407 H   0  0  0  0  0  0
   15.4345  -17.5485   15.0445 H   0  0  0  0  0  0
  1  5  1  0  0  0
  1 10  2  0  0  0
  1 11  2  0  0  0
  1 16  1  0  0  0
  2  3  1  0  0  0
  2  6  1  0  0  0
  2 21  1  0  0  0
  3  4  1  0  0  0
  3 15  2  0  0  0
  4  5  1  0  0  0
  4 12  1  0  0  0
  4 40  1  0  0  0
  5 41  1  0  0  0
  6  7  1  0  0  0
  6 28  1  0  0  0
  6 42  1  0  0  0
  7  9  1  0  0  0
  7 17  2  0  0  0
  8 13  1  0  0  0
  8 14  2  0  0  0
  8 20  1  0  0  0
  9 22  1  0  0  0
  9 43  1  0  0  0
 12 27  1  0  0  0
 12 44  1  0  0  0
 12 45  1  0  0  0
 13 19  1  0  0  0
 13 18  2  0  0  0
 14 46  1  0  0  0
 16 26  1  0  0  0
 16 47  1  0  0  0
 16 48  1  0  0  0
 18 24  1  0  0  0
 18 49  1  0  0  0
 19 25  2  0  0  0
 19 50  1  0  0  0
 20 51  1  0  0  0
 20 52  1  0  0  0
 21 29  1  0  0  0
 21 53  1  0  0  0
 21 54  1  0  0  0
 22 23  1  0  0  0
 22 55  1  0  0  0
 22 56  1  0  0  0
 23 24  2  0  0  0
 23 25  1  0  0  0
 24 57  1  0  0  0
 25 58  1  0  0  0
 26 30  2  0  0  0
 26 31  1  0  0  0
 27 32  1  0  0  0
 27 33  1  0  0  0
 27 59  1  0  0  0
 28 29  1  0  0  0
 28 60  1  0  0  0
 28 61  1  0  0  0
 29 62  1  0  0  0
 29 63  1  0  0  0
 30 34  1  0  0  0
 30 64  1  0  0  0
 31 35  2  0  0  0
 31 65  1  0  0  0
 32 37  1  0  0  0
 32 66  1  0  0  0
 32 67  1  0  0  0
 33 36  1  0  0  0
 33 68  1  0  0  0
 33 69  1  0  0  0
 34 39  2  0  0  0
 34 70  1  0  0  0
 35 39  1  0  0  0
 35 71  1  0  0  0
 36 38  1  0  0  0
 36 72  1  0  0  0
 36 73  1  0  0  0
 37 38  1  0  0  0
 37 74  1  0  0  0
 37 75  1  0  0  0
 38 76  1  0  0  0
 38 77  1  0  0  0
 39 78  1  0  0  0
M  END
> <s_m_entry_id>
35306

> <s_m_entry_name>
dock_pv.156

> <s_m_Source_Path>
/home/csk/Desktop/cluster/DUD-E-result/thrb

> <s_m_Source_File>
dock_pv.maegz

> <i_m_Source_File_Index>
156

> <chembl_id>
CHEMBL1215085

> <chembl_pref_name>
None

> <i_lp_mmshare_version>
53161

> <r_lp_tautomer_probability>
1

> <s_lp_Force_Field>
OPLS_2005

> <r_lp_Energy>
18.779062

> <b_lp_Chiralities_Consistent>
1

> <s_lp_Variant>
CHEMBL204_lig4731-1

> <s_i_glide_gridfile>
glide-grid_1ype

> <i_i_glide_lignum>
6472

> <i_i_glide_rotatable_bonds>
13

> <r_i_docking_score>
-7.44337879120931

> <r_i_glide_ligand_efficiency>
-0.190855866441264

> <r_i_glide_ligand_efficiency_sa>
-0.647232597451607

> <r_i_glide_ligand_efficiency_ln>
-1.59607170570731

> <r_i_glide_gscore>
-7.44337879120931

> <r_i_glide_lipo>
-3.32038161590321

> <r_i_glide_hbond>
-0.634247375982275

> <r_i_glide_metal>
0

> <r_i_glide_rewards>
-0.616300084793508

> <r_i_glide_evdw>
-45.0491027832031

> <r_i_glide_ecoul>
-7.10221576690674

> <r_i_glide_erotb>
0.60412755139328

> <r_i_glide_esite>
-0.158789761727434

> <r_i_glide_emodel>
-70.6999204441063

> <r_i_glide_energy>
-52.1513185501099

> <r_i_glide_einternal>
12.3058662414551

> <i_i_glide_confnum>
34

> <i_i_glide_posenum>
22

> <r_i_glide_eff_state_penalty>
0

> <s_user_duplicate_titles>
CHEMBL204_lig4731,CHEMBL204_lig4854,686945

> <i_f3d_flags>
0

> <s_m_subgroup_title>
dock_pv

> <s_m_subgroupid>
dock_pv

> <b_m_subgroup_collapsed>
1

$$$$
CHEMBL204_lig4172
                    3D
 Schrodinger Suite 2021-1.
 50 54  0  0  1  0            999 V2000
   16.7065  -12.4589   20.7876 N   0  0  0  0  0  0
   16.1390  -12.0758   19.6602 C   0  0  0  0  0  0
   18.0342  -12.5871   20.4554 C   0  0  0  0  0  0
   12.5420  -13.6865   20.5038 N   0  0  0  0  0  0
   16.9809  -11.9324   18.5944 O   0  0  0  0  0  0
   18.5394  -14.9580   24.3701 C   0  0  0  0  0  0
   13.7708  -11.5394   20.5686 C   0  0  0  0  0  0
   12.3054  -15.8715   20.3093 N   0  0  0  0  0  0
   12.7564  -12.4020   21.0414 C   0  0  0  0  0  0
   18.1991  -12.2523   19.1015 C   0  0  0  0  0  0
   12.1201  -13.8867   19.2518 N   0  0  0  0  0  0
   12.6315  -14.9042   21.1265 C   0  0  0  0  0  0
   12.0183  -15.1989   19.2047 C   0  0  0  0  0  0
   14.6644  -11.8761   19.3680 C   0  0  0  0  0  0
   19.1290  -13.2991   22.5563 N   0  0  0  0  0  0
   19.1747  -12.9621   21.2000 C   0  0  0  0  0  0
   19.9176  -14.7083   25.0001 C   0  0  0  0  0  0
   11.9426  -12.0069   22.1107 C   0  0  0  0  0  0
   18.5123  -14.5884   22.8665 C   0  0  0  0  0  0
   13.9568  -10.3056   21.2095 C   0  0  0  0  0  0
   20.9287  -15.5254   24.5946 N   0  0  0  0  0  0
   18.2211  -16.2444   24.5377 F   0  0  0  0  0  0
   17.6162  -14.2545   25.0262 F   0  0  0  0  0  0
   13.1517   -9.9302   22.2875 C   0  0  0  0  0  0
   12.1318  -10.7722   22.7216 C   0  0  0  0  0  0
   13.4420   -8.4458   23.1205 Cl  0  0  0  0  0  0
   19.4317  -12.2532   18.4408 C   0  0  0  0  0  0
   20.5432  -12.6225   19.2000 C   0  0  0  0  0  0
   20.4155  -12.9655   20.5483 C   0  0  0  0  0  0
   22.1798  -15.2812   25.0629 C   0  0  0  0  0  0
   20.1384  -13.6291   25.8662 C   0  0  0  0  0  0
   22.4741  -14.2201   25.9203 C   0  0  0  0  0  0
   21.4326  -13.3825   26.3211 C   0  0  0  0  0  0
   12.9267  -14.9767   22.1649 H   0  0  0  0  0  0
   11.7004  -15.7075   18.3046 H   0  0  0  0  0  0
   14.5579  -11.0536   18.6624 H   0  0  0  0  0  0
   14.3044  -12.7409   18.8172 H   0  0  0  0  0  0
   20.0363  -13.2260   22.9970 H   0  0  0  0  0  0
   11.1549  -12.6531   22.4756 H   0  0  0  0  0  0
   19.0354  -15.3567   22.2952 H   0  0  0  0  0  0
   17.4903  -14.6131   22.4863 H   0  0  0  0  0  0
   14.7446   -9.6411   20.8865 H   0  0  0  0  0  0
   11.5015  -10.4857   23.5519 H   0  0  0  0  0  0
   19.5137  -12.0026   17.3959 H   0  0  0  0  0  0
   21.5217  -12.6505   18.7412 H   0  0  0  0  0  0
   21.3048  -13.2483   21.0933 H   0  0  0  0  0  0
   22.9568  -15.9537   24.7301 H   0  0  0  0  0  0
   19.3320  -12.9757   26.1661 H   0  0  0  0  0  0
   23.4841  -14.0546   26.2687 H   0  0  0  0  0  0
   21.6154  -12.5503   26.9852 H   0  0  0  0  0  0
  1  2  2  0  0  0
  1  3  1  0  0  0
  2  5  1  0  0  0
  2 14  1  0  0  0
  3 10  2  0  0  0
  3 16  1  0  0  0
  4  9  1  0  0  0
  4 11  1  0  0  0
  4 12  1  0  0  0
  5 10  1  0  0  0
  6 19  1  0  0  0
  6 17  1  0  0  0
  6 22  1  0  0  0
  6 23  1  0  0  0
  7 14  1  0  0  0
  7  9  1  0  0  0
  7 20  2  0  0  0
  8 12  2  0  0  0
  8 13  1  0  0  0
  9 18  2  0  0  0
 10 27  1  0  0  0
 11 13  2  0  0  0
 12 34  1  0  0  0
 13 35  1  0  0  0
 14 36  1  0  0  0
 14 37  1  0  0  0
 15 16  1  0  0  0
 15 19  1  0  0  0
 15 38  1  0  0  0
 16 29  2  0  0  0
 17 21  1  0  0  0
 17 31  2  0  0  0
 18 25  1  0  0  0
 18 39  1  0  0  0
 19 40  1  0  0  0
 19 41  1  0  0  0
 20 24  1  0  0  0
 20 42  1  0  0  0
 21 30  2  0  0  0
 24 25  2  0  0  0
 24 26  1  0  0  0
 25 43  1  0  0  0
 27 28  2  0  0  0
 27 44  1  0  0  0
 28 29  1  0  0  0
 28 45  1  0  0  0
 29 46  1  0  0  0
 30 32  1  0  0  0
 30 47  1  0  0  0
 31 33  1  0  0  0
 31 48  1  0  0  0
 32 33  2  0  0  0
 32 49  1  0  0  0
 33 50  1  0  0  0
M  END
> <s_m_entry_id>
35309

> <s_m_entry_name>
dock_pv.159

> <s_m_Source_Path>
/home/csk/Desktop/cluster/DUD-E-result/thrb

> <s_m_Source_File>
dock_pv.maegz

> <i_m_Source_File_Index>
159

> <chembl_id>
CHEMBL197668

> <chembl_pref_name>
None

> <i_lp_mmshare_version>
53161

> <r_lp_tautomer_probability>
1

> <s_lp_Force_Field>
OPLS_2005

> <r_lp_Energy>
29.170494

> <b_lp_Chiralities_Consistent>
1

> <s_lp_Variant>
CHEMBL204_lig4172-1

> <s_i_glide_gridfile>
glide-grid_1ype

> <i_i_glide_lignum>
5798

> <i_i_glide_rotatable_bonds>
7

> <r_i_docking_score>
-7.43612548946102

> <r_i_glide_ligand_efficiency>
-0.225337136044273

> <r_i_glide_ligand_efficiency_sa>
-0.722776598842549

> <r_i_glide_ligand_efficiency_ln>
-1.65375580665894

> <r_i_glide_gscore>
-7.43612548946102

> <r_i_glide_lipo>
-4.01541035583894

> <r_i_glide_hbond>
0

> <r_i_glide_metal>
0

> <r_i_glide_rewards>
-0.858715799363338

> <r_i_glide_evdw>
-51.2263526916504

> <r_i_glide_ecoul>
-3.70748162269592

> <r_i_glide_erotb>
0.555440543728166

> <r_i_glide_esite>
0

> <r_i_glide_emodel>
-74.0484447783614

> <r_i_glide_energy>
-54.9338343143463

> <r_i_glide_einternal>
9.22800350189209

> <i_i_glide_confnum>
8

> <i_i_glide_posenum>
301

> <r_i_glide_eff_state_penalty>
0

> <s_user_duplicate_titles>
CHEMBL204_lig4172,329844

> <i_f3d_flags>
0

> <s_m_subgroup_title>
dock_pv

> <s_m_subgroupid>
dock_pv

> <b_m_subgroup_collapsed>
1

$$$$
CHEMBL204_lig1139
                    3D
 Schrodinger Suite 2021-1.
 71 73  0  0  1  0            999 V2000
   17.8538  -13.6667   22.7213 O   0  0  0  0  0  0
   19.1762  -15.6583   22.3118 C   0  0  2  0  0  0
   18.7723  -14.1683   22.0606 C   0  0  0  0  0  0
   19.4215  -13.4806   21.0895 N   0  0  0  0  0  0
   18.9189  -12.1933   20.5763 C   0  0  1  0  0  0
   20.0332  -11.7004   19.6298 C   0  0  0  0  0  0
   21.2363  -12.5803   19.9056 C   0  0  0  0  0  0
   20.6238  -13.8928   20.3692 C   0  0  0  0  0  0
   17.5705  -12.3930   19.8618 C   0  0  0  0  0  0
   16.4988  -11.8599   20.4833 N   0  0  0  0  0  0
   17.5439  -13.0538   18.8250 O   0  0  0  0  0  0
   15.0400  -12.0592   20.2902 C   0  0  2  0  0  0
   14.6463  -12.5314   18.8823 C   0  0  0  0  0  0
   14.3351  -10.7393   20.7067 C   0  0  0  0  0  0
   12.8511  -10.5786   20.3110 C   0  0  0  0  0  0
   14.8613  -11.8078   17.9068 O   0  0  0  0  0  0
   17.9963  -16.3655   22.8768 N   0  0  2  0  0  0
   20.4388  -15.8826   23.1969 C   0  0  0  0  0  0
   20.7562  -14.8735   24.2937 C   0  0  0  0  0  0
   14.0126  -13.8757   18.7230 C   0  0  0  0  0  0
   22.0617  -14.3510   24.4108 C   0  0  0  0  0  0
   22.3629  -13.4528   25.4248 C   0  0  0  0  0  0
   21.3793  -13.0549   26.3224 C   0  0  0  0  0  0
   20.1059  -13.6025   26.2507 C   0  0  0  0  0  0
   19.7880  -14.5149   25.2558 C   0  0  0  0  0  0
   12.1249   -9.5369   21.1636 C   0  0  0  0  0  0
   11.7405  -10.0934   22.4468 N   0  0  0  0  0  0
   17.1426  -16.9739   21.8632 C   0  0  0  0  0  0
   11.8359   -9.4896   23.6893 C   0  0  0  0  0  0
   11.2160  -10.2531   24.6539 N   0  0  0  0  0  0
   12.4247   -8.3978   23.9211 N   0  0  0  0  0  0
   14.4174  -14.6275   17.6618 N   0  0  0  0  0  0
   13.8464  -15.8455   17.4786 C   0  0  0  0  0  0
   12.8572  -16.3554   18.3206 C   0  0  0  0  0  0
   12.4448  -15.5798   19.4041 C   0  0  0  0  0  0
   13.0246  -14.3268   19.6136 C   0  0  0  0  0  0
   19.4049  -16.1049   21.3408 H   0  0  0  0  0  0
   18.8165  -11.4974   21.4114 H   0  0  0  0  0  0
   19.7494  -11.8066   18.5810 H   0  0  0  0  0  0
   20.2733  -10.6556   19.8083 H   0  0  0  0  0  0
   21.9017  -12.6739   19.0470 H   0  0  0  0  0  0
   21.8161  -12.1523   20.7221 H   0  0  0  0  0  0
   20.3368  -14.5149   19.5217 H   0  0  0  0  0  0
   21.3383  -14.4465   20.9720 H   0  0  0  0  0  0
   16.7121  -11.3689   21.3407 H   0  0  0  0  0  0
   14.7589  -12.8287   21.0121 H   0  0  0  0  0  0
   14.4130  -10.6574   21.7933 H   0  0  0  0  0  0
   14.8823   -9.8761   20.3219 H   0  0  0  0  0  0
   12.8124  -10.2696   19.2667 H   0  0  0  0  0  0
   12.3174  -11.5264   20.3674 H   0  0  0  0  0  0
   17.4233  -15.6450   23.3090 H   0  0  0  0  0  0
   20.3956  -16.8678   23.6632 H   0  0  0  0  0  0
   21.3093  -15.9364   22.5451 H   0  0  0  0  0  0
   22.8322  -14.6400   23.7116 H   0  0  0  0  0  0
   23.3624  -13.0517   25.5084 H   0  0  0  0  0  0
   21.6126  -12.3424   27.1006 H   0  0  0  0  0  0
   19.3590  -13.3215   26.9769 H   0  0  0  0  0  0
   18.7930  -14.9323   25.2080 H   0  0  0  0  0  0
   12.7467   -8.6546   21.2919 H   0  0  0  0  0  0
   11.2161   -9.2113   20.6640 H   0  0  0  0  0  0
   11.1405  -10.9049   22.3952 H   0  0  0  0  0  0
   16.2753  -17.4359   22.3352 H   0  0  0  0  0  0
   16.7817  -16.2307   21.1504 H   0  0  0  0  0  0
   17.6798  -17.7489   21.3155 H   0  0  0  0  0  0
   10.6286   -9.7218   25.2840 H   0  0  0  0  0  0
   10.6294  -10.9884   24.2799 H   0  0  0  0  0  0
   12.4301   -8.1452   24.8992 H   0  0  0  0  0  0
   14.1780  -16.4060   16.6162 H   0  0  0  0  0  0
   12.4152  -17.3221   18.1308 H   0  0  0  0  0  0
   11.6758  -15.9428   20.0720 H   0  0  0  0  0  0
   12.6913  -13.7331   20.4511 H   0  0  0  0  0  0
  1  3  2  0  0  0
  2  3  1  0  0  0
  2 17  1  0  0  0
  2 18  1  0  0  0
  2 37  1  0  0  0
  3  4  1  0  0  0
  4  5  1  0  0  0
  4  8  1  0  0  0
  5  6  1  0  0  0
  5  9  1  0  0  0
  5 38  1  0  0  0
  6  7  1  0  0  0
  6 39  1  0  0  0
  6 40  1  0  0  0
  7  8  1  0  0  0
  7 41  1  0  0  0
  7 42  1  0  0  0
  8 43  1  0  0  0
  8 44  1  0  0  0
  9 10  1  0  0  0
  9 11  2  0  0  0
 10 12  1  0  0  0
 10 45  1  0  0  0
 12 13  1  0  0  0
 12 14  1  0  0  0
 12 46  1  0  0  0
 13 20  1  0  0  0
 13 16  2  0  0  0
 14 15  1  0  0  0
 14 47  1  0  0  0
 14 48  1  0  0  0
 15 26  1  0  0  0
 15 49  1  0  0  0
 15 50  1  0  0  0
 17 28  1  0  0  0
 17 51  1  0  0  0
 18 19  1  0  0  0
 18 52  1  0  0  0
 18 53  1  0  0  0
 19 21  2  0  0  0
 19 25  1  0  0  0
 20 32  2  0  0  0
 20 36  1  0  0  0
 21 22  1  0  0  0
 21 54  1  0  0  0
 22 23  2  0  0  0
 22 55  1  0  0  0
 23 24  1  0  0  0
 23 56  1  0  0  0
 24 25  2  0  0  0
 24 57  1  0  0  0
 25 58  1  0  0  0
 26 27  1  0  0  0
 26 59  1  0  0  0
 26 60  1  0  0  0
 27 29  1  0  0  0
 27 61  1  0  0  0
 28 62  1  0  0  0
 28 63  1  0  0  0
 28 64  1  0  0  0
 29 30  1  0  0  0
 29 31  2  0  0  0
 30 65  1  0  0  0
 30 66  1  0  0  0
 31 67  1  0  0  0
 32 33  1  0  0  0
 33 34  2  0  0  0
 33 68  1  0  0  0
 34 35  1  0  0  0
 34 69  1  0  0  0
 35 36  2  0  0  0
 35 70  1  0  0  0
 36 71  1  0  0  0
M  END
> <s_m_entry_id>
35310

> <s_m_entry_name>
dock_pv.160

> <s_m_Source_Path>
/home/csk/Desktop/cluster/DUD-E-result/thrb

> <s_m_Source_File>
dock_pv.maegz

> <i_m_Source_File_Index>
160

> <chembl_id>
CHEMBL404728

> <chembl_pref_name>
None

> <i_lp_mmshare_version>
53161

> <r_lp_tautomer_probability>
0.99990000499975

> <s_lp_Force_Field>
OPLS_2005

> <r_lp_Energy>
34.736949

> <b_lp_Chiralities_Consistent>
1

> <s_lp_Variant>
CHEMBL204_lig1139-1

> <s_i_glide_gridfile>
glide-grid_1ype

> <i_i_glide_lignum>
1804

> <i_i_glide_rotatable_bonds>
15

> <r_i_docking_score>
-7.43422396681108

> <r_i_glide_ligand_efficiency>
-0.206506221300308

> <r_i_glide_ligand_efficiency_sa>
-0.681868518363254

> <r_i_glide_ligand_efficiency_ln>
-1.62194682003762

> <r_i_glide_gscore>
-7.43422396681108

> <r_i_glide_lipo>
-3.79449578855595

> <r_i_glide_hbond>
-0.0384775896075766

> <r_i_glide_metal>
0

> <r_i_glide_rewards>
-0.912195170548966

> <r_i_glide_evdw>
-53.5130004882812

> <r_i_glide_ecoul>
-6.22701120376587

> <r_i_glide_erotb>
1.00340521381219

> <r_i_glide_esite>
-0.0827589269318393

> <r_i_glide_emodel>
-75.1273222364414

> <r_i_glide_energy>
-59.7400116920471

> <r_i_glide_einternal>
25.5607318878174

> <i_i_glide_confnum>
63

> <i_i_glide_posenum>
379

> <r_i_glide_eff_state_penalty>
0

> <s_user_duplicate_titles>
CHEMBL204_lig1139,434847

> <i_f3d_flags>
0

> <s_m_subgroup_title>
dock_pv

> <s_m_subgroupid>
dock_pv

> <b_m_subgroup_collapsed>
1

$$$$
CHEMBL204_lig4823
                    3D
 Schrodinger Suite 2021-1.
 65 68  0  0  1  0            999 V2000
   18.4757  -15.2603   21.8325 C   0  0  0  0  0  0
   19.7188  -14.6150   21.7040 C   0  0  0  0  0  0
   19.9332  -13.6192   20.7518 C   0  0  0  0  0  0
   17.4836  -14.9221   20.9009 C   0  0  0  0  0  0
   17.7074  -13.9622   19.9220 C   0  0  0  0  0  0
   18.9278  -13.2776   19.8433 C   0  0  0  0  0  0
   19.0838  -12.2578   18.9082 N   0  0  0  0  0  0
   18.0185  -12.0430   17.9159 C   0  0  0  0  0  0
   16.6155  -12.5907   18.3095 C   0  0  1  0  0  0
   16.7200  -13.8528   18.9668 O   0  0  0  0  0  0
   15.9416  -11.6237   19.2986 C   0  0  0  0  0  0
   14.6226  -12.0762   19.5935 O   0  0  0  0  0  0
   15.7885  -12.8284   17.0296 C   0  0  0  0  0  0
   13.9066  -11.4331   20.5763 C   0  0  0  0  0  0
   14.2379  -10.1751   21.0887 C   0  0  0  0  0  0
   13.4877   -9.6229   22.1155 C   0  0  0  0  0  0
   12.4174  -10.3238   22.6953 C   0  0  0  0  0  0
   12.0670  -11.5657   22.1295 C   0  0  0  0  0  0
   12.7979  -12.1049   21.0776 C   0  0  0  0  0  0
   11.7332   -9.7617   23.8900 C   0  0  0  0  0  0
   12.0160   -8.6098   24.3207 N   0  0  0  0  0  0
   10.8160  -10.6025   24.4558 N   0  0  0  0  0  0
   20.3933  -11.8348   18.4112 C   0  0  0  0  0  0
   18.2079  -16.2194   22.8534 N   0  0  0  0  0  0
   19.1326  -15.0239   25.5052 C   0  0  0  0  0  0
   19.9249  -15.7944   24.6443 C   0  0  0  0  0  0
   21.3170  -15.6238   24.6660 C   0  0  0  0  0  0
   21.8987  -14.6456   25.4741 C   0  0  0  0  0  0
   21.0909  -13.8570   26.2922 C   0  0  0  0  0  0
   19.7206  -14.0630   26.3209 C   0  0  0  0  0  0
   19.2999  -16.7903   23.6626 C   0  0  0  0  0  0
   16.8474  -16.2514   23.4286 C   0  0  0  0  0  0
   15.8503  -17.1616   22.6913 C   0  0  0  0  0  0
   14.5845  -16.6530   22.7766 O   0  0  0  0  0  0
   16.1545  -18.2046   22.1164 O   0  0  0  0  0  0
   23.2377  -14.4579   25.4497 F   0  0  0  0  0  0
   21.6154  -12.8915   27.0705 F   0  0  0  0  0  0
   20.5444  -14.8422   22.3519 H   0  0  0  0  0  0
   20.8922  -13.1236   20.7268 H   0  0  0  0  0  0
   16.5282  -15.4179   20.8881 H   0  0  0  0  0  0
   18.3555  -12.6527   17.0882 H   0  0  0  0  0  0
   18.0155  -11.0533   17.4577 H   0  0  0  0  0  0
   16.5317  -11.5218   20.2121 H   0  0  0  0  0  0
   15.9054  -10.6530   18.8299 H   0  0  0  0  0  0
   15.6418  -11.9063   16.4666 H   0  0  0  0  0  0
   16.2705  -13.5531   16.3727 H   0  0  0  0  0  0
   14.8026  -13.2303   17.2668 H   0  0  0  0  0  0
   15.0856   -9.6168   20.7225 H   0  0  0  0  0  0
   13.7951   -8.6612   22.5034 H   0  0  0  0  0  0
   11.2407  -12.1516   22.5069 H   0  0  0  0  0  0
   12.5266  -13.0707   20.6764 H   0  0  0  0  0  0
   11.4585   -8.3813   25.1281 H   0  0  0  0  0  0
   10.1402  -10.2408   25.1238 H   0  0  0  0  0  0
   10.5340  -11.4425   23.9756 H   0  0  0  0  0  0
   21.0942  -12.6719   18.4092 H   0  0  0  0  0  0
   20.3655  -11.4518   17.3908 H   0  0  0  0  0  0
   20.7986  -11.0601   19.0634 H   0  0  0  0  0  0
   18.0612  -15.1377   25.5368 H   0  0  0  0  0  0
   21.9518  -16.2158   24.0230 H   0  0  0  0  0  0
   19.1316  -13.4552   26.9822 H   0  0  0  0  0  0
   20.0628  -17.1894   22.9917 H   0  0  0  0  0  0
   18.9255  -17.6414   24.2339 H   0  0  0  0  0  0
   16.8769  -16.6120   24.4568 H   0  0  0  0  0  0
   16.4571  -15.2363   23.4808 H   0  0  0  0  0  0
   14.5683  -15.8078   23.2486 H   0  0  0  0  0  0
  1 24  1  0  0  0
  1  2  2  0  0  0
  1  4  1  0  0  0
  2  3  1  0  0  0
  2 38  1  0  0  0
  3  6  2  0  0  0
  3 39  1  0  0  0
  4  5  2  0  0  0
  4 40  1  0  0  0
  5  6  1  0  0  0
  5 10  1  0  0  0
  6  7  1  0  0  0
  7  8  1  0  0  0
  7 23  1  0  0  0
  8  9  1  0  0  0
  8 41  1  0  0  0
  8 42  1  0  0  0
  9 10  1  0  0  0
  9 11  1  0  0  0
  9 13  1  0  0  0
 11 12  1  0  0  0
 11 43  1  0  0  0
 11 44  1  0  0  0
 12 14  1  0  0  0
 13 45  1  0  0  0
 13 46  1  0  0  0
 13 47  1  0  0  0
 14 19  1  0  0  0
 14 15  2  0  0  0
 15 16  1  0  0  0
 15 48  1  0  0  0
 16 17  2  0  0  0
 16 49  1  0  0  0
 17 18  1  0  0  0
 17 20  1  0  0  0
 18 19  2  0  0  0
 18 50  1  0  0  0
 19 51  1  0  0  0
 20 21  2  0  0  0
 20 22  1  0  0  0
 21 52  1  0  0  0
 22 53  1  0  0  0
 22 54  1  0  0  0
 23 55  1  0  0  0
 23 56  1  0  0  0
 23 57  1  0  0  0
 24 31  1  0  0  0
 24 32  1  0  0  0
 25 26  2  0  0  0
 25 30  1  0  0  0
 25 58  1  0  0  0
 26 27  1  0  0  0
 26 31  1  0  0  0
 27 28  2  0  0  0
 27 59  1  0  0  0
 28 29  1  0  0  0
 28 36  1  0  0  0
 29 30  2  0  0  0
 29 37  1  0  0  0
 30 60  1  0  0  0
 31 61  1  0  0  0
 31 62  1  0  0  0
 32 33  1  0  0  0
 32 63  1  0  0  0
 32 64  1  0  0  0
 33 34  1  0  0  0
 33 35  2  0  0  0
 34 65  1  0  0  0
M  END
> <s_m_entry_id>
35311

> <s_m_entry_name>
dock_pv.161

> <s_m_Source_Path>
/home/csk/Desktop/cluster/DUD-E-result/thrb

> <s_m_Source_File>
dock_pv.maegz

> <i_m_Source_File_Index>
161

> <chembl_id>
CHEMBL1952408

> <chembl_pref_name>
None

> <i_lp_mmshare_version>
53161

> <r_lp_tautomer_probability>
1

> <s_lp_Force_Field>
OPLS_2005

> <r_lp_Energy>
26.42337

> <b_lp_Chiralities_Consistent>
1

> <s_lp_Variant>
CHEMBL204_lig4823-1

> <s_i_glide_gridfile>
glide-grid_1ype

> <i_i_glide_lignum>
6597

> <i_i_glide_rotatable_bonds>
10

> <r_i_docking_score>
-7.43267189912092

> <r_i_glide_ligand_efficiency>
-0.200883024300565

> <r_i_glide_ligand_efficiency_sa>
-0.669386802393369

> <r_i_glide_ligand_efficiency_ln>
-1.61197228836774

> <r_i_glide_gscore>
-7.43267189912092

> <r_i_glide_lipo>
-3.53313916500042

> <r_i_glide_hbond>
-0.146058773407705

> <r_i_glide_metal>
0

> <r_i_glide_rewards>
-0.58391132003149

> <r_i_glide_evdw>
-43.2736320495605

> <r_i_glide_ecoul>
-10.2235450744629

> <r_i_glide_erotb>
0.628816610846305

> <r_i_glide_esite>
-0.101165887880154

> <r_i_glide_emodel>
-73.3869464692588

> <r_i_glide_energy>
-53.4971771240234

> <r_i_glide_einternal>
6.19608640670776

> <i_i_glide_confnum>
15

> <i_i_glide_posenum>
169

> <r_i_glide_eff_state_penalty>
0

> <s_user_duplicate_titles>
CHEMBL204_lig4823

> <i_f3d_flags>
0

> <s_m_subgroup_title>
dock_pv

> <s_m_subgroupid>
dock_pv

> <b_m_subgroup_collapsed>
1

$$$$
CHEMBL204_lig2196
                    3D
 Schrodinger Suite 2021-1.
 50 51  0  0  1  0            999 V2000
   12.0836  -11.2334   22.3438 C   0  0  0  0  0  0
   22.9253  -13.9435   24.5675 C   0  0  0  0  0  0
   13.0484  -12.1565   21.6744 C   0  0  0  0  0  0
   14.2595  -11.6736   21.1435 C   0  0  0  0  0  0
   15.1859  -12.5184   20.5216 C   0  0  0  0  0  0
   15.9699  -12.3991   17.4463 C   0  0  0  0  0  0
   21.6268  -13.8259   23.8318 C   0  0  0  0  0  0
   16.5076  -11.9467   19.9936 C   0  0  2  0  0  0
   12.2280   -9.9821   22.2759 N   0  0  0  0  0  0
   24.0272  -13.8540   23.9608 N   0  0  0  0  0  0
   16.9619  -12.5139   18.6151 C   0  0  0  0  0  0
   14.9095  -11.7761   17.5256 O   0  0  0  0  0  0
   17.6373  -12.0634   21.0508 C   0  0  0  0  0  0
   20.3709  -13.9574   24.4562 C   0  0  0  0  0  0
   21.6259  -13.5691   22.4495 C   0  0  0  0  0  0
   11.0637  -11.8530   23.0234 N   0  0  0  0  0  0
   22.8161  -14.1559   25.9210 N   0  0  0  0  0  0
   19.2223  -13.6011   22.3573 C   0  0  0  0  0  0
   17.9427  -13.4996   21.5407 C   0  0  0  0  0  0
   20.4504  -13.4602   21.7187 C   0  0  0  0  0  0
   19.1848  -13.8529   23.7295 C   0  0  0  0  0  0
   16.4167  -13.0595   16.3645 O   0  0  0  0  0  0
   12.8030  -13.5368   21.5427 C   0  0  0  0  0  0
   14.8904  -13.8800   20.3991 C   0  0  0  0  0  0
   13.7050  -14.3880   20.9110 C   0  0  0  0  0  0
   15.6213  -13.1751   15.1960 C   0  0  0  0  0  0
   14.5005  -10.6230   21.2309 H   0  0  0  0  0  0
   16.3418  -10.8797   19.8236 H   0  0  0  0  0  0
   11.4977   -9.5084   22.7867 H   0  0  0  0  0  0
   24.8102  -13.9560   24.5899 H   0  0  0  0  0  0
   17.8735  -12.0047   18.3036 H   0  0  0  0  0  0
   17.2173  -13.5677   18.7132 H   0  0  0  0  0  0
   18.5417  -11.6120   20.6421 H   0  0  0  0  0  0
   17.3842  -11.4566   21.9188 H   0  0  0  0  0  0
   20.2881  -14.1469   25.5136 H   0  0  0  0  0  0
   22.5569  -13.4472   21.9186 H   0  0  0  0  0  0
   10.2961  -11.3119   23.4052 H   0  0  0  0  0  0
   11.0154  -12.8602   23.1217 H   0  0  0  0  0  0
   23.6499  -14.2538   26.4880 H   0  0  0  0  0  0
   21.9156  -14.1896   26.3712 H   0  0  0  0  0  0
   17.1054  -13.8810   22.1279 H   0  0  0  0  0  0
   18.0460  -14.1781   20.6928 H   0  0  0  0  0  0
   20.4993  -13.2673   20.6569 H   0  0  0  0  0  0
   18.2386  -13.9691   24.2386 H   0  0  0  0  0  0
   11.8946  -13.9769   21.9197 H   0  0  0  0  0  0
   15.5858  -14.5546   19.9226 H   0  0  0  0  0  0
   13.4847  -15.4416   20.8225 H   0  0  0  0  0  0
   16.2269  -13.5539   14.3713 H   0  0  0  0  0  0
   14.8149  -13.8841   15.3679 H   0  0  0  0  0  0
   15.2030  -12.2145   14.8917 H   0  0  0  0  0  0
  1  3  1  0  0  0
  1  9  2  0  0  0
  1 16  1  0  0  0
  2  7  1  0  0  0
  2 10  2  0  0  0
  2 17  1  0  0  0
  3  4  2  0  0  0
  3 23  1  0  0  0
  4  5  1  0  0  0
  4 27  1  0  0  0
  5  8  1  0  0  0
  5 24  2  0  0  0
  6 11  1  0  0  0
  6 12  2  0  0  0
  6 22  1  0  0  0
  7 14  2  0  0  0
  7 15  1  0  0  0
  8 11  1  0  0  0
  8 13  1  0  0  0
  8 28  1  0  0  0
  9 29  1  0  0  0
 10 30  1  0  0  0
 11 31  1  0  0  0
 11 32  1  0  0  0
 13 19  1  0  0  0
 13 33  1  0  0  0
 13 34  1  0  0  0
 14 21  1  0  0  0
 14 35  1  0  0  0
 15 20  2  0  0  0
 15 36  1  0  0  0
 16 37  1  0  0  0
 16 38  1  0  0  0
 17 39  1  0  0  0
 17 40  1  0  0  0
 18 19  1  0  0  0
 18 20  1  0  0  0
 18 21  2  0  0  0
 19 41  1  0  0  0
 19 42  1  0  0  0
 20 43  1  0  0  0
 21 44  1  0  0  0
 22 26  1  0  0  0
 23 25  2  0  0  0
 23 45  1  0  0  0
 24 25  1  0  0  0
 24 46  1  0  0  0
 25 47  1  0  0  0
 26 48  1  0  0  0
 26 49  1  0  0  0
 26 50  1  0  0  0
M  END
> <s_m_entry_id>
35312

> <s_m_entry_name>
dock_pv.162

> <s_m_Source_Path>
/home/csk/Desktop/cluster/DUD-E-result/thrb

> <s_m_Source_File>
dock_pv.maegz

> <i_m_Source_File_Index>
162

> <chembl_id>
CHEMBL156702

> <chembl_pref_name>
None

> <i_lp_mmshare_version>
53161

> <r_lp_tautomer_probability>
1

> <s_lp_Force_Field>
OPLS_2005

> <r_lp_Energy>
2.200576

> <b_lp_Chiralities_Consistent>
1

> <s_lp_Variant>
CHEMBL204_lig2196-1

> <s_i_glide_gridfile>
glide-grid_1ype

> <i_i_glide_lignum>
3224

> <i_i_glide_rotatable_bonds>
9

> <r_i_docking_score>
-7.43218479139713

> <r_i_glide_ligand_efficiency>
-0.285853261207582

> <r_i_glide_ligand_efficiency_sa>
-0.846839161549192

> <r_i_glide_ligand_efficiency_ln>
-1.74542421127222

> <r_i_glide_gscore>
-7.43218479139713

> <r_i_glide_lipo>
-2.24715542668902

> <r_i_glide_hbond>
-0.611914117592136

> <r_i_glide_metal>
0

> <r_i_glide_rewards>
-1.89650589094668

> <r_i_glide_evdw>
-41.7114601135254

> <r_i_glide_ecoul>
-9.93270111083984

> <r_i_glide_erotb>
0.921918902175982

> <r_i_glide_esite>
-0.0230500860430266

> <r_i_glide_emodel>
-76.375971961832

> <r_i_glide_energy>
-51.6441612243652

> <r_i_glide_einternal>
2.73500442504883

> <i_i_glide_confnum>
60

> <i_i_glide_posenum>
310

> <r_i_glide_eff_state_penalty>
0

> <s_user_duplicate_titles>
CHEMBL204_lig2196

> <i_f3d_flags>
0

> <s_m_subgroup_title>
dock_pv

> <s_m_subgroupid>
dock_pv

> <b_m_subgroup_collapsed>
1

$$$$
CHEMBL204_lig1903
                    3D
 Schrodinger Suite 2021-1.
 58 61  0  0  1  0            999 V2000
   15.7202  -13.5499   21.5234 C   0  0  0  0  0  0
   14.4287  -13.3963   21.0459 N   0  0  0  0  0  0
   16.4369  -14.6434   21.0944 N   0  0  0  0  0  0
   13.8493  -12.1291   21.2966 C   0  0  0  0  0  0
   11.2663  -10.6992   23.7092 C   0  0  0  0  0  0
   11.0872   -9.6156   24.3210 N   0  0  0  0  0  0
   20.3462  -16.1456   22.4367 N   0  0  2  0  0  0
   17.7111  -14.9572   21.7863 C   0  0  0  0  0  0
   12.8111  -12.0373   22.2300 C   0  0  0  0  0  0
   12.3067  -10.7970   22.6567 C   0  0  0  0  0  0
   16.2205  -12.7369   22.3196 O   0  0  0  0  0  0
   20.9443  -14.7339   25.5157 S   0  0  0  0  0  0
   21.9604  -15.2443   24.1828 C   0  0  0  0  0  0
   17.8508  -16.3955   22.3155 C   0  0  0  0  0  0
   18.9871  -14.5616   21.0188 C   0  0  0  0  0  0
   22.0227  -13.4535   25.9301 C   0  0  0  0  0  0
   23.1163  -14.4603   24.1677 C   0  0  0  0  0  0
   21.5770  -16.3646   23.2165 C   0  0  0  0  0  0
   23.1488  -13.4531   25.1300 C   0  0  0  0  0  0
   20.2699  -14.8033   21.8336 C   0  0  0  0  0  0
   19.1351  -16.5901   23.1411 C   0  0  0  0  0  0
   10.5485  -11.8529   23.9210 N   0  0  0  0  0  0
   13.4900  -14.4663   20.6050 C   0  0  0  0  0  0
   16.0854  -15.4864   19.9423 C   0  0  0  0  0  0
   14.3613  -10.9595   20.7206 C   0  0  0  0  0  0
   12.8603   -9.6402   22.0782 C   0  0  0  0  0  0
   13.8696   -9.7195   21.1210 C   0  0  0  0  0  0
   13.8041  -15.9147   21.0148 C   0  0  0  0  0  0
   14.9754  -16.5058   20.2281 C   0  0  0  0  0  0
   10.2965   -9.6922   24.9572 H   0  0  0  0  0  0
   17.7480  -14.3659   22.7022 H   0  0  0  0  0  0
   12.4592  -12.9491   22.6936 H   0  0  0  0  0  0
   16.9959  -16.6250   22.9524 H   0  0  0  0  0  0
   17.8177  -17.1282   21.5092 H   0  0  0  0  0  0
   19.0624  -15.0755   20.0615 H   0  0  0  0  0  0
   18.9414  -13.4992   20.7733 H   0  0  0  0  0  0
   21.7785  -12.7833   26.7418 H   0  0  0  0  0  0
   23.9151  -14.6011   23.4571 H   0  0  0  0  0  0
   21.5074  -17.3124   23.7533 H   0  0  0  0  0  0
   22.3830  -16.5150   22.4964 H   0  0  0  0  0  0
   23.9649  -12.7526   25.2370 H   0  0  0  0  0  0
   20.3361  -14.0414   22.6118 H   0  0  0  0  0  0
   21.1466  -14.6647   21.1991 H   0  0  0  0  0  0
   19.0356  -16.0642   24.0877 H   0  0  0  0  0  0
   19.2478  -17.6437   23.3933 H   0  0  0  0  0  0
    9.7396  -11.8203   24.5426 H   0  0  0  0  0  0
   10.7933  -12.7514   23.5186 H   0  0  0  0  0  0
   12.4750  -14.2406   20.9319 H   0  0  0  0  0  0
   13.4413  -14.4141   19.5146 H   0  0  0  0  0  0
   15.7353  -14.8128   19.1577 H   0  0  0  0  0  0
   16.9751  -15.9501   19.5220 H   0  0  0  0  0  0
   15.1746  -11.0088   20.0112 H   0  0  0  0  0  0
   12.5207   -8.6566   22.3797 H   0  0  0  0  0  0
   14.2948   -8.8123   20.7212 H   0  0  0  0  0  0
   13.9968  -15.9551   22.0878 H   0  0  0  0  0  0
   12.9247  -16.5382   20.8429 H   0  0  0  0  0  0
   14.6265  -16.9205   19.2804 H   0  0  0  0  0  0
   15.3880  -17.3524   20.7788 H   0  0  0  0  0  0
  1  2  1  0  0  0
  1  3  1  0  0  0
  1 11  2  0  0  0
  2  4  1  0  0  0
  2 23  1  0  0  0
  3  8  1  0  0  0
  3 24  1  0  0  0
  4  9  2  0  0  0
  4 25  1  0  0  0
  5 10  1  0  0  0
  5  6  2  0  0  0
  5 22  1  0  0  0
  6 30  1  0  0  0
  7 20  1  0  0  0
  7 18  1  0  0  0
  7 21  1  0  0  0
  8 14  1  0  0  0
  8 15  1  0  0  0
  8 31  1  0  0  0
  9 10  1  0  0  0
  9 32  1  0  0  0
 10 26  2  0  0  0
 12 13  1  0  0  0
 12 16  1  0  0  0
 13 18  1  0  0  0
 13 17  2  0  0  0
 14 21  1  0  0  0
 14 33  1  0  0  0
 14 34  1  0  0  0
 15 20  1  0  0  0
 15 35  1  0  0  0
 15 36  1  0  0  0
 16 19  2  0  0  0
 16 37  1  0  0  0
 17 19  1  0  0  0
 17 38  1  0  0  0
 18 39  1  0  0  0
 18 40  1  0  0  0
 19 41  1  0  0  0
 20 42  1  0  0  0
 20 43  1  0  0  0
 21 44  1  0  0  0
 21 45  1  0  0  0
 22 46  1  0  0  0
 22 47  1  0  0  0
 23 28  1  0  0  0
 23 48  1  0  0  0
 23 49  1  0  0  0
 24 29  1  0  0  0
 24 50  1  0  0  0
 24 51  1  0  0  0
 25 27  2  0  0  0
 25 52  1  0  0  0
 26 27  1  0  0  0
 26 53  1  0  0  0
 27 54  1  0  0  0
 28 29  1  0  0  0
 28 55  1  0  0  0
 28 56  1  0  0  0
 29 57  1  0  0  0
 29 58  1  0  0  0
M  END
> <s_m_entry_id>
35313

> <s_m_entry_name>
dock_pv.163

> <s_m_Source_Path>
/home/csk/Desktop/cluster/DUD-E-result/thrb

> <s_m_Source_File>
dock_pv.maegz

> <i_m_Source_File_Index>
163

> <chembl_id>
CHEMBL102345

> <chembl_pref_name>
None

> <i_lp_mmshare_version>
53161

> <r_lp_tautomer_probability>
1

> <s_lp_Force_Field>
OPLS_2005

> <r_lp_Energy>
69.797699

> <b_lp_Chiralities_Consistent>
1

> <s_lp_Variant>
CHEMBL204_lig1903-1

> <s_i_glide_gridfile>
glide-grid_1ype

> <i_i_glide_lignum>
2845

> <i_i_glide_rotatable_bonds>
5

> <r_i_docking_score>
-7.43188302299196

> <r_i_glide_ligand_efficiency>
-0.256271828379033

> <r_i_glide_ligand_efficiency_sa>
-0.787348249394435

> <r_i_glide_ligand_efficiency_ln>
-1.70171275597215

> <r_i_glide_gscore>
-7.43188302299196

> <r_i_glide_lipo>
-2.93774971032438

> <r_i_glide_hbond>
-0.934790676907152

> <r_i_glide_metal>
0

> <r_i_glide_rewards>
-0.856793025116865

> <r_i_glide_evdw>
-37.5570983886719

> <r_i_glide_ecoul>
-7.81361865997314

> <r_i_glide_erotb>
0.465465669822509

> <r_i_glide_esite>
-0.118117562036511

> <r_i_glide_emodel>
-62.8250424291742

> <r_i_glide_energy>
-45.370717048645

> <r_i_glide_einternal>
7.01044225692749

> <i_i_glide_confnum>
90

> <i_i_glide_posenum>
250

> <r_i_glide_eff_state_penalty>
0

> <s_user_duplicate_titles>
CHEMBL204_lig1903

> <i_f3d_flags>
0

> <s_m_subgroup_title>
dock_pv

> <s_m_subgroupid>
dock_pv

> <b_m_subgroup_collapsed>
1

$$$$
CHEMBL204_lig2233
                    3D
 Schrodinger Suite 2021-1.
 67 69  0  0  1  0            999 V2000
   18.2609  -13.9384   21.4600 N   0  0  0  0  0  0
   18.9430  -15.1476   21.1135 N   0  0  0  0  0  0
   17.0448  -14.2010   21.9736 C   0  0  0  0  0  0
   18.1665  -16.2270   21.3344 C   0  0  0  0  0  0
   16.8928  -15.7186   21.9959 C   0  0  1  0  0  0
   18.6765  -12.7094   20.7167 C   0  0  2  0  0  0
   18.0455  -12.5485   19.3134 C   0  0  0  0  0  0
   20.4333  -15.1240   21.1686 C   0  0  1  0  0  0
   16.2296  -11.4516   16.9383 C   0  0  0  0  0  0
   20.1888  -12.6531   20.6972 C   0  0  0  0  0  0
   16.7292  -12.2809   19.2606 N   0  0  0  0  0  0
   20.9558  -13.7260   20.8828 C   0  0  0  0  0  0
   15.3053  -11.4822   15.6795 C   0  0  0  0  0  0
   15.8168  -12.3747   18.1002 C   0  0  1  0  0  0
   16.2051  -13.3680   22.3197 O   0  0  0  0  0  0
   18.4565  -17.4056   21.1204 O   0  0  0  0  0  0
   16.8161  -16.2019   23.3740 N   0  0  0  0  0  0
   21.0072  -15.6802   22.5059 C   0  0  0  0  0  0
   17.1956  -10.6873   16.9127 O   0  0  0  0  0  0
   18.7375  -12.6528   18.3008 O   0  0  0  0  0  0
   14.4161  -10.6524   15.5129 O   0  0  0  0  0  0
   15.6050  -16.1838   21.2422 C   0  0  0  0  0  0
   15.6168  -12.4764   14.8455 N   0  0  0  0  0  0
   20.5075  -15.0343   23.7990 C   0  0  0  0  0  0
   12.7233   -9.7173   20.3211 N   0  0  0  0  0  0
   14.3502  -12.1129   18.5702 C   0  0  0  0  0  0
   12.4008  -10.8584   21.1587 C   0  0  0  0  0  0
   20.8637  -13.7203   24.1210 C   0  0  0  0  0  0
   19.7249  -15.7795   24.6856 C   0  0  0  0  0  0
   15.5897  -16.0342   19.7038 C   0  0  0  0  0  0
   13.9703  -12.5554   20.0037 C   0  0  0  0  0  0
   12.5307  -12.1970   20.4019 C   0  0  0  0  0  0
   19.2849  -15.2103   25.8778 C   0  0  0  0  0  0
   20.4241  -13.1493   25.3126 C   0  0  0  0  0  0
   19.6402  -13.8994   26.1830 C   0  0  0  0  0  0
   18.3092  -11.8565   21.2904 H   0  0  0  0  0  0
   20.7763  -15.7669   20.3543 H   0  0  0  0  0  0
   20.6778  -11.7127   20.4850 H   0  0  0  0  0  0
   16.2493  -12.1818   20.1451 H   0  0  0  0  0  0
   22.0159  -13.5709   20.8373 H   0  0  0  0  0  0
   15.8826  -13.4071   17.7484 H   0  0  0  0  0  0
   17.6405  -15.9116   23.8826 H   0  0  0  0  0  0
   16.0443  -15.7135   23.8241 H   0  0  0  0  0  0
   22.0936  -15.6013   22.5001 H   0  0  0  0  0  0
   20.8225  -16.7552   22.5482 H   0  0  0  0  0  0
   14.7381  -15.6604   21.6516 H   0  0  0  0  0  0
   15.4235  -17.2366   21.4679 H   0  0  0  0  0  0
   15.0806  -12.5925   13.9977 H   0  0  0  0  0  0
   16.3628  -13.1229   15.0516 H   0  0  0  0  0  0
   11.9814   -9.6094   19.6361 H   0  0  0  0  0  0
   12.6890   -8.8825   20.8907 H   0  0  0  0  0  0
   13.6712  -12.6228   17.8835 H   0  0  0  0  0  0
   14.1215  -11.0516   18.4849 H   0  0  0  0  0  0
   11.3821  -10.7370   21.5291 H   0  0  0  0  0  0
   13.0518  -10.8569   22.0339 H   0  0  0  0  0  0
   21.4852  -13.1361   23.4597 H   0  0  0  0  0  0
   19.4618  -16.8029   24.4559 H   0  0  0  0  0  0
   14.6021  -16.2598   19.2998 H   0  0  0  0  0  0
   15.8465  -15.0231   19.4005 H   0  0  0  0  0  0
   16.2961  -16.7142   19.2258 H   0  0  0  0  0  0
   14.6356  -12.1081   20.7404 H   0  0  0  0  0  0
   14.0999  -13.6330   20.0862 H   0  0  0  0  0  0
   11.8866  -12.2358   19.5262 H   0  0  0  0  0  0
   12.1605  -12.9817   21.0643 H   0  0  0  0  0  0
   18.6843  -15.7816   26.5684 H   0  0  0  0  0  0
   20.6952  -12.1349   25.5657 H   0  0  0  0  0  0
   19.3095  -13.4605   27.1125 H   0  0  0  0  0  0
  1  2  1  0  0  0
  1  3  1  0  0  0
  1  6  1  0  0  0
  2  4  1  0  0  0
  2  8  1  0  0  0
  3  5  1  0  0  0
  3 15  2  0  0  0
  4 16  2  0  0  0
  4  5  1  0  0  0
  5 17  1  0  0  0
  5 22  1  0  0  0
  6  7  1  0  0  0
  6 10  1  0  0  0
  6 36  1  0  0  0
  7 11  1  0  0  0
  7 20  2  0  0  0
  8 18  1  0  0  0
  8 12  1  0  0  0
  8 37  1  0  0  0
  9 14  1  0  0  0
  9 13  1  0  0  0
  9 19  2  0  0  0
 10 12  2  0  0  0
 10 38  1  0  0  0
 11 14  1  0  0  0
 11 39  1  0  0  0
 12 40  1  0  0  0
 13 21  2  0  0  0
 13 23  1  0  0  0
 14 26  1  0  0  0
 14 41  1  0  0  0
 17 42  1  0  0  0
 17 43  1  0  0  0
 18 24  1  0  0  0
 18 44  1  0  0  0
 18 45  1  0  0  0
 22 30  1  0  0  0
 22 46  1  0  0  0
 22 47  1  0  0  0
 23 48  1  0  0  0
 23 49  1  0  0  0
 24 28  2  0  0  0
 24 29  1  0  0  0
 25 27  1  0  0  0
 25 50  1  0  0  0
 25 51  1  0  0  0
 26 31  1  0  0  0
 26 52  1  0  0  0
 26 53  1  0  0  0
 27 32  1  0  0  0
 27 54  1  0  0  0
 27 55  1  0  0  0
 28 34  1  0  0  0
 28 56  1  0  0  0
 29 33  2  0  0  0
 29 57  1  0  0  0
 30 58  1  0  0  0
 30 59  1  0  0  0
 30 60  1  0  0  0
 31 32  1  0  0  0
 31 61  1  0  0  0
 31 62  1  0  0  0
 32 63  1  0  0  0
 32 64  1  0  0  0
 33 35  1  0  0  0
 33 65  1  0  0  0
 34 35  2  0  0  0
 34 66  1  0  0  0
 35 67  1  0  0  0
M  END
> <s_m_entry_id>
35314

> <s_m_entry_name>
dock_pv.164

> <s_m_Source_Path>
/home/csk/Desktop/cluster/DUD-E-result/thrb

> <s_m_Source_File>
dock_pv.maegz

> <i_m_Source_File_Index>
164

> <chembl_id>
CHEMBL307727

> <chembl_pref_name>
None

> <i_lp_mmshare_version>
53161

> <r_lp_tautomer_probability>
0.99990000499975

> <s_lp_Force_Field>
OPLS_2005

> <r_lp_Energy>
17.037056

> <b_lp_Chiralities_Consistent>
1

> <s_lp_Variant>
CHEMBL204_lig2233-9

> <s_i_glide_gridfile>
glide-grid_1ype

> <i_i_glide_lignum>
3292

> <i_i_glide_rotatable_bonds>
12

> <r_i_docking_score>
-7.4272628755223

> <r_i_glide_ligand_efficiency>
-0.212207510729209

> <r_i_glide_ligand_efficiency_sa>
-0.694144838292656

> <r_i_glide_ligand_efficiency_ln>
-1.63044904039537

> <r_i_glide_gscore>
-7.4272628755223

> <r_i_glide_lipo>
-2.53768360072847

> <r_i_glide_hbond>
-0.959837814524394

> <r_i_glide_metal>
0

> <r_i_glide_rewards>
-0.878646761600762

> <r_i_glide_evdw>
-40.2103652954102

> <r_i_glide_ecoul>
-11.9650840759277

> <r_i_glide_erotb>
0.778487203880608

> <r_i_glide_esite>
-0.0243010263896152

> <r_i_glide_emodel>
-69.5773427004928

> <r_i_glide_energy>
-52.1754493713379

> <r_i_glide_einternal>
11.9419326782227

> <i_i_glide_confnum>
175

> <i_i_glide_posenum>
386

> <r_i_glide_eff_state_penalty>
0

> <s_user_duplicate_titles>
CHEMBL204_lig2233

> <i_f3d_flags>
0

> <s_m_subgroup_title>
dock_pv

> <s_m_subgroupid>
dock_pv

> <b_m_subgroup_collapsed>
1

$$$$
CHEMBL204_lig3864
                    3D
 Schrodinger Suite 2021-1.
 59 62  0  0  1  0            999 V2000
   18.4487  -15.7334   22.5484 N   0  0  0  0  0  0
   18.9942  -13.8208   21.7570 N   0  0  0  0  0  0
   18.2386  -14.4101   22.6927 C   0  0  0  0  0  0
   19.3269  -15.9887   21.5609 C   0  0  0  0  0  0
   19.5207  -14.8160   20.9343 N   0  0  0  0  0  0
   17.4346  -16.7734   22.9005 C   0  0  1  0  0  0
   18.7776  -12.4701   21.1496 C   0  0  2  0  0  0
   17.4092  -12.2694   20.4747 C   0  0  0  0  0  0
   11.9385  -10.7440   21.4655 N   0  0  0  0  0  0
   17.4240  -17.0587   24.4216 C   0  0  0  0  0  0
   16.0160  -16.5338   22.3270 C   0  0  0  0  0  0
   13.0526  -10.3879   20.7927 C   0  0  0  0  0  0
   17.5211  -13.8539   23.5210 O   0  0  0  0  0  0
   19.8807  -17.0625   21.3172 O   0  0  0  0  0  0
   16.8032  -11.0974   20.7208 N   0  0  0  0  0  0
   14.2419  -11.1479   20.8319 C   0  0  0  0  0  0
   11.9423  -11.9098   22.1333 C   0  0  0  0  0  0
   19.9067  -12.1514   20.1776 C   0  0  0  0  0  0
   15.5262  -10.6527   20.1721 C   0  0  0  0  0  0
   15.9602  -16.5325   20.5085 S   0  0  0  0  0  0
   20.8162  -13.0532   19.7964 C   0  0  0  0  0  0
   20.8259  -14.4750   20.3263 C   0  0  0  0  0  0
   16.9339  -13.1395   19.7460 O   0  0  0  0  0  0
   17.5592  -18.1775   24.8682 O   0  0  0  0  0  0
   14.2080  -12.3609   21.5359 C   0  0  0  0  0  0
   10.7706  -12.2530   22.7701 N   0  0  0  0  0  0
   13.0407  -12.7567   22.1817 C   0  0  0  0  0  0
   17.2161  -15.9389   25.1731 O   0  0  0  0  0  0
   14.2930  -16.2855   19.9752 C   0  0  0  0  0  0
   12.8444   -9.1453   19.9433 C   0  0  0  0  0  0
   13.2871  -15.9501   20.8830 C   0  0  0  0  0  0
   14.0006  -16.4230   18.6174 C   0  0  0  0  0  0
   12.6973  -16.2336   18.1655 C   0  0  0  0  0  0
   11.9912  -15.7422   20.4260 C   0  0  0  0  0  0
   11.6978  -15.8889   19.0723 C   0  0  0  0  0  0
   17.7614  -17.7219   22.4674 H   0  0  0  0  0  0
   18.8160  -11.7581   21.9758 H   0  0  0  0  0  0
   15.6151  -15.5898   22.6952 H   0  0  0  0  0  0
   15.3336  -17.3126   22.6711 H   0  0  0  0  0  0
   17.2422  -10.4534   21.3664 H   0  0  0  0  0  0
   19.9908  -11.1494   19.7834 H   0  0  0  0  0  0
   15.5611   -9.5743   20.3211 H   0  0  0  0  0  0
   15.4791  -10.8670   19.1034 H   0  0  0  0  0  0
   21.6003  -12.7435   19.1188 H   0  0  0  0  0  0
   21.6158  -14.5917   21.0677 H   0  0  0  0  0  0
   21.0396  -15.1773   19.5210 H   0  0  0  0  0  0
   15.0684  -13.0079   21.5986 H   0  0  0  0  0  0
   10.6791  -13.2008   23.1486 H   0  0  0  0  0  0
    9.9667  -11.6307   22.7205 H   0  0  0  0  0  0
   12.9989  -13.6886   22.7242 H   0  0  0  0  0  0
   17.1161  -15.1387   24.6376 H   0  0  0  0  0  0
   12.8159   -9.4197   18.8898 H   0  0  0  0  0  0
   11.8964   -8.6524   20.1673 H   0  0  0  0  0  0
   13.6228   -8.4113   20.1095 H   0  0  0  0  0  0
   13.4915  -15.8307   21.9346 H   0  0  0  0  0  0
   14.7787  -16.6792   17.9130 H   0  0  0  0  0  0
   12.4637  -16.3388   17.1153 H   0  0  0  0  0  0
   11.2147  -15.4613   21.1212 H   0  0  0  0  0  0
   10.6880  -15.7299   18.7224 H   0  0  0  0  0  0
  1  3  1  0  0  0
  1  4  1  0  0  0
  1  6  1  0  0  0
  2  3  1  0  0  0
  2  7  1  0  0  0
  2  5  1  0  0  0
  3 13  2  0  0  0
  4  5  1  0  0  0
  4 14  2  0  0  0
  5 22  1  0  0  0
  6 10  1  0  0  0
  6 11  1  0  0  0
  6 36  1  0  0  0
  7  8  1  0  0  0
  7 18  1  0  0  0
  7 37  1  0  0  0
  8 15  1  0  0  0
  8 23  2  0  0  0
  9 12  1  0  0  0
  9 17  2  0  0  0
 10 24  2  0  0  0
 10 28  1  0  0  0
 11 20  1  0  0  0
 11 38  1  0  0  0
 11 39  1  0  0  0
 12 16  2  0  0  0
 12 30  1  0  0  0
 15 19  1  0  0  0
 15 40  1  0  0  0
 16 19  1  0  0  0
 16 25  1  0  0  0
 17 27  1  0  0  0
 17 26  1  0  0  0
 18 21  2  0  0  0
 18 41  1  0  0  0
 19 42  1  0  0  0
 19 43  1  0  0  0
 20 29  1  0  0  0
 21 22  1  0  0  0
 21 44  1  0  0  0
 22 45  1  0  0  0
 22 46  1  0  0  0
 25 27  2  0  0  0
 25 47  1  0  0  0
 26 48  1  0  0  0
 26 49  1  0  0  0
 27 50  1  0  0  0
 28 51  1  0  0  0
 29 31  2  0  0  0
 29 32  1  0  0  0
 30 52  1  0  0  0
 30 53  1  0  0  0
 30 54  1  0  0  0
 31 34  1  0  0  0
 31 55  1  0  0  0
 32 33  2  0  0  0
 32 56  1  0  0  0
 33 35  1  0  0  0
 33 57  1  0  0  0
 34 35  2  0  0  0
 34 58  1  0  0  0
 35 59  1  0  0  0
M  END
> <s_m_entry_id>
35315

> <s_m_entry_name>
dock_pv.165

> <s_m_Source_Path>
/home/csk/Desktop/cluster/DUD-E-result/thrb

> <s_m_Source_File>
dock_pv.maegz

> <i_m_Source_File_Index>
165

> <chembl_id>
CHEMBL284129

> <chembl_pref_name>
None

> <i_lp_mmshare_version>
53161

> <r_lp_tautomer_probability>
0.999999772200052

> <s_lp_Force_Field>
OPLS_2005

> <r_lp_Energy>
13.354773

> <b_lp_Chiralities_Consistent>
1

> <s_lp_Variant>
CHEMBL204_lig3864-2

> <s_i_glide_gridfile>
glide-grid_1ype

> <i_i_glide_lignum>
5322

> <i_i_glide_rotatable_bonds>
10

> <r_i_docking_score>
-7.42715669704208

> <r_i_glide_ligand_efficiency>
-0.212204477058345

> <r_i_glide_ligand_efficiency_sa>
-0.69413491495411

> <r_i_glide_ligand_efficiency_ln>
-1.63042573186245

> <r_i_glide_gscore>
-7.42715669704208

> <r_i_glide_lipo>
-2.24112683588737

> <r_i_glide_hbond>
-0.745273420171126

> <r_i_glide_metal>
0

> <r_i_glide_rewards>
-0.966807644768177

> <r_i_glide_evdw>
-41.1063003540039

> <r_i_glide_ecoul>
-13.8273801803589

> <r_i_glide_erotb>
0.661702058882621

> <r_i_glide_esite>
-0.00622881034399404

> <r_i_glide_emodel>
-78.5114354189372

> <r_i_glide_energy>
-54.9336805343628

> <r_i_glide_einternal>
3.72280550003052

> <i_i_glide_confnum>
68

> <i_i_glide_posenum>
330

> <r_i_glide_eff_state_penalty>
0

> <s_user_duplicate_titles>
CHEMBL204_lig3864

> <i_f3d_flags>
0

> <s_m_subgroup_title>
dock_pv

> <s_m_subgroupid>
dock_pv

> <b_m_subgroup_collapsed>
1

$$$$
CHEMBL204_lig4084
                    3D
 Schrodinger Suite 2021-1.
 67 70  0  0  1  0            999 V2000
   15.7884  -12.6810   19.1861 C   0  0  1  0  0  0
   16.5410  -12.3769   17.8722 C   0  0  0  0  0  0
   16.6923  -13.3151   20.2239 C   0  0  0  0  0  0
   11.2238  -10.7697   23.7005 C   0  0  0  0  0  0
   15.1600  -11.4530   19.6389 N   0  0  0  0  0  0
   16.7460  -14.7080   20.3216 C   0  0  0  0  0  0
   16.2417  -13.1707   16.8299 N   0  0  0  0  0  0
   17.5101  -15.3432   21.3145 C   0  0  0  0  0  0
   18.2272  -14.5619   22.2342 C   0  0  0  0  0  0
   12.2345  -10.9708   22.6348 C   0  0  0  0  0  0
   11.1570   -9.6794   24.3211 N   0  0  0  0  0  0
   18.9163  -15.2320   23.2287 O   0  0  0  0  0  0
   17.4624  -12.5486   21.1091 C   0  0  0  0  0  0
   17.3551  -11.4532   17.8164 O   0  0  0  0  0  0
   18.2202  -13.1642   22.1019 C   0  0  0  0  0  0
   12.8793   -9.8658   22.0519 C   0  0  0  0  0  0
   12.6012  -12.2529   22.1869 C   0  0  0  0  0  0
   14.1897  -11.3115   20.6382 C   0  0  0  0  0  0
   10.4161  -11.8529   23.9211 N   0  0  0  0  0  0
   16.8035  -13.0505   15.4854 C   0  0  0  0  0  0
   19.2483  -14.5703   24.4514 C   0  0  0  0  0  0
   13.8548  -10.0329   21.0763 C   0  0  0  0  0  0
   13.5612  -12.4227   21.1981 C   0  0  0  0  0  0
   17.5852  -16.7179   21.4570 O   0  0  0  0  0  0
   15.9846  -12.1878   14.5366 C   0  0  0  0  0  0
   20.7444  -14.3022   24.5540 C   0  0  0  0  0  0
   16.8822  -17.5591   20.5482 C   0  0  0  0  0  0
   21.3651  -14.3934   25.8028 C   0  0  0  0  0  0
   21.4991  -13.9631   23.4253 C   0  0  0  0  0  0
   15.6162  -12.6954   13.2870 C   0  0  0  0  0  0
   15.5907  -10.8981   14.9089 C   0  0  0  0  0  0
   14.8363  -11.9301   12.4244 C   0  0  0  0  0  0
   14.8160  -10.1344   14.0441 C   0  0  0  0  0  0
   22.7334  -14.1702   25.9205 C   0  0  0  0  0  0
   22.8663  -13.7285   23.5488 C   0  0  0  0  0  0
   14.4359  -10.6533   12.8085 C   0  0  0  0  0  0
   23.4798  -13.8364   24.7934 C   0  0  0  0  0  0
   14.9703  -13.3727   18.9692 H   0  0  0  0  0  0
   15.5822  -10.5988   19.2945 H   0  0  0  0  0  0
   16.1671  -15.2910   19.6237 H   0  0  0  0  0  0
   15.5237  -13.8691   16.9470 H   0  0  0  0  0  0
   10.3728   -9.6998   24.9674 H   0  0  0  0  0  0
   17.4568  -11.4704   21.0439 H   0  0  0  0  0  0
   18.8043  -12.5406   22.7624 H   0  0  0  0  0  0
   12.6384   -8.8597   22.3685 H   0  0  0  0  0  0
   12.1578  -13.1435   22.6080 H   0  0  0  0  0  0
    9.6373  -11.7695   24.5749 H   0  0  0  0  0  0
   10.5898  -12.7662   23.5205 H   0  0  0  0  0  0
   16.8983  -14.0598   15.0786 H   0  0  0  0  0  0
   17.8061  -12.6208   15.5201 H   0  0  0  0  0  0
   18.6789  -13.6617   24.6456 H   0  0  0  0  0  0
   18.9624  -15.2621   25.2453 H   0  0  0  0  0  0
   14.3474   -9.1614   20.6745 H   0  0  0  0  0  0
   13.8100  -13.4252   20.8896 H   0  0  0  0  0  0
   17.0747  -18.6007   20.8043 H   0  0  0  0  0  0
   15.8051  -17.3985   20.6069 H   0  0  0  0  0  0
   17.2145  -17.4061   19.5209 H   0  0  0  0  0  0
   20.7935  -14.6487   26.6834 H   0  0  0  0  0  0
   21.0336  -13.8829   22.4536 H   0  0  0  0  0  0
   15.8996  -13.6933   12.9870 H   0  0  0  0  0  0
   15.8760  -10.4848   15.8641 H   0  0  0  0  0  0
   14.5359  -12.3303   11.4668 H   0  0  0  0  0  0
   14.5152   -9.1339   14.3196 H   0  0  0  0  0  0
   23.2160  -14.2527   26.8827 H   0  0  0  0  0  0
   23.4497  -13.4536   22.6842 H   0  0  0  0  0  0
   13.8386  -10.0533   12.1358 H   0  0  0  0  0  0
   24.5407  -13.6529   24.8912 H   0  0  0  0  0  0
  1  2  1  0  0  0
  1  3  1  0  0  0
  1  5  1  0  0  0
  1 38  1  0  0  0
  2  7  1  0  0  0
  2 14  2  0  0  0
  3  6  1  0  0  0
  3 13  2  0  0  0
  4 10  1  0  0  0
  4 11  2  0  0  0
  4 19  1  0  0  0
  5 18  1  0  0  0
  5 39  1  0  0  0
  6  8  2  0  0  0
  6 40  1  0  0  0
  7 20  1  0  0  0
  7 41  1  0  0  0
  8 24  1  0  0  0
  8  9  1  0  0  0
  9 15  2  0  0  0
  9 12  1  0  0  0
 10 17  1  0  0  0
 10 16  2  0  0  0
 11 42  1  0  0  0
 12 21  1  0  0  0
 13 15  1  0  0  0
 13 43  1  0  0  0
 15 44  1  0  0  0
 16 22  1  0  0  0
 16 45  1  0  0  0
 17 23  2  0  0  0
 17 46  1  0  0  0
 18 22  2  0  0  0
 18 23  1  0  0  0
 19 47  1  0  0  0
 19 48  1  0  0  0
 20 25  1  0  0  0
 20 49  1  0  0  0
 20 50  1  0  0  0
 21 26  1  0  0  0
 21 51  1  0  0  0
 21 52  1  0  0  0
 22 53  1  0  0  0
 23 54  1  0  0  0
 24 27  1  0  0  0
 25 30  1  0  0  0
 25 31  2  0  0  0
 26 28  2  0  0  0
 26 29  1  0  0  0
 27 55  1  0  0  0
 27 56  1  0  0  0
 27 57  1  0  0  0
 28 34  1  0  0  0
 28 58  1  0  0  0
 29 35  2  0  0  0
 29 59  1  0  0  0
 30 32  2  0  0  0
 30 60  1  0  0  0
 31 33  1  0  0  0
 31 61  1  0  0  0
 32 36  1  0  0  0
 32 62  1  0  0  0
 33 36  2  0  0  0
 33 63  1  0  0  0
 34 37  2  0  0  0
 34 64  1  0  0  0
 35 37  1  0  0  0
 35 65  1  0  0  0
 36 66  1  0  0  0
 37 67  1  0  0  0
M  END
> <s_m_entry_id>
35316

> <s_m_entry_name>
dock_pv.166

> <s_m_Source_Path>
/home/csk/Desktop/cluster/DUD-E-result/thrb

> <s_m_Source_File>
dock_pv.maegz

> <i_m_Source_File_Index>
166

> <chembl_id>
CHEMBL179270

> <chembl_pref_name>
None

> <i_lp_mmshare_version>
53161

> <r_lp_tautomer_probability>
1

> <s_lp_Force_Field>
OPLS_2005

> <r_lp_Energy>
22.597575

> <b_lp_Chiralities_Consistent>
1

> <s_lp_Variant>
CHEMBL204_lig4084-2

> <s_i_glide_gridfile>
glide-grid_1ype

> <i_i_glide_lignum>
5678

> <i_i_glide_rotatable_bonds>
12

> <r_i_docking_score>
-7.41851221980044

> <r_i_glide_ligand_efficiency>
-0.200500330264877

> <r_i_glide_ligand_efficiency_sa>
-0.668111580966687

> <r_i_glide_ligand_efficiency_ln>
-1.60890138587311

> <r_i_glide_gscore>
-7.41851221980044

> <r_i_glide_lipo>
-3.55192768536172

> <r_i_glide_hbond>
-0.711815551407491

> <r_i_glide_metal>
0

> <r_i_glide_rewards>
-0.132242746962129

> <r_i_glide_evdw>
-49.3419151306152

> <r_i_glide_ecoul>
-7.78033876419067

> <r_i_glide_erotb>
0.749816496721068

> <r_i_glide_esite>
-0.138196161630807

> <r_i_glide_emodel>
-78.6684966952655

> <r_i_glide_energy>
-57.1222538948059

> <r_i_glide_einternal>
8.65637874603271

> <i_i_glide_confnum>
2

> <i_i_glide_posenum>
293

> <r_i_glide_eff_state_penalty>
0

> <s_user_duplicate_titles>
CHEMBL204_lig4084

> <i_f3d_flags>
0

> <s_m_subgroup_title>
dock_pv

> <s_m_subgroupid>
dock_pv

> <b_m_subgroup_collapsed>
1

$$$$
CHEMBL204_lig4108
                    3D
 Schrodinger Suite 2021-1.
 65 69  0  0  1  0            999 V2000
   18.7022  -14.5556   23.3465 C   0  0  0  0  0  0
   18.3019  -13.4787   22.2689 C   0  0  0  0  0  0
   19.1603  -13.0592   21.2873 N   0  0  0  0  0  0
   19.0984  -15.8701   22.6946 C   0  0  0  0  0  0
   19.9498  -14.2182   24.1582 C   0  0  0  0  0  0
   20.3710  -16.2592   23.1155 C   0  0  0  0  0  0
   20.8982  -15.2370   24.0370 C   0  0  0  0  0  0
   18.8214  -12.0491   20.2450 C   0  0  2  0  0  0
   17.5310  -12.2982   19.4305 C   0  0  0  0  0  0
   16.4200  -11.6466   19.8141 N   0  0  0  0  0  0
   14.2758  -12.9249   19.9549 C   0  0  0  0  0  0
   17.1496  -13.0365   22.3195 O   0  0  0  0  0  0
   12.0590   -9.9464   22.9971 C   0  0  0  0  0  0
   13.1171  -12.6143   20.7032 C   0  0  0  0  0  0
   11.8618  -10.9452   22.1286 N   0  0  0  0  0  0
   15.1002  -11.8703   19.2122 C   0  0  0  0  0  0
   17.6160  -14.7728   24.2455 O   0  0  0  0  0  0
   17.5632  -13.0531   18.4607 O   0  0  0  0  0  0
   14.6734  -14.2647   19.8316 C   0  0  0  0  0  0
   12.6381  -11.1700   20.9052 C   0  0  0  0  0  0
   12.8870   -9.0531   22.8340 O   0  0  0  0  0  0
   12.4163  -13.6585   21.3232 C   0  0  0  0  0  0
   20.5491  -13.5053   21.1090 C   0  0  0  0  0  0
   13.9653  -15.2852   20.4598 C   0  0  0  0  0  0
   20.2203  -13.1228   24.9871 C   0  0  0  0  0  0
   18.3805  -16.6842   21.8109 C   0  0  0  0  0  0
   12.8312  -14.9811   21.2026 C   0  0  0  0  0  0
   14.4990  -16.9206   20.3233 Cl  0  0  0  0  0  0
   20.9385  -17.4444   22.6456 C   0  0  0  0  0  0
   22.1109  -15.1628   24.7272 C   0  0  0  0  0  0
   20.0594  -12.0365   19.3169 C   0  0  0  0  0  0
   21.2048  -12.5070   20.1698 C   0  0  0  0  0  0
   11.2161   -9.9757   24.2567 C   0  0  0  0  0  0
   18.9418  -17.8760   21.3509 C   0  0  0  0  0  0
   21.4233  -13.0531   25.6906 C   0  0  0  0  0  0
   22.3708  -14.0687   25.5552 C   0  0  0  0  0  0
   20.2214  -18.2521   21.7621 C   0  0  0  0  0  0
   18.7475  -11.0840   20.7498 H   0  0  0  0  0  0
   16.4542  -11.0818   20.6514 H   0  0  0  0  0  0
   11.0646  -11.5456   22.2862 H   0  0  0  0  0  0
   15.1942  -12.2118   18.1788 H   0  0  0  0  0  0
   14.5757  -10.9247   19.1286 H   0  0  0  0  0  0
   16.7825  -14.6518   23.7711 H   0  0  0  0  0  0
   15.5495  -14.5220   19.2550 H   0  0  0  0  0  0
   12.0206  -10.8817   20.0536 H   0  0  0  0  0  0
   13.4989  -10.5013   20.9052 H   0  0  0  0  0  0
   11.5385  -13.4529   21.9178 H   0  0  0  0  0  0
   20.5474  -14.5005   20.6646 H   0  0  0  0  0  0
   21.1313  -13.5299   22.0235 H   0  0  0  0  0  0
   19.5040  -12.3268   25.1134 H   0  0  0  0  0  0
   17.3903  -16.4046   21.4823 H   0  0  0  0  0  0
   12.2720  -15.7625   21.6928 H   0  0  0  0  0  0
   21.9271  -17.7469   22.9556 H   0  0  0  0  0  0
   22.8508  -15.9433   24.6326 H   0  0  0  0  0  0
   19.9630  -12.7406   18.4874 H   0  0  0  0  0  0
   20.2633  -11.0572   18.8881 H   0  0  0  0  0  0
   22.0148  -12.9347   19.5845 H   0  0  0  0  0  0
   21.6147  -11.6641   20.7215 H   0  0  0  0  0  0
   11.8703  -10.0711   25.1205 H   0  0  0  0  0  0
   10.5094  -10.8084   24.2649 H   0  0  0  0  0  0
   10.6466   -9.0530   24.3449 H   0  0  0  0  0  0
   18.3883  -18.5054   20.6701 H   0  0  0  0  0  0
   21.6180  -12.2075   26.3338 H   0  0  0  0  0  0
   23.3035  -14.0148   26.0980 H   0  0  0  0  0  0
   20.6591  -19.1685   21.3957 H   0  0  0  0  0  0
  1  2  1  0  0  0
  1  4  1  0  0  0
  1  5  1  0  0  0
  1 17  1  0  0  0
  2  3  1  0  0  0
  2 12  2  0  0  0
  3  8  1  0  0  0
  3 23  1  0  0  0
  4  6  2  0  0  0
  4 26  1  0  0  0
  5  7  2  0  0  0
  5 25  1  0  0  0
  6 29  1  0  0  0
  6  7  1  0  0  0
  7 30  1  0  0  0
  8  9  1  0  0  0
  8 31  1  0  0  0
  8 38  1  0  0  0
  9 10  1  0  0  0
  9 18  2  0  0  0
 10 16  1  0  0  0
 10 39  1  0  0  0
 11 16  1  0  0  0
 11 14  1  0  0  0
 11 19  2  0  0  0
 13 15  1  0  0  0
 13 21  2  0  0  0
 13 33  1  0  0  0
 14 20  1  0  0  0
 14 22  2  0  0  0
 15 20  1  0  0  0
 15 40  1  0  0  0
 16 41  1  0  0  0
 16 42  1  0  0  0
 17 43  1  0  0  0
 19 24  1  0  0  0
 19 44  1  0  0  0
 20 45  1  0  0  0
 20 46  1  0  0  0
 22 27  1  0  0  0
 22 47  1  0  0  0
 23 32  1  0  0  0
 23 48  1  0  0  0
 23 49  1  0  0  0
 24 27  2  0  0  0
 24 28  1  0  0  0
 25 35  2  0  0  0
 25 50  1  0  0  0
 26 34  2  0  0  0
 26 51  1  0  0  0
 27 52  1  0  0  0
 29 37  2  0  0  0
 29 53  1  0  0  0
 30 36  2  0  0  0
 30 54  1  0  0  0
 31 32  1  0  0  0
 31 55  1  0  0  0
 31 56  1  0  0  0
 32 57  1  0  0  0
 32 58  1  0  0  0
 33 59  1  0  0  0
 33 60  1  0  0  0
 33 61  1  0  0  0
 34 37  1  0  0  0
 34 62  1  0  0  0
 35 36  1  0  0  0
 35 63  1  0  0  0
 36 64  1  0  0  0
 37 65  1  0  0  0
M  END
> <s_m_entry_id>
35317

> <s_m_entry_name>
dock_pv.167

> <s_m_Source_Path>
/home/csk/Desktop/cluster/DUD-E-result/thrb

> <s_m_Source_File>
dock_pv.maegz

> <i_m_Source_File_Index>
167

> <chembl_id>
CHEMBL193781

> <chembl_pref_name>
None

> <i_lp_mmshare_version>
53161

> <r_lp_tautomer_probability>
1

> <s_lp_Force_Field>
OPLS_2005

> <r_lp_Energy>
49.174414

> <b_lp_Chiralities_Consistent>
1

> <s_lp_Variant>
CHEMBL204_lig4108-1

> <s_i_glide_gridfile>
glide-grid_1ype

> <i_i_glide_lignum>
5710

> <i_i_glide_rotatable_bonds>
10

> <r_i_docking_score>
-7.41431494018716

> <r_i_glide_ligand_efficiency>
-0.200386890275329

> <r_i_glide_ligand_efficiency_sa>
-0.66773357375512

> <r_i_glide_ligand_efficiency_ln>
-1.60799109432318

> <r_i_glide_gscore>
-7.41431494018716

> <r_i_glide_lipo>
-3.11459295222651

> <r_i_glide_hbond>
0

> <r_i_glide_metal>
0

> <r_i_glide_rewards>
-1.246726562009

> <r_i_glide_evdw>
-54.7231559753418

> <r_i_glide_ecoul>
-6.19395875930786

> <r_i_glide_erotb>
0.612256186711622

> <r_i_glide_esite>
0

> <r_i_glide_emodel>
-86.9642712507028

> <r_i_glide_energy>
-60.9171147346497

> <r_i_glide_einternal>
5.87229490280151

> <i_i_glide_confnum>
110

> <i_i_glide_posenum>
333

> <r_i_glide_eff_state_penalty>
0

> <s_user_duplicate_titles>
CHEMBL204_lig4108,319669

> <i_f3d_flags>
0

> <s_m_subgroup_title>
dock_pv

> <s_m_subgroupid>
dock_pv

> <b_m_subgroup_collapsed>
1

$$$$
CHEMBL204_lig4760
                    3D
 Schrodinger Suite 2021-1.
 55 58  0  0  1  0            999 V2000
   20.1208  -13.5812   21.7113 C   0  0  0  0  0  0
   18.7570  -13.2757   21.8151 C   0  0  0  0  0  0
   18.0781  -12.5960   20.7900 C   0  0  0  0  0  0
   18.8146  -12.1844   19.6642 C   0  0  0  0  0  0
   20.1772  -12.4641   19.5584 C   0  0  0  0  0  0
   20.8165  -13.1634   20.5795 C   0  0  0  0  0  0
   20.9705  -12.0065   18.3486 C   0  0  0  0  0  0
   16.5816  -12.3669   20.9000 C   0  0  0  0  0  0
   15.9691  -12.6816   21.9221 O   0  0  0  0  0  0
   14.5396  -11.7864   19.5277 C   0  0  0  0  0  0
   13.6147  -11.3946   20.6859 C   0  0  0  0  0  0
   13.7549  -10.1212   21.2477 C   0  0  0  0  0  0
   12.9842   -9.7446   22.3452 C   0  0  0  0  0  0
   12.0150  -10.6037   22.8552 C   0  0  0  0  0  0
   11.8524  -11.8678   22.3000 C   0  0  0  0  0  0
   12.6558  -12.2755   21.2291 C   0  0  0  0  0  0
   12.5103  -13.5941   20.7732 N   0  0  0  0  0  0
   13.2994   -8.2534   23.1428 Cl  0  0  0  0  0  0
   12.0159  -13.8873   19.5646 N   0  0  0  0  0  0
   12.0278  -15.2688   19.5051 N   0  0  0  0  0  0
   12.5301  -15.7991   20.6916 N   0  0  0  0  0  0
   12.8169  -14.7598   21.4316 C   0  0  0  0  0  0
   20.3886  -14.8107   23.9572 C   0  0  0  0  0  0
   20.0038  -13.6740   24.9280 C   0  0  0  0  0  0
   19.5556  -14.2521   26.2827 C   0  0  0  0  0  0
   18.4401  -15.3068   26.1216 C   0  0  0  0  0  0
   18.8599  -16.4504   25.1735 C   0  0  0  0  0  0
   19.3256  -15.9252   23.7994 C   0  0  0  0  0  0
   20.8611  -14.3009   22.6676 N   0  0  0  0  0  0
   15.9770  -11.8492   19.8116 N   0  0  0  0  0  0
   18.1990  -13.5840   22.6833 H   0  0  0  0  0  0
   18.3435  -11.6504   18.8528 H   0  0  0  0  0  0
   21.8682  -13.3818   20.4928 H   0  0  0  0  0  0
   22.0096  -11.8397   18.6195 H   0  0  0  0  0  0
   20.9300  -12.7534   17.5538 H   0  0  0  0  0  0
   20.6027  -11.0562   17.9665 H   0  0  0  0  0  0
   14.2574  -12.7318   19.0691 H   0  0  0  0  0  0
   14.3992  -11.0548   18.7336 H   0  0  0  0  0  0
   14.5141   -9.4478   20.8773 H   0  0  0  0  0  0
   11.4133  -10.3098   23.7056 H   0  0  0  0  0  0
   11.1154  -12.5387   22.7215 H   0  0  0  0  0  0
   13.2247  -14.7402   22.4320 H   0  0  0  0  0  0
   21.2679  -15.3022   24.3769 H   0  0  0  0  0  0
   20.8538  -13.0091   25.0794 H   0  0  0  0  0  0
   19.2145  -13.0518   24.5185 H   0  0  0  0  0  0
   20.4149  -14.7049   26.7764 H   0  0  0  0  0  0
   19.2172  -13.4525   26.9412 H   0  0  0  0  0  0
   18.1713  -15.7110   27.0977 H   0  0  0  0  0  0
   17.5379  -14.8296   25.7338 H   0  0  0  0  0  0
   19.6658  -17.0216   25.6353 H   0  0  0  0  0  0
   18.0310  -17.1481   25.0415 H   0  0  0  0  0  0
   18.4561  -15.5893   23.2411 H   0  0  0  0  0  0
   19.7425  -16.7507   23.2207 H   0  0  0  0  0  0
   21.7822  -14.6026   22.3843 H   0  0  0  0  0  0
   16.5719  -11.6701   19.0208 H   0  0  0  0  0  0
  1  2  2  0  0  0
  1  6  1  0  0  0
  1 29  1  0  0  0
  2  3  1  0  0  0
  2 31  1  0  0  0
  3  4  2  0  0  0
  3  8  1  0  0  0
  4  5  1  0  0  0
  4 32  1  0  0  0
  5  6  2  0  0  0
  5  7  1  0  0  0
  6 33  1  0  0  0
  7 34  1  0  0  0
  7 35  1  0  0  0
  7 36  1  0  0  0
  8  9  2  0  0  0
  8 30  1  0  0  0
 10 11  1  0  0  0
 10 30  1  0  0  0
 10 37  1  0  0  0
 10 38  1  0  0  0
 11 12  2  0  0  0
 11 16  1  0  0  0
 12 13  1  0  0  0
 12 39  1  0  0  0
 13 14  2  0  0  0
 13 18  1  0  0  0
 14 15  1  0  0  0
 14 40  1  0  0  0
 15 16  2  0  0  0
 15 41  1  0  0  0
 16 17  1  0  0  0
 17 19  1  0  0  0
 17 22  1  0  0  0
 19 20  2  0  0  0
 20 21  1  0  0  0
 21 22  2  0  0  0
 22 42  1  0  0  0
 23 24  1  0  0  0
 23 28  1  0  0  0
 23 29  1  0  0  0
 23 43  1  0  0  0
 24 25  1  0  0  0
 24 44  1  0  0  0
 24 45  1  0  0  0
 25 26  1  0  0  0
 25 46  1  0  0  0
 25 47  1  0  0  0
 26 27  1  0  0  0
 26 48  1  0  0  0
 26 49  1  0  0  0
 27 28  1  0  0  0
 27 50  1  0  0  0
 27 51  1  0  0  0
 28 52  1  0  0  0
 28 53  1  0  0  0
 29 54  1  0  0  0
 30 55  1  0  0  0
M  END
> <s_m_entry_id>
35318

> <s_m_entry_name>
dock_pv.168

> <s_m_Source_Path>
/home/csk/Desktop/cluster/DUD-E-result/thrb

> <s_m_Source_File>
dock_pv.maegz

> <i_m_Source_File_Index>
168

> <chembl_id>
CHEMBL1682784

> <chembl_pref_name>
None

> <i_lp_mmshare_version>
53161

> <r_lp_tautomer_probability>
1

> <s_lp_Force_Field>
OPLS_2005

> <r_lp_Energy>
31.548396

> <b_lp_Chiralities_Consistent>
1

> <s_lp_Variant>
CHEMBL204_lig4760-1

> <s_i_glide_gridfile>
glide-grid_1ype

> <i_i_glide_lignum>
6505

> <i_i_glide_rotatable_bonds>
7

> <r_i_docking_score>
-7.41317212174148

> <r_i_glide_ligand_efficiency>
-0.247105737391383

> <r_i_glide_ligand_efficiency_sa>
-0.767814978759705

> <r_i_glide_ligand_efficiency_ln>
-1.68435347903934

> <r_i_glide_gscore>
-7.41317212174148

> <r_i_glide_lipo>
-4.08038017591123

> <r_i_glide_hbond>
-0.0960189813916408

> <r_i_glide_metal>
0

> <r_i_glide_rewards>
-1.10350671271867

> <r_i_glide_evdw>
-50.5171051025391

> <r_i_glide_ecoul>
-2.5085334777832

> <r_i_glide_erotb>
0.768869025074504

> <r_i_glide_esite>
0

> <r_i_glide_emodel>
-71.453731364126

> <r_i_glide_energy>
-53.0256385803223

> <r_i_glide_einternal>
6.81276178359985

> <i_i_glide_confnum>
101

> <i_i_glide_posenum>
242

> <r_i_glide_eff_state_penalty>
0

> <s_user_duplicate_titles>
CHEMBL204_lig4760

> <i_f3d_flags>
0

> <s_m_subgroup_title>
dock_pv

> <s_m_subgroupid>
dock_pv

> <b_m_subgroup_collapsed>
1

$$$$
CHEMBL204_lig345
                    3D
 Schrodinger Suite 2021-1.
 61 64  0  0  1  0            999 V2000
   19.0835  -12.5529   20.3343 N   0  0  0  0  0  0
   17.8869  -12.2512   20.9026 C   0  0  0  0  0  0
   16.8927  -13.3995   21.2477 C   0  0  2  0  0  0
   19.5819  -13.8661   19.9120 C   0  0  2  0  0  0
   19.9334  -14.8368   21.0509 C   0  0  0  0  0  0
   15.4916  -13.3489   20.5287 C   0  0  0  0  0  0
   20.8727  -14.4221   21.9104 N   0  0  0  0  0  0
   17.5510  -11.0874   21.1209 O   0  0  0  0  0  0
   19.3588  -15.9215   21.1208 O   0  0  0  0  0  0
   15.5486  -13.4625   18.9894 C   0  0  0  0  0  0
   14.4487  -12.3407   21.0621 C   0  0  0  0  0  0
   16.8159  -13.4531   22.7210 N   0  0  0  0  0  0
   19.9382  -11.5188   19.7690 C   0  0  0  0  0  0
   21.3861  -15.2080   23.0238 C   0  0  0  0  0  0
   19.8248  -15.1891   25.0024 C   0  0  0  0  0  0
   19.3743  -14.6311   26.1957 C   0  0  0  0  0  0
   20.9156  -14.6244   24.3365 C   0  0  0  0  0  0
   18.0247  -15.3309   27.0120 Cl  0  0  0  0  0  0
   20.8159  -13.5296   19.0531 C   0  0  0  0  0  0
   20.5537  -12.1408   18.5312 C   0  0  0  0  0  0
   21.1240  -12.9638   26.0795 C   0  0  0  0  0  0
   16.1182  -12.4553   18.1969 C   0  0  0  0  0  0
   15.0199  -14.5996   18.3627 C   0  0  0  0  0  0
   14.5038  -10.9810   20.7295 C   0  0  0  0  0  0
   13.3949  -12.7976   21.8684 C   0  0  0  0  0  0
   20.0160  -13.5081   26.7210 C   0  0  0  0  0  0
   21.5817  -13.5277   24.8921 C   0  0  0  0  0  0
   15.0497  -14.7227   16.9761 C   0  0  0  0  0  0
   12.4134  -11.9191   22.3206 C   0  0  0  0  0  0
   13.5266  -10.0995   21.1864 C   0  0  0  0  0  0
   16.1507  -12.5777   16.8107 C   0  0  0  0  0  0
   12.4823  -10.5726   21.9762 C   0  0  0  0  0  0
   15.6160  -13.7114   16.2060 C   0  0  0  0  0  0
   17.2936  -14.3573   20.9317 H   0  0  0  0  0  0
   18.7990  -14.2530   19.2700 H   0  0  0  0  0  0
   15.0712  -14.3099   20.8321 H   0  0  0  0  0  0
   21.2740  -13.5052   21.7838 H   0  0  0  0  0  0
   16.0934  -14.0877   23.0496 H   0  0  0  0  0  0
   17.6845  -13.7740   23.1268 H   0  0  0  0  0  0
   19.3594  -10.6530   19.5210 H   0  0  0  0  0  0
   20.7143  -11.2361   20.4748 H   0  0  0  0  0  0
   21.1036  -16.2625   22.9653 H   0  0  0  0  0  0
   22.4756  -15.1968   22.9910 H   0  0  0  0  0  0
   19.3146  -16.0467   24.5873 H   0  0  0  0  0  0
   21.0163  -14.2539   18.2701 H   0  0  0  0  0  0
   21.7063  -13.4659   19.6716 H   0  0  0  0  0  0
   19.8284  -12.1763   17.7168 H   0  0  0  0  0  0
   21.4516  -11.6297   18.1820 H   0  0  0  0  0  0
   21.6154  -12.0974   26.4963 H   0  0  0  0  0  0
   16.5331  -11.5646   18.6399 H   0  0  0  0  0  0
   14.5708  -15.3918   18.9442 H   0  0  0  0  0  0
   15.3002  -10.5909   20.1185 H   0  0  0  0  0  0
   13.3218  -13.8392   22.1466 H   0  0  0  0  0  0
   19.6538  -13.0530   27.6310 H   0  0  0  0  0  0
   22.4357  -13.0934   24.3925 H   0  0  0  0  0  0
   14.6263  -15.5948   16.4976 H   0  0  0  0  0  0
   11.6010  -12.2828   22.9350 H   0  0  0  0  0  0
   13.5786   -9.0527   20.9297 H   0  0  0  0  0  0
   16.5812  -11.7935   16.2065 H   0  0  0  0  0  0
   11.7200   -9.8927   22.3288 H   0  0  0  0  0  0
   15.6297  -13.8072   15.1297 H   0  0  0  0  0  0
  1  2  1  0  0  0
  1  4  1  0  0  0
  1 13  1  0  0  0
  2  3  1  0  0  0
  2  8  2  0  0  0
  3  6  1  0  0  0
  3 12  1  0  0  0
  3 34  1  0  0  0
  4  5  1  0  0  0
  4 19  1  0  0  0
  4 35  1  0  0  0
  5  7  1  0  0  0
  5  9  2  0  0  0
  6 10  1  0  0  0
  6 11  1  0  0  0
  6 36  1  0  0  0
  7 14  1  0  0  0
  7 37  1  0  0  0
 10 22  2  0  0  0
 10 23  1  0  0  0
 11 24  2  0  0  0
 11 25  1  0  0  0
 12 38  1  0  0  0
 12 39  1  0  0  0
 13 20  1  0  0  0
 13 40  1  0  0  0
 13 41  1  0  0  0
 14 17  1  0  0  0
 14 42  1  0  0  0
 14 43  1  0  0  0
 15 17  2  0  0  0
 15 16  1  0  0  0
 15 44  1  0  0  0
 16 18  1  0  0  0
 16 26  2  0  0  0
 17 27  1  0  0  0
 19 20  1  0  0  0
 19 45  1  0  0  0
 19 46  1  0  0  0
 20 47  1  0  0  0
 20 48  1  0  0  0
 21 27  2  0  0  0
 21 26  1  0  0  0
 21 49  1  0  0  0
 22 31  1  0  0  0
 22 50  1  0  0  0
 23 28  2  0  0  0
 23 51  1  0  0  0
 24 30  1  0  0  0
 24 52  1  0  0  0
 25 29  2  0  0  0
 25 53  1  0  0  0
 26 54  1  0  0  0
 27 55  1  0  0  0
 28 33  1  0  0  0
 28 56  1  0  0  0
 29 32  1  0  0  0
 29 57  1  0  0  0
 30 32  2  0  0  0
 30 58  1  0  0  0
 31 33  2  0  0  0
 31 59  1  0  0  0
 32 60  1  0  0  0
 33 61  1  0  0  0
M  END
> <s_m_entry_id>
35319

> <s_m_entry_name>
dock_pv.169

> <s_m_Source_Path>
/home/csk/Desktop/cluster/DUD-E-result/thrb

> <s_m_Source_File>
dock_pv.maegz

> <i_m_Source_File_Index>
169

> <chembl_id>
CHEMBL3142750

> <chembl_pref_name>
None

> <i_lp_mmshare_version>
53161

> <r_lp_tautomer_probability>
1

> <s_lp_Force_Field>
OPLS_2005

> <r_lp_Energy>
29.609507

> <b_lp_Chiralities_Consistent>
1

> <s_lp_Variant>
CHEMBL204_lig345-1

> <s_i_glide_gridfile>
glide-grid_1ype

> <i_i_glide_lignum>
446

> <i_i_glide_rotatable_bonds>
9

> <r_i_docking_score>
-7.40444415050898

> <r_i_glide_ligand_efficiency>
-0.224377095469969

> <r_i_glide_ligand_efficiency_sa>
-0.719697235745868

> <r_i_glide_ligand_efficiency_ln>
-1.6467100409132

> <r_i_glide_gscore>
-7.40444415050898

> <r_i_glide_lipo>
-3.75167478101809

> <r_i_glide_hbond>
-0.399247774765913

> <r_i_glide_metal>
0

> <r_i_glide_rewards>
-1.13784445938765

> <r_i_glide_evdw>
-44.3917541503906

> <r_i_glide_ecoul>
-4.34013557434082

> <r_i_glide_erotb>
0.754930908333323

> <r_i_glide_esite>
0

> <r_i_glide_emodel>
-64.5190146085694

> <r_i_glide_energy>
-48.7318897247314

> <r_i_glide_einternal>
9.17209243774414

> <i_i_glide_confnum>
13

> <i_i_glide_posenum>
247

> <r_i_glide_eff_state_penalty>
0

> <s_user_duplicate_titles>
CHEMBL204_lig345,1632

> <i_f3d_flags>
0

> <s_m_subgroup_title>
dock_pv

> <s_m_subgroupid>
dock_pv

> <b_m_subgroup_collapsed>
1

$$$$
CHEMBL204_lig1781
                    3D
 Schrodinger Suite 2021-1.
 58 62  0  0  1  0            999 V2000
   21.2240  -12.4240   19.6642 C   0  0  0  0  0  0
   19.8793  -12.0412   19.9192 O   0  0  0  0  0  0
   19.1843  -12.7279   20.8946 C   0  0  0  0  0  0
   19.6879  -13.7111   21.7637 C   0  0  0  0  0  0
   18.8718  -14.3554   22.7165 C   0  0  0  0  0  0
   17.4985  -14.0610   22.7751 C   0  0  0  0  0  0
   16.9740  -13.0934   21.9138 C   0  0  0  0  0  0
   15.6939  -12.6533   21.7455 N   0  0  0  0  0  0
   15.8106  -11.7516   20.7921 C   0  0  0  0  0  0
   14.8271  -11.0532   20.1503 N   0  0  0  0  0  0
   13.3889  -11.3240   20.1936 C   0  0  1  0  0  0
   13.0605  -12.7283   19.6321 C   0  0  0  0  0  0
   13.6157  -12.9707   18.4431 F   0  0  0  0  0  0
   12.7623  -10.9814   21.5578 C   0  0  0  0  0  0
   11.8513  -11.8392   22.1961 C   0  0  0  0  0  0
   11.2159  -11.4528   23.3754 C   0  0  0  0  0  0
   11.4938  -10.2130   23.9453 C   0  0  0  0  0  0
   12.4156   -9.3608   23.3412 C   0  0  0  0  0  0
   12.8088   -7.8539   24.0846 Cl  0  0  0  0  0  0
   13.0344   -9.7377   22.1495 C   0  0  0  0  0  0
   17.0680  -11.5552   20.3029 O   0  0  0  0  0  0
   17.8228  -12.4367   21.0141 C   0  0  0  0  0  0
   19.4118  -15.4444   23.6211 C   0  0  0  0  0  0
   18.7062  -16.4440   23.7969 O   0  0  0  0  0  0
   20.6662  -15.3370   24.1501 N   0  0  0  0  0  0
   21.2636  -16.5675   24.7167 C   0  0  0  0  0  0
   22.7522  -16.4885   24.3553 C   0  0  2  0  0  0
   23.7767  -17.2890   25.1840 C   0  0  0  0  0  0
   24.4653  -15.9755   25.6415 C   0  0  0  0  0  0
   23.2986  -15.3059   25.0332 N   0  0  0  0  0  0
   22.8070  -14.0605   24.9082 C   0  0  0  0  0  0
   23.4889  -13.0595   25.1209 O   0  0  0  0  0  0
   21.2918  -14.0168   24.5083 C   0  0  2  0  0  0
   20.5416  -13.2351   25.5982 C   0  0  0  0  0  0
   21.6198  -11.8254   18.8428 H   0  0  0  0  0  0
   21.8613  -12.2564   20.5335 H   0  0  0  0  0  0
   21.2879  -13.4713   19.3661 H   0  0  0  0  0  0
   20.7248  -14.0000   21.6815 H   0  0  0  0  0  0
   16.8436  -14.5786   23.4642 H   0  0  0  0  0  0
   15.1066  -10.5757   19.3076 H   0  0  0  0  0  0
   12.9315  -10.6085   19.5099 H   0  0  0  0  0  0
   11.9867  -12.8660   19.5106 H   0  0  0  0  0  0
   13.4143  -13.5159   20.2994 H   0  0  0  0  0  0
   11.5968  -12.8033   21.7836 H   0  0  0  0  0  0
   10.4984  -12.1120   23.8459 H   0  0  0  0  0  0
   10.9930   -9.9223   24.8582 H   0  0  0  0  0  0
   13.7320   -9.0566   21.6844 H   0  0  0  0  0  0
   20.8539  -17.4871   24.2923 H   0  0  0  0  0  0
   21.1448  -16.5735   25.8013 H   0  0  0  0  0  0
   22.9035  -16.4857   23.2728 H   0  0  0  0  0  0
   24.3742  -17.9139   24.5181 H   0  0  0  0  0  0
   23.2868  -17.8595   25.9758 H   0  0  0  0  0  0
   25.3793  -15.6474   25.1412 H   0  0  0  0  0  0
   24.4184  -15.8072   26.7180 H   0  0  0  0  0  0
   21.3095  -13.3700   23.6355 H   0  0  0  0  0  0
   21.0017  -12.2626   25.7888 H   0  0  0  0  0  0
   19.5108  -13.0547   25.2940 H   0  0  0  0  0  0
   20.5287  -13.8027   26.5310 H   0  0  0  0  0  0
  1  2  1  0  0  0
  1 35  1  0  0  0
  1 36  1  0  0  0
  1 37  1  0  0  0
  2  3  1  0  0  0
  3  4  2  0  0  0
  3 22  1  0  0  0
  4  5  1  0  0  0
  4 38  1  0  0  0
  5  6  2  0  0  0
  5 23  1  0  0  0
  6  7  1  0  0  0
  6 39  1  0  0  0
  7  8  1  0  0  0
  7 22  2  0  0  0
  8  9  2  0  0  0
  9 10  1  0  0  0
  9 21  1  0  0  0
 10 11  1  0  0  0
 10 40  1  0  0  0
 11 12  1  0  0  0
 11 14  1  0  0  0
 11 41  1  0  0  0
 12 13  1  0  0  0
 12 42  1  0  0  0
 12 43  1  0  0  0
 14 15  2  0  0  0
 14 20  1  0  0  0
 15 16  1  0  0  0
 15 44  1  0  0  0
 16 17  2  0  0  0
 16 45  1  0  0  0
 17 18  1  0  0  0
 17 46  1  0  0  0
 18 19  1  0  0  0
 18 20  2  0  0  0
 20 47  1  0  0  0
 21 22  1  0  0  0
 23 24  2  0  0  0
 23 25  1  0  0  0
 25 26  1  0  0  0
 25 33  1  0  0  0
 26 27  1  0  0  0
 26 48  1  0  0  0
 26 49  1  0  0  0
 27 28  1  0  0  0
 27 30  1  0  0  0
 27 50  1  0  0  0
 28 29  1  0  0  0
 28 51  1  0  0  0
 28 52  1  0  0  0
 29 30  1  0  0  0
 29 53  1  0  0  0
 29 54  1  0  0  0
 30 31  1  0  0  0
 31 32  2  0  0  0
 31 33  1  0  0  0
 33 34  1  0  0  0
 33 55  1  0  0  0
 34 56  1  0  0  0
 34 57  1  0  0  0
 34 58  1  0  0  0
M  END
> <s_m_entry_id>
35320

> <s_m_entry_name>
dock_pv.170

> <s_m_Source_Path>
/home/csk/Desktop/cluster/DUD-E-result/thrb

> <s_m_Source_File>
dock_pv.maegz

> <i_m_Source_File_Index>
170

> <chembl_id>
CHEMBL3948587

> <chembl_pref_name>
None

> <i_lp_mmshare_version>
53161

> <r_lp_tautomer_probability>
1

> <s_lp_Force_Field>
OPLS_2005

> <r_lp_Energy>
50.097527

> <b_lp_Chiralities_Consistent>
1

> <s_lp_Variant>
CHEMBL204_lig1781-6

> <s_i_glide_gridfile>
glide-grid_1ype

> <i_i_glide_lignum>
2662

> <i_i_glide_rotatable_bonds>
7

> <r_i_docking_score>
-7.40159945846063

> <r_i_glide_ligand_efficiency>
-0.21769410171943

> <r_i_glide_ligand_efficiency_sa>
-0.705244380169786

> <r_i_glide_ligand_efficiency_ln>
-1.63522092820662

> <r_i_glide_gscore>
-7.40159945846063

> <r_i_glide_lipo>
-3.64657096491269

> <r_i_glide_hbond>
-0.25407298325755

> <r_i_glide_metal>
0

> <r_i_glide_rewards>
-0.690815750831733

> <r_i_glide_evdw>
-52.1327095031738

> <r_i_glide_ecoul>
-4.21430969238281

> <r_i_glide_erotb>
0.42864216955745

> <r_i_glide_esite>
0

> <r_i_glide_emodel>
-77.25896746794

> <r_i_glide_energy>
-56.3470191955566

> <r_i_glide_einternal>
7.61596822738647

> <i_i_glide_confnum>
21

> <i_i_glide_posenum>
197

> <r_i_glide_eff_state_penalty>
0

> <s_user_duplicate_titles>
CHEMBL204_lig1781

> <i_f3d_flags>
0

> <s_m_subgroup_title>
dock_pv

> <s_m_subgroupid>
dock_pv

> <b_m_subgroup_collapsed>
1

$$$$
CHEMBL204_lig3544
                    3D
 Schrodinger Suite 2021-1.
 56 60  0  0  1  0            999 V2000
   15.3971  -13.9396   20.7237 N   0  0  0  0  0  0
   15.3828  -15.0627   21.5191 C   0  0  0  0  0  0
   16.6596  -15.5342   21.7608 C   0  0  0  0  0  0
   16.7216  -13.5995   20.4799 C   0  0  0  0  0  0
   17.5361  -14.5689   21.1543 C   0  0  0  0  0  0
   11.4537  -10.6688   23.6701 C   0  0  0  0  0  0
   14.1921  -13.2671   20.2239 C   0  0  0  0  0  0
   12.4659  -10.7324   22.5772 C   0  0  0  0  0  0
   11.2164   -9.5997   24.2942 N   0  0  0  0  0  0
   17.0545  -16.8125   22.4809 C   0  0  0  0  0  0
   12.8480  -11.9372   21.9394 C   0  0  0  0  0  0
   20.9280  -15.4868   24.4449 C   0  0  0  0  0  0
   13.8125  -11.9618   20.9214 C   0  0  0  0  0  0
   19.7972  -16.2706   24.0896 C   0  0  0  0  0  0
   20.7276  -14.2455   25.1235 C   0  0  0  0  0  0
   10.8075  -11.8528   23.9205 N   0  0  0  0  0  0
   19.4083  -13.8352   25.4185 C   0  0  0  0  0  0
   18.5059  -15.8220   24.3775 C   0  0  0  0  0  0
   17.2904  -16.6562   23.9959 C   0  0  0  0  0  0
   18.3213  -14.6153   25.0448 C   0  0  0  0  0  0
   17.2931  -12.5634   19.7219 C   0  0  0  0  0  0
   18.9337  -14.4446   21.0774 C   0  0  0  0  0  0
   13.0941   -9.5527   22.1405 C   0  0  0  0  0  0
   14.0404   -9.5663   21.1231 C   0  0  0  0  0  0
   14.3938  -10.7610   20.5174 C   0  0  0  0  0  0
   22.2523  -15.8964   24.1414 C   0  0  0  0  0  0
   21.8524  -13.4589   25.4784 C   0  0  0  0  0  0
   19.4881  -13.3926   20.3560 C   0  0  0  0  0  0
   18.6821  -12.4799   19.6877 C   0  0  0  0  0  0
   23.3362  -15.0954   24.4945 C   0  0  0  0  0  0
   23.1381  -13.8851   25.1530 C   0  0  0  0  0  0
   14.4349  -15.4825   21.8215 H   0  0  0  0  0  0
   13.3514  -13.9672   20.2657 H   0  0  0  0  0  0
   14.3366  -13.0732   19.1605 H   0  0  0  0  0  0
   10.4672   -9.7271   24.9645 H   0  0  0  0  0  0
   16.2681  -17.5534   22.3412 H   0  0  0  0  0  0
   17.9305  -17.2571   22.0103 H   0  0  0  0  0  0
   12.4009  -12.8779   22.2311 H   0  0  0  0  0  0
   19.9473  -17.2097   23.5777 H   0  0  0  0  0  0
    9.9798  -11.8373   24.5130 H   0  0  0  0  0  0
   10.9962  -12.7094   23.4214 H   0  0  0  0  0  0
   19.2450  -12.8921   25.9230 H   0  0  0  0  0  0
   16.3961  -16.2609   24.4775 H   0  0  0  0  0  0
   17.4261  -17.6434   24.4380 H   0  0  0  0  0  0
   17.3214  -14.2713   25.2709 H   0  0  0  0  0  0
   16.6989  -11.8548   19.1727 H   0  0  0  0  0  0
   19.5755  -15.1587   21.5678 H   0  0  0  0  0  0
   12.8524   -8.6059   22.5989 H   0  0  0  0  0  0
   14.5159   -8.6499   20.8127 H   0  0  0  0  0  0
   15.1144  -10.7354   19.7187 H   0  0  0  0  0  0
   22.4131  -16.8346   23.6294 H   0  0  0  0  0  0
   21.7025  -12.5222   25.9957 H   0  0  0  0  0  0
   20.5630  -13.2924   20.3022 H   0  0  0  0  0  0
   19.1517  -11.6884   19.1217 H   0  0  0  0  0  0
   24.3408  -15.4166   24.2617 H   0  0  0  0  0  0
   23.9887  -13.2793   25.4273 H   0  0  0  0  0  0
  1  2  1  0  0  0
  1  4  1  0  0  0
  1  7  1  0  0  0
  2  3  2  0  0  0
  2 32  1  0  0  0
  3 10  1  0  0  0
  3  5  1  0  0  0
  4  5  2  0  0  0
  4 21  1  0  0  0
  5 22  1  0  0  0
  6  8  1  0  0  0
  6  9  2  0  0  0
  6 16  1  0  0  0
  7 13  1  0  0  0
  7 33  1  0  0  0
  7 34  1  0  0  0
  8 11  2  0  0  0
  8 23  1  0  0  0
  9 35  1  0  0  0
 10 19  1  0  0  0
 10 36  1  0  0  0
 10 37  1  0  0  0
 11 13  1  0  0  0
 11 38  1  0  0  0
 12 14  1  0  0  0
 12 26  1  0  0  0
 12 15  2  0  0  0
 13 25  2  0  0  0
 14 18  2  0  0  0
 14 39  1  0  0  0
 15 17  1  0  0  0
 15 27  1  0  0  0
 16 40  1  0  0  0
 16 41  1  0  0  0
 17 20  2  0  0  0
 17 42  1  0  0  0
 18 19  1  0  0  0
 18 20  1  0  0  0
 19 43  1  0  0  0
 19 44  1  0  0  0
 20 45  1  0  0  0
 21 29  2  0  0  0
 21 46  1  0  0  0
 22 28  2  0  0  0
 22 47  1  0  0  0
 23 24  2  0  0  0
 23 48  1  0  0  0
 24 25  1  0  0  0
 24 49  1  0  0  0
 25 50  1  0  0  0
 26 30  2  0  0  0
 26 51  1  0  0  0
 27 31  2  0  0  0
 27 52  1  0  0  0
 28 29  1  0  0  0
 28 53  1  0  0  0
 29 54  1  0  0  0
 30 31  1  0  0  0
 30 55  1  0  0  0
 31 56  1  0  0  0
M  END
> <s_m_entry_id>
35322

> <s_m_entry_name>
dock_pv.172

> <s_m_Source_Path>
/home/csk/Desktop/cluster/DUD-E-result/thrb

> <s_m_Source_File>
dock_pv.maegz

> <i_m_Source_File_Index>
172

> <chembl_id>
CHEMBL118906

> <chembl_pref_name>
None

> <i_lp_mmshare_version>
53161

> <r_lp_tautomer_probability>
1

> <s_lp_Force_Field>
OPLS_2005

> <r_lp_Energy>
14.19696

> <b_lp_Chiralities_Consistent>
1

> <s_lp_Variant>
CHEMBL204_lig3544-1

> <s_i_glide_gridfile>
glide-grid_1ype

> <i_i_glide_lignum>
4942

> <i_i_glide_rotatable_bonds>
6

> <r_i_docking_score>
-7.39661582544364

> <r_i_glide_ligand_efficiency>
-0.238600510498182

> <r_i_glide_ligand_efficiency_sa>
-0.749535026471734

> <r_i_glide_ligand_efficiency_ln>
-1.66816354768947

> <r_i_glide_gscore>
-7.39661582544364

> <r_i_glide_lipo>
-3.7014957784942

> <r_i_glide_hbond>
-0.453048297432296

> <r_i_glide_metal>
0

> <r_i_glide_rewards>
-0.732171601102157

> <r_i_glide_evdw>
-43.4263572692871

> <r_i_glide_ecoul>
-5.6753191947937

> <r_i_glide_erotb>
0.602917358920168

> <r_i_glide_esite>
-0.0902017646517472

> <r_i_glide_emodel>
-71.0114596961214

> <r_i_glide_energy>
-49.1016764640808

> <r_i_glide_einternal>
1.70847070217133

> <i_i_glide_confnum>
36

> <i_i_glide_posenum>
108

> <r_i_glide_eff_state_penalty>
0

> <s_user_duplicate_titles>
CHEMBL204_lig3544

> <i_f3d_flags>
0

> <s_m_subgroup_title>
dock_pv

> <s_m_subgroupid>
dock_pv

> <b_m_subgroup_collapsed>
1

$$$$
CHEMBL204_lig4128
                    3D
 Schrodinger Suite 2021-1.
 63 67  0  0  1  0            999 V2000
   15.9886  -13.6692   21.6331 C   0  0  0  0  0  0
   17.2397  -14.4987   21.5781 C   0  0  0  0  0  0
   11.9572  -10.9198   22.0344 N   0  3  0  0  0  0
   14.8948  -14.0543   20.9238 N   0  0  0  0  0  0
   16.2836  -10.7841   14.1253 C   0  0  0  0  0  0
   18.4241  -13.9878   20.9545 C   0  0  0  0  0  0
   16.1320  -12.1439   14.6986 C   0  0  0  0  0  0
   15.7312  -13.5920   16.6484 C   0  0  0  0  0  0
   11.2149  -11.8528   22.7239 C   0  0  0  0  0  0
   16.0069  -12.3206   16.0859 C   0  0  0  0  0  0
   10.8160  -11.3000   23.9210 N   0  0  0  0  0  0
   14.8539  -15.2344   20.0371 C   0  0  0  0  0  0
   16.8465   -9.8558   14.7667 N   0  0  0  0  0  0
   12.1054   -9.8146   22.8619 C   0  0  0  0  0  0
   16.0160  -12.6530   22.3210 O   0  0  0  0  0  0
   15.5351  -13.7681   18.0397 C   0  0  0  0  0  0
   11.3744  -10.0403   24.0271 C   0  0  0  0  0  0
   15.1594  -15.0121   18.5574 C   0  0  0  0  0  0
   15.6162  -14.7208   15.7870 C   0  0  0  0  0  0
   16.0682  -13.2843   13.8814 C   0  0  0  0  0  0
   15.8247  -14.5496   14.4030 C   0  0  0  0  0  0
   19.5854  -14.8195   20.9331 C   0  0  0  0  0  0
   15.2776  -15.9785   16.3366 C   0  0  0  0  0  0
   15.7288  -10.6530   12.8774 N   0  0  0  0  0  0
   13.7188  -11.8111   20.5073 C   0  0  0  0  0  0
   12.3978  -11.0453   20.6521 C   0  0  0  0  0  0
   15.0405  -16.1052   17.7012 C   0  0  0  0  0  0
   13.6442  -13.2806   21.0019 C   0  0  0  0  0  0
   17.2497  -15.7673   22.1672 C   0  0  0  0  0  0
   18.5156  -12.6918   20.3552 C   0  0  0  0  0  0
   18.3857  -16.5634   22.1338 C   0  0  0  0  0  0
   19.5448  -16.1064   21.5215 C   0  0  0  0  0  0
   20.7627  -14.3445   20.3203 C   0  0  0  0  0  0
   19.7002  -12.2538   19.7746 C   0  0  0  0  0  0
   20.8160  -13.0758   19.7528 C   0  0  0  0  0  0
   10.8706  -12.7959   22.3209 H   0  0  0  0  0  0
   16.0594  -11.4697   16.7514 H   0  0  0  0  0  0
   10.1403  -11.6999   24.5696 H   0  0  0  0  0  0
   13.8618  -15.6830   20.1081 H   0  0  0  0  0  0
   15.5324  -16.0121   20.3816 H   0  0  0  0  0  0
   16.8148   -8.9912   14.2422 H   0  0  0  0  0  0
   12.6544   -8.9470   22.5257 H   0  0  0  0  0  0
   15.6633  -12.9166   18.6875 H   0  0  0  0  0  0
   11.1510   -9.4173   24.8828 H   0  0  0  0  0  0
   16.1797  -13.2025   12.8093 H   0  0  0  0  0  0
   15.7383  -15.4015   13.7428 H   0  0  0  0  0  0
   15.1734  -16.8342   15.6851 H   0  0  0  0  0  0
   15.6519   -9.7239   12.4668 H   0  0  0  0  0  0
   15.1613  -11.3911   12.4885 H   0  0  0  0  0  0
   14.4971  -11.2459   21.0194 H   0  0  0  0  0  0
   13.9798  -11.8003   19.4507 H   0  0  0  0  0  0
   12.4519  -10.0511   20.2053 H   0  0  0  0  0  0
   11.6195  -11.5890   20.1193 H   0  0  0  0  0  0
   14.7556  -17.0712   18.0935 H   0  0  0  0  0  0
   12.8494  -13.7919   20.4566 H   0  0  0  0  0  0
   13.3188  -13.3024   22.0430 H   0  0  0  0  0  0
   16.3649  -16.1450   22.6618 H   0  0  0  0  0  0
   17.6646  -12.0271   20.3563 H   0  0  0  0  0  0
   18.3685  -17.5420   22.5909 H   0  0  0  0  0  0
   20.4276  -16.7295   21.5019 H   0  0  0  0  0  0
   21.6160  -14.9974   20.2902 H   0  0  0  0  0  0
   19.7549  -11.2686   19.3402 H   0  0  0  0  0  0
   21.7297  -12.7300   19.2919 H   0  0  0  0  0  0
  1  2  1  0  0  0
  1  4  1  0  0  0
  1 15  2  0  0  0
  2  6  1  0  0  0
  2 29  2  0  0  0
  3 26  1  0  0  0
  3  9  2  0  0  0
  3 14  1  0  0  0
  4 12  1  0  0  0
  4 28  1  0  0  0
  5  7  1  0  0  0
  5 13  2  0  0  0
  5 24  1  0  0  0
  6 22  1  0  0  0
  6 30  2  0  0  0
  7 10  1  0  0  0
  7 20  2  0  0  0
  8 16  1  0  0  0
  8 10  2  0  0  0
  8 19  1  0  0  0
  9 11  1  0  0  0
  9 36  1  0  0  0
 10 37  1  0  0  0
 11 17  1  0  0  0
 11 38  1  0  0  0
 12 18  1  0  0  0
 12 39  1  0  0  0
 12 40  1  0  0  0
 13 41  1  0  0  0
 14 17  2  0  0  0
 14 42  1  0  0  0
 16 18  2  0  0  0
 16 43  1  0  0  0
 17 44  1  0  0  0
 18 27  1  0  0  0
 19 23  1  0  0  0
 19 21  2  0  0  0
 20 21  1  0  0  0
 20 45  1  0  0  0
 21 46  1  0  0  0
 22 33  2  0  0  0
 22 32  1  0  0  0
 23 27  2  0  0  0
 23 47  1  0  0  0
 24 48  1  0  0  0
 24 49  1  0  0  0
 25 28  1  0  0  0
 25 26  1  0  0  0
 25 50  1  0  0  0
 25 51  1  0  0  0
 26 52  1  0  0  0
 26 53  1  0  0  0
 27 54  1  0  0  0
 28 55  1  0  0  0
 28 56  1  0  0  0
 29 31  1  0  0  0
 29 57  1  0  0  0
 30 34  1  0  0  0
 30 58  1  0  0  0
 31 32  2  0  0  0
 31 59  1  0  0  0
 32 60  1  0  0  0
 33 35  1  0  0  0
 33 61  1  0  0  0
 34 35  2  0  0  0
 34 62  1  0  0  0
 35 63  1  0  0  0
M  CHG  1   3   1
M  END
> <s_m_entry_id>
35323

> <s_m_entry_name>
dock_pv.173

> <s_m_Source_Path>
/home/csk/Desktop/cluster/DUD-E-result/thrb

> <s_m_Source_File>
dock_pv.maegz

> <i_m_Source_File_Index>
173

> <chembl_id>
CHEMBL196182

> <chembl_pref_name>
None

> <i_lp_mmshare_version>
53161

> <r_lp_tautomer_probability>
1

> <s_lp_Force_Field>
OPLS_2005

> <r_lp_Energy>
33.595458

> <b_lp_Chiralities_Consistent>
1

> <s_lp_Variant>
CHEMBL204_lig4128-1

> <s_i_glide_gridfile>
glide-grid_1ype

> <i_i_glide_lignum>
5741

> <i_i_glide_rotatable_bonds>
9

> <r_i_docking_score>
-7.38697574454528

> <r_i_glide_ligand_efficiency>
-0.211056449844151

> <r_i_glide_ligand_efficiency_sa>
-0.69037964181503

> <r_i_glide_ligand_efficiency_ln>
-1.62160512102121

> <r_i_glide_gscore>
-7.38697574454528

> <r_i_glide_lipo>
-1.87888275985433

> <r_i_glide_hbond>
-0.677166340103503

> <r_i_glide_metal>
0

> <r_i_glide_rewards>
-0.736766625774704

> <r_i_glide_evdw>
-43.4972763061523

> <r_i_glide_ecoul>
-15.5614805221558

> <r_i_glide_erotb>
0.564899209893373

> <r_i_glide_esite>
-0.149973335075137

> <r_i_glide_emodel>
-87.989398403941

> <r_i_glide_energy>
-59.0587568283081

> <r_i_glide_einternal>
3.36277270317078

> <i_i_glide_confnum>
5

> <i_i_glide_posenum>
277

> <r_i_glide_eff_state_penalty>
0

> <s_user_duplicate_titles>
CHEMBL204_lig4128

> <i_f3d_flags>
0

> <s_m_subgroup_title>
dock_pv

> <s_m_subgroupid>
dock_pv

> <b_m_subgroup_collapsed>
1

$$$$
CHEMBL204_lig5153
                    3D
 Schrodinger Suite 2021-1.
 53 57  0  0  1  0            999 V2000
   11.3202  -10.8784   23.5210 C   0  0  0  0  0  0
   12.3162  -11.3150   22.5039 C   0  0  0  0  0  0
   13.1042  -10.3894   21.7940 C   0  0  0  0  0  0
   14.0635  -10.8141   20.8722 C   0  0  0  0  0  0
   14.2543  -12.1779   20.6400 C   0  0  0  0  0  0
   13.4760  -13.1026   21.3322 C   0  0  0  0  0  0
   12.5313  -12.6744   22.2399 C   0  0  0  0  0  0
   10.4392  -11.8530   23.9210 N   0  0  0  0  0  0
   11.3146   -9.7026   23.9614 N   0  0  0  0  0  0
   15.3630  -12.6649   19.6981 C   0  0  2  0  0  0
   16.2546  -14.5336   18.6138 C   0  0  1  0  0  0
   15.0155  -13.9525   19.0812 N   0  0  2  0  0  0
   14.1082  -13.9192   17.9453 C   0  0  0  0  0  0
   14.9808  -13.6442   16.7209 C   0  0  0  0  0  0
   16.4019  -14.0118   17.1674 C   0  0  0  0  0  0
   16.7703  -12.9011   20.3319 C   0  0  2  0  0  0
   17.3506  -14.0817   19.5996 C   0  0  1  0  0  0
   17.6058  -15.1343   20.6861 C   0  0  0  0  0  0
   17.3812  -14.5581   21.8794 N   0  0  0  0  0  0
   16.8001  -13.3448   21.7926 C   0  0  0  0  0  0
   16.4160  -12.6530   22.7210 O   0  0  0  0  0  0
   18.0161  -16.2767   20.4804 O   0  0  0  0  0  0
   18.3035  -13.8530   19.1197 H   0  0  0  0  0  0
   17.4052  -12.0210   20.2215 H   0  0  0  0  0  0
   17.7046  -15.2245   23.1545 C   0  0  0  0  0  0
   18.8794  -14.6237   23.9344 C   0  0  0  0  0  0
   18.7303  -14.4014   25.3072 C   0  0  0  0  0  0
   19.7726  -13.8537   26.0555 C   0  0  0  0  0  0
   20.9791  -13.5278   25.4402 C   0  0  0  0  0  0
   21.1471  -13.7591   24.0760 C   0  0  0  0  0  0
   20.1047  -14.3051   23.3219 C   0  0  0  0  0  0
   16.1841  -15.6197   18.5047 H   0  0  0  0  0  0
   22.3260  -13.4530   23.4863 F   0  0  0  0  0  0
   20.2997  -14.5258   22.0011 F   0  0  0  0  0  0
   12.9872   -9.3288   21.9677 H   0  0  0  0  0  0
   14.6757  -10.0839   20.3642 H   0  0  0  0  0  0
   13.6228  -14.1650   21.2018 H   0  0  0  0  0  0
   12.0160  -13.4529   22.7656 H   0  0  0  0  0  0
    9.6701  -11.6281   24.5525 H   0  0  0  0  0  0
   10.4829  -12.7990   23.5586 H   0  0  0  0  0  0
   10.5607   -9.5864   24.6279 H   0  0  0  0  0  0
   15.5153  -11.9316   18.9029 H   0  0  0  0  0  0
   13.5291  -14.8416   17.8761 H   0  0  0  0  0  0
   13.3778  -13.1204   18.0854 H   0  0  0  0  0  0
   14.9204  -12.5967   16.4230 H   0  0  0  0  0  0
   14.6542  -14.2508   15.8744 H   0  0  0  0  0  0
   17.0893  -13.1685   17.0876 H   0  0  0  0  0  0
   16.7415  -14.8140   16.5100 H   0  0  0  0  0  0
   16.8160  -15.2009   23.7838 H   0  0  0  0  0  0
   17.9212  -16.2827   22.9968 H   0  0  0  0  0  0
   17.8001  -14.6469   25.8005 H   0  0  0  0  0  0
   19.6407  -13.6726   27.1128 H   0  0  0  0  0  0
   21.7845  -13.0993   26.0189 H   0  0  0  0  0  0
  1  2  1  0  0  0
  1  8  1  0  0  0
  1  9  2  0  0  0
  2  3  2  0  0  0
  2  7  1  0  0  0
  3  4  1  0  0  0
  3 35  1  0  0  0
  4  5  2  0  0  0
  4 36  1  0  0  0
  5  6  1  0  0  0
  5 10  1  0  0  0
  6  7  2  0  0  0
  6 37  1  0  0  0
  7 38  1  0  0  0
  8 39  1  0  0  0
  8 40  1  0  0  0
  9 41  1  0  0  0
 10 12  1  0  0  0
 10 16  1  0  0  0
 10 42  1  0  0  0
 11 17  1  0  0  0
 11 12  1  0  0  0
 11 15  1  0  0  0
 11 32  1  0  0  0
 12 13  1  0  0  0
 13 14  1  0  0  0
 13 43  1  0  0  0
 13 44  1  0  0  0
 14 15  1  0  0  0
 14 45  1  0  0  0
 14 46  1  0  0  0
 15 47  1  0  0  0
 15 48  1  0  0  0
 16 17  1  0  0  0
 16 20  1  0  0  0
 16 24  1  0  0  0
 17 18  1  0  0  0
 17 23  1  0  0  0
 18 19  1  0  0  0
 18 22  2  0  0  0
 19 20  1  0  0  0
 19 25  1  0  0  0
 20 21  2  0  0  0
 25 26  1  0  0  0
 25 49  1  0  0  0
 25 50  1  0  0  0
 26 27  2  0  0  0
 26 31  1  0  0  0
 27 28  1  0  0  0
 27 51  1  0  0  0
 28 29  2  0  0  0
 28 52  1  0  0  0
 29 30  1  0  0  0
 29 53  1  0  0  0
 30 31  2  0  0  0
 30 33  1  0  0  0
 31 34  1  0  0  0
M  END
> <s_m_entry_id>
35324

> <s_m_entry_name>
dock_pv.174

> <s_m_Source_Path>
/home/csk/Desktop/cluster/DUD-E-result/thrb

> <s_m_Source_File>
dock_pv.maegz

> <i_m_Source_File_Index>
174

> <chembl_id>
CHEMBL4513358

> <chembl_pref_name>
None

> <i_lp_mmshare_version>
53161

> <r_lp_tautomer_probability>
1

> <s_lp_Force_Field>
OPLS_2005

> <r_lp_Energy>
46.27341

> <b_lp_Chiralities_Consistent>
1

> <s_lp_Variant>
CHEMBL204_lig5153-1

> <s_i_glide_gridfile>
glide-grid_1ype

> <i_i_glide_lignum>
7049

> <i_i_glide_rotatable_bonds>
4

> <r_i_docking_score>
-7.38689627570874

> <r_i_glide_ligand_efficiency>
-0.238286976635766

> <r_i_glide_ligand_efficiency_sa>
-0.748550097263597

> <r_i_glide_ligand_efficiency_ln>
-1.66597149135582

> <r_i_glide_gscore>
-7.38689627570874

> <r_i_glide_lipo>
-2.65442284026755

> <r_i_glide_hbond>
-0.731377275573226

> <r_i_glide_metal>
0

> <r_i_glide_rewards>
-1.0668939769422

> <r_i_glide_evdw>
-30.4329986572266

> <r_i_glide_ecoul>
-10.7117195129395

> <r_i_glide_erotb>
0.330194113145923

> <r_i_glide_esite>
-0.135988436269434

> <r_i_glide_emodel>
-59.6226369724198

> <r_i_glide_energy>
-41.144718170166

> <r_i_glide_einternal>
2.92460036277771

> <i_i_glide_confnum>
3

> <i_i_glide_posenum>
160

> <r_i_glide_eff_state_penalty>
0

> <s_user_duplicate_titles>
CHEMBL204_lig5153

> <i_f3d_flags>
0

> <s_m_subgroup_title>
dock_pv

> <s_m_subgroupid>
dock_pv

> <b_m_subgroup_collapsed>
1

$$$$
CHEMBL204_lig4185
                    3D
 Schrodinger Suite 2021-1.
 52 55  0  0  1  0            999 V2000
   16.7890  -12.8975   21.4413 C   0  0  0  0  0  0
   15.4510  -12.6451   21.6040 N   0  0  0  0  0  0
   17.2931  -12.0679   20.4283 C   0  0  0  0  0  0
   15.2014  -11.6943   20.7236 C   0  0  0  0  0  0
   17.6817  -13.7951   22.0587 C   0  0  0  0  0  0
   16.2699  -11.3012   19.9641 O   0  0  0  0  0  0
   18.9852  -13.8544   21.6625 N   0  0  0  0  0  0
   18.6274  -12.1003   20.0138 C   0  0  0  0  0  0
   19.4326  -13.0311   20.6765 C   0  0  0  0  0  0
   20.1279  -13.5988   26.3184 N   0  0  1  0  0  0
   13.8616  -11.0478   20.4091 C   0  0  0  0  0  0
   17.2161  -14.6531   23.0674 N   0  0  0  0  0  0
   12.9782  -10.7812   21.6211 C   0  0  0  0  0  0
   13.0882   -9.5747   22.3232 C   0  0  0  0  0  0
   19.7821  -14.1391   24.9992 C   0  0  2  0  0  0
   12.2716   -9.3281   23.4328 C   0  0  0  0  0  0
   18.0430  -15.6385   23.7576 C   0  0  0  0  0  0
   18.6146  -15.1428   25.1016 C   0  0  0  0  0  0
   12.4162   -7.8532   24.3212 Cl  0  0  0  0  0  0
   11.2161  -11.4756   23.1283 C   0  0  0  0  0  0
   21.1975  -12.6007   26.2765 C   0  0  0  0  0  0
   12.0360  -11.7299   22.0288 C   0  0  0  0  0  0
   20.8964  -13.1909   20.3181 C   0  0  0  0  0  0
   11.3346  -10.2796   23.8321 C   0  0  0  0  0  0
   21.0391  -14.7603   24.3311 C   0  0  0  0  0  0
   22.4754  -13.1632   25.6213 C   0  0  0  0  0  0
   22.2007  -13.7638   24.2376 C   0  0  0  0  0  0
   18.9991  -11.4588   19.2328 H   0  0  0  0  0  0
   19.3097  -13.1736   26.7345 H   0  0  0  0  0  0
   14.0291  -10.0909   19.9209 H   0  0  0  0  0  0
   13.3187  -11.6543   19.6825 H   0  0  0  0  0  0
   16.2714  -14.5190   23.4154 H   0  0  0  0  0  0
   13.8156   -8.8337   22.0254 H   0  0  0  0  0  0
   19.4314  -13.2871   24.4153 H   0  0  0  0  0  0
   18.8399  -15.9763   23.0984 H   0  0  0  0  0  0
   17.4402  -16.5313   23.9255 H   0  0  0  0  0  0
   18.9392  -16.0031   25.6891 H   0  0  0  0  0  0
   17.8019  -14.6919   25.6746 H   0  0  0  0  0  0
   10.4780  -12.2048   23.4349 H   0  0  0  0  0  0
   20.8258  -11.7277   25.7335 H   0  0  0  0  0  0
   21.4092  -12.2756   27.2954 H   0  0  0  0  0  0
   11.9271  -12.6655   21.4966 H   0  0  0  0  0  0
   21.2099  -12.4761   19.5574 H   0  0  0  0  0  0
   21.5283  -13.0432   21.1929 H   0  0  0  0  0  0
   21.0853  -14.1928   19.9320 H   0  0  0  0  0  0
   10.6909  -10.0956   24.6808 H   0  0  0  0  0  0
   20.8147  -15.1401   23.3363 H   0  0  0  0  0  0
   21.3670  -15.6208   24.9154 H   0  0  0  0  0  0
   23.2184  -12.3730   25.5208 H   0  0  0  0  0  0
   22.9320  -13.8990   26.2864 H   0  0  0  0  0  0
   21.9430  -12.9753   23.5313 H   0  0  0  0  0  0
   23.0951  -14.2499   23.8474 H   0  0  0  0  0  0
  1  2  1  0  0  0
  1  3  2  0  0  0
  1  5  1  0  0  0
  2  4  2  0  0  0
  3  6  1  0  0  0
  3  8  1  0  0  0
  4 11  1  0  0  0
  4  6  1  0  0  0
  5  7  2  0  0  0
  5 12  1  0  0  0
  7  9  1  0  0  0
  8  9  2  0  0  0
  8 28  1  0  0  0
  9 23  1  0  0  0
 10 15  1  0  0  0
 10 21  1  0  0  0
 10 29  1  0  0  0
 11 13  1  0  0  0
 11 30  1  0  0  0
 11 31  1  0  0  0
 12 17  1  0  0  0
 12 32  1  0  0  0
 13 14  2  0  0  0
 13 22  1  0  0  0
 14 16  1  0  0  0
 14 33  1  0  0  0
 15 18  1  0  0  0
 15 25  1  0  0  0
 15 34  1  0  0  0
 16 19  1  0  0  0
 16 24  2  0  0  0
 17 18  1  0  0  0
 17 35  1  0  0  0
 17 36  1  0  0  0
 18 37  1  0  0  0
 18 38  1  0  0  0
 20 22  2  0  0  0
 20 24  1  0  0  0
 20 39  1  0  0  0
 21 26  1  0  0  0
 21 40  1  0  0  0
 21 41  1  0  0  0
 22 42  1  0  0  0
 23 43  1  0  0  0
 23 44  1  0  0  0
 23 45  1  0  0  0
 24 46  1  0  0  0
 25 27  1  0  0  0
 25 47  1  0  0  0
 25 48  1  0  0  0
 26 27  1  0  0  0
 26 49  1  0  0  0
 26 50  1  0  0  0
 27 51  1  0  0  0
 27 52  1  0  0  0
M  END
> <s_m_entry_id>
35325

> <s_m_entry_name>
dock_pv.175

> <s_m_Source_Path>
/home/csk/Desktop/cluster/DUD-E-result/thrb

> <s_m_Source_File>
dock_pv.maegz

> <i_m_Source_File_Index>
175

> <chembl_id>
CHEMBL198071

> <chembl_pref_name>
None

> <i_lp_mmshare_version>
53161

> <r_lp_tautomer_probability>
1

> <s_lp_Force_Field>
OPLS_2005

> <r_lp_Energy>
23.744684

> <b_lp_Chiralities_Consistent>
1

> <s_lp_Variant>
CHEMBL204_lig4185-1

> <s_i_glide_gridfile>
glide-grid_1ype

> <i_i_glide_lignum>
5817

> <i_i_glide_rotatable_bonds>
6

> <r_i_docking_score>
-7.38311651636748

> <r_i_glide_ligand_efficiency>
-0.273448759865462

> <r_i_glide_ligand_efficiency_sa>
-0.820346278695144

> <r_i_glide_ligand_efficiency_ln>
-1.71866780482163

> <r_i_glide_gscore>
-7.38311651636748

> <r_i_glide_lipo>
-4.12866716934545

> <r_i_glide_hbond>
-0.32

> <r_i_glide_metal>
0

> <r_i_glide_rewards>
-0.784758409090908

> <r_i_glide_evdw>
-46.3980941772461

> <r_i_glide_ecoul>
-3.09820747375488

> <r_i_glide_erotb>
0.656344338067387

> <r_i_glide_esite>
-0.0213994460729694

> <r_i_glide_emodel>
-69.2877580165411

> <r_i_glide_energy>
-49.496301651001

> <r_i_glide_einternal>
4.09206533432007

> <i_i_glide_confnum>
25

> <i_i_glide_posenum>
377

> <r_i_glide_eff_state_penalty>
0

> <s_user_duplicate_titles>
CHEMBL204_lig4185

> <i_f3d_flags>
0

> <s_m_subgroup_title>
dock_pv

> <s_m_subgroupid>
dock_pv

> <b_m_subgroup_collapsed>
1

$$$$
CHEMBL204_lig3562
                    3D
 Schrodinger Suite 2021-1.
 56 59  0  0  1  0            999 V2000
   16.4167  -12.3158   18.2375 S   0  0  0  0  0  0
   19.3118  -13.2918   22.2707 N   0  0  0  0  0  0
   18.0918  -13.0536   21.7313 C   0  0  0  0  0  0
   18.2855  -13.1362   20.2123 C   0  0  1  0  0  0
   17.5575  -12.0333   19.5421 N   0  0  3  0  0  0
   14.8491  -12.6347   19.0402 C   0  0  0  0  0  0
   24.3574  -14.6022   24.3860 C   0  0  0  0  0  0
   19.7826  -13.1146   19.9659 C   0  0  0  0  0  0
   16.2918  -11.0530   17.5060 O   0  0  0  0  0  0
   16.8154  -13.5377   17.5336 O   0  0  0  0  0  0
   14.4012  -11.8072   20.0747 C   0  0  0  0  0  0
   19.5317  -13.2766   23.7234 C   0  0  0  0  0  0
   22.9063  -14.9174   24.5537 C   0  0  0  0  0  0
   20.3909  -13.4890   21.3005 C   0  0  0  0  0  0
   13.1716  -12.0376   20.7235 C   0  0  0  0  0  0
   24.7282  -13.4941   23.9209 N   0  0  0  0  0  0
   17.0239  -12.8486   22.3147 O   0  0  0  0  0  0
   21.9219  -14.0039   24.1276 C   0  0  0  0  0  0
   20.5559  -14.2862   24.2159 C   0  0  0  0  0  0
   12.6823  -11.1505   21.8349 C   0  0  0  0  0  0
   25.2170  -15.6095   24.7491 N   0  0  0  0  0  0
   14.0738  -13.7221   18.6389 C   0  0  0  0  0  0
   22.4442  -16.1248   25.1165 C   0  0  0  0  0  0
   12.4159  -13.1406   20.2929 C   0  0  0  0  0  0
   12.8587  -13.9745   19.2688 C   0  0  0  0  0  0
   21.0827  -16.4048   25.2336 C   0  0  0  0  0  0
   20.1378  -15.4867   24.7862 C   0  0  0  0  0  0
   11.6790  -11.5796   22.7214 C   0  0  0  0  0  0
   13.2146   -9.8643   22.0232 C   0  0  0  0  0  0
   12.7760   -9.0528   23.0643 C   0  0  0  0  0  0
   11.2168  -10.7589   23.7475 C   0  0  0  0  0  0
   11.7732   -9.4996   23.9208 C   0  0  0  0  0  0
   17.8397  -14.0645   19.8501 H   0  0  0  0  0  0
   17.9025  -11.0809   19.6798 H   0  0  0  0  0  0
   20.1169  -12.1175   19.6711 H   0  0  0  0  0  0
   20.0909  -13.8059   19.1795 H   0  0  0  0  0  0
   15.0384  -10.9914   20.3765 H   0  0  0  0  0  0
   18.5932  -13.4529   24.2505 H   0  0  0  0  0  0
   19.8547  -12.2777   24.0202 H   0  0  0  0  0  0
   21.2595  -12.8692   21.5280 H   0  0  0  0  0  0
   20.7178  -14.5294   21.3098 H   0  0  0  0  0  0
   25.7316  -13.4216   23.8212 H   0  0  0  0  0  0
   22.2181  -13.0589   23.6919 H   0  0  0  0  0  0
   26.2172  -15.4543   24.7221 H   0  0  0  0  0  0
   24.8759  -16.4460   25.1927 H   0  0  0  0  0  0
   14.4049  -14.3745   17.8430 H   0  0  0  0  0  0
   23.1320  -16.8743   25.4776 H   0  0  0  0  0  0
   11.4584  -13.3695   20.7339 H   0  0  0  0  0  0
   12.2550  -14.8144   18.9555 H   0  0  0  0  0  0
   20.7633  -17.3379   25.6735 H   0  0  0  0  0  0
   19.0853  -15.7133   24.8737 H   0  0  0  0  0  0
   11.2368  -12.5618   22.6460 H   0  0  0  0  0  0
   13.9766   -9.4678   21.3739 H   0  0  0  0  0  0
   13.2109   -8.0769   23.2067 H   0  0  0  0  0  0
   10.4296  -11.1014   24.4060 H   0  0  0  0  0  0
   11.4189   -8.8648   24.7204 H   0  0  0  0  0  0
  1  5  1  0  0  0
  1  6  1  0  0  0
  1  9  2  0  0  0
  1 10  2  0  0  0
  2  3  1  0  0  0
  2 12  1  0  0  0
  2 14  1  0  0  0
  3  4  1  0  0  0
  3 17  2  0  0  0
  4  5  1  0  0  0
  4  8  1  0  0  0
  4 33  1  0  0  0
  5 34  1  0  0  0
  6 11  2  0  0  0
  6 22  1  0  0  0
  7 13  1  0  0  0
  7 16  2  0  0  0
  7 21  1  0  0  0
  8 14  1  0  0  0
  8 35  1  0  0  0
  8 36  1  0  0  0
 11 15  1  0  0  0
 11 37  1  0  0  0
 12 19  1  0  0  0
 12 38  1  0  0  0
 12 39  1  0  0  0
 13 18  2  0  0  0
 13 23  1  0  0  0
 14 40  1  0  0  0
 14 41  1  0  0  0
 15 20  1  0  0  0
 15 24  2  0  0  0
 16 42  1  0  0  0
 18 19  1  0  0  0
 18 43  1  0  0  0
 19 27  2  0  0  0
 20 28  2  0  0  0
 20 29  1  0  0  0
 21 44  1  0  0  0
 21 45  1  0  0  0
 22 25  2  0  0  0
 22 46  1  0  0  0
 23 26  2  0  0  0
 23 47  1  0  0  0
 24 25  1  0  0  0
 24 48  1  0  0  0
 25 49  1  0  0  0
 26 27  1  0  0  0
 26 50  1  0  0  0
 27 51  1  0  0  0
 28 31  1  0  0  0
 28 52  1  0  0  0
 29 30  2  0  0  0
 29 53  1  0  0  0
 30 32  1  0  0  0
 30 54  1  0  0  0
 31 32  2  0  0  0
 31 55  1  0  0  0
 32 56  1  0  0  0
M  END
> <s_m_entry_id>
35326

> <s_m_entry_name>
dock_pv.176

> <s_m_Source_Path>
/home/csk/Desktop/cluster/DUD-E-result/thrb

> <s_m_Source_File>
dock_pv.maegz

> <i_m_Source_File_Index>
176

> <chembl_id>
CHEMBL333958

> <chembl_pref_name>
None

> <i_lp_mmshare_version>
53161

> <r_lp_tautomer_probability>
1

> <s_lp_Force_Field>
OPLS_2005

> <r_lp_Energy>
18.610298

> <b_lp_Chiralities_Consistent>
1

> <s_lp_Variant>
CHEMBL204_lig3562-1

> <s_i_glide_gridfile>
glide-grid_1ype

> <i_i_glide_lignum>
4967

> <i_i_glide_rotatable_bonds>
7

> <r_i_docking_score>
-7.37950502901627

> <r_i_glide_ligand_efficiency>
-0.230609532156758

> <r_i_glide_ligand_efficiency_sa>
-0.732139627033265

> <r_i_glide_ligand_efficiency_ln>
-1.65247233370648

> <r_i_glide_gscore>
-7.37950502901627

> <r_i_glide_lipo>
-3.34692343902829

> <r_i_glide_hbond>
-0.440170910351687

> <r_i_glide_metal>
0

> <r_i_glide_rewards>
-0.569429218047581

> <r_i_glide_evdw>
-50.0046043395996

> <r_i_glide_ecoul>
-7.46809244155884

> <r_i_glide_erotb>
0.597462621625099

> <r_i_glide_esite>
0

> <r_i_glide_emodel>
-79.083343591704

> <r_i_glide_energy>
-57.4726967811584

> <r_i_glide_einternal>
4.35313987731934

> <i_i_glide_confnum>
46

> <i_i_glide_posenum>
224

> <r_i_glide_eff_state_penalty>
0

> <s_user_duplicate_titles>
CHEMBL204_lig3562

> <i_f3d_flags>
0

> <s_m_subgroup_title>
dock_pv

> <s_m_subgroupid>
dock_pv

> <b_m_subgroup_collapsed>
1

$$$$
CHEMBL204_lig5100
                    3D
 Schrodinger Suite 2021-1.
 54 57  0  0  1  0            999 V2000
   21.2155  -15.2527   21.9817 N   0  0  0  0  0  0
   20.8496  -13.8589   22.1473 C   0  0  0  0  0  0
   19.9965  -13.3683   20.9808 C   0  0  0  0  0  0
   20.6441  -12.7439   19.9082 C   0  0  0  0  0  0
   19.9204  -12.2708   18.8165 C   0  0  0  0  0  0
   18.5339  -12.3981   18.7991 C   0  0  0  0  0  0
   17.6152  -11.8530   17.4428 Cl  0  0  0  0  0  0
   17.8792  -12.9951   19.8713 C   0  0  0  0  0  0
   18.5925  -13.5155   20.9634 C   0  0  0  0  0  0
   17.8776  -14.2461   22.1180 C   0  0  0  0  0  0
   16.4160  -14.3715   22.0906 N   0  0  0  0  0  0
   15.6837  -15.0251   21.1754 C   0  0  0  0  0  0
   16.1634  -15.6392   20.2236 O   0  0  0  0  0  0
   14.1517  -14.9309   21.3385 C   0  0  2  0  0  0
   13.4837  -16.3258   21.3213 C   0  0  0  0  0  0
   12.2401  -16.1730   20.4597 C   0  0  0  0  0  0
   12.6790  -15.1404   19.4342 C   0  0  0  0  0  0
   13.5172  -14.2247   20.2038 N   0  0  0  0  0  0
   13.6574  -12.9208   19.8565 C   0  0  0  0  0  0
   13.3468  -12.5427   18.7240 O   0  0  0  0  0  0
   14.1434  -11.8876   20.9182 C   0  0  1  0  0  0
   14.6499  -10.6545   20.3210 N   0  0  1  0  0  0
   14.3361   -9.5573   21.2238 C   0  0  0  0  0  0
   13.2130  -10.0638   22.0876 C   0  0  0  0  0  0
   12.4154   -9.3977   23.0187 C   0  0  0  0  0  0
   11.4202  -10.1021   23.6965 C   0  0  0  0  0  0
   11.2157  -11.4541   23.4270 C   0  0  0  0  0  0
   12.0197  -12.1187   22.5008 C   0  0  0  0  0  0
   13.0386  -11.4229   21.8471 C   0  0  0  0  0  0
   20.4251  -15.8022   21.6789 H   0  0  0  0  0  0
   21.9429  -15.3512   21.2800 H   0  0  0  0  0  0
   21.7569  -13.2587   22.2298 H   0  0  0  0  0  0
   20.3207  -13.7303   23.0911 H   0  0  0  0  0  0
   21.7195  -12.6390   19.9120 H   0  0  0  0  0  0
   20.4392  -11.8188   17.9845 H   0  0  0  0  0  0
   16.8062  -13.0695   19.8148 H   0  0  0  0  0  0
   18.3030  -15.2454   22.2273 H   0  0  0  0  0  0
   18.1097  -13.7117   23.0402 H   0  0  0  0  0  0
   15.9203  -14.0214   22.9006 H   0  0  0  0  0  0
   13.8868  -14.4196   22.2655 H   0  0  0  0  0  0
   14.1337  -17.0735   20.8632 H   0  0  0  0  0  0
   13.2437  -16.6843   22.3206 H   0  0  0  0  0  0
   11.8959  -17.1081   20.0171 H   0  0  0  0  0  0
   11.4257  -15.7631   21.0604 H   0  0  0  0  0  0
   13.2786  -15.5951   18.6443 H   0  0  0  0  0  0
   11.8170  -14.6543   18.9741 H   0  0  0  0  0  0
   14.9527  -12.3296   21.4915 H   0  0  0  0  0  0
   15.6472  -10.7141   20.1754 H   0  0  0  0  0  0
   15.2128   -9.2695   21.8002 H   0  0  0  0  0  0
   14.0241   -8.6936   20.6375 H   0  0  0  0  0  0
   12.5579   -8.3481   23.2278 H   0  0  0  0  0  0
   10.7875   -9.6018   24.4166 H   0  0  0  0  0  0
   10.4257  -11.9882   23.9386 H   0  0  0  0  0  0
   11.8536  -13.1689   22.3211 H   0  0  0  0  0  0
  1  2  1  0  0  0
  1 30  1  0  0  0
  1 31  1  0  0  0
  2  3  1  0  0  0
  2 32  1  0  0  0
  2 33  1  0  0  0
  3  4  2  0  0  0
  3  9  1  0  0  0
  4  5  1  0  0  0
  4 34  1  0  0  0
  5  6  2  0  0  0
  5 35  1  0  0  0
  6  7  1  0  0  0
  6  8  1  0  0  0
  8  9  2  0  0  0
  8 36  1  0  0  0
  9 10  1  0  0  0
 10 11  1  0  0  0
 10 37  1  0  0  0
 10 38  1  0  0  0
 11 12  1  0  0  0
 11 39  1  0  0  0
 12 13  2  0  0  0
 12 14  1  0  0  0
 14 15  1  0  0  0
 14 18  1  0  0  0
 14 40  1  0  0  0
 15 16  1  0  0  0
 15 41  1  0  0  0
 15 42  1  0  0  0
 16 17  1  0  0  0
 16 43  1  0  0  0
 16 44  1  0  0  0
 17 18  1  0  0  0
 17 45  1  0  0  0
 17 46  1  0  0  0
 18 19  1  0  0  0
 19 20  2  0  0  0
 19 21  1  0  0  0
 21 22  1  0  0  0
 21 29  1  0  0  0
 21 47  1  0  0  0
 22 23  1  0  0  0
 22 48  1  0  0  0
 23 24  1  0  0  0
 23 49  1  0  0  0
 23 50  1  0  0  0
 24 25  2  0  0  0
 24 29  1  0  0  0
 25 26  1  0  0  0
 25 51  1  0  0  0
 26 27  2  0  0  0
 26 52  1  0  0  0
 27 28  1  0  0  0
 27 53  1  0  0  0
 28 29  2  0  0  0
 28 54  1  0  0  0
M  END
> <s_m_entry_id>
35327

> <s_m_entry_name>
dock_pv.177

> <s_m_Source_Path>
/home/csk/Desktop/cluster/DUD-E-result/thrb

> <s_m_Source_File>
dock_pv.maegz

> <i_m_Source_File_Index>
177

> <chembl_id>
CHEMBL3952796

> <chembl_pref_name>
None

> <i_lp_mmshare_version>
53161

> <r_lp_tautomer_probability>
1

> <s_lp_Force_Field>
OPLS_2005

> <r_lp_Energy>
43.205373

> <b_lp_Chiralities_Consistent>
1

> <s_lp_Variant>
CHEMBL204_lig5100-2

> <s_i_glide_gridfile>
glide-grid_1ype

> <i_i_glide_lignum>
6983

> <i_i_glide_rotatable_bonds>
7

> <r_i_docking_score>
-7.37815136830457

> <r_i_glide_ligand_efficiency>
-0.254419012700158

> <r_i_glide_ligand_efficiency_sa>
-0.78165581261572

> <r_i_glide_ligand_efficiency_ln>
-1.68940956956594

> <r_i_glide_gscore>
-7.37815136830457

> <r_i_glide_lipo>
-3.2878818651967

> <r_i_glide_hbond>
-0.575533875368777

> <r_i_glide_metal>
0

> <r_i_glide_rewards>
-0.956801305648466

> <r_i_glide_evdw>
-40.3990478515625

> <r_i_glide_ecoul>
-8.02114295959473

> <r_i_glide_erotb>
0.694091283831954

> <r_i_glide_esite>
-0.0289017694052505

> <r_i_glide_emodel>
-66.1144097300289

> <r_i_glide_energy>
-48.4201908111572

> <r_i_glide_einternal>
5.62548398971558

> <i_i_glide_confnum>
22

> <i_i_glide_posenum>
135

> <r_i_glide_eff_state_penalty>
0

> <s_user_duplicate_titles>
CHEMBL204_lig5100,CHEMBL204_lig5101

> <i_f3d_flags>
0

> <s_m_subgroup_title>
dock_pv

> <s_m_subgroupid>
dock_pv

> <b_m_subgroup_collapsed>
1

$$$$
CHEMBL204_lig4522
                    3D
 Schrodinger Suite 2021-1.
 63 68  0  0  1  0            999 V2000
   18.8629  -14.6767   21.8672 C   0  0  0  0  0  0
   19.4399  -15.4830   22.8563 C   0  0  0  0  0  0
   20.7462  -15.2704   23.2879 C   0  0  0  0  0  0
   21.5015  -14.2507   22.7207 C   0  0  0  0  0  0
   20.9509  -13.4527   21.7220 C   0  0  0  0  0  0
   19.6304  -13.6383   21.2923 C   0  0  0  0  0  0
   17.4665  -14.9688   21.4742 C   0  0  0  0  0  0
   17.1701  -16.0848   20.6937 C   0  0  0  0  0  0
   15.1110  -14.4403   21.5210 C   0  0  0  0  0  0
   16.4162  -14.1746   21.9205 C   0  0  0  0  0  0
   12.6265  -14.7852   19.6615 C   0  0  0  0  0  0
   12.9375  -13.3860   19.8069 C   0  0  0  0  0  0
   11.5557  -15.0491   19.1129 O   0  0  0  0  0  0
   12.4418  -12.5497   20.8007 C   0  0  0  0  0  0
   13.0519  -11.3091   20.6234 C   0  0  0  0  0  0
   13.8842  -11.3621   19.6103 N   0  0  0  0  0  0
   13.8211  -12.6002   19.0697 N   0  0  0  0  0  0
   12.8644  -10.0134   21.3933 C   0  0  0  0  0  0
   12.3917   -9.0534   20.5994 F   0  0  0  0  0  0
   12.0113  -10.1622   22.4056 F   0  0  0  0  0  0
   14.0166   -9.5786   21.8999 F   0  0  0  0  0  0
   14.5707  -12.8450   17.8669 C   0  0  0  0  0  0
   14.9442  -14.1419   17.4692 C   0  0  0  0  0  0
   15.6694  -14.3890   16.3030 C   0  0  0  0  0  0
   14.9355  -11.7530   17.0474 C   0  0  0  0  0  0
   15.6642  -11.9740   15.8702 C   0  0  0  0  0  0
   16.0172  -13.2826   15.5288 C   0  0  0  0  0  0
   16.7244  -13.2821   14.3618 O   0  0  0  0  0  0
   16.8243  -11.9562   13.9153 N   0  0  0  0  0  0
   16.2012  -11.2069   14.7962 C   0  0  0  0  0  0
   16.0984   -9.8533   14.6840 N   0  0  0  0  0  0
   19.0009  -12.5060   20.0224 S   0  0  0  0  0  0
   18.0846  -11.1846   20.9962 C   0  0  0  0  0  0
   20.1544  -11.8543   19.3899 O   0  0  0  0  0  0
   18.0212  -13.2109   19.1908 O   0  0  0  0  0  0
   14.8222  -15.4617   20.6026 C   0  0  0  0  0  0
   15.8657  -16.3505   20.2645 C   0  0  0  0  0  0
   15.5391  -17.5996   19.4651 C   0  0  0  0  0  0
   14.2165  -18.1561   20.0095 C   0  0  0  0  0  0
   13.0644  -17.1406   19.8467 C   0  0  0  0  0  0
   13.4843  -15.7419   20.1666 N   0  0  0  0  0  0
   18.8634  -16.2800   23.3040 H   0  0  0  0  0  0
   21.1726  -15.8959   24.0582 H   0  0  0  0  0  0
   22.5163  -14.0816   23.0486 H   0  0  0  0  0  0
   21.5608  -12.6707   21.2927 H   0  0  0  0  0  0
   17.9702  -16.7478   20.3966 H   0  0  0  0  0  0
   14.3282  -13.8370   21.9489 H   0  0  0  0  0  0
   16.6030  -13.3721   22.6167 H   0  0  0  0  0  0
   11.7213  -12.8108   21.5668 H   0  0  0  0  0  0
   14.6854  -15.0081   18.0456 H   0  0  0  0  0  0
   15.9459  -15.3911   16.0104 H   0  0  0  0  0  0
   14.6544  -10.7431   17.3031 H   0  0  0  0  0  0
   15.6246   -9.3127   15.3886 H   0  0  0  0  0  0
   16.2672   -9.3812   13.8031 H   0  0  0  0  0  0
   17.8070  -10.3791   20.3208 H   0  0  0  0  0  0
   17.1856  -11.6068   21.4317 H   0  0  0  0  0  0
   18.7361  -10.7943   21.7750 H   0  0  0  0  0  0
   15.4432  -17.3534   18.4066 H   0  0  0  0  0  0
   16.3320  -18.3442   19.5487 H   0  0  0  0  0  0
   14.3298  -18.4097   21.0651 H   0  0  0  0  0  0
   13.9548  -19.0896   19.5104 H   0  0  0  0  0  0
   12.1668  -17.4025   20.4100 H   0  0  0  0  0  0
   12.7369  -17.1700   18.8040 H   0  0  0  0  0  0
  1  7  1  0  0  0
  1  6  1  0  0  0
  1  2  2  0  0  0
  2  3  1  0  0  0
  2 42  1  0  0  0
  3  4  2  0  0  0
  3 43  1  0  0  0
  4  5  1  0  0  0
  4 44  1  0  0  0
  5  6  2  0  0  0
  5 45  1  0  0  0
  6 32  1  0  0  0
  7 10  1  0  0  0
  7  8  2  0  0  0
  8 37  1  0  0  0
  8 46  1  0  0  0
  9 10  2  0  0  0
  9 36  1  0  0  0
  9 47  1  0  0  0
 10 48  1  0  0  0
 11 41  1  0  0  0
 11 12  1  0  0  0
 11 13  2  0  0  0
 12 14  2  0  0  0
 12 17  1  0  0  0
 14 15  1  0  0  0
 14 49  1  0  0  0
 15 16  2  0  0  0
 15 18  1  0  0  0
 16 17  1  0  0  0
 17 22  1  0  0  0
 18 19  1  0  0  0
 18 20  1  0  0  0
 18 21  1  0  0  0
 22 23  2  0  0  0
 22 25  1  0  0  0
 23 24  1  0  0  0
 23 50  1  0  0  0
 24 27  2  0  0  0
 24 51  1  0  0  0
 25 26  2  0  0  0
 25 52  1  0  0  0
 26 27  1  0  0  0
 26 30  1  0  0  0
 27 28  1  0  0  0
 28 29  1  0  0  0
 29 30  2  0  0  0
 30 31  1  0  0  0
 31 53  1  0  0  0
 31 54  1  0  0  0
 32 33  1  0  0  0
 32 34  2  0  0  0
 32 35  2  0  0  0
 33 55  1  0  0  0
 33 56  1  0  0  0
 33 57  1  0  0  0
 36 37  2  0  0  0
 36 41  1  0  0  0
 37 38  1  0  0  0
 38 39  1  0  0  0
 38 58  1  0  0  0
 38 59  1  0  0  0
 39 40  1  0  0  0
 39 60  1  0  0  0
 39 61  1  0  0  0
 40 41  1  0  0  0
 40 62  1  0  0  0
 40 63  1  0  0  0
M  END
> <s_m_entry_id>
35329

> <s_m_entry_name>
dock_pv.179

> <s_m_Source_Path>
/home/csk/Desktop/cluster/DUD-E-result/thrb

> <s_m_Source_File>
dock_pv.maegz

> <i_m_Source_File_Index>
179

> <chembl_id>
CHEMBL398516

> <chembl_pref_name>
None

> <i_lp_mmshare_version>
53161

> <r_lp_tautomer_probability>
1

> <s_lp_Force_Field>
OPLS_2005

> <r_lp_Energy>
63.852523

> <b_lp_Chiralities_Consistent>
1

> <s_lp_Variant>
CHEMBL204_lig4522-1

> <s_i_glide_gridfile>
glide-grid_1ype

> <i_i_glide_lignum>
6190

> <i_i_glide_rotatable_bonds>
6

> <r_i_docking_score>
-7.37721790958923

> <r_i_glide_ligand_efficiency>
-0.179932144136323

> <r_i_glide_ligand_efficiency_sa>
-0.620445120741875

> <r_i_glide_ligand_efficiency_ln>
-1.565101329775

> <r_i_glide_gscore>
-7.37721790958923

> <r_i_glide_lipo>
-2.02976123632216

> <r_i_glide_hbond>
-0.150992997821547

> <r_i_glide_metal>
0

> <r_i_glide_rewards>
-1.92897251319925

> <r_i_glide_evdw>
-53.7448425292969

> <r_i_glide_ecoul>
-4.04905700683594

> <r_i_glide_erotb>
0.146407247711974

> <r_i_glide_esite>
-0.119297732468009

> <r_i_glide_emodel>
-77.2802492359727

> <r_i_glide_energy>
-57.7938995361328

> <r_i_glide_einternal>
8.12364196777344

> <i_i_glide_confnum>
35

> <i_i_glide_posenum>
270

> <r_i_glide_eff_state_penalty>
0

> <s_user_duplicate_titles>
CHEMBL204_lig4522

> <i_f3d_flags>
0

> <s_m_subgroup_title>
dock_pv

> <s_m_subgroupid>
dock_pv

> <b_m_subgroup_collapsed>
1

$$$$
CHEMBL204_lig5129
                    3D
 Schrodinger Suite 2021-1.
 52 54  0  0  1  0            999 V2000
   20.8151  -14.0048   19.8306 C   0  0  0  0  0  0
   19.4537  -13.9970   20.3567 N   0  0  0  0  0  0
   18.8434  -12.6531   20.2375 C   0  0  1  0  0  0
   19.9202  -11.8473   19.5129 C   0  0  0  0  0  0
   21.2160  -12.5445   19.8286 C   0  0  0  0  0  0
   18.9343  -15.0963   21.0468 C   0  0  0  0  0  0
   17.8138  -14.7490   21.7114 O   0  0  0  0  0  0
   17.5003  -12.5961   19.4890 C   0  0  0  0  0  0
   16.4980  -12.0011   20.1457 N   0  0  0  0  0  0
   17.4072  -13.0536   18.3508 O   0  0  0  0  0  0
   15.1551  -11.8249   19.6062 C   0  0  0  0  0  0
   14.2144  -11.2634   20.6582 C   0  0  0  0  0  0
   14.3904   -9.9586   21.1169 C   0  0  0  0  0  0
   13.5661   -9.4542   22.1124 C   0  0  0  0  0  0
   12.5575  -10.2415   22.6952 C   0  0  0  0  0  0
   12.3632  -11.5385   22.1774 C   0  0  0  0  0  0
   13.1783  -12.0426   21.1689 C   0  0  0  0  0  0
   11.7759   -9.7088   23.8456 C   0  0  0  0  0  0
   10.8160  -10.5606   24.3211 N   0  0  0  0  0  0
   12.0158   -8.5649   24.3211 N   0  0  0  0  0  0
   19.4721  -16.2023   21.1362 O   0  0  0  0  0  0
   17.4517  -15.4026   22.9215 C   0  0  0  0  0  0
   18.3174  -14.9699   24.1112 C   0  0  0  0  0  0
   19.1655  -13.8531   24.0514 C   0  0  0  0  0  0
   19.9599  -13.5101   25.1381 C   0  0  0  0  0  0
   19.9063  -14.2832   26.2912 C   0  0  0  0  0  0
   19.0545  -15.3833   26.3716 C   0  0  0  0  0  0
   18.2563  -15.7243   25.2845 C   0  0  0  0  0  0
   20.8157  -14.3993   18.8144 H   0  0  0  0  0  0
   21.5079  -14.6031   20.4257 H   0  0  0  0  0  0
   18.7254  -12.2439   21.2418 H   0  0  0  0  0  0
   19.7645  -11.8549   18.4326 H   0  0  0  0  0  0
   19.9420  -10.8108   19.8468 H   0  0  0  0  0  0
   22.0135  -12.3170   19.1202 H   0  0  0  0  0  0
   21.5584  -12.2587   20.8241 H   0  0  0  0  0  0
   16.6682  -11.6211   21.0659 H   0  0  0  0  0  0
   14.7700  -12.7630   19.1985 H   0  0  0  0  0  0
   15.1960  -11.1130   18.7792 H   0  0  0  0  0  0
   15.1870   -9.3405   20.7274 H   0  0  0  0  0  0
   13.7613   -8.4524   22.4679 H   0  0  0  0  0  0
   11.6012  -12.1968   22.5699 H   0  0  0  0  0  0
   13.0220  -13.0520   20.8165 H   0  0  0  0  0  0
   10.1326  -10.2343   25.0007 H   0  0  0  0  0  0
   10.5404  -11.3678   23.7854 H   0  0  0  0  0  0
   11.3999   -8.3557   25.0917 H   0  0  0  0  0  0
   16.4174  -15.1395   23.1213 H   0  0  0  0  0  0
   17.4946  -16.4868   22.7982 H   0  0  0  0  0  0
   19.2204  -13.2359   23.1695 H   0  0  0  0  0  0
   20.6133  -12.6506   25.0885 H   0  0  0  0  0  0
   20.5315  -14.0163   27.1264 H   0  0  0  0  0  0
   19.0121  -15.9693   27.2781 H   0  0  0  0  0  0
   17.5991  -16.5799   25.3513 H   0  0  0  0  0  0
  1  2  1  0  0  0
  1  5  1  0  0  0
  1 29  1  0  0  0
  1 30  1  0  0  0
  2  3  1  0  0  0
  2  6  1  0  0  0
  3  4  1  0  0  0
  3  8  1  0  0  0
  3 31  1  0  0  0
  4  5  1  0  0  0
  4 32  1  0  0  0
  4 33  1  0  0  0
  5 34  1  0  0  0
  5 35  1  0  0  0
  6  7  1  0  0  0
  6 21  2  0  0  0
  7 22  1  0  0  0
  8  9  1  0  0  0
  8 10  2  0  0  0
  9 11  1  0  0  0
  9 36  1  0  0  0
 11 12  1  0  0  0
 11 37  1  0  0  0
 11 38  1  0  0  0
 12 13  2  0  0  0
 12 17  1  0  0  0
 13 14  1  0  0  0
 13 39  1  0  0  0
 14 15  2  0  0  0
 14 40  1  0  0  0
 15 16  1  0  0  0
 15 18  1  0  0  0
 16 17  2  0  0  0
 16 41  1  0  0  0
 17 42  1  0  0  0
 18 19  1  0  0  0
 18 20  2  0  0  0
 19 43  1  0  0  0
 19 44  1  0  0  0
 20 45  1  0  0  0
 22 23  1  0  0  0
 22 46  1  0  0  0
 22 47  1  0  0  0
 23 24  2  0  0  0
 23 28  1  0  0  0
 24 25  1  0  0  0
 24 48  1  0  0  0
 25 26  2  0  0  0
 25 49  1  0  0  0
 26 27  1  0  0  0
 26 50  1  0  0  0
 27 28  2  0  0  0
 27 51  1  0  0  0
 28 52  1  0  0  0
M  END
> <s_m_entry_id>
35330

> <s_m_entry_name>
dock_pv.180

> <s_m_Source_Path>
/home/csk/Desktop/cluster/DUD-E-result/thrb

> <s_m_Source_File>
dock_pv.maegz

> <i_m_Source_File_Index>
180

> <chembl_id>
CHEMBL4085917

> <chembl_pref_name>
None

> <i_lp_mmshare_version>
53161

> <r_lp_tautomer_probability>
1

> <s_lp_Force_Field>
OPLS_2005

> <r_lp_Energy>
15.147117

> <b_lp_Chiralities_Consistent>
1

> <s_lp_Variant>
CHEMBL204_lig5129-1

> <s_i_glide_gridfile>
glide-grid_1ype

> <i_i_glide_lignum>
7028

> <i_i_glide_rotatable_bonds>
9

> <r_i_docking_score>
-7.37673627298015

> <r_i_glide_ligand_efficiency>
-0.263454866892148

> <r_i_glide_ligand_efficiency_sa>
-0.800004142503075

> <r_i_glide_ligand_efficiency_ln>
-1.70276732219223

> <r_i_glide_gscore>
-7.37673627298015

> <r_i_glide_lipo>
-3.48184670354448

> <r_i_glide_hbond>
-0.16

> <r_i_glide_metal>
0

> <r_i_glide_rewards>
-1.54576188499642

> <r_i_glide_evdw>
-44.7421455383301

> <r_i_glide_ecoul>
-5.39142322540283

> <r_i_glide_erotb>
0.938292535275554

> <r_i_glide_esite>
-0.0815994589878677

> <r_i_glide_emodel>
-68.630426615505

> <r_i_glide_energy>
-50.1335687637329

> <r_i_glide_einternal>
7.13583326339722

> <i_i_glide_confnum>
45

> <i_i_glide_posenum>
37

> <r_i_glide_eff_state_penalty>
0

> <s_user_duplicate_titles>
CHEMBL204_lig5129

> <i_f3d_flags>
0

> <s_m_subgroup_title>
dock_pv

> <s_m_subgroupid>
dock_pv

> <b_m_subgroup_collapsed>
1

$$$$
CHEMBL204_lig3591
                    3D
 Schrodinger Suite 2021-1.
 52 55  0  0  1  0            999 V2000
   14.6250  -12.6517   18.4838 S   0  0  0  0  0  0
   19.2150  -12.2925   20.5736 N   0  0  0  0  0  0
   18.5412  -12.3849   19.4109 C   0  0  0  0  0  0
   17.0822  -12.0587   19.7265 C   0  0  1  0  0  0
   16.2015  -13.0864   19.1228 N   0  0  1  0  0  0
   13.6321  -12.1901   19.9101 C   0  0  0  0  0  0
   22.7554  -14.5793   24.8564 C   0  0  0  0  0  0
   13.0254  -10.5901   21.6645 C   0  0  0  0  0  0
   16.9844  -11.9541   21.2317 C   0  0  0  0  0  0
   13.7997  -10.9463   20.5261 C   0  0  0  0  0  0
   14.8001  -11.4529   17.6570 O   0  0  0  0  0  0
   14.0414  -13.8735   17.9214 O   0  0  0  0  0  0
   20.6227  -12.6974   20.6826 C   0  0  0  0  0  0
   21.8907  -14.7840   23.6526 C   0  0  0  0  0  0
   18.4182  -11.8306   21.7055 C   0  0  0  0  0  0
   23.2515  -13.4530   25.1207 N   0  0  0  0  0  0
   18.9982  -12.6524   18.3035 O   0  0  0  0  0  0
   21.6155  -13.7111   22.7803 C   0  0  0  0  0  0
   12.0556  -11.5140   22.1572 C   0  0  0  0  0  0
   13.1891   -9.3541   22.3391 C   0  0  0  0  0  0
   20.8410  -13.8697   21.6270 C   0  0  0  0  0  0
   12.6927  -13.0894   20.4088 C   0  0  0  0  0  0
   11.9144  -12.7586   21.5115 C   0  0  0  0  0  0
   11.2631  -11.1694   23.2793 C   0  0  0  0  0  0
   22.9690  -15.6999   25.6205 N   0  0  0  0  0  0
   12.4161   -9.0538   23.4630 C   0  0  0  0  0  0
   11.4551   -9.9496   23.9202 C   0  0  0  0  0  0
   12.6698   -7.5760   24.3210 Cl  0  0  0  0  0  0
   21.3254  -16.0326   23.3199 C   0  0  0  0  0  0
   20.5425  -16.1989   22.1776 C   0  0  0  0  0  0
   20.3048  -15.1221   21.3284 C   0  0  0  0  0  0
   16.8184  -11.1151   19.2498 H   0  0  0  0  0  0
   16.2399  -14.0086   19.5631 H   0  0  0  0  0  0
   16.5137  -12.8390   21.6630 H   0  0  0  0  0  0
   16.3971  -11.0861   21.5192 H   0  0  0  0  0  0
   14.5371  -10.2521   20.1531 H   0  0  0  0  0  0
   21.2425  -11.8538   20.9784 H   0  0  0  0  0  0
   21.0178  -12.9977   19.7099 H   0  0  0  0  0  0
   18.6054  -12.4214   22.6054 H   0  0  0  0  0  0
   18.6691  -10.7907   21.9207 H   0  0  0  0  0  0
   23.8187  -13.4878   25.9536 H   0  0  0  0  0  0
   22.0191  -12.7300   22.9898 H   0  0  0  0  0  0
   13.9361   -8.6545   21.9942 H   0  0  0  0  0  0
   12.5536  -14.0544   19.9425 H   0  0  0  0  0  0
   11.1818  -13.4536   21.8854 H   0  0  0  0  0  0
   10.5137  -11.8586   23.6433 H   0  0  0  0  0  0
   23.5699  -15.6417   26.4308 H   0  0  0  0  0  0
   22.5669  -16.5885   25.3742 H   0  0  0  0  0  0
   10.8443   -9.7049   24.7795 H   0  0  0  0  0  0
   21.4848  -16.9045   23.9374 H   0  0  0  0  0  0
   20.1264  -17.1679   21.9457 H   0  0  0  0  0  0
   19.7118  -15.2606   20.4359 H   0  0  0  0  0  0
  1  5  1  0  0  0
  1  6  1  0  0  0
  1 11  2  0  0  0
  1 12  2  0  0  0
  2  3  1  0  0  0
  2 13  1  0  0  0
  2 15  1  0  0  0
  3  4  1  0  0  0
  3 17  2  0  0  0
  4  5  1  0  0  0
  4  9  1  0  0  0
  4 32  1  0  0  0
  5 33  1  0  0  0
  6 10  2  0  0  0
  6 22  1  0  0  0
  7 14  1  0  0  0
  7 16  2  0  0  0
  7 25  1  0  0  0
  8 10  1  0  0  0
  8 20  1  0  0  0
  8 19  2  0  0  0
  9 15  1  0  0  0
  9 34  1  0  0  0
  9 35  1  0  0  0
 10 36  1  0  0  0
 13 21  1  0  0  0
 13 37  1  0  0  0
 13 38  1  0  0  0
 14 18  2  0  0  0
 14 29  1  0  0  0
 15 39  1  0  0  0
 15 40  1  0  0  0
 16 41  1  0  0  0
 18 21  1  0  0  0
 18 42  1  0  0  0
 19 23  1  0  0  0
 19 24  1  0  0  0
 20 26  2  0  0  0
 20 43  1  0  0  0
 21 31  2  0  0  0
 22 23  2  0  0  0
 22 44  1  0  0  0
 23 45  1  0  0  0
 24 27  2  0  0  0
 24 46  1  0  0  0
 25 47  1  0  0  0
 25 48  1  0  0  0
 26 28  1  0  0  0
 26 27  1  0  0  0
 27 49  1  0  0  0
 29 30  2  0  0  0
 29 50  1  0  0  0
 30 31  1  0  0  0
 30 51  1  0  0  0
 31 52  1  0  0  0
M  END
> <s_m_entry_id>
35331

> <s_m_entry_name>
dock_pv.181

> <s_m_Source_Path>
/home/csk/Desktop/cluster/DUD-E-result/thrb

> <s_m_Source_File>
dock_pv.maegz

> <i_m_Source_File_Index>
181

> <chembl_id>
CHEMBL331955

> <chembl_pref_name>
None

> <i_lp_mmshare_version>
53161

> <r_lp_tautomer_probability>
1

> <s_lp_Force_Field>
OPLS_2005

> <r_lp_Energy>
19.797029

> <b_lp_Chiralities_Consistent>
1

> <s_lp_Variant>
CHEMBL204_lig3591-1

> <s_i_glide_gridfile>
glide-grid_1ype

> <i_i_glide_lignum>
5012

> <i_i_glide_rotatable_bonds>
6

> <r_i_docking_score>
-7.37389552549284

> <r_i_glide_ligand_efficiency>
-0.237867597596543

> <r_i_glide_ligand_efficiency_sa>
-0.747232668065273

> <r_i_glide_ligand_efficiency_ln>
-1.66303942375699

> <r_i_glide_gscore>
-7.37389552549284

> <r_i_glide_lipo>
-3.38126187242675

> <r_i_glide_hbond>
0

> <r_i_glide_metal>
0

> <r_i_glide_rewards>
-1.15618432506205

> <r_i_glide_evdw>
-49.688304901123

> <r_i_glide_ecoul>
-5.55587482452393

> <r_i_glide_erotb>
0.481347140730703

> <r_i_glide_esite>
0

> <r_i_glide_emodel>
-77.5886383449416

> <r_i_glide_energy>
-55.244179725647

> <r_i_glide_einternal>
3.90263438224792

> <i_i_glide_confnum>
17

> <i_i_glide_posenum>
273

> <r_i_glide_eff_state_penalty>
0

> <s_user_duplicate_titles>
CHEMBL204_lig3591

> <i_f3d_flags>
0

> <s_m_subgroup_title>
dock_pv

> <s_m_subgroupid>
dock_pv

> <b_m_subgroup_collapsed>
1

$$$$
CHEMBL204_lig3497
                    3D
 Schrodinger Suite 2021-1.
 55 57  0  0  1  0            999 V2000
   13.9921  -10.3958   20.7541 S   0  0  0  0  0  0
   12.8519  -10.3878   22.1097 C   0  0  0  0  0  0
   24.2330  -14.2555   24.1342 C   0  0  0  0  0  0
   22.8298  -14.5030   24.2938 N   0  0  0  0  0  0
   14.5542  -11.9644   20.8646 O   0  0  0  0  0  0
   15.8261  -12.2168   20.4352 C   0  0  0  0  0  0
   15.0695   -9.4683   21.1178 O   0  0  0  0  0  0
   13.2160  -10.2560   19.5174 O   0  0  0  0  0  0
   25.0309  -15.0098   23.5212 N   0  0  0  0  0  0
   12.0238  -11.4767   22.4140 C   0  0  0  0  0  0
   16.7551  -12.7287   21.3374 C   0  0  0  0  0  0
   22.1884  -15.7415   23.8150 C   0  0  0  0  0  0
   21.9327  -13.7112   25.1557 C   0  0  0  0  0  0
   18.0735  -12.9904   20.9337 C   0  0  0  0  0  0
   24.7069  -13.0527   24.6835 N   0  0  0  0  0  0
   17.4956  -12.2586   18.6880 C   0  0  0  0  0  0
   16.1926  -11.9961   19.1079 C   0  0  0  0  0  0
   19.0567  -13.4902   21.7635 O   0  0  0  0  0  0
   18.4346  -12.7343   19.6082 C   0  0  0  0  0  0
   12.0127  -12.6535   21.6698 N   0  0  0  0  0  0
   18.6815  -14.1252   22.9873 C   0  0  0  0  0  0
   20.9257  -15.3949   22.9935 C   0  0  0  0  0  0
   20.6928  -13.2950   24.3396 C   0  0  0  0  0  0
   12.8160   -9.2330   22.8985 C   0  0  0  0  0  0
   19.9333  -14.5221   23.7962 C   0  0  0  0  0  0
   11.1899  -11.4006   23.5211 C   0  0  0  0  0  0
   17.8685  -12.0336   17.2370 C   0  0  0  0  0  0
   12.0012   -9.1773   24.0187 C   0  0  0  0  0  0
   11.1848  -10.2618   24.3234 C   0  0  0  0  0  0
   25.9693  -14.6337   23.5296 H   0  0  0  0  0  0
   16.4274  -12.9076   22.3476 H   0  0  0  0  0  0
   22.8654  -16.3432   23.2064 H   0  0  0  0  0  0
   21.9221  -16.3500   24.6804 H   0  0  0  0  0  0
   22.4036  -12.8292   25.5884 H   0  0  0  0  0  0
   21.6328  -14.3395   25.9962 H   0  0  0  0  0  0
   25.6698  -12.7691   24.5915 H   0  0  0  0  0  0
   24.1010  -12.3992   25.1522 H   0  0  0  0  0  0
   15.4594  -11.6214   18.4084 H   0  0  0  0  0  0
   19.4474  -12.9411   19.2936 H   0  0  0  0  0  0
   11.5115  -13.4400   22.0677 H   0  0  0  0  0  0
   12.7996  -12.8128   21.0545 H   0  0  0  0  0  0
   18.0806  -15.0104   22.7710 H   0  0  0  0  0  0
   18.0722  -13.4658   23.6042 H   0  0  0  0  0  0
   21.2293  -14.8932   22.0722 H   0  0  0  0  0  0
   20.4298  -16.3029   22.6485 H   0  0  0  0  0  0
   20.0289  -12.6755   24.9450 H   0  0  0  0  0  0
   20.9948  -12.6525   23.5134 H   0  0  0  0  0  0
   13.4488   -8.3861   22.6754 H   0  0  0  0  0  0
   19.6157  -15.1062   24.6624 H   0  0  0  0  0  0
   10.5332  -12.2216   23.7751 H   0  0  0  0  0  0
   17.2909  -12.7047   16.6006 H   0  0  0  0  0  0
   17.6115  -11.0211   16.9355 H   0  0  0  0  0  0
   18.9318  -12.1911   17.0561 H   0  0  0  0  0  0
   11.9878   -8.2963   24.6440 H   0  0  0  0  0  0
   10.5235  -10.2278   25.1766 H   0  0  0  0  0  0
  1  2  1  0  0  0
  1  5  1  0  0  0
  1  7  2  0  0  0
  1  8  2  0  0  0
  2 10  1  0  0  0
  2 24  2  0  0  0
  3  4  1  0  0  0
  3  9  2  0  0  0
  3 15  1  0  0  0
  4 13  1  0  0  0
  4 12  1  0  0  0
  5  6  1  0  0  0
  6 11  2  0  0  0
  6 17  1  0  0  0
  9 30  1  0  0  0
 10 20  1  0  0  0
 10 26  2  0  0  0
 11 14  1  0  0  0
 11 31  1  0  0  0
 12 22  1  0  0  0
 12 32  1  0  0  0
 12 33  1  0  0  0
 13 23  1  0  0  0
 13 34  1  0  0  0
 13 35  1  0  0  0
 14 18  1  0  0  0
 14 19  2  0  0  0
 15 36  1  0  0  0
 15 37  1  0  0  0
 16 17  2  0  0  0
 16 19  1  0  0  0
 16 27  1  0  0  0
 17 38  1  0  0  0
 18 21  1  0  0  0
 19 39  1  0  0  0
 20 40  1  0  0  0
 20 41  1  0  0  0
 21 25  1  0  0  0
 21 42  1  0  0  0
 21 43  1  0  0  0
 22 25  1  0  0  0
 22 44  1  0  0  0
 22 45  1  0  0  0
 23 25  1  0  0  0
 23 46  1  0  0  0
 23 47  1  0  0  0
 24 28  1  0  0  0
 24 48  1  0  0  0
 25 49  1  0  0  0
 26 29  1  0  0  0
 26 50  1  0  0  0
 27 51  1  0  0  0
 27 52  1  0  0  0
 27 53  1  0  0  0
 28 29  2  0  0  0
 28 54  1  0  0  0
 29 55  1  0  0  0
M  END
> <s_m_entry_id>
35332

> <s_m_entry_name>
dock_pv.182

> <s_m_Source_Path>
/home/csk/Desktop/cluster/DUD-E-result/thrb

> <s_m_Source_File>
dock_pv.maegz

> <i_m_Source_File_Index>
182

> <chembl_id>
CHEMBL353750

> <chembl_pref_name>
None

> <i_lp_mmshare_version>
53161

> <r_lp_tautomer_probability>
1

> <s_lp_Force_Field>
OPLS_2005

> <r_lp_Energy>
31.741468

> <b_lp_Chiralities_Consistent>
1

> <s_lp_Variant>
CHEMBL204_lig3497-1

> <s_i_glide_gridfile>
glide-grid_1ype

> <i_i_glide_lignum>
4869

> <i_i_glide_rotatable_bonds>
7

> <r_i_docking_score>
-7.3667532192298

> <r_i_glide_ligand_efficiency>
-0.25402597307689

> <r_i_glide_ligand_efficiency_sa>
-0.780448270369348

> <r_i_glide_ligand_efficiency_ln>
-1.68679968245994

> <r_i_glide_gscore>
-7.3667532192298

> <r_i_glide_lipo>
-2.89894803774797

> <r_i_glide_hbond>
-0.560342219584128

> <r_i_glide_metal>
0

> <r_i_glide_rewards>
-1.07768798811697

> <r_i_glide_evdw>
-45.1013450622559

> <r_i_glide_ecoul>
-7.96449613571167

> <r_i_glide_erotb>
0.677411840257639

> <r_i_glide_esite>
-0.0574451405688291

> <r_i_glide_emodel>
-70.5759214020198

> <r_i_glide_energy>
-53.0658411979675

> <r_i_glide_einternal>
9.09561157226562

> <i_i_glide_confnum>
36

> <i_i_glide_posenum>
43

> <r_i_glide_eff_state_penalty>
0

> <s_user_duplicate_titles>
CHEMBL204_lig3497,278932

> <i_f3d_flags>
0

> <s_m_subgroup_title>
dock_pv

> <s_m_subgroupid>
dock_pv

> <b_m_subgroup_collapsed>
1

$$$$
CHEMBL204_lig1765
                    3D
 Schrodinger Suite 2021-1.
 57 60  0  0  1  0            999 V2000
   21.1406  -12.1527   18.8626 C   0  0  0  0  0  0
   19.8089  -11.8524   19.2704 O   0  0  0  0  0  0
   19.2490  -12.6211   20.2707 C   0  0  0  0  0  0
   19.8776  -13.6550   20.9815 C   0  0  0  0  0  0
   19.2071  -14.3751   21.9808 C   0  0  0  0  0  0
   17.8609  -14.1101   22.2885 C   0  0  0  0  0  0
   17.2077  -13.0949   21.5791 C   0  0  0  0  0  0
   15.9148  -12.6532   21.6390 N   0  0  0  0  0  0
   15.8935  -11.6801   20.7535 C   0  0  0  0  0  0
   14.8389  -10.9321   20.3193 N   0  0  0  0  0  0
   13.4075  -11.2352   20.3660 C   0  0  1  0  0  0
   13.0850  -12.6248   19.7621 C   0  0  0  0  0  0
   13.6181  -12.8177   18.5558 F   0  0  0  0  0  0
   12.7698  -10.9252   21.7296 C   0  0  0  0  0  0
   11.8725  -11.8106   22.3448 C   0  0  0  0  0  0
   11.2144  -11.4531   23.5203 C   0  0  0  0  0  0
   11.4493  -10.2125   24.1026 C   0  0  0  0  0  0
   12.3562   -9.3288   23.5205 C   0  0  0  0  0  0
   12.6896   -7.8263   24.2998 Cl  0  0  0  0  0  0
   12.9970   -9.6765   22.3280 C   0  0  0  0  0  0
   17.0682  -11.4283   20.1059 O   0  0  0  0  0  0
   17.9166  -12.3633   20.6127 C   0  0  0  0  0  0
   19.9557  -15.4480   22.7228 C   0  0  0  0  0  0
   20.2225  -16.4933   22.1242 O   0  0  0  0  0  0
   20.3355  -15.2029   24.0104 N   0  0  0  0  0  0
   19.9667  -13.9515   24.7232 C   0  0  0  0  0  0
   21.1843  -13.4616   25.5397 C   0  0  1  0  0  0
   20.7784  -12.3608   26.5200 C   0  0  0  0  0  0
   21.7227  -14.5165   26.3185 O   0  0  0  0  0  0
   22.1974  -15.5937   25.5268 C   0  0  0  0  0  0
   21.0202  -16.2659   24.7825 C   0  0  1  0  0  0
   20.0757  -17.0470   25.7145 C   0  0  0  0  0  0
   21.4372  -11.4720   18.0640 H   0  0  0  0  0  0
   21.8490  -12.0262   19.6825 H   0  0  0  0  0  0
   21.2160  -13.1693   18.4734 H   0  0  0  0  0  0
   20.9071  -13.9041   20.7658 H   0  0  0  0  0  0
   17.3310  -14.6740   23.0422 H   0  0  0  0  0  0
   15.0571  -10.2197   19.6335 H   0  0  0  0  0  0
   12.9374  -10.5131   19.6962 H   0  0  0  0  0  0
   13.4573  -13.4299   20.3952 H   0  0  0  0  0  0
   12.0125  -12.7676   19.6415 H   0  0  0  0  0  0
   11.6469  -12.7777   21.9241 H   0  0  0  0  0  0
   10.5010  -12.1300   23.9699 H   0  0  0  0  0  0
   10.9260   -9.9436   25.0085 H   0  0  0  0  0  0
   13.6794   -8.9718   21.8773 H   0  0  0  0  0  0
   19.1324  -14.1573   25.3966 H   0  0  0  0  0  0
   19.7100  -13.1245   24.0604 H   0  0  0  0  0  0
   21.9588  -13.0661   24.8801 H   0  0  0  0  0  0
   20.4270  -11.4633   26.0063 H   0  0  0  0  0  0
   19.9863  -12.7014   27.1842 H   0  0  0  0  0  0
   21.6160  -12.0881   27.1527 H   0  0  0  0  0  0
   22.7130  -16.3122   26.1654 H   0  0  0  0  0  0
   22.9474  -15.2336   24.8178 H   0  0  0  0  0  0
   21.4678  -16.9980   24.1067 H   0  0  0  0  0  0
   20.6213  -17.8163   26.2613 H   0  0  0  0  0  0
   19.2867  -17.5418   25.1476 H   0  0  0  0  0  0
   19.6180  -16.3940   26.4586 H   0  0  0  0  0  0
  1  2  1  0  0  0
  1 33  1  0  0  0
  1 34  1  0  0  0
  1 35  1  0  0  0
  2  3  1  0  0  0
  3  4  2  0  0  0
  3 22  1  0  0  0
  4  5  1  0  0  0
  4 36  1  0  0  0
  5  6  2  0  0  0
  5 23  1  0  0  0
  6  7  1  0  0  0
  6 37  1  0  0  0
  7  8  1  0  0  0
  7 22  2  0  0  0
  8  9  2  0  0  0
  9 10  1  0  0  0
  9 21  1  0  0  0
 10 11  1  0  0  0
 10 38  1  0  0  0
 11 12  1  0  0  0
 11 14  1  0  0  0
 11 39  1  0  0  0
 12 13  1  0  0  0
 12 40  1  0  0  0
 12 41  1  0  0  0
 14 15  2  0  0  0
 14 20  1  0  0  0
 15 16  1  0  0  0
 15 42  1  0  0  0
 16 17  2  0  0  0
 16 43  1  0  0  0
 17 18  1  0  0  0
 17 44  1  0  0  0
 18 19  1  0  0  0
 18 20  2  0  0  0
 20 45  1  0  0  0
 21 22  1  0  0  0
 23 24  2  0  0  0
 23 25  1  0  0  0
 25 26  1  0  0  0
 25 31  1  0  0  0
 26 27  1  0  0  0
 26 46  1  0  0  0
 26 47  1  0  0  0
 27 28  1  0  0  0
 27 29  1  0  0  0
 27 48  1  0  0  0
 28 49  1  0  0  0
 28 50  1  0  0  0
 28 51  1  0  0  0
 29 30  1  0  0  0
 30 31  1  0  0  0
 30 52  1  0  0  0
 30 53  1  0  0  0
 31 32  1  0  0  0
 31 54  1  0  0  0
 32 55  1  0  0  0
 32 56  1  0  0  0
 32 57  1  0  0  0
M  END
> <s_m_entry_id>
35333

> <s_m_entry_name>
dock_pv.183

> <s_m_Source_Path>
/home/csk/Desktop/cluster/DUD-E-result/thrb

> <s_m_Source_File>
dock_pv.maegz

> <i_m_Source_File_Index>
183

> <chembl_id>
CHEMBL4113823

> <chembl_pref_name>
None

> <i_lp_mmshare_version>
53161

> <r_lp_tautomer_probability>
1

> <s_lp_Force_Field>
OPLS_2005

> <r_lp_Energy>
39.869427

> <b_lp_Chiralities_Consistent>
1

> <s_lp_Variant>
CHEMBL204_lig1765-2

> <s_i_glide_gridfile>
glide-grid_1ype

> <i_i_glide_lignum>
2576

> <i_i_glide_rotatable_bonds>
7

> <r_i_docking_score>
-7.36600049286281

> <r_i_glide_ligand_efficiency>
-0.230187515401963

> <r_i_glide_ligand_efficiency_sa>
-0.730799807353791

> <r_i_glide_ligand_efficiency_ln>
-1.64944829994197

> <r_i_glide_gscore>
-7.36600049286281

> <r_i_glide_lipo>
-3.9520071051526

> <r_i_glide_hbond>
-0.32

> <r_i_glide_metal>
0

> <r_i_glide_rewards>
-0.612194227480719

> <r_i_glide_evdw>
-49.3602333068848

> <r_i_glide_ecoul>
-3.2383234500885

> <r_i_glide_erotb>
0.471961022628021

> <r_i_glide_esite>
0

> <r_i_glide_emodel>
-71.7711736796691

> <r_i_glide_energy>
-52.5985567569733

> <r_i_glide_einternal>
9.98373794555664

> <i_i_glide_confnum>
2

> <i_i_glide_posenum>
290

> <r_i_glide_eff_state_penalty>
0

> <s_user_duplicate_titles>
CHEMBL204_lig1765,CHEMBL204_lig1766

> <i_f3d_flags>
0

> <s_m_subgroup_title>
dock_pv

> <s_m_subgroupid>
dock_pv

> <b_m_subgroup_collapsed>
1

$$$$
CHEMBL204_lig4729
                    3D
 Schrodinger Suite 2021-1.
 75 77  0  0  1  0            999 V2000
   19.6326  -12.5831   19.9182 S   0  0  0  0  0  0
   16.4888  -14.9011   21.5857 N   0  0  0  0  0  0
   16.5484  -13.5564   21.7696 C   0  0  0  0  0  0
   16.8647  -12.5890   20.5979 C   0  0  2  0  0  0
   18.2466  -12.0923   20.8747 N   0  0  2  0  0  0
   16.5961  -15.6455   20.3235 C   0  0  2  0  0  0
   15.4044  -15.4289   19.3698 C   0  0  0  0  0  0
   11.7513  -11.5619   22.1409 C   0  0  0  0  0  0
   16.4160  -10.5636   14.2184 C   0  0  0  0  0  0
   15.6158  -15.7643   18.0900 N   0  0  0  0  0  0
   20.6113  -11.4918   19.9408 O   0  0  0  0  0  0
   19.1116  -13.0529   18.6360 O   0  0  0  0  0  0
   11.6350  -12.6530   21.5214 N   0  0  0  0  0  0
   16.0338  -11.8209   14.9210 C   0  0  0  0  0  0
   16.6517   -9.5074   14.8605 N   0  0  0  0  0  0
   16.4160  -13.0531   22.8763 O   0  0  0  0  0  0
   20.3395  -14.0806   20.8560 C   0  0  0  0  0  0
   14.3534  -14.9496   19.7919 O   0  0  0  0  0  0
   12.4279  -10.4378   21.6823 N   0  0  0  0  0  0
   16.0163  -13.0709   14.2723 C   0  0  0  0  0  0
   15.6416  -11.7847   16.2724 C   0  0  0  0  0  0
   11.2159  -11.3356   23.3930 N   0  0  0  0  0  0
   16.4425  -10.6530   12.8480 N   0  0  0  0  0  0
   16.4043  -15.8436   22.7002 C   0  0  0  0  0  0
   14.7279  -15.4114   16.9854 C   0  0  0  0  0  0
   15.2144  -14.1593   16.2693 C   0  0  0  0  0  0
   15.6161  -14.2259   14.9374 C   0  0  0  0  0  0
   15.2214  -12.9335   16.9335 C   0  0  0  0  0  0
   20.7011  -13.8532   22.3252 C   0  0  0  0  0  0
   15.9061  -11.3599   20.4820 C   0  0  0  0  0  0
   16.7301  -17.1215   20.7518 C   0  0  0  0  0  0
   17.1473  -17.0736   22.2101 C   0  0  0  0  0  0
   13.4945  -10.3972   20.6922 C   0  0  0  0  0  0
   19.7340  -13.9944   23.3242 C   0  0  0  0  0  0
   22.0160  -13.5656   22.6911 C   0  0  0  0  0  0
   14.4235  -11.6134   20.8346 C   0  0  0  0  0  0
   22.3695  -13.4532   24.0335 C   0  0  0  0  0  0
   20.0712  -13.8467   24.6666 C   0  0  0  0  0  0
   21.3923  -13.5819   25.0174 C   0  0  0  0  0  0
   16.8532  -13.1100   19.6447 H   0  0  0  0  0  0
   18.3270  -11.2054   21.3812 H   0  0  0  0  0  0
   17.5373  -15.3095   19.9024 H   0  0  0  0  0  0
   16.4949  -16.1857   17.8307 H   0  0  0  0  0  0
   11.1402  -13.3601   22.0581 H   0  0  0  0  0  0
   16.8160   -8.7290   14.2365 H   0  0  0  0  0  0
   21.2159  -14.4071   20.2959 H   0  0  0  0  0  0
   19.6059  -14.8791   20.7748 H   0  0  0  0  0  0
   12.4418   -9.6596   22.3247 H   0  0  0  0  0  0
   16.3032  -13.1734   13.2361 H   0  0  0  0  0  0
   15.6268  -10.8525   16.8200 H   0  0  0  0  0  0
   10.7615  -12.1480   23.7845 H   0  0  0  0  0  0
   10.5398  -10.5826   23.4076 H   0  0  0  0  0  0
   16.4167   -9.7820   12.3252 H   0  0  0  0  0  0
   16.0446  -11.4690   12.4067 H   0  0  0  0  0  0
   16.8163  -15.4729   23.6409 H   0  0  0  0  0  0
   15.3534  -16.0903   22.8575 H   0  0  0  0  0  0
   14.6589  -16.2505   16.2923 H   0  0  0  0  0  0
   13.7076  -15.2221   17.3300 H   0  0  0  0  0  0
   15.5925  -15.1646   14.4025 H   0  0  0  0  0  0
   14.8984  -12.8706   17.9624 H   0  0  0  0  0  0
   16.2597  -10.5484   21.1208 H   0  0  0  0  0  0
   15.9673  -10.9673   19.4670 H   0  0  0  0  0  0
   17.4461  -17.6718   20.1380 H   0  0  0  0  0  0
   15.7689  -17.6338   20.6714 H   0  0  0  0  0  0
   18.2226  -16.9048   22.2864 H   0  0  0  0  0  0
   16.9028  -17.9794   22.7653 H   0  0  0  0  0  0
   14.0527   -9.4791   20.8787 H   0  0  0  0  0  0
   13.0885  -10.3263   19.6826 H   0  0  0  0  0  0
   18.7214  -14.2395   23.0688 H   0  0  0  0  0  0
   22.7722  -13.4533   21.9302 H   0  0  0  0  0  0
   14.0314  -12.4340   20.2361 H   0  0  0  0  0  0
   14.3642  -11.9494   21.8698 H   0  0  0  0  0  0
   23.3927  -13.2427   24.3094 H   0  0  0  0  0  0
   19.3142  -13.9493   25.4315 H   0  0  0  0  0  0
   21.6596  -13.4736   26.0586 H   0  0  0  0  0  0
  1  5  1  0  0  0
  1 11  2  0  0  0
  1 12  2  0  0  0
  1 17  1  0  0  0
  2  3  1  0  0  0
  2  6  1  0  0  0
  2 24  1  0  0  0
  3  4  1  0  0  0
  3 16  2  0  0  0
  4  5  1  0  0  0
  4 30  1  0  0  0
  4 40  1  0  0  0
  5 41  1  0  0  0
  6  7  1  0  0  0
  6 31  1  0  0  0
  6 42  1  0  0  0
  7 10  1  0  0  0
  7 18  2  0  0  0
  8 19  1  0  0  0
  8 13  2  0  0  0
  8 22  1  0  0  0
  9 14  1  0  0  0
  9 15  2  0  0  0
  9 23  1  0  0  0
 10 25  1  0  0  0
 10 43  1  0  0  0
 13 44  1  0  0  0
 14 21  1  0  0  0
 14 20  2  0  0  0
 15 45  1  0  0  0
 17 29  1  0  0  0
 17 46  1  0  0  0
 17 47  1  0  0  0
 19 33  1  0  0  0
 19 48  1  0  0  0
 20 27  1  0  0  0
 20 49  1  0  0  0
 21 28  2  0  0  0
 21 50  1  0  0  0
 22 51  1  0  0  0
 22 52  1  0  0  0
 23 53  1  0  0  0
 23 54  1  0  0  0
 24 32  1  0  0  0
 24 55  1  0  0  0
 24 56  1  0  0  0
 25 26  1  0  0  0
 25 57  1  0  0  0
 25 58  1  0  0  0
 26 27  2  0  0  0
 26 28  1  0  0  0
 27 59  1  0  0  0
 28 60  1  0  0  0
 29 34  2  0  0  0
 29 35  1  0  0  0
 30 36  1  0  0  0
 30 61  1  0  0  0
 30 62  1  0  0  0
 31 32  1  0  0  0
 31 63  1  0  0  0
 31 64  1  0  0  0
 32 65  1  0  0  0
 32 66  1  0  0  0
 33 36  1  0  0  0
 33 67  1  0  0  0
 33 68  1  0  0  0
 34 38  1  0  0  0
 34 69  1  0  0  0
 35 37  2  0  0  0
 35 70  1  0  0  0
 36 71  1  0  0  0
 36 72  1  0  0  0
 37 39  1  0  0  0
 37 73  1  0  0  0
 38 39  2  0  0  0
 38 74  1  0  0  0
 39 75  1  0  0  0
M  END
> <s_m_entry_id>
35335

> <s_m_entry_name>
dock_pv.185

> <s_m_Source_Path>
/home/csk/Desktop/cluster/DUD-E-result/thrb

> <s_m_Source_File>
dock_pv.maegz

> <i_m_Source_File_Index>
185

> <chembl_id>
CHEMBL1215083

> <chembl_pref_name>
None

> <i_lp_mmshare_version>
53161

> <r_lp_tautomer_probability>
1

> <s_lp_Force_Field>
OPLS_2005

> <r_lp_Energy>
10.785924

> <b_lp_Chiralities_Consistent>
1

> <s_lp_Variant>
CHEMBL204_lig4729-1

> <s_i_glide_gridfile>
glide-grid_1ype

> <i_i_glide_lignum>
6470

> <i_i_glide_rotatable_bonds>
16

> <r_i_docking_score>
-7.36400603031181

> <r_i_glide_ligand_efficiency>
-0.188820667443893

> <r_i_glide_ligand_efficiency_sa>
-0.640330807331337

> <r_i_glide_ligand_efficiency_ln>
-1.57905193264108

> <r_i_glide_gscore>
-7.36400603031181

> <r_i_glide_lipo>
-2.26189617783372

> <r_i_glide_hbond>
-0.902626836179463

> <r_i_glide_metal>
0

> <r_i_glide_rewards>
-0.47603224970617

> <r_i_glide_evdw>
-46.9705200195312

> <r_i_glide_ecoul>
-13.6345901489258

> <r_i_glide_erotb>
0.862305389824062

> <r_i_glide_esite>
-0.192041633101094

> <r_i_glide_emodel>
-80.0721788414721

> <r_i_glide_energy>
-60.605110168457

> <r_i_glide_einternal>
21.7560596466064

> <i_i_glide_confnum>
93

> <i_i_glide_posenum>
268

> <r_i_glide_eff_state_penalty>
0

> <s_user_duplicate_titles>
CHEMBL204_lig4729,CHEMBL204_lig4791,686943

> <i_f3d_flags>
0

> <s_m_subgroup_title>
dock_pv

> <s_m_subgroupid>
dock_pv

> <b_m_subgroup_collapsed>
1

$$$$
CHEMBL204_lig335
                    3D
 Schrodinger Suite 2021-1.
 62 64  0  0  1  0            999 V2000
   18.3579  -13.7416   22.2943 C   0  0  0  0  0  0
   19.2217  -13.2341   21.2293 C   0  0  0  0  0  0
   18.7826  -14.7777   23.0830 N   0  0  0  0  0  0
   18.9701  -11.9426   20.4448 C   0  0  2  0  0  0
   17.6935  -11.9981   19.5703 C   0  0  0  0  0  0
   11.2458  -10.7849   23.6749 C   0  0  0  0  0  0
   16.5886  -11.4547   20.1024 N   0  0  0  0  0  0
   17.2483  -13.2267   22.4601 O   0  0  0  0  0  0
   20.2710  -13.9144   20.7123 C   0  0  0  0  0  0
   12.2217  -10.9799   22.5619 C   0  0  0  0  0  0
   11.2159   -9.7041   24.3207 N   0  0  0  0  0  0
   17.7086  -12.5246   18.4557 O   0  0  0  0  0  0
   20.1251  -14.9948   23.7140 C   0  0  0  0  0  0
   12.4024  -12.2209   21.9210 C   0  0  0  0  0  0
   13.0193   -9.9046   22.1267 C   0  0  0  0  0  0
   10.4177  -11.8530   23.9209 N   0  0  0  0  0  0
   17.7746  -15.6176   23.6017 O   0  0  0  0  0  0
   15.2568  -11.5025   19.5089 C   0  0  0  0  0  0
   14.1748  -11.3210   20.5572 C   0  0  0  0  0  0
   13.3667  -12.3922   20.9322 C   0  0  0  0  0  0
   13.9796  -10.0681   21.1349 C   0  0  0  0  0  0
   20.9404  -13.1549   19.5905 C   0  0  0  0  0  0
   20.2543  -11.7960   19.6107 C   0  0  0  0  0  0
   20.9085  -13.6900   24.0619 C   0  0  0  0  0  0
   20.1368  -15.8263   25.0383 C   0  0  0  0  0  0
   17.3396  -16.5816   22.6438 C   0  0  0  0  0  0
   16.2041  -17.4048   23.2617 C   0  0  0  0  0  0
   20.2327  -12.8938   25.1999 C   0  0  0  0  0  0
   19.4805  -15.0915   26.2300 C   0  0  0  0  0  0
   20.1538  -13.7298   26.4874 C   0  0  0  0  0  0
   18.8641  -11.0894   21.1184 H   0  0  0  0  0  0
   16.6651  -10.9801   20.9906 H   0  0  0  0  0  0
   20.6373  -14.8886   20.9951 H   0  0  0  0  0  0
   10.4709   -9.7295   25.0075 H   0  0  0  0  0  0
   20.7007  -15.5753   22.9950 H   0  0  0  0  0  0
   11.8175  -13.0844   22.2000 H   0  0  0  0  0  0
   12.9165   -8.9263   22.5756 H   0  0  0  0  0  0
    9.6481  -11.7522   24.5836 H   0  0  0  0  0  0
   10.5700  -12.7715   23.5212 H   0  0  0  0  0  0
   15.1710  -10.6892   18.7945 H   0  0  0  0  0  0
   15.0976  -12.4200   18.9369 H   0  0  0  0  0  0
   13.4990  -13.3658   20.4824 H   0  0  0  0  0  0
   14.5936   -9.2271   20.8446 H   0  0  0  0  0  0
   22.0156  -13.0506   19.7260 H   0  0  0  0  0  0
   20.7712  -13.6759   18.6471 H   0  0  0  0  0  0
   20.9084  -11.0567   20.0767 H   0  0  0  0  0  0
   20.0879  -11.4539   18.5886 H   0  0  0  0  0  0
   21.0414  -13.0548   23.1889 H   0  0  0  0  0  0
   21.9261  -13.9434   24.3640 H   0  0  0  0  0  0
   21.1675  -16.0698   25.3024 H   0  0  0  0  0  0
   19.6587  -16.7947   24.8877 H   0  0  0  0  0  0
   16.9802  -16.1024   21.7314 H   0  0  0  0  0  0
   18.1688  -17.2352   22.3705 H   0  0  0  0  0  0
   15.8512  -18.1664   22.5663 H   0  0  0  0  0  0
   16.5285  -17.9094   24.1721 H   0  0  0  0  0  0
   15.3554  -16.7685   23.5148 H   0  0  0  0  0  0
   19.2202  -12.6260   24.9020 H   0  0  0  0  0  0
   20.7631  -11.9616   25.3966 H   0  0  0  0  0  0
   18.4166  -14.9397   26.0446 H   0  0  0  0  0  0
   19.5396  -15.7129   27.1210 H   0  0  0  0  0  0
   19.6191  -13.1773   27.2600 H   0  0  0  0  0  0
   21.1610  -13.8847   26.8759 H   0  0  0  0  0  0
  1  2  1  0  0  0
  1  3  1  0  0  0
  1  8  2  0  0  0
  2  4  1  0  0  0
  2  9  2  0  0  0
  3 13  1  0  0  0
  3 17  1  0  0  0
  4  5  1  0  0  0
  4 23  1  0  0  0
  4 31  1  0  0  0
  5  7  1  0  0  0
  5 12  2  0  0  0
  6 10  1  0  0  0
  6 11  2  0  0  0
  6 16  1  0  0  0
  7 18  1  0  0  0
  7 32  1  0  0  0
  9 22  1  0  0  0
  9 33  1  0  0  0
 10 15  1  0  0  0
 10 14  2  0  0  0
 11 34  1  0  0  0
 13 24  1  0  0  0
 13 25  1  0  0  0
 13 35  1  0  0  0
 14 20  1  0  0  0
 14 36  1  0  0  0
 15 21  2  0  0  0
 15 37  1  0  0  0
 16 38  1  0  0  0
 16 39  1  0  0  0
 17 26  1  0  0  0
 18 19  1  0  0  0
 18 40  1  0  0  0
 18 41  1  0  0  0
 19 20  2  0  0  0
 19 21  1  0  0  0
 20 42  1  0  0  0
 21 43  1  0  0  0
 22 23  1  0  0  0
 22 44  1  0  0  0
 22 45  1  0  0  0
 23 46  1  0  0  0
 23 47  1  0  0  0
 24 28  1  0  0  0
 24 48  1  0  0  0
 24 49  1  0  0  0
 25 29  1  0  0  0
 25 50  1  0  0  0
 25 51  1  0  0  0
 26 27  1  0  0  0
 26 52  1  0  0  0
 26 53  1  0  0  0
 27 54  1  0  0  0
 27 55  1  0  0  0
 27 56  1  0  0  0
 28 30  1  0  0  0
 28 57  1  0  0  0
 28 58  1  0  0  0
 29 30  1  0  0  0
 29 59  1  0  0  0
 29 60  1  0  0  0
 30 61  1  0  0  0
 30 62  1  0  0  0
M  END
> <s_m_entry_id>
35337

> <s_m_entry_name>
dock_pv.187

> <s_m_Source_Path>
/home/csk/Desktop/cluster/DUD-E-result/thrb

> <s_m_Source_File>
dock_pv.maegz

> <i_m_Source_File_Index>
187

> <chembl_id>
CHEMBL49082

> <chembl_pref_name>
None

> <i_lp_mmshare_version>
53161

> <r_lp_tautomer_probability>
1

> <s_lp_Force_Field>
OPLS_2005

> <r_lp_Energy>
26.98861

> <b_lp_Chiralities_Consistent>
1

> <s_lp_Variant>
CHEMBL204_lig335-1

> <s_i_glide_gridfile>
glide-grid_1ype

> <i_i_glide_lignum>
430

> <i_i_glide_rotatable_bonds>
10

> <r_i_docking_score>
-7.36187936574986

> <r_i_glide_ligand_efficiency>
-0.245395978858329

> <r_i_glide_ligand_efficiency_sa>
-0.762502361474491

> <r_i_glide_ligand_efficiency_ln>
-1.6726992059987

> <r_i_glide_gscore>
-7.36187936574986

> <r_i_glide_lipo>
-3.66373617959781

> <r_i_glide_hbond>
-0.210726773887436

> <r_i_glide_metal>
0

> <r_i_glide_rewards>
-0.880254102707929

> <r_i_glide_evdw>
-41.9705924987793

> <r_i_glide_ecoul>
-8.67764759063721

> <r_i_glide_erotb>
0.92702277090374

> <r_i_glide_esite>
-0.134008316925877

> <r_i_glide_emodel>
-67.602200003097

> <r_i_glide_energy>
-50.6482400894165

> <r_i_glide_einternal>
10.7363872528076

> <i_i_glide_confnum>
95

> <i_i_glide_posenum>
78

> <r_i_glide_eff_state_penalty>
0

> <s_user_duplicate_titles>
CHEMBL204_lig335,71001

> <i_f3d_flags>
0

> <s_m_subgroup_title>
dock_pv

> <s_m_subgroupid>
dock_pv

> <b_m_subgroup_collapsed>
1

$$$$
CHEMBL204_lig303
                    3D
 Schrodinger Suite 2021-1.
 77 78  0  0  1  0            999 V2000
   15.0551  -15.7686   19.5206 N   0  0  0  0  0  0
   16.7356  -15.5090   21.3474 C   0  0  0  0  0  0
   15.2528  -15.7802   20.9955 C   0  0  2  0  0  0
   14.7013  -14.6578   18.8060 C   0  0  0  0  0  0
   12.4244   -8.7927   23.8275 N   0  3  0  0  0  0
   14.6852  -13.2529   19.4834 C   0  0  1  0  0  0
   16.9826  -14.2948   21.8772 N   0  0  0  0  0  0
   17.0796  -13.1979   14.1496 C   0  0  0  0  0  0
   15.7338  -12.4001   18.8955 N   0  0  0  0  0  0
   12.6090   -9.7601   22.7157 C   0  0  0  0  0  0
   15.7797  -11.8528   17.6671 C   0  0  0  0  0  0
   11.5268   -8.9916   24.6356 O   0  5  0  0  0  0
   13.2108   -7.8529   23.9210 O   0  0  0  0  0  0
   17.5958  -16.3501   21.0875 O   0  0  0  0  0  0
   17.7002  -14.2184   13.4172 N   0  0  0  0  0  0
   18.2891  -13.7096   22.2133 C   0  0  1  0  0  0
   14.4140  -14.7040   17.6067 O   0  0  0  0  0  0
   13.2461  -12.6539   19.5393 C   0  0  0  0  0  0
   14.7348  -17.0609   21.7200 C   0  0  1  0  0  0
   14.8161  -11.7999   16.9057 O   0  0  0  0  0  0
   17.6140  -12.0501   14.2915 N   0  0  0  0  0  0
   13.6161   -9.5584   21.7620 C   0  0  0  0  0  0
   11.8048  -10.9035   22.6190 C   0  0  0  0  0  0
   18.8503  -14.0674   23.5972 C   0  0  0  0  0  0
   15.8534  -13.6392   14.6878 N   0  0  0  0  0  0
   13.0318  -11.6314   20.6604 C   0  0  0  0  0  0
   15.2419  -17.0468   18.8057 C   0  0  0  0  0  0
   12.0165  -11.8308   21.6013 C   0  0  0  0  0  0
   13.8263  -10.4867   20.7472 C   0  0  0  0  0  0
   15.0257  -17.0522   23.1069 O   0  0  0  0  0  0
   17.1536  -11.3076   17.2395 C   0  0  0  0  0  0
   19.3259  -13.8302   21.0699 C   0  0  0  0  0  0
   16.7701  -10.9131   14.6503 C   0  0  0  0  0  0
   20.0318  -13.4502   24.0282 C   0  0  0  0  0  0
   18.1789  -14.9393   24.4685 C   0  0  0  0  0  0
   13.2153  -17.2358   21.5686 C   0  0  0  0  0  0
   17.1708  -10.3348   16.0263 C   0  0  0  0  0  0
   18.6896  -15.1971   25.7365 C   0  0  0  0  0  0
   20.5431  -13.7048   25.2958 C   0  0  0  0  0  0
   19.8705  -14.5814   26.1395 C   0  0  0  0  0  0
   14.6439  -14.9993   21.4454 H   0  0  0  0  0  0
   15.0096  -13.3120   20.5118 H   0  0  0  0  0  0
   16.1827  -13.7427   22.1455 H   0  0  0  0  0  0
   16.5821  -12.3711   19.4412 H   0  0  0  0  0  0
   18.4998  -13.9569   12.8605 H   0  0  0  0  0  0
   17.0877  -14.8232   12.8887 H   0  0  0  0  0  0
   18.0540  -12.6469   22.2927 H   0  0  0  0  0  0
   12.9603  -12.2061   18.5951 H   0  0  0  0  0  0
   12.5274  -13.4605   19.6924 H   0  0  0  0  0  0
   15.2326  -17.9433   21.3180 H   0  0  0  0  0  0
   14.2557   -8.6878   21.8152 H   0  0  0  0  0  0
   11.0123  -11.0846   23.3332 H   0  0  0  0  0  0
   15.4194  -13.0615   15.3948 H   0  0  0  0  0  0
   15.7835  -14.6087   14.9495 H   0  0  0  0  0  0
   14.4192  -17.7309   18.9996 H   0  0  0  0  0  0
   15.3181  -16.9291   17.7237 H   0  0  0  0  0  0
   16.1630  -17.5295   19.1288 H   0  0  0  0  0  0
   11.3829  -12.7078   21.5571 H   0  0  0  0  0  0
   14.6113  -10.3052   20.0287 H   0  0  0  0  0  0
   14.8322  -16.1766   23.4699 H   0  0  0  0  0  0
   17.8012  -12.1603   17.0319 H   0  0  0  0  0  0
   17.5893  -10.8118   18.1063 H   0  0  0  0  0  0
   20.1582  -13.1381   21.1938 H   0  0  0  0  0  0
   19.7437  -14.8364   21.0171 H   0  0  0  0  0  0
   18.8755  -13.6133   20.1007 H   0  0  0  0  0  0
   16.9061  -10.1380   13.8941 H   0  0  0  0  0  0
   15.6979  -11.1166   14.6185 H   0  0  0  0  0  0
   20.5570  -12.7545   23.3933 H   0  0  0  0  0  0
   17.2568  -15.4219   24.1809 H   0  0  0  0  0  0
   12.9231  -17.3872   20.5301 H   0  0  0  0  0  0
   12.8654  -18.1026   22.1299 H   0  0  0  0  0  0
   12.6755  -16.3569   21.9227 H   0  0  0  0  0  0
   18.1722   -9.9194   15.9211 H   0  0  0  0  0  0
   16.5313   -9.4787   16.2438 H   0  0  0  0  0  0
   18.1693  -15.8676   26.4066 H   0  0  0  0  0  0
   21.4530  -13.2224   25.6232 H   0  0  0  0  0  0
   20.2685  -14.7769   27.1200 H   0  0  0  0  0  0
  1  3  1  0  0  0
  1  4  1  0  0  0
  1 27  1  0  0  0
  2  3  1  0  0  0
  2  7  1  0  0  0
  2 14  2  0  0  0
  3 19  1  0  0  0
  3 41  1  0  0  0
  4  6  1  0  0  0
  4 17  2  0  0  0
  5 10  1  0  0  0
  5 12  1  0  0  0
  5 13  2  0  0  0
  6  9  1  0  0  0
  6 18  1  0  0  0
  6 42  1  0  0  0
  7 16  1  0  0  0
  7 43  1  0  0  0
  8 21  2  0  0  0
  8 15  1  0  0  0
  8 25  1  0  0  0
  9 11  1  0  0  0
  9 44  1  0  0  0
 10 22  1  0  0  0
 10 23  2  0  0  0
 11 20  2  0  0  0
 11 31  1  0  0  0
 15 45  1  0  0  0
 15 46  1  0  0  0
 16 24  1  0  0  0
 16 32  1  0  0  0
 16 47  1  0  0  0
 18 26  1  0  0  0
 18 48  1  0  0  0
 18 49  1  0  0  0
 19 30  1  0  0  0
 19 36  1  0  0  0
 19 50  1  0  0  0
 21 33  1  0  0  0
 22 29  2  0  0  0
 22 51  1  0  0  0
 23 28  1  0  0  0
 23 52  1  0  0  0
 24 34  2  0  0  0
 24 35  1  0  0  0
 25 53  1  0  0  0
 25 54  1  0  0  0
 26 28  2  0  0  0
 26 29  1  0  0  0
 27 55  1  0  0  0
 27 56  1  0  0  0
 27 57  1  0  0  0
 28 58  1  0  0  0
 29 59  1  0  0  0
 30 60  1  0  0  0
 31 37  1  0  0  0
 31 61  1  0  0  0
 31 62  1  0  0  0
 32 63  1  0  0  0
 32 64  1  0  0  0
 32 65  1  0  0  0
 33 37  1  0  0  0
 33 66  1  0  0  0
 33 67  1  0  0  0
 34 39  1  0  0  0
 34 68  1  0  0  0
 35 38  2  0  0  0
 35 69  1  0  0  0
 36 70  1  0  0  0
 36 71  1  0  0  0
 36 72  1  0  0  0
 37 73  1  0  0  0
 37 74  1  0  0  0
 38 40  1  0  0  0
 38 75  1  0  0  0
 39 40  2  0  0  0
 39 76  1  0  0  0
 40 77  1  0  0  0
M  CHG  2   5   1  12  -1
M  END
> <s_m_entry_id>
35338

> <s_m_entry_name>
dock_pv.188

> <s_m_Source_Path>
/home/csk/Desktop/cluster/DUD-E-result/thrb

> <s_m_Source_File>
dock_pv.maegz

> <i_m_Source_File_Index>
188

> <chembl_id>
CHEMBL105819

> <chembl_pref_name>
None

> <i_lp_mmshare_version>
53161

> <r_lp_tautomer_probability>
1

> <s_lp_Force_Field>
OPLS_2005

> <r_lp_Energy>
25.204377

> <b_lp_Chiralities_Consistent>
1

> <s_lp_Variant>
CHEMBL204_lig303-2

> <s_i_glide_gridfile>
glide-grid_1ype

> <i_i_glide_lignum>
382

> <i_i_glide_rotatable_bonds>
18

> <r_i_docking_score>
-7.3599304967697

> <r_i_glide_ligand_efficiency>
-0.183998262419242

> <r_i_glide_ligand_efficiency_sa>
-0.629265205160661

> <r_i_glide_ligand_efficiency_ln>
-1.56965658187528

> <r_i_glide_gscore>
-7.3599304967697

> <r_i_glide_lipo>
-3.19981550545311

> <r_i_glide_hbond>
-0.16

> <r_i_glide_metal>
0

> <r_i_glide_rewards>
-0.568926639428449

> <r_i_glide_evdw>
-54.012077331543

> <r_i_glide_ecoul>
-10.5615310668945

> <r_i_glide_erotb>
0.934008533957046

> <r_i_glide_esite>
-0.0803633592338525

> <r_i_glide_emodel>
-84.7208688715376

> <r_i_glide_energy>
-64.5736083984375

> <r_i_glide_einternal>
18.1381301879883

> <i_i_glide_confnum>
45

> <i_i_glide_posenum>
245

> <r_i_glide_eff_state_penalty>
0

> <s_user_duplicate_titles>
CHEMBL204_lig303,178046

> <i_f3d_flags>
0

> <s_m_subgroup_title>
dock_pv

> <s_m_subgroupid>
dock_pv

> <b_m_subgroup_collapsed>
1

$$$$
CHEMBL204_lig318
                    3D
 Schrodinger Suite 2021-1.
 55 57  0  0  1  0            999 V2000
   19.0209  -13.1050   21.0732 C   0  0  0  0  0  0
   18.2115  -13.4569   22.2332 C   0  0  0  0  0  0
   18.7047  -12.0057   20.0486 C   0  0  2  0  0  0
   17.4398  -12.1641   19.1579 C   0  0  0  0  0  0
   11.6161  -10.9412   23.1212 C   0  0  0  0  0  0
   18.8317  -14.1739   23.1891 N   0  0  0  0  0  0
   16.4875  -13.0253   19.5457 N   0  0  0  0  0  0
   12.4406  -11.4866   22.0043 C   0  0  0  0  0  0
   11.6803   -9.7300   23.4520 N   0  0  0  0  0  0
   20.1700  -13.7480   20.7588 C   0  0  0  0  0  0
   17.0274  -13.1325   22.3212 O   0  0  0  0  0  0
   17.3059  -11.4531   18.1613 O   0  0  0  0  0  0
   13.4331  -10.6909   21.4049 C   0  0  0  0  0  0
   12.2840  -12.7989   21.5200 C   0  0  0  0  0  0
   10.8147  -11.8530   23.7578 N   0  0  0  0  0  0
   15.1293  -13.1189   19.0094 C   0  0  0  0  0  0
   14.1297  -12.5232   19.9938 C   0  0  0  0  0  0
   18.1851  -14.8467   24.3141 C   0  0  0  0  0  0
   14.2674  -11.2005   20.4165 C   0  0  0  0  0  0
   13.1132  -13.3129   20.5277 C   0  0  0  0  0  0
   20.8157  -13.1806   19.5193 C   0  0  0  0  0  0
   19.9986  -11.9346   19.2178 C   0  0  0  0  0  0
   17.6065  -16.2308   23.9208 C   0  0  0  0  0  0
   19.0863  -14.9152   25.5706 C   0  0  0  0  0  0
   18.4873  -15.7486   26.7210 C   0  0  0  0  0  0
   17.0449  -17.0375   25.1056 C   0  0  0  0  0  0
   18.0503  -17.1442   26.2584 C   0  0  0  0  0  0
   18.5398  -11.0556   20.5616 H   0  0  0  0  0  0
   19.8150  -14.3601   23.0712 H   0  0  0  0  0  0
   16.6446  -13.5155   20.4186 H   0  0  0  0  0  0
   11.0541   -9.5418   24.2221 H   0  0  0  0  0  0
   20.6260  -14.5755   21.2848 H   0  0  0  0  0  0
   13.5945   -9.6730   21.7311 H   0  0  0  0  0  0
   11.5252  -13.4529   21.9210 H   0  0  0  0  0  0
   10.1185  -11.5390   24.4259 H   0  0  0  0  0  0
   10.8160  -12.8394   23.5205 H   0  0  0  0  0  0
   15.0283  -12.5881   18.0600 H   0  0  0  0  0  0
   14.9020  -14.1668   18.8060 H   0  0  0  0  0  0
   17.3240  -14.2515   24.6327 H   0  0  0  0  0  0
   15.0528  -10.5793   20.0115 H   0  0  0  0  0  0
   12.9834  -14.3375   20.2096 H   0  0  0  0  0  0
   21.8669  -12.9333   19.6648 H   0  0  0  0  0  0
   20.7557  -13.9082   18.7094 H   0  0  0  0  0  0
   20.5677  -11.0528   19.5138 H   0  0  0  0  0  0
   19.8443  -11.8500   18.1405 H   0  0  0  0  0  0
   18.3978  -16.8258   23.4625 H   0  0  0  0  0  0
   16.8260  -16.1067   23.1683 H   0  0  0  0  0  0
   19.3082  -13.9088   25.9298 H   0  0  0  0  0  0
   20.0384  -15.3732   25.2978 H   0  0  0  0  0  0
   19.2161  -15.8533   27.5212 H   0  0  0  0  0  0
   17.6348  -15.2186   27.1497 H   0  0  0  0  0  0
   16.7428  -18.0316   24.7758 H   0  0  0  0  0  0
   16.1422  -16.5454   25.4653 H   0  0  0  0  0  0
   18.9210  -17.7186   25.9379 H   0  0  0  0  0  0
   17.6159  -17.6940   27.0937 H   0  0  0  0  0  0
  1  2  1  0  0  0
  1  3  1  0  0  0
  1 10  2  0  0  0
  2  6  1  0  0  0
  2 11  2  0  0  0
  3  4  1  0  0  0
  3 22  1  0  0  0
  3 28  1  0  0  0
  4  7  1  0  0  0
  4 12  2  0  0  0
  5  8  1  0  0  0
  5  9  2  0  0  0
  5 15  1  0  0  0
  6 18  1  0  0  0
  6 29  1  0  0  0
  7 16  1  0  0  0
  7 30  1  0  0  0
  8 14  2  0  0  0
  8 13  1  0  0  0
  9 31  1  0  0  0
 10 21  1  0  0  0
 10 32  1  0  0  0
 13 19  2  0  0  0
 13 33  1  0  0  0
 14 20  1  0  0  0
 14 34  1  0  0  0
 15 35  1  0  0  0
 15 36  1  0  0  0
 16 17  1  0  0  0
 16 37  1  0  0  0
 16 38  1  0  0  0
 17 19  1  0  0  0
 17 20  2  0  0  0
 18 23  1  0  0  0
 18 24  1  0  0  0
 18 39  1  0  0  0
 19 40  1  0  0  0
 20 41  1  0  0  0
 21 22  1  0  0  0
 21 42  1  0  0  0
 21 43  1  0  0  0
 22 44  1  0  0  0
 22 45  1  0  0  0
 23 26  1  0  0  0
 23 46  1  0  0  0
 23 47  1  0  0  0
 24 25  1  0  0  0
 24 48  1  0  0  0
 24 49  1  0  0  0
 25 27  1  0  0  0
 25 50  1  0  0  0
 25 51  1  0  0  0
 26 27  1  0  0  0
 26 52  1  0  0  0
 26 53  1  0  0  0
 27 54  1  0  0  0
 27 55  1  0  0  0
M  END
> <s_m_entry_id>
35339

> <s_m_entry_name>
dock_pv.189

> <s_m_Source_Path>
/home/csk/Desktop/cluster/DUD-E-result/thrb

> <s_m_Source_File>
dock_pv.maegz

> <i_m_Source_File_Index>
189

> <chembl_id>
CHEMBL49808

> <chembl_pref_name>
None

> <i_lp_mmshare_version>
53161

> <r_lp_tautomer_probability>
1

> <s_lp_Force_Field>
OPLS_2005

> <r_lp_Energy>
21.87414

> <b_lp_Chiralities_Consistent>
1

> <s_lp_Variant>
CHEMBL204_lig318-1

> <s_i_glide_gridfile>
glide-grid_1ype

> <i_i_glide_lignum>
405

> <i_i_glide_rotatable_bonds>
8

> <r_i_docking_score>
-7.35356542395022

> <r_i_glide_ligand_efficiency>
-0.272354274961119

> <r_i_glide_ligand_efficiency_sa>
-0.817062823985723

> <r_i_glide_ligand_efficiency_ln>
-1.71178879769472

> <r_i_glide_gscore>
-7.35356542395022

> <r_i_glide_lipo>
-2.91814798942057

> <r_i_glide_hbond>
-0.396835750435802

> <r_i_glide_metal>
0

> <r_i_glide_rewards>
-1.36900953414745

> <r_i_glide_evdw>
-45.321403503418

> <r_i_glide_ecoul>
-8.62213134765625

> <r_i_glide_erotb>
0.993515594888827

> <r_i_glide_esite>
-0.103697867515898

> <r_i_glide_emodel>
-75.0613501123504

> <r_i_glide_energy>
-53.9435348510742

> <r_i_glide_einternal>
5.11972093582153

> <i_i_glide_confnum>
63

> <i_i_glide_posenum>
321

> <r_i_glide_eff_state_penalty>
0

> <s_user_duplicate_titles>
CHEMBL204_lig318

> <i_f3d_flags>
0

> <s_m_subgroup_title>
dock_pv

> <s_m_subgroupid>
dock_pv

> <b_m_subgroup_collapsed>
1

$$$$
CHEMBL204_lig1746
                    3D
 Schrodinger Suite 2021-1.
 72 77  0  0  1  0            999 V2000
   11.8806  -10.0449   23.2091 C   0  0  0  0  0  0
   12.3449  -10.9777   22.1391 C   0  0  0  0  0  0
   11.7431  -12.2313   21.9228 C   0  0  0  0  0  0
   12.1921  -13.0872   20.9272 C   0  0  0  0  0  0
   13.2607  -12.7258   20.1105 C   0  0  0  0  0  0
   13.8820  -11.4902   20.3081 C   0  0  0  0  0  0
   13.4250  -10.6308   21.3050 C   0  0  0  0  0  0
   12.4424   -8.9351   23.3990 N   0  0  0  0  0  0
   10.8161  -10.4945   23.9484 N   0  0  0  0  0  0
   13.6840  -13.7267   19.0334 C   0  0  0  0  0  0
   16.2579  -13.4749   19.1349 C   0  0  0  0  0  0
   15.0012  -13.4957   18.2563 C   0  0  2  0  0  0
   17.3726  -12.7502   18.7537 N   0  0  0  0  0  0
   14.9831  -12.3607   17.3240 N   0  0  2  0  0  0
   16.2588  -12.1788   16.6294 C   0  0  0  0  0  0
   17.3939  -11.8214   17.6248 C   0  0  0  0  0  0
   16.4420  -14.1560   20.2390 N   0  0  0  0  0  0
   17.7178  -13.8557   20.6244 C   0  0  0  0  0  0
   18.3501  -12.9987   19.6992 C   0  0  0  0  0  0
   19.6743  -12.5882   19.8656 C   0  0  0  0  0  0
   20.3362  -13.0533   21.0074 C   0  0  0  0  0  0
   19.7300  -13.8636   21.9874 C   0  0  0  0  0  0
   18.4033  -14.2823   21.7644 C   0  0  0  0  0  0
   20.4768  -14.2425   23.3118 C   0  0  0  0  0  0
   20.1786  -13.2678   24.4980 C   0  0  0  0  0  0
   21.2960  -13.4269   25.5409 C   0  0  0  0  0  0
   22.4992  -13.9675   24.7670 C   0  0  0  0  0  0
   22.0340  -14.0205   23.3036 C   0  0  0  0  0  0
   20.2300  -15.7835   23.6098 C   0  0  0  0  0  0
   21.0077  -16.5785   23.0699 O   0  0  0  0  0  0
   19.2657  -16.2675   24.4528 N   0  0  0  0  0  0
   19.2363  -17.7097   24.8007 C   0  0  0  0  0  0
   19.2448  -17.8059   26.3431 C   0  0  0  0  0  0
   18.0998  -16.9991   26.9842 C   0  0  0  0  0  0
   18.0860  -15.5550   26.4532 C   0  0  0  0  0  0
   18.0595  -15.5514   24.9143 C   0  0  0  0  0  0
   10.9122  -12.5731   22.5235 H   0  0  0  0  0  0
   11.7003  -14.0402   20.7988 H   0  0  0  0  0  0
   14.7277  -11.1842   19.7129 H   0  0  0  0  0  0
   13.9338   -9.6854   21.4327 H   0  0  0  0  0  0
   12.0206   -8.4418   24.1706 H   0  0  0  0  0  0
   10.3600   -9.9002   24.6317 H   0  0  0  0  0  0
   10.2599  -11.2689   23.6157 H   0  0  0  0  0  0
   12.8625  -13.7995   18.3239 H   0  0  0  0  0  0
   13.7437  -14.7092   19.5067 H   0  0  0  0  0  0
   15.1087  -14.3700   17.6119 H   0  0  0  0  0  0
   14.6306  -11.5105   17.7389 H   0  0  0  0  0  0
   16.4973  -13.1101   16.1110 H   0  0  0  0  0  0
   16.1593  -11.3952   15.8784 H   0  0  0  0  0  0
   17.2227  -10.8202   18.0212 H   0  0  0  0  0  0
   18.3734  -11.8411   17.1456 H   0  0  0  0  0  0
   20.1740  -11.9501   19.1523 H   0  0  0  0  0  0
   21.3607  -12.7425   21.1082 H   0  0  0  0  0  0
   17.8873  -14.9376   22.4418 H   0  0  0  0  0  0
   20.2422  -12.2491   24.1122 H   0  0  0  0  0  0
   19.1996  -13.2852   24.9538 H   0  0  0  0  0  0
   21.5173  -12.4771   26.0307 H   0  0  0  0  0  0
   21.0088  -14.1330   26.3190 H   0  0  0  0  0  0
   23.3838  -13.3403   24.8919 H   0  0  0  0  0  0
   22.7570  -14.9672   25.1203 H   0  0  0  0  0  0
   22.5953  -14.7505   22.7211 H   0  0  0  0  0  0
   22.2980  -13.0504   22.8867 H   0  0  0  0  0  0
   20.0586  -18.2856   24.3730 H   0  0  0  0  0  0
   18.3122  -18.1338   24.4047 H   0  0  0  0  0  0
   20.2081  -17.4648   26.7198 H   0  0  0  0  0  0
   19.1687  -18.8517   26.6408 H   0  0  0  0  0  0
   17.1601  -17.4832   26.7191 H   0  0  0  0  0  0
   18.1732  -17.0099   28.0733 H   0  0  0  0  0  0
   17.2164  -15.0225   26.8308 H   0  0  0  0  0  0
   18.9475  -15.0005   26.8232 H   0  0  0  0  0  0
   17.8559  -14.5910   24.4543 H   0  0  0  0  0  0
   17.2045  -16.1442   24.5842 H   0  0  0  0  0  0
  1  2  1  0  0  0
  1  8  2  0  0  0
  1  9  1  0  0  0
  2  3  1  0  0  0
  2  7  2  0  0  0
  3  4  2  0  0  0
  3 37  1  0  0  0
  4  5  1  0  0  0
  4 38  1  0  0  0
  5  6  2  0  0  0
  5 10  1  0  0  0
  6  7  1  0  0  0
  6 39  1  0  0  0
  7 40  1  0  0  0
  8 41  1  0  0  0
  9 42  1  0  0  0
  9 43  1  0  0  0
 10 12  1  0  0  0
 10 44  1  0  0  0
 10 45  1  0  0  0
 11 12  1  0  0  0
 11 13  1  0  0  0
 11 17  2  0  0  0
 12 14  1  0  0  0
 12 46  1  0  0  0
 13 16  1  0  0  0
 13 19  1  0  0  0
 14 15  1  0  0  0
 14 47  1  0  0  0
 15 16  1  0  0  0
 15 48  1  0  0  0
 15 49  1  0  0  0
 16 50  1  0  0  0
 16 51  1  0  0  0
 17 18  1  0  0  0
 18 19  1  0  0  0
 18 23  2  0  0  0
 19 20  2  0  0  0
 20 21  1  0  0  0
 20 52  1  0  0  0
 21 22  2  0  0  0
 21 53  1  0  0  0
 22 23  1  0  0  0
 22 24  1  0  0  0
 23 54  1  0  0  0
 24 25  1  0  0  0
 24 28  1  0  0  0
 24 29  1  0  0  0
 25 26  1  0  0  0
 25 55  1  0  0  0
 25 56  1  0  0  0
 26 27  1  0  0  0
 26 57  1  0  0  0
 26 58  1  0  0  0
 27 28  1  0  0  0
 27 59  1  0  0  0
 27 60  1  0  0  0
 28 61  1  0  0  0
 28 62  1  0  0  0
 29 30  2  0  0  0
 29 31  1  0  0  0
 31 32  1  0  0  0
 31 36  1  0  0  0
 32 33  1  0  0  0
 32 63  1  0  0  0
 32 64  1  0  0  0
 33 34  1  0  0  0
 33 65  1  0  0  0
 33 66  1  0  0  0
 34 35  1  0  0  0
 34 67  1  0  0  0
 34 68  1  0  0  0
 35 36  1  0  0  0
 35 69  1  0  0  0
 35 70  1  0  0  0
 36 71  1  0  0  0
 36 72  1  0  0  0
M  END
> <s_m_entry_id>
35340

> <s_m_entry_name>
dock_pv.190

> <s_m_Source_Path>
/home/csk/Desktop/cluster/DUD-E-result/thrb

> <s_m_Source_File>
dock_pv.maegz

> <i_m_Source_File_Index>
190

> <chembl_id>
CHEMBL3977163

> <chembl_pref_name>
None

> <i_lp_mmshare_version>
53161

> <r_lp_tautomer_probability>
1

> <s_lp_Force_Field>
OPLS_2005

> <r_lp_Energy>
66.302371

> <b_lp_Chiralities_Consistent>
1

> <s_lp_Variant>
CHEMBL204_lig1746-1

> <s_i_glide_gridfile>
glide-grid_1ype

> <i_i_glide_lignum>
2529

> <i_i_glide_rotatable_bonds>
6

> <r_i_docking_score>
-7.35055382281722

> <r_i_glide_ligand_efficiency>
-0.204182050633812

> <r_i_glide_ligand_efficiency_sa>
-0.674194275917636

> <r_i_glide_ligand_efficiency_ln>
-1.60369225512421

> <r_i_glide_gscore>
-7.35055382281722

> <r_i_glide_lipo>
-4.03969058712477

> <r_i_glide_hbond>
-0.0652018525716842

> <r_i_glide_metal>
0

> <r_i_glide_rewards>
-0.828860022099029

> <r_i_glide_evdw>
-48.6411590576172

> <r_i_glide_ecoul>
-2.45975732803345

> <r_i_glide_erotb>
0.432349826499814

> <r_i_glide_esite>
-0.048129635435673

> <r_i_glide_emodel>
-68.3385691477397

> <r_i_glide_energy>
-51.1009163856506

> <r_i_glide_einternal>
7.84101247787476

> <i_i_glide_confnum>
8

> <i_i_glide_posenum>
331

> <r_i_glide_eff_state_penalty>
0

> <s_user_duplicate_titles>
CHEMBL204_lig1746

> <i_f3d_flags>
0

> <s_m_subgroup_title>
dock_pv

> <s_m_subgroupid>
dock_pv

> <b_m_subgroup_collapsed>
1

$$$$
CHEMBL204_lig4388
                    3D
 Schrodinger Suite 2021-1.
 62 65  0  0  1  0            999 V2000
   20.2345  -13.3336   23.1837 C   0  0  0  0  0  0
   19.3995  -14.4926   22.6471 C   0  0  0  0  0  0
   19.8901  -15.7840   22.4823 C   0  0  0  0  0  0
   18.7111  -16.9184   21.9334 S   0  0  0  0  0  0
   17.5158  -15.6584   21.8221 C   0  0  0  0  0  0
   18.0406  -14.4243   22.2491 C   0  0  0  0  0  0
   17.1284  -12.9620   22.3212 Cl  0  0  0  0  0  0
   16.1703  -16.0232   21.4281 C   0  0  0  0  0  0
   15.5471  -15.1387   20.6163 N   0  0  0  0  0  0
   15.6774  -17.0974   21.7818 O   0  0  0  0  0  0
   14.3018  -15.3483   19.9665 C   0  0  0  0  0  0
   13.2727  -14.3785   20.0797 C   0  0  0  0  0  0
   12.0303  -14.6344   19.4824 C   0  0  0  0  0  0
   11.8128  -15.7878   18.7372 C   0  0  0  0  0  0
   12.8380  -16.7085   18.5772 C   0  0  0  0  0  0
   14.0946  -16.5025   19.1708 C   0  0  0  0  0  0
   13.4849  -13.0482   20.7665 C   0  0  0  0  0  0
   14.5392  -12.4381   20.5833 O   0  0  0  0  0  0
   12.4648  -12.6151   21.5401 N   0  0  0  0  0  0
   10.2837  -16.0463   17.9819 Cl  0  0  0  0  0  0
   12.3415  -11.3900   22.2112 C   0  0  0  0  0  0
   11.3763  -11.3751   23.1690 N   0  0  0  0  0  0
   11.2188  -10.2528   23.9191 C   0  0  0  0  0  0
   12.0160   -9.1179   23.7413 C   0  0  0  0  0  0
   12.9700   -9.1226   22.7250 C   0  0  0  0  0  0
   13.1369  -10.2624   21.9434 C   0  0  0  0  0  0
   11.8090   -7.7135   24.7207 Cl  0  0  0  0  0  0
   15.1611  -17.3639   18.9669 O   0  0  0  0  0  0
   14.9945  -18.5314   18.1718 C   0  0  0  0  0  0
   20.8285  -13.5881   24.5033 N   0  0  0  0  0  0
   22.1286  -14.0889   24.6226 C   0  0  0  0  0  0
   23.0981  -14.0874   23.7944 N   0  0  0  0  0  0
   24.2057  -14.6561   24.5211 C   0  0  1  0  0  0
   23.5621  -15.5101   25.6032 C   0  0  0  0  0  0
   22.3972  -14.7493   25.7890 O   0  0  0  0  0  0
   19.8972  -13.6011   25.6406 C   0  0  0  0  0  0
   20.3920  -12.8414   26.8885 C   0  0  0  0  0  0
   25.1583  -15.4210   23.5886 C   0  0  0  0  0  0
   21.0053  -13.0535   22.4612 H   0  0  0  0  0  0
   19.6171  -12.4414   23.2822 H   0  0  0  0  0  0
   20.8934  -16.1256   22.6953 H   0  0  0  0  0  0
   15.9435  -14.2139   20.5259 H   0  0  0  0  0  0
   11.2245  -13.9174   19.5530 H   0  0  0  0  0  0
   12.6418  -17.5736   17.9645 H   0  0  0  0  0  0
   11.7140  -13.2658   21.7214 H   0  0  0  0  0  0
   10.4392  -10.2843   24.6703 H   0  0  0  0  0  0
   13.5969   -8.2605   22.5628 H   0  0  0  0  0  0
   13.8863  -10.2449   21.1686 H   0  0  0  0  0  0
   15.9302  -19.0918   18.1570 H   0  0  0  0  0  0
   14.2224  -19.1828   18.5835 H   0  0  0  0  0  0
   14.7398  -18.2814   17.1401 H   0  0  0  0  0  0
   24.7637  -13.8342   24.9800 H   0  0  0  0  0  0
   24.1399  -15.5935   26.5195 H   0  0  0  0  0  0
   23.3104  -16.5141   25.2544 H   0  0  0  0  0  0
   18.9434  -13.1642   25.3452 H   0  0  0  0  0  0
   19.6783  -14.6382   25.8999 H   0  0  0  0  0  0
   19.6311  -12.8732   27.6669 H   0  0  0  0  0  0
   21.2956  -13.2644   27.3239 H   0  0  0  0  0  0
   20.5869  -11.7927   26.6626 H   0  0  0  0  0  0
   25.9953  -15.8374   24.1526 H   0  0  0  0  0  0
   24.6500  -16.2521   23.0971 H   0  0  0  0  0  0
   25.5850  -14.7678   22.8258 H   0  0  0  0  0  0
  1 30  1  0  0  0
  1  2  1  0  0  0
  1 39  1  0  0  0
  1 40  1  0  0  0
  2  3  2  0  0  0
  2  6  1  0  0  0
  3  4  1  0  0  0
  3 41  1  0  0  0
  4  5  1  0  0  0
  5  6  2  0  0  0
  5  8  1  0  0  0
  6  7  1  0  0  0
  8  9  1  0  0  0
  8 10  2  0  0  0
  9 11  1  0  0  0
  9 42  1  0  0  0
 11 12  2  0  0  0
 11 16  1  0  0  0
 12 13  1  0  0  0
 12 17  1  0  0  0
 13 14  2  0  0  0
 13 43  1  0  0  0
 14 15  1  0  0  0
 14 20  1  0  0  0
 15 16  2  0  0  0
 15 44  1  0  0  0
 16 28  1  0  0  0
 17 18  2  0  0  0
 17 19  1  0  0  0
 19 21  1  0  0  0
 19 45  1  0  0  0
 21 22  2  0  0  0
 21 26  1  0  0  0
 22 23  1  0  0  0
 23 24  2  0  0  0
 23 46  1  0  0  0
 24 25  1  0  0  0
 24 27  1  0  0  0
 25 26  2  0  0  0
 25 47  1  0  0  0
 26 48  1  0  0  0
 28 29  1  0  0  0
 29 49  1  0  0  0
 29 50  1  0  0  0
 29 51  1  0  0  0
 30 31  1  0  0  0
 30 36  1  0  0  0
 31 32  2  0  0  0
 31 35  1  0  0  0
 32 33  1  0  0  0
 33 34  1  0  0  0
 33 38  1  0  0  0
 33 52  1  0  0  0
 34 35  1  0  0  0
 34 53  1  0  0  0
 34 54  1  0  0  0
 36 37  1  0  0  0
 36 55  1  0  0  0
 36 56  1  0  0  0
 37 57  1  0  0  0
 37 58  1  0  0  0
 37 59  1  0  0  0
 38 60  1  0  0  0
 38 61  1  0  0  0
 38 62  1  0  0  0
M  END
> <s_m_entry_id>
35341

> <s_m_entry_name>
dock_pv.191

> <s_m_Source_Path>
/home/csk/Desktop/cluster/DUD-E-result/thrb

> <s_m_Source_File>
dock_pv.maegz

> <i_m_Source_File_Index>
191

> <chembl_id>
CHEMBL226616

> <chembl_pref_name>
None

> <i_lp_mmshare_version>
53161

> <r_lp_tautomer_probability>
1

> <s_lp_Force_Field>
OPLS_2005

> <r_lp_Energy>
41.539964

> <b_lp_Chiralities_Consistent>
1

> <s_lp_Variant>
CHEMBL204_lig4388-2

> <s_i_glide_gridfile>
glide-grid_1ype

> <i_i_glide_lignum>
6047

> <i_i_glide_rotatable_bonds>
11

> <r_i_docking_score>
-7.3459558013871

> <r_i_glide_ligand_efficiency>
-0.193314626352292

> <r_i_glide_ligand_efficiency_sa>
-0.649919018782892

> <r_i_glide_ligand_efficiency_ln>
-1.5840041669049

> <r_i_glide_gscore>
-7.3459558013871

> <r_i_glide_lipo>
-3.51876285925617

> <r_i_glide_hbond>
0

> <r_i_glide_metal>
0

> <r_i_glide_rewards>
-0.761128530162838

> <r_i_glide_evdw>
-58.3194770812988

> <r_i_glide_ecoul>
-3.77168798446655

> <r_i_glide_erotb>
0.415898672190746

> <r_i_glide_esite>
-0.000236032423918534

> <r_i_glide_emodel>
-82.3013957062928

> <r_i_glide_energy>
-62.0911650657654

> <r_i_glide_einternal>
12.9598436355591

> <i_i_glide_confnum>
79

> <i_i_glide_posenum>
391

> <r_i_glide_eff_state_penalty>
0

> <s_user_duplicate_titles>
CHEMBL204_lig4388

> <i_f3d_flags>
0

> <s_m_subgroup_title>
dock_pv

> <s_m_subgroupid>
dock_pv

> <b_m_subgroup_collapsed>
1

$$$$
CHEMBL204_lig1771
                    3D
 Schrodinger Suite 2021-1.
 61 64  0  0  1  0            999 V2000
   21.2154  -12.1617   18.9551 C   0  0  0  0  0  0
   19.8790  -11.8515   19.3313 O   0  0  0  0  0  0
   19.2839  -12.6179   20.3116 C   0  0  0  0  0  0
   19.8670  -13.6917   21.0039 C   0  0  0  0  0  0
   19.1600  -14.4032   21.9817 C   0  0  0  0  0  0
   17.8213  -14.0894   22.2785 C   0  0  0  0  0  0
   17.2084  -13.0467   21.5757 C   0  0  0  0  0  0
   15.9255  -12.5766   21.6177 N   0  0  0  0  0  0
   15.9427  -11.5847   20.7539 C   0  0  0  0  0  0
   14.9098  -10.8049   20.3209 N   0  0  0  0  0  0
   13.4684  -11.0745   20.3683 C   0  0  1  0  0  0
   13.1106  -12.4468   19.7512 C   0  0  0  0  0  0
   13.6619  -12.6534   18.5553 F   0  0  0  0  0  0
   12.8227  -10.7576   21.7275 C   0  0  0  0  0  0
   11.8875  -11.6233   22.3226 C   0  0  0  0  0  0
   11.2165  -11.2568   23.4863 C   0  0  0  0  0  0
   11.4748  -10.0257   24.0803 C   0  0  0  0  0  0
   12.4158   -9.1632   23.5205 C   0  0  0  0  0  0
   12.7808   -7.6749   24.3208 Cl  0  0  0  0  0  0
   13.0732   -9.5212   22.3420 C   0  0  0  0  0  0
   17.1381  -11.3496   20.1321 O   0  0  0  0  0  0
   17.9516  -12.3191   20.6329 C   0  0  0  0  0  0
   19.8269  -15.5557   22.6873 C   0  0  0  0  0  0
   20.1922  -16.5270   22.0230 O   0  0  0  0  0  0
   19.8618  -15.5197   24.0438 N   0  0  0  0  0  0
   19.9310  -16.7873   24.7999 C   0  0  0  0  0  0
   18.9210  -16.6786   25.9630 C   0  0  1  0  0  0
   19.0207  -17.8882   26.8997 C   0  0  0  0  0  0
   19.1958  -15.5063   26.7208 O   0  0  0  0  0  0
   19.0346  -14.3049   25.9779 C   0  0  0  0  0  0
   20.0299  -14.2494   24.7993 C   0  0  1  0  0  0
   21.4733  -13.9501   25.2778 C   0  0  0  0  0  0
   22.5149  -13.8722   24.1514 C   0  0  0  0  0  0
   23.7672  -13.4537   24.6541 O   0  0  0  0  0  0
   21.5484  -11.4564   18.1918 H   0  0  0  0  0  0
   21.9008  -12.0812   19.8012 H   0  0  0  0  0  0
   21.2823  -13.1646   18.5338 H   0  0  0  0  0  0
   20.8860  -13.9850   20.7861 H   0  0  0  0  0  0
   17.2572  -14.6548   23.0058 H   0  0  0  0  0  0
   15.1507  -10.0996   19.6341 H   0  0  0  0  0  0
   13.0249  -10.3377   19.6983 H   0  0  0  0  0  0
   13.4394  -13.2671   20.3903 H   0  0  0  0  0  0
   12.0344  -12.5506   19.6107 H   0  0  0  0  0  0
   11.6414  -12.5818   21.8875 H   0  0  0  0  0  0
   10.4768  -11.9185   23.9192 H   0  0  0  0  0  0
   10.9411   -9.7521   24.9821 H   0  0  0  0  0  0
   13.7822   -8.8312   21.9096 H   0  0  0  0  0  0
   20.9361  -16.9430   25.1904 H   0  0  0  0  0  0
   19.6438  -17.6519   24.1974 H   0  0  0  0  0  0
   17.8966  -16.6452   25.5820 H   0  0  0  0  0  0
   18.7680  -18.8144   26.3822 H   0  0  0  0  0  0
   20.0271  -17.9972   27.3041 H   0  0  0  0  0  0
   18.3339  -17.7859   27.7416 H   0  0  0  0  0  0
   19.2074  -13.4542   26.6380 H   0  0  0  0  0  0
   18.0057  -14.2274   25.6177 H   0  0  0  0  0  0
   19.7321  -13.3929   24.1934 H   0  0  0  0  0  0
   21.7783  -14.7071   26.0016 H   0  0  0  0  0  0
   21.4704  -13.0014   25.8179 H   0  0  0  0  0  0
   22.1827  -13.1660   23.3877 H   0  0  0  0  0  0
   22.6069  -14.8295   23.6340 H   0  0  0  0  0  0
   24.0864  -14.1052   25.2855 H   0  0  0  0  0  0
  1  2  1  0  0  0
  1 35  1  0  0  0
  1 36  1  0  0  0
  1 37  1  0  0  0
  2  3  1  0  0  0
  3  4  2  0  0  0
  3 22  1  0  0  0
  4  5  1  0  0  0
  4 38  1  0  0  0
  5  6  2  0  0  0
  5 23  1  0  0  0
  6  7  1  0  0  0
  6 39  1  0  0  0
  7  8  1  0  0  0
  7 22  2  0  0  0
  8  9  2  0  0  0
  9 10  1  0  0  0
  9 21  1  0  0  0
 10 11  1  0  0  0
 10 40  1  0  0  0
 11 12  1  0  0  0
 11 14  1  0  0  0
 11 41  1  0  0  0
 12 13  1  0  0  0
 12 42  1  0  0  0
 12 43  1  0  0  0
 14 15  2  0  0  0
 14 20  1  0  0  0
 15 16  1  0  0  0
 15 44  1  0  0  0
 16 17  2  0  0  0
 16 45  1  0  0  0
 17 18  1  0  0  0
 17 46  1  0  0  0
 18 19  1  0  0  0
 18 20  2  0  0  0
 20 47  1  0  0  0
 21 22  1  0  0  0
 23 24  2  0  0  0
 23 25  1  0  0  0
 25 26  1  0  0  0
 25 31  1  0  0  0
 26 27  1  0  0  0
 26 48  1  0  0  0
 26 49  1  0  0  0
 27 28  1  0  0  0
 27 29  1  0  0  0
 27 50  1  0  0  0
 28 51  1  0  0  0
 28 52  1  0  0  0
 28 53  1  0  0  0
 29 30  1  0  0  0
 30 31  1  0  0  0
 30 54  1  0  0  0
 30 55  1  0  0  0
 31 32  1  0  0  0
 31 56  1  0  0  0
 32 33  1  0  0  0
 32 57  1  0  0  0
 32 58  1  0  0  0
 33 34  1  0  0  0
 33 59  1  0  0  0
 33 60  1  0  0  0
 34 61  1  0  0  0
M  END
> <s_m_entry_id>
35342

> <s_m_entry_name>
dock_pv.192

> <s_m_Source_Path>
/home/csk/Desktop/cluster/DUD-E-result/thrb

> <s_m_Source_File>
dock_pv.maegz

> <i_m_Source_File_Index>
192

> <chembl_id>
CHEMBL3941250

> <chembl_pref_name>
None

> <i_lp_mmshare_version>
53161

> <r_lp_tautomer_probability>
1

> <s_lp_Force_Field>
OPLS_2005

> <r_lp_Energy>
39.773396

> <b_lp_Chiralities_Consistent>
1

> <s_lp_Variant>
CHEMBL204_lig1771-4

> <s_i_glide_gridfile>
glide-grid_1ype

> <i_i_glide_lignum>
2600

> <i_i_glide_rotatable_bonds>
10

> <r_i_docking_score>
-7.34555110749506

> <r_i_glide_ligand_efficiency>
-0.216045620808678

> <r_i_glide_ligand_efficiency_sa>
-0.69990394196341

> <r_i_glide_ligand_efficiency_ln>
-1.62283827537533

> <r_i_glide_gscore>
-7.34555110749506

> <r_i_glide_lipo>
-4.22891170522379

> <r_i_glide_hbond>
-0.32

> <r_i_glide_metal>
0

> <r_i_glide_rewards>
-0.126834362282076

> <r_i_glide_evdw>
-52.3001823425293

> <r_i_glide_ecoul>
-4.2916111946106

> <r_i_glide_erotb>
0.588945756328861

> <r_i_glide_esite>
0

> <r_i_glide_emodel>
-74.6454562383822

> <r_i_glide_energy>
-56.5917935371399

> <r_i_glide_einternal>
12.9061307907104

> <i_i_glide_confnum>
1

> <i_i_glide_posenum>
220

> <r_i_glide_eff_state_penalty>
0

> <s_user_duplicate_titles>
CHEMBL204_lig1771

> <i_f3d_flags>
0

> <s_m_subgroup_title>
dock_pv

> <s_m_subgroupid>
dock_pv

> <b_m_subgroup_collapsed>
1

$$$$
CHEMBL204_lig4914
                    3D
 Schrodinger Suite 2021-1.
 65 70  0  0  1  0            999 V2000
   12.2625  -11.0114   22.6552 C   0  0  0  0  0  0
   12.9271   -9.9304   22.0551 C   0  0  0  0  0  0
   14.0889  -10.1321   21.3221 C   0  0  0  0  0  0
   12.6926  -12.3061   22.3218 C   0  0  0  0  0  0
   13.8725  -12.5376   21.6206 C   0  0  0  0  0  0
   14.6123  -11.4176   21.2063 C   0  0  0  0  0  0
   15.9056  -11.5535   20.6899 N   0  0  0  0  0  0
   16.3132  -12.8624   20.2040 C   0  0  1  0  0  0
   17.7664  -12.8588   19.7135 C   0  0  0  0  0  0
   18.0871  -12.5384   18.3735 C   0  0  0  0  0  0
   19.4076  -12.2531   18.0523 C   0  0  0  0  0  0
   20.3917  -12.3189   19.0136 C   0  0  0  0  0  0
   20.1320  -12.7947   20.2949 C   0  0  0  0  0  0
   18.7977  -13.0391   20.6468 C   0  0  0  0  0  0
   11.2406  -10.7819   23.6958 C   0  0  0  0  0  0
   11.2146   -9.6902   24.3209 N   0  0  0  0  0  0
   10.4160  -11.8528   23.9210 N   0  0  0  0  0  0
   21.6158  -11.8532   18.6794 O   0  0  0  0  0  0
   21.2153  -12.9524   21.1364 O   0  0  0  0  0  0
   21.0123  -13.5067   22.4327 C   0  0  0  0  0  0
   14.3825  -13.9632   21.4189 C   0  0  2  0  0  0
   15.8949  -14.0188   21.1601 C   0  0  1  0  0  0
   16.0729  -15.4118   20.5236 C   0  0  0  0  0  0
   13.7947  -14.7588   20.2708 C   0  0  0  0  0  0
   14.7742  -15.6194   19.7669 C   0  0  0  0  0  0
   14.4444  -16.5516   18.7822 C   0  0  0  0  0  0
   13.1535  -16.5635   18.2486 C   0  0  0  0  0  0
   12.1865  -15.6754   18.7247 C   0  0  0  0  0  0
   12.5031  -14.7707   19.7392 C   0  0  0  0  0  0
   14.1617  -14.5245   22.3212 H   0  0  0  0  0  0
   16.4468  -13.9419   22.0988 H   0  0  0  0  0  0
   17.0642  -12.3851   17.3159 C   0  0  0  0  0  0
   16.0491  -13.3368   17.1695 C   0  0  0  0  0  0
   14.8792  -12.9897   16.5191 C   0  0  0  0  0  0
   14.8161  -11.7719   15.8527 C   0  0  0  0  0  0
   15.9394  -10.9796   15.7004 C   0  0  0  0  0  0
   17.0560  -11.2576   16.4839 C   0  0  0  0  0  0
   15.8860   -9.8535   14.7215 C   0  0  0  0  0  0
   17.0902   -9.4527   14.2396 O   0  0  0  0  0  0
   14.8183   -9.3974   14.3211 O   0  0  0  0  0  0
   12.6073   -8.9143   22.2417 H   0  0  0  0  0  0
   14.6410   -9.2770   20.9582 H   0  0  0  0  0  0
   12.1850  -13.1721   22.7197 H   0  0  0  0  0  0
   16.3793  -10.7695   20.2660 H   0  0  0  0  0  0
   15.6433  -12.9669   19.3710 H   0  0  0  0  0  0
   19.6781  -11.9390   17.0550 H   0  0  0  0  0  0
   18.5495  -13.3105   21.6609 H   0  0  0  0  0  0
   10.4540   -9.6916   24.9913 H   0  0  0  0  0  0
    9.6366  -11.7544   24.5723 H   0  0  0  0  0  0
   10.5600  -12.7645   23.5056 H   0  0  0  0  0  0
   22.2582  -12.0928   19.3549 H   0  0  0  0  0  0
   21.9708  -13.5689   22.9473 H   0  0  0  0  0  0
   20.3494  -12.8952   23.0464 H   0  0  0  0  0  0
   20.6026  -14.5169   22.3721 H   0  0  0  0  0  0
   16.1704  -16.1757   21.2954 H   0  0  0  0  0  0
   16.9692  -15.4889   19.9104 H   0  0  0  0  0  0
   15.1802  -17.2484   18.4082 H   0  0  0  0  0  0
   12.8985  -17.2618   17.4635 H   0  0  0  0  0  0
   11.1891  -15.6964   18.3086 H   0  0  0  0  0  0
   11.7386  -14.1092   20.1199 H   0  0  0  0  0  0
   16.0882  -14.2714   17.7091 H   0  0  0  0  0  0
   14.0288  -13.6568   16.5408 H   0  0  0  0  0  0
   13.9093  -11.4528   15.3623 H   0  0  0  0  0  0
   17.8874  -10.5748   16.4798 H   0  0  0  0  0  0
   16.8822   -8.7782   13.5821 H   0  0  0  0  0  0
  1  2  2  0  0  0
  1  4  1  0  0  0
  1 15  1  0  0  0
  2  3  1  0  0  0
  2 41  1  0  0  0
  3  6  2  0  0  0
  3 42  1  0  0  0
  4  5  2  0  0  0
  4 43  1  0  0  0
  5  6  1  0  0  0
  5 21  1  0  0  0
  6  7  1  0  0  0
  7  8  1  0  0  0
  7 44  1  0  0  0
  8 22  1  0  0  0
  8  9  1  0  0  0
  8 45  1  0  0  0
  9 10  2  0  0  0
  9 14  1  0  0  0
 10 11  1  0  0  0
 10 32  1  0  0  0
 11 12  2  0  0  0
 11 46  1  0  0  0
 12 13  1  0  0  0
 12 18  1  0  0  0
 13 14  2  0  0  0
 13 19  1  0  0  0
 14 47  1  0  0  0
 15 16  2  0  0  0
 15 17  1  0  0  0
 16 48  1  0  0  0
 17 49  1  0  0  0
 17 50  1  0  0  0
 18 51  1  0  0  0
 19 20  1  0  0  0
 20 52  1  0  0  0
 20 53  1  0  0  0
 20 54  1  0  0  0
 21 22  1  0  0  0
 21 24  1  0  0  0
 21 30  1  0  0  0
 22 23  1  0  0  0
 22 31  1  0  0  0
 23 25  1  0  0  0
 23 55  1  0  0  0
 23 56  1  0  0  0
 24 25  2  0  0  0
 24 29  1  0  0  0
 25 26  1  0  0  0
 26 27  2  0  0  0
 26 57  1  0  0  0
 27 28  1  0  0  0
 27 58  1  0  0  0
 28 29  2  0  0  0
 28 59  1  0  0  0
 29 60  1  0  0  0
 32 33  2  0  0  0
 32 37  1  0  0  0
 33 34  1  0  0  0
 33 61  1  0  0  0
 34 35  2  0  0  0
 34 62  1  0  0  0
 35 36  1  0  0  0
 35 63  1  0  0  0
 36 37  2  0  0  0
 36 38  1  0  0  0
 37 64  1  0  0  0
 38 39  1  0  0  0
 38 40  2  0  0  0
 39 65  1  0  0  0
M  END
> <s_m_entry_id>
35343

> <s_m_entry_name>
dock_pv.193

> <s_m_Source_Path>
/home/csk/Desktop/cluster/DUD-E-result/thrb

> <s_m_Source_File>
dock_pv.maegz

> <i_m_Source_File_Index>
193

> <chembl_id>
CHEMBL2409220

> <chembl_pref_name>
None

> <i_lp_mmshare_version>
53161

> <r_lp_tautomer_probability>
0.999999999999776

> <s_lp_Force_Field>
OPLS_2005

> <r_lp_Energy>
41.327597

> <b_lp_Chiralities_Consistent>
1

> <s_lp_Variant>
CHEMBL204_lig4914-1

> <s_i_glide_gridfile>
glide-grid_1ype

> <i_i_glide_lignum>
6704

> <i_i_glide_rotatable_bonds>
7

> <r_i_docking_score>
-7.34304685413389

> <r_i_glide_ligand_efficiency>
-0.193238075108787

> <r_i_glide_ligand_efficiency_sa>
-0.649661655385178

> <r_i_glide_ligand_efficiency_ln>
-1.58337691230455

> <r_i_glide_gscore>
-7.34304685413389

> <r_i_glide_lipo>
-2.99987545847725

> <r_i_glide_hbond>
-0.583204778537966

> <r_i_glide_metal>
0

> <r_i_glide_rewards>
0

> <r_i_glide_evdw>
-43.3413505554199

> <r_i_glide_ecoul>
-11.2670383453369

> <r_i_glide_erotb>
0.240077519641278

> <r_i_glide_esite>
-0.142920857188414

> <r_i_glide_emodel>
-66.6062221399652

> <r_i_glide_energy>
-54.6083889007568

> <r_i_glide_einternal>
4.02659797668457

> <i_i_glide_confnum>
1

> <i_i_glide_posenum>
22

> <r_i_glide_eff_state_penalty>
0

> <s_user_duplicate_titles>
CHEMBL204_lig4914

> <i_f3d_flags>
0

> <s_m_subgroup_title>
dock_pv

> <s_m_subgroupid>
dock_pv

> <b_m_subgroup_collapsed>
1

$$$$
CHEMBL204_lig5161 
                    3D
 Schrodinger Suite 2021-1.
 57 59  0  0  1  0            999 V2000
   19.9703  -15.4604   20.8152 C   0  0  0  0  0  0
   20.7305  -14.2113   20.3279 C   0  0  0  0  0  0
   19.7730  -13.0271   20.3000 C   0  0  0  0  0  0
   18.7438  -12.9568   21.1926 C   0  0  0  0  0  0
   18.5177  -14.0061   22.2023 C   0  0  0  0  0  0
   19.2945  -15.1306   22.0868 N   0  0  0  0  0  0
   17.7028  -13.8641   23.1210 O   0  0  0  0  0  0
   20.0998  -11.9762   19.2507 C   0  0  0  0  0  0
   17.7806  -11.7457   21.2773 C   0  0  0  0  0  0
   16.3633  -11.9941   20.7211 C   0  0  0  0  0  0
   16.0101  -13.1079   20.3325 O   0  0  0  0  0  0
   15.5398  -10.9317   20.7211 N   0  0  0  0  0  0
   14.1203  -10.9594   20.3539 C   0  0  0  0  0  0
   13.1861  -10.7630   21.5504 C   0  0  0  0  0  0
   19.1780  -16.2079   22.9945 N   0  0  2  0  0  0
   20.4078  -16.4127   23.7635 C   0  0  0  0  0  0
   20.7578  -15.2479   24.6851 C   0  0  0  0  0  0
   22.0614  -14.7432   24.7019 C   0  0  0  0  0  0
   22.3780  -13.6621   25.5211 C   0  0  0  0  0  0
   21.3887  -13.0933   26.3207 C   0  0  0  0  0  0
   20.0957  -13.6032   26.3205 C   0  0  0  0  0  0
   19.7778  -14.6819   25.5060 C   0  0  0  0  0  0
   13.2403   -9.5507   22.2575 C   0  0  0  0  0  0
   12.4160   -9.3243   23.3603 C   0  0  0  0  0  0
   11.4950  -10.2956   23.7410 C   0  0  0  0  0  0
   11.4170  -11.4960   23.0376 C   0  0  0  0  0  0
   12.2599  -11.7491   21.9484 C   0  0  0  0  0  0
   12.1324  -13.0915   21.2303 C   0  0  0  0  0  0
   13.2567  -13.9665   21.5209 N   0  0  0  0  0  0
   12.5497   -7.8632   24.2782 Cl  0  0  0  0  0  0
   19.2159  -15.7726   20.0927 H   0  0  0  0  0  0
   20.6709  -16.2902   20.9222 H   0  0  0  0  0  0
   21.1845  -14.3940   19.3529 H   0  0  0  0  0  0
   21.5470  -13.9919   21.0188 H   0  0  0  0  0  0
   20.2489  -12.4529   18.2811 H   0  0  0  0  0  0
   19.3119  -11.2444   19.1192 H   0  0  0  0  0  0
   21.0198  -11.4549   19.5175 H   0  0  0  0  0  0
   18.1930  -10.8507   20.8178 H   0  0  0  0  0  0
   17.6730  -11.4563   22.3206 H   0  0  0  0  0  0
   15.9049  -10.0480   21.0470 H   0  0  0  0  0  0
   13.8781  -11.8640   19.7974 H   0  0  0  0  0  0
   13.9141  -10.1628   19.6475 H   0  0  0  0  0  0
   18.9127  -17.0263   22.4656 H   0  0  0  0  0  0
   20.2855  -17.2997   24.3859 H   0  0  0  0  0  0
   21.2475  -16.6418   23.1051 H   0  0  0  0  0  0
   22.8257  -15.1794   24.0758 H   0  0  0  0  0  0
   23.3828  -13.2658   25.5336 H   0  0  0  0  0  0
   21.6167  -12.2526   26.9575 H   0  0  0  0  0  0
   19.3423  -13.1621   26.9519 H   0  0  0  0  0  0
   18.7676  -15.0661   25.4985 H   0  0  0  0  0  0
   13.9485   -8.7879   21.9701 H   0  0  0  0  0  0
   10.8383  -10.1284   24.5843 H   0  0  0  0  0  0
   10.6933  -12.2367   23.3512 H   0  0  0  0  0  0
   11.2159  -13.5954   21.5325 H   0  0  0  0  0  0
   12.0411  -12.9386   20.1546 H   0  0  0  0  0  0
   14.1371  -13.5917   21.1822 H   0  0  0  0  0  0
   13.3506  -14.1242   22.5169 H   0  0  0  0  0  0
  1  2  1  0  0  0
  1  6  1  0  0  0
  1 31  1  0  0  0
  1 32  1  0  0  0
  2  3  1  0  0  0
  2 33  1  0  0  0
  2 34  1  0  0  0
  3  4  2  0  0  0
  3  8  1  0  0  0
  4  5  1  0  0  0
  4  9  1  0  0  0
  5  6  1  0  0  0
  5  7  2  0  0  0
  6 15  1  0  0  0
  8 35  1  0  0  0
  8 36  1  0  0  0
  8 37  1  0  0  0
  9 10  1  0  0  0
  9 38  1  0  0  0
  9 39  1  0  0  0
 10 11  2  0  0  0
 10 12  1  0  0  0
 12 13  1  0  0  0
 12 40  1  0  0  0
 13 14  1  0  0  0
 13 41  1  0  0  0
 13 42  1  0  0  0
 14 23  2  0  0  0
 14 27  1  0  0  0
 15 16  1  0  0  0
 15 43  1  0  0  0
 16 17  1  0  0  0
 16 44  1  0  0  0
 16 45  1  0  0  0
 17 18  2  0  0  0
 17 22  1  0  0  0
 18 19  1  0  0  0
 18 46  1  0  0  0
 19 20  2  0  0  0
 19 47  1  0  0  0
 20 21  1  0  0  0
 20 48  1  0  0  0
 21 22  2  0  0  0
 21 49  1  0  0  0
 22 50  1  0  0  0
 23 24  1  0  0  0
 23 51  1  0  0  0
 24 25  2  0  0  0
 24 30  1  0  0  0
 25 26  1  0  0  0
 25 52  1  0  0  0
 26 27  2  0  0  0
 26 53  1  0  0  0
 27 28  1  0  0  0
 28 29  1  0  0  0
 28 54  1  0  0  0
 28 55  1  0  0  0
 29 56  1  0  0  0
 29 57  1  0  0  0
M  END
> <s_m_entry_id>
35344

> <s_m_entry_name>
dock_pv.194

> <s_m_Source_Path>
/home/csk/Desktop/cluster/DUD-E-result/thrb

> <s_m_Source_File>
dock_pv.maegz

> <i_m_Source_File_Index>
194

> <chembl_id>
CHEMBL4455063

> <chembl_pref_name>
None

> <i_lp_mmshare_version>
53161

> <r_lp_tautomer_probability>
1

> <s_lp_Force_Field>
OPLS_2005

> <r_lp_Energy>
20.444569

> <b_lp_Chiralities_Consistent>
1

> <s_lp_Variant>
CHEMBL204_lig5161 -1

> <s_i_glide_gridfile>
glide-grid_1ype

> <i_i_glide_lignum>
7057

> <i_i_glide_rotatable_bonds>
9

> <r_i_docking_score>
-7.34227232394283

> <r_i_glide_ligand_efficiency>
-0.244742410798094

> <r_i_glide_ligand_efficiency_sa>
-0.76047157355518

> <r_i_glide_ligand_efficiency_ln>
-1.66824427246431

> <r_i_glide_gscore>
-7.34227232394283

> <r_i_glide_lipo>
-4.21521697680567

> <r_i_glide_hbond>
-0.0385523599780975

> <r_i_glide_metal>
0

> <r_i_glide_rewards>
-1.11572039909293

> <r_i_glide_evdw>
-49.9291954040527

> <r_i_glide_ecoul>
-2.31698513031006

> <r_i_glide_erotb>
0.871224951683014

> <r_i_glide_esite>
0

> <r_i_glide_emodel>
-72.3952092575213

> <r_i_glide_energy>
-52.2461805343628

> <r_i_glide_einternal>
4.96196460723877

> <i_i_glide_confnum>
120

> <i_i_glide_posenum>
166

> <r_i_glide_eff_state_penalty>
0

> <s_user_duplicate_titles>
CHEMBL204_lig5161 

> <i_f3d_flags>
0

> <s_m_subgroup_title>
dock_pv

> <s_m_subgroupid>
dock_pv

> <b_m_subgroup_collapsed>
1

$$$$
CHEMBL204_lig4916
                    3D
 Schrodinger Suite 2021-1.
 52 56  0  0  1  0            999 V2000
   12.2951  -10.8560   22.7208 C   0  0  0  0  0  0
   12.8861   -9.7055   22.1810 C   0  0  0  0  0  0
   14.0194   -9.7961   21.3923 C   0  0  0  0  0  0
   12.8162  -12.1012   22.3256 C   0  0  0  0  0  0
   13.9504  -12.2338   21.5208 C   0  0  0  0  0  0
   14.5784  -11.0411   21.1230 C   0  0  0  0  0  0
   15.7583  -11.0541   20.3824 N   0  0  0  0  0  0
   15.9449  -12.1873   19.5051 C   0  0  1  0  0  0
   17.2649  -12.0784   18.7685 C   0  0  0  0  0  0
   18.4840  -12.2425   19.4322 C   0  0  0  0  0  0
   19.6726  -12.2514   18.7106 C   0  0  0  0  0  0
   19.6485  -12.0823   17.3263 C   0  0  0  0  0  0
   18.4270  -11.8527   16.6525 C   0  0  0  0  0  0
   17.2435  -11.8531   17.3969 C   0  0  0  0  0  0
   11.2170  -10.7273   23.7252 C   0  0  0  0  0  0
   11.0408   -9.6368   24.3217 N   0  0  0  0  0  0
   10.4594  -11.8532   23.9207 N   0  0  0  0  0  0
   20.8319  -12.2109   16.6446 O   0  0  0  0  0  0
   18.4156  -11.8582   15.2703 O   0  0  0  0  0  0
   17.1783  -11.8032   14.5597 C   0  0  0  0  0  0
   14.5454  -13.6151   21.1845 C   0  0  2  0  0  0
   15.7859  -13.5377   20.2620 C   0  0  1  0  0  0
   15.6676  -14.7151   19.2728 C   0  0  0  0  0  0
   13.6164  -14.5915   20.4776 C   0  0  0  0  0  0
   14.2212  -15.1322   19.3412 C   0  0  0  0  0  0
   13.5250  -16.0320   18.5303 C   0  0  0  0  0  0
   12.2180  -16.3927   18.8595 C   0  0  0  0  0  0
   11.6291  -15.9014   20.0269 C   0  0  0  0  0  0
   12.3367  -15.0146   20.8341 C   0  0  0  0  0  0
   14.8467  -14.0539   22.1369 H   0  0  0  0  0  0
   16.6714  -13.6843   20.8823 H   0  0  0  0  0  0
   12.5116   -8.7200   22.4250 H   0  0  0  0  0  0
   14.4937   -8.8913   21.0415 H   0  0  0  0  0  0
   12.3981  -12.9936   22.7579 H   0  0  0  0  0  0
   16.1110  -10.1874   20.0093 H   0  0  0  0  0  0
   15.1469  -12.1285   18.7602 H   0  0  0  0  0  0
   18.5080  -12.3950   20.5015 H   0  0  0  0  0  0
   20.6052  -12.4259   19.2276 H   0  0  0  0  0  0
   16.2859  -11.7389   16.9121 H   0  0  0  0  0  0
   10.2300   -9.6904   24.9342 H   0  0  0  0  0  0
    9.6532  -11.7984   24.5426 H   0  0  0  0  0  0
   10.6718  -12.7542   23.5112 H   0  0  0  0  0  0
   21.5307  -12.5613   17.1987 H   0  0  0  0  0  0
   17.3722  -11.8265   13.4871 H   0  0  0  0  0  0
   16.5454  -12.6616   14.7902 H   0  0  0  0  0  0
   16.6314  -10.8837   14.7746 H   0  0  0  0  0  0
   16.3030  -15.5401   19.5979 H   0  0  0  0  0  0
   15.9878  -14.4671   18.2613 H   0  0  0  0  0  0
   13.9852  -16.4634   17.6522 H   0  0  0  0  0  0
   11.6753  -17.0800   18.2258 H   0  0  0  0  0  0
   10.6345  -16.2166   20.2874 H   0  0  0  0  0  0
   11.8845  -14.6783   21.7467 H   0  0  0  0  0  0
  1  2  2  0  0  0
  1  4  1  0  0  0
  1 15  1  0  0  0
  2  3  1  0  0  0
  2 32  1  0  0  0
  3  6  2  0  0  0
  3 33  1  0  0  0
  4  5  2  0  0  0
  4 34  1  0  0  0
  5  6  1  0  0  0
  5 21  1  0  0  0
  6  7  1  0  0  0
  7  8  1  0  0  0
  7 35  1  0  0  0
  8 22  1  0  0  0
  8  9  1  0  0  0
  8 36  1  0  0  0
  9 10  2  0  0  0
  9 14  1  0  0  0
 10 11  1  0  0  0
 10 37  1  0  0  0
 11 12  2  0  0  0
 11 38  1  0  0  0
 12 13  1  0  0  0
 12 18  1  0  0  0
 13 14  2  0  0  0
 13 19  1  0  0  0
 14 39  1  0  0  0
 15 16  2  0  0  0
 15 17  1  0  0  0
 16 40  1  0  0  0
 17 41  1  0  0  0
 17 42  1  0  0  0
 18 43  1  0  0  0
 19 20  1  0  0  0
 20 44  1  0  0  0
 20 45  1  0  0  0
 20 46  1  0  0  0
 21 22  1  0  0  0
 21 24  1  0  0  0
 21 30  1  0  0  0
 22 23  1  0  0  0
 22 31  1  0  0  0
 23 25  1  0  0  0
 23 47  1  0  0  0
 23 48  1  0  0  0
 24 25  2  0  0  0
 24 29  1  0  0  0
 25 26  1  0  0  0
 26 27  2  0  0  0
 26 49  1  0  0  0
 27 28  1  0  0  0
 27 50  1  0  0  0
 28 29  2  0  0  0
 28 51  1  0  0  0
 29 52  1  0  0  0
M  END
> <s_m_entry_id>
35345

> <s_m_entry_name>
dock_pv.195

> <s_m_Source_Path>
/home/csk/Desktop/cluster/DUD-E-result/thrb

> <s_m_Source_File>
dock_pv.maegz

> <i_m_Source_File_Index>
195

> <chembl_id>
CHEMBL2409218

> <chembl_pref_name>
None

> <i_lp_mmshare_version>
53161

> <r_lp_tautomer_probability>
0.999999999999776

> <s_lp_Force_Field>
OPLS_2005

> <r_lp_Energy>
31.453612

> <b_lp_Chiralities_Consistent>
1

> <s_lp_Variant>
CHEMBL204_lig4916-1

> <s_i_glide_gridfile>
glide-grid_1ype

> <i_i_glide_lignum>
6706

> <i_i_glide_rotatable_bonds>
4

> <r_i_docking_score>
-7.34115349959988

> <r_i_glide_ligand_efficiency>
-0.253143224124134

> <r_i_glide_ligand_efficiency_sa>
-0.777736185911984

> <r_i_glide_ligand_efficiency_ln>
-1.68093799581757

> <r_i_glide_gscore>
-7.34115349959988

> <r_i_glide_lipo>
-2.43219105779361

> <r_i_glide_hbond>
-0.71606565616198

> <r_i_glide_metal>
0

> <r_i_glide_rewards>
-0.780965999999999

> <r_i_glide_evdw>
-25.7991943359375

> <r_i_glide_ecoul>
-14.1575212478638

> <r_i_glide_erotb>
0.130929259466758

> <r_i_glide_esite>
-0.129272141134607

> <r_i_glide_emodel>
-50.537810475115

> <r_i_glide_energy>
-39.9567155838013

> <r_i_glide_einternal>
0.214035838842392

> <i_i_glide_confnum>
1

> <i_i_glide_posenum>
11

> <r_i_glide_eff_state_penalty>
0

> <s_user_duplicate_titles>
CHEMBL204_lig4916

> <i_f3d_flags>
0

> <s_m_subgroup_title>
dock_pv

> <s_m_subgroupid>
dock_pv

> <b_m_subgroup_collapsed>
1

$$$$
CHEMBL204_lig4183
                    3D
 Schrodinger Suite 2021-1.
 56 60  0  0  1  0            999 V2000
   16.8815  -12.9979   21.3552 N   0  0  0  0  0  0
   16.6762  -11.8843   20.6885 C   0  0  0  0  0  0
   18.1931  -13.2929   21.1048 C   0  0  0  0  0  0
   12.6247  -11.1262   21.9493 N   0  0  0  0  0  0
   17.7737  -11.3374   20.0911 O   0  0  0  0  0  0
   18.5130  -15.3306   24.7623 C   0  0  0  0  0  0
   11.7294  -10.0919   23.6909 N   0  0  0  0  0  0
   18.7439  -12.2563   20.3281 C   0  0  0  0  0  0
   12.9349   -9.8315   21.8044 N   0  0  0  0  0  0
   12.9620  -12.1259   20.9995 C   0  0  0  0  0  0
   11.8582  -11.2430   23.0860 C   0  0  0  0  0  0
   14.1781  -12.1788   20.2720 C   0  0  0  0  0  0
   12.4154   -9.2993   22.8890 C   0  0  0  0  0  0
   15.3462  -11.2029   20.4569 C   0  0  0  0  0  0
   18.5517  -15.5019   22.2080 N   0  0  0  0  0  0
   18.9938  -14.4095   21.4400 C   0  0  0  0  0  0
   17.7451  -15.2864   23.4146 C   0  0  0  0  0  0
   19.6586  -14.2781   24.8785 C   0  0  2  0  0  0
   20.8236  -14.5835   24.0310 N   0  0  2  0  0  0
   18.9875  -16.5622   24.9621 F   0  0  0  0  0  0
   17.6139  -15.1216   25.7238 F   0  0  0  0  0  0
   20.0575  -12.2531   19.8651 C   0  0  0  0  0  0
   14.3567  -13.1967   19.3213 C   0  0  0  0  0  0
   12.0164  -13.1381   20.7944 C   0  0  0  0  0  0
   20.8157  -13.3800   20.1693 C   0  0  0  0  0  0
   21.8935  -13.5927   24.0894 C   0  0  0  0  0  0
   20.2958  -14.4374   20.9211 C   0  0  0  0  0  0
   20.1314  -14.0888   26.3471 C   0  0  0  0  0  0
   13.3930  -14.1798   19.1205 C   0  0  0  0  0  0
   22.4076  -13.4171   25.5281 C   0  0  0  0  0  0
   12.2237  -14.1537   19.8672 C   0  0  0  0  0  0
   21.2634  -13.0575   26.4866 C   0  0  0  0  0  0
   11.4475  -12.1923   23.3972 H   0  0  0  0  0  0
   12.5305   -8.2531   23.1208 H   0  0  0  0  0  0
   15.1946  -10.4586   21.2278 H   0  0  0  0  0  0
   15.4062  -10.6533   19.5205 H   0  0  0  0  0  0
   19.1447  -16.3210   22.2286 H   0  0  0  0  0  0
   16.9731  -16.0570   23.4263 H   0  0  0  0  0  0
   17.1948  -14.3503   23.3647 H   0  0  0  0  0  0
   19.2613  -13.3289   24.5114 H   0  0  0  0  0  0
   20.5025  -14.6561   23.0721 H   0  0  0  0  0  0
   20.4514  -11.4458   19.2695 H   0  0  0  0  0  0
   15.2692  -13.2450   18.7433 H   0  0  0  0  0  0
   11.0891  -13.1419   21.3467 H   0  0  0  0  0  0
   21.8287  -13.4415   19.8058 H   0  0  0  0  0  0
   22.7055  -13.9044   23.4297 H   0  0  0  0  0  0
   21.4992  -12.6547   23.6993 H   0  0  0  0  0  0
   20.9385  -15.2854   21.1144 H   0  0  0  0  0  0
   20.4884  -15.0475   26.7226 H   0  0  0  0  0  0
   19.2973  -13.7984   26.9871 H   0  0  0  0  0  0
   13.5590  -14.9640   18.3955 H   0  0  0  0  0  0
   22.9175  -14.3258   25.8511 H   0  0  0  0  0  0
   23.1757  -12.6462   25.5407 H   0  0  0  0  0  0
   11.4744  -14.9189   19.7272 H   0  0  0  0  0  0
   21.6192  -13.0329   27.5163 H   0  0  0  0  0  0
   20.8856  -12.0585   26.2591 H   0  0  0  0  0  0
  1  2  2  0  0  0
  1  3  1  0  0  0
  2  5  1  0  0  0
  2 14  1  0  0  0
  3  8  2  0  0  0
  3 16  1  0  0  0
  4 10  1  0  0  0
  4  9  1  0  0  0
  4 11  1  0  0  0
  5  8  1  0  0  0
  6 17  1  0  0  0
  6 18  1  0  0  0
  6 20  1  0  0  0
  6 21  1  0  0  0
  7 11  2  0  0  0
  7 13  1  0  0  0
  8 22  1  0  0  0
  9 13  2  0  0  0
 10 12  1  0  0  0
 10 24  2  0  0  0
 11 33  1  0  0  0
 12 14  1  0  0  0
 12 23  2  0  0  0
 13 34  1  0  0  0
 14 35  1  0  0  0
 14 36  1  0  0  0
 15 16  1  0  0  0
 15 17  1  0  0  0
 15 37  1  0  0  0
 16 27  2  0  0  0
 17 38  1  0  0  0
 17 39  1  0  0  0
 18 19  1  0  0  0
 18 28  1  0  0  0
 18 40  1  0  0  0
 19 26  1  0  0  0
 19 41  1  0  0  0
 22 25  2  0  0  0
 22 42  1  0  0  0
 23 29  1  0  0  0
 23 43  1  0  0  0
 24 31  1  0  0  0
 24 44  1  0  0  0
 25 27  1  0  0  0
 25 45  1  0  0  0
 26 30  1  0  0  0
 26 46  1  0  0  0
 26 47  1  0  0  0
 27 48  1  0  0  0
 28 32  1  0  0  0
 28 49  1  0  0  0
 28 50  1  0  0  0
 29 31  2  0  0  0
 29 51  1  0  0  0
 30 32  1  0  0  0
 30 52  1  0  0  0
 30 53  1  0  0  0
 31 54  1  0  0  0
 32 55  1  0  0  0
 32 56  1  0  0  0
M  END
> <s_m_entry_id>
35346

> <s_m_entry_name>
dock_pv.196

> <s_m_Source_Path>
/home/csk/Desktop/cluster/DUD-E-result/thrb

> <s_m_Source_File>
dock_pv.maegz

> <i_m_Source_File_Index>
196

> <chembl_id>
CHEMBL372108

> <chembl_pref_name>
None

> <i_lp_mmshare_version>
53161

> <r_lp_tautomer_probability>
1

> <s_lp_Force_Field>
OPLS_2005

> <r_lp_Energy>
39.927146

> <b_lp_Chiralities_Consistent>
1

> <s_lp_Variant>
CHEMBL204_lig4183-1

> <s_i_glide_gridfile>
glide-grid_1ype

> <i_i_glide_lignum>
5814

> <i_i_glide_rotatable_bonds>
7

> <r_i_docking_score>
-7.33535983390766

> <r_i_glide_ligand_efficiency>
-0.229229994809614

> <r_i_glide_ligand_efficiency_sa>
-0.727759868966153

> <r_i_glide_ligand_efficiency_ln>
-1.64258702116909

> <r_i_glide_gscore>
-7.33535983390766

> <r_i_glide_lipo>
-3.7543388615279

> <r_i_glide_hbond>
0

> <r_i_glide_metal>
0

> <r_i_glide_rewards>
-1.44794896135382

> <r_i_glide_evdw>
-49.3788299560547

> <r_i_glide_ecoul>
-1.85746371746063

> <r_i_glide_erotb>
0.622601881008393

> <r_i_glide_esite>
-0.00811283661250986

> <r_i_glide_emodel>
-69.6039499991039

> <r_i_glide_energy>
-51.2362936735153

> <r_i_glide_einternal>
8.57011318206787

> <i_i_glide_confnum>
49

> <i_i_glide_posenum>
44

> <r_i_glide_eff_state_penalty>
0

> <s_user_duplicate_titles>
CHEMBL204_lig4183

> <i_f3d_flags>
0

> <s_m_subgroup_title>
dock_pv

> <s_m_subgroupid>
dock_pv

> <b_m_subgroup_collapsed>
1

$$$$
CHEMBL204_lig1747
                    3D
 Schrodinger Suite 2021-1.
 69 74  0  0  1  0            999 V2000
   11.6313   -9.8252   24.0109 C   0  0  0  0  0  0
   12.2359  -10.4544   22.8140 C   0  0  0  0  0  0
   12.0154  -11.8025   22.4698 C   0  0  0  0  0  0
   12.6407  -12.3733   21.3715 C   0  0  0  0  0  0
   13.4961  -11.6052   20.5886 C   0  0  0  0  0  0
   13.7032  -10.2601   20.8958 C   0  0  0  0  0  0
   13.0830   -9.6965   21.9941 C   0  0  0  0  0  0
   11.8865   -8.6302   24.3210 N   0  0  0  0  0  0
   10.8160  -10.6547   24.7204 N   0  0  0  0  0  0
   14.1709  -12.2406   19.3896 C   0  0  0  0  0  0
   16.6338  -12.5385   20.1697 C   0  0  0  0  0  0
   15.6484  -11.8512   19.1969 C   0  0  1  0  0  0
   17.8854  -12.8988   19.7135 N   0  0  0  0  0  0
   16.0261  -12.0782   17.7954 N   0  0  2  0  0  0
   17.4343  -11.7881   17.5799 C   0  0  0  0  0  0
   18.2789  -12.8477   18.3182 C   0  0  0  0  0  0
   16.4794  -12.7892   21.4531 N   0  0  0  0  0  0
   17.6301  -13.4441   21.8266 C   0  0  0  0  0  0
   18.5345  -13.5309   20.7461 C   0  0  0  0  0  0
   19.7617  -14.1863   20.8404 C   0  0  0  0  0  0
   20.0500  -14.7933   22.0605 C   0  0  0  0  0  0
   19.1910  -14.7323   23.1765 C   0  0  0  0  0  0
   17.9762  -14.0302   23.0546 C   0  0  0  0  0  0
   19.4893  -15.4814   24.5160 C   0  0  0  0  0  0
   18.4409  -16.6451   24.6798 C   0  0  0  0  0  0
   18.0470  -16.6771   26.1539 C   0  0  0  0  0  0
   18.0131  -15.1997   26.5153 C   0  0  0  0  0  0
   19.2447  -14.6202   25.8084 C   0  0  0  0  0  0
   20.9528  -16.0882   24.5667 C   0  0  0  0  0  0
   21.1101  -17.3113   24.4944 O   0  0  0  0  0  0
   22.0424  -15.2803   24.6902 N   0  0  0  0  0  0
   23.4039  -15.8360   24.6031 C   0  0  0  0  0  0
   24.3039  -14.6045   24.5266 C   0  0  0  0  0  0
   23.3942  -13.4956   24.0426 C   0  0  0  0  0  0
   22.0384  -13.8112   24.6717 C   0  0  0  0  0  0
   11.3727  -12.4435   23.0551 H   0  0  0  0  0  0
   12.4606  -13.4141   21.1440 H   0  0  0  0  0  0
   14.3569   -9.6284   20.3212 H   0  0  0  0  0  0
   13.2889   -8.6583   22.2129 H   0  0  0  0  0  0
   11.3883   -8.3596   25.1535 H   0  0  0  0  0  0
   10.1436  -10.2487   25.3660 H   0  0  0  0  0  0
   10.5150  -11.5215   24.3033 H   0  0  0  0  0  0
   13.5872  -11.9327   18.5228 H   0  0  0  0  0  0
   14.0870  -13.3285   19.4290 H   0  0  0  0  0  0
   15.7643  -10.7791   19.3428 H   0  0  0  0  0  0
   15.4461  -11.5065   17.1976 H   0  0  0  0  0  0
   17.6498  -11.7809   16.5106 H   0  0  0  0  0  0
   17.6159  -10.7797   17.9476 H   0  0  0  0  0  0
   19.3533  -12.6879   18.2202 H   0  0  0  0  0  0
   18.0167  -13.8245   17.9212 H   0  0  0  0  0  0
   20.4417  -14.2630   20.0041 H   0  0  0  0  0  0
   20.9812  -15.3386   22.1056 H   0  0  0  0  0  0
   17.2844  -13.9885   23.8815 H   0  0  0  0  0  0
   17.5300  -16.4310   24.1175 H   0  0  0  0  0  0
   18.7526  -17.6272   24.3220 H   0  0  0  0  0  0
   17.0896  -17.1716   26.3203 H   0  0  0  0  0  0
   18.8023  -17.2018   26.7424 H   0  0  0  0  0  0
   17.1036  -14.7389   26.1261 H   0  0  0  0  0  0
   18.0166  -15.0515   27.5948 H   0  0  0  0  0  0
   20.0659  -14.6920   26.5251 H   0  0  0  0  0  0
   19.1243  -13.5565   25.5964 H   0  0  0  0  0  0
   23.5251  -16.4145   23.6848 H   0  0  0  0  0  0
   23.6586  -16.4397   25.4763 H   0  0  0  0  0  0
   25.1806  -14.7580   23.8960 H   0  0  0  0  0  0
   24.6700  -14.3589   25.5214 H   0  0  0  0  0  0
   23.7617  -12.5123   24.3243 H   0  0  0  0  0  0
   23.3150  -13.5149   22.9547 H   0  0  0  0  0  0
   22.0489  -13.4304   25.6947 H   0  0  0  0  0  0
   21.2472  -13.3637   24.0706 H   0  0  0  0  0  0
  1  2  1  0  0  0
  1  8  2  0  0  0
  1  9  1  0  0  0
  2  3  1  0  0  0
  2  7  2  0  0  0
  3  4  2  0  0  0
  3 36  1  0  0  0
  4  5  1  0  0  0
  4 37  1  0  0  0
  5  6  2  0  0  0
  5 10  1  0  0  0
  6  7  1  0  0  0
  6 38  1  0  0  0
  7 39  1  0  0  0
  8 40  1  0  0  0
  9 41  1  0  0  0
  9 42  1  0  0  0
 10 12  1  0  0  0
 10 43  1  0  0  0
 10 44  1  0  0  0
 11 12  1  0  0  0
 11 13  1  0  0  0
 11 17  2  0  0  0
 12 14  1  0  0  0
 12 45  1  0  0  0
 13 16  1  0  0  0
 13 19  1  0  0  0
 14 15  1  0  0  0
 14 46  1  0  0  0
 15 16  1  0  0  0
 15 47  1  0  0  0
 15 48  1  0  0  0
 16 49  1  0  0  0
 16 50  1  0  0  0
 17 18  1  0  0  0
 18 19  1  0  0  0
 18 23  2  0  0  0
 19 20  2  0  0  0
 20 21  1  0  0  0
 20 51  1  0  0  0
 21 22  2  0  0  0
 21 52  1  0  0  0
 22 23  1  0  0  0
 22 24  1  0  0  0
 23 53  1  0  0  0
 24 25  1  0  0  0
 24 28  1  0  0  0
 24 29  1  0  0  0
 25 26  1  0  0  0
 25 54  1  0  0  0
 25 55  1  0  0  0
 26 27  1  0  0  0
 26 56  1  0  0  0
 26 57  1  0  0  0
 27 28  1  0  0  0
 27 58  1  0  0  0
 27 59  1  0  0  0
 28 60  1  0  0  0
 28 61  1  0  0  0
 29 30  2  0  0  0
 29 31  1  0  0  0
 31 32  1  0  0  0
 31 35  1  0  0  0
 32 33  1  0  0  0
 32 62  1  0  0  0
 32 63  1  0  0  0
 33 34  1  0  0  0
 33 64  1  0  0  0
 33 65  1  0  0  0
 34 35  1  0  0  0
 34 66  1  0  0  0
 34 67  1  0  0  0
 35 68  1  0  0  0
 35 69  1  0  0  0
M  END
> <s_m_entry_id>
35347

> <s_m_entry_name>
dock_pv.197

> <s_m_Source_Path>
/home/csk/Desktop/cluster/DUD-E-result/thrb

> <s_m_Source_File>
dock_pv.maegz

> <i_m_Source_File_Index>
197

> <chembl_id>
CHEMBL3907547

> <chembl_pref_name>
None

> <i_lp_mmshare_version>
53161

> <r_lp_tautomer_probability>
1

> <s_lp_Force_Field>
OPLS_2005

> <r_lp_Energy>
77.80111

> <b_lp_Chiralities_Consistent>
1

> <s_lp_Variant>
CHEMBL204_lig1747-2

> <s_i_glide_gridfile>
glide-grid_1ype

> <i_i_glide_lignum>
2532

> <i_i_glide_rotatable_bonds>
6

> <r_i_docking_score>
-7.33386199031114

> <r_i_glide_ligand_efficiency>
-0.20953891400889

> <r_i_glide_ligand_efficiency_sa>
-0.685415681475686

> <r_i_glide_ligand_efficiency_ln>
-1.60994547317055

> <r_i_glide_gscore>
-7.33386199031114

> <r_i_glide_lipo>
-3.92372179326409

> <r_i_glide_hbond>
-0.145743700908035

> <r_i_glide_metal>
0

> <r_i_glide_rewards>
-0.845622111744938

> <r_i_glide_evdw>
-46.2689018249512

> <r_i_glide_ecoul>
-3.15623950958252

> <r_i_glide_erotb>
0.456180769546948

> <r_i_glide_esite>
-0.0880741362560896

> <r_i_glide_emodel>
-65.2184438901952

> <r_i_glide_energy>
-49.4251413345337

> <r_i_glide_einternal>
4.35741996765137

> <i_i_glide_confnum>
25

> <i_i_glide_posenum>
331

> <r_i_glide_eff_state_penalty>
0

> <s_user_duplicate_titles>
CHEMBL204_lig1747

> <i_f3d_flags>
0

> <s_m_subgroup_title>
dock_pv

> <s_m_subgroupid>
dock_pv

> <b_m_subgroup_collapsed>
1

$$$$
CHEMBL204_lig4115
                    3D
 Schrodinger Suite 2021-1.
 60 64  0  0  1  0            999 V2000
   16.5932  -12.5594   20.1217 C   0  0  1  0  0  0
   17.3765  -13.9042   20.3238 C   0  0  0  0  0  0
   16.4738  -12.3166   18.6279 C   0  0  0  0  0  0
   18.6962  -13.9575   20.6437 N   0  0  0  0  0  0
   15.1374  -12.7462   20.5184 C   0  0  0  0  0  0
   15.1581  -12.5084   18.2055 C   0  0  0  0  0  0
   14.3181  -12.7664   19.3898 C   0  0  0  0  0  0
   17.1162  -11.9237   16.3732 N   0  3  0  0  0  0
   19.4127  -15.2441   20.7289 C   0  0  2  0  0  0
   19.2730  -15.8805   22.1286 C   0  0  0  0  0  0
   17.4544  -12.0092   17.6770 C   0  0  0  0  0  0
   20.3367  -16.5349   22.6210 N   0  0  0  0  0  0
   14.8506  -12.4453   16.8465 C   0  0  0  0  0  0
   20.8634  -15.5850   24.8394 C   0  0  0  0  0  0
   16.7627  -14.9581   20.1215 O   0  0  0  0  0  0
   18.0160  -11.6588   15.5309 O   0  5  0  0  0  0
   20.4859  -16.8382   24.0448 C   0  0  0  0  0  0
   15.8600  -12.1387   15.9318 C   0  0  0  0  0  0
   20.0225  -14.9932   25.8072 C   0  0  0  0  0  0
   17.1673  -11.4512   20.7909 O   0  0  0  0  0  0
   18.2201  -15.7533   22.7522 O   0  0  0  0  0  0
   22.0920  -14.9816   24.5387 C   0  0  0  0  0  0
   20.4093  -13.7853   26.3972 C   0  0  0  0  0  0
   19.6262  -12.8383   20.8255 C   0  0  0  0  0  0
   22.4692  -13.7873   25.1427 C   0  0  0  0  0  0
   14.5845  -12.9610   21.7827 C   0  0  0  0  0  0
   21.6184  -13.1836   26.0650 C   0  0  0  0  0  0
   23.9748  -13.0535   24.7219 Cl  0  0  0  0  0  0
   17.6160  -15.0470   25.4085 N   0  0  0  0  0  0
   12.9497  -13.0091   19.5237 C   0  0  0  0  0  0
   20.8371  -14.8243   20.3352 C   0  0  0  0  0  0
   21.0107  -13.4600   20.9813 C   0  0  0  0  0  0
   18.6826  -15.5897   26.2257 C   0  0  0  0  0  0
   13.2147  -13.1819   21.9196 C   0  0  0  0  0  0
   12.3990  -13.2090   20.7901 C   0  0  0  0  0  0
   19.0399  -15.9700   20.0089 H   0  0  0  0  0  0
   18.4999  -11.8618   17.8987 H   0  0  0  0  0  0
   21.1672  -16.6045   22.0499 H   0  0  0  0  0  0
   13.8564  -12.6529   16.4966 H   0  0  0  0  0  0
   21.2875  -17.5690   24.1613 H   0  0  0  0  0  0
   19.5894  -17.3303   24.4198 H   0  0  0  0  0  0
   15.7114  -12.0749   14.8631 H   0  0  0  0  0  0
   16.5919  -10.6921   20.6681 H   0  0  0  0  0  0
   22.7478  -15.4262   23.8045 H   0  0  0  0  0  0
   19.7644  -13.3047   27.1195 H   0  0  0  0  0  0
   19.3691  -12.2518   21.7060 H   0  0  0  0  0  0
   19.6019  -12.1921   19.9490 H   0  0  0  0  0  0
   15.2176  -12.9910   22.6566 H   0  0  0  0  0  0
   21.8934  -12.2516   26.5309 H   0  0  0  0  0  0
   17.7556  -15.3203   24.4335 H   0  0  0  0  0  0
   16.7148  -15.4251   25.6689 H   0  0  0  0  0  0
   12.3062  -13.0529   18.6625 H   0  0  0  0  0  0
   21.6143  -15.5344   20.6103 H   0  0  0  0  0  0
   20.8888  -14.7131   19.2513 H   0  0  0  0  0  0
   21.2427  -13.5810   22.0407 H   0  0  0  0  0  0
   21.8036  -12.8605   20.5334 H   0  0  0  0  0  0
   18.6873  -16.6778   26.1849 H   0  0  0  0  0  0
   18.4800  -15.3359   27.2676 H   0  0  0  0  0  0
   12.7877  -13.3587   22.8966 H   0  0  0  0  0  0
   11.3411  -13.3979   20.9007 H   0  0  0  0  0  0
  1  2  1  0  0  0
  1  3  1  0  0  0
  1  5  1  0  0  0
  1 20  1  0  0  0
  2  4  1  0  0  0
  2 15  2  0  0  0
  3  6  2  0  0  0
  3 11  1  0  0  0
  4  9  1  0  0  0
  4 24  1  0  0  0
  5  7  2  0  0  0
  5 26  1  0  0  0
  6 13  1  0  0  0
  6  7  1  0  0  0
  7 30  1  0  0  0
  8 11  2  0  0  0
  8 16  1  0  0  0
  8 18  1  0  0  0
  9 10  1  0  0  0
  9 31  1  0  0  0
  9 36  1  0  0  0
 10 12  1  0  0  0
 10 21  2  0  0  0
 11 37  1  0  0  0
 12 17  1  0  0  0
 12 38  1  0  0  0
 13 18  2  0  0  0
 13 39  1  0  0  0
 14 17  1  0  0  0
 14 19  1  0  0  0
 14 22  2  0  0  0
 17 40  1  0  0  0
 17 41  1  0  0  0
 18 42  1  0  0  0
 19 23  2  0  0  0
 19 33  1  0  0  0
 20 43  1  0  0  0
 22 25  1  0  0  0
 22 44  1  0  0  0
 23 27  1  0  0  0
 23 45  1  0  0  0
 24 32  1  0  0  0
 24 46  1  0  0  0
 24 47  1  0  0  0
 25 27  2  0  0  0
 25 28  1  0  0  0
 26 34  2  0  0  0
 26 48  1  0  0  0
 27 49  1  0  0  0
 29 33  1  0  0  0
 29 50  1  0  0  0
 29 51  1  0  0  0
 30 35  2  0  0  0
 30 52  1  0  0  0
 31 32  1  0  0  0
 31 53  1  0  0  0
 31 54  1  0  0  0
 32 55  1  0  0  0
 32 56  1  0  0  0
 33 57  1  0  0  0
 33 58  1  0  0  0
 34 35  1  0  0  0
 34 59  1  0  0  0
 35 60  1  0  0  0
M  CHG  2   8   1  16  -1
M  END
> <s_m_entry_id>
35348

> <s_m_entry_name>
dock_pv.198

> <s_m_Source_Path>
/home/csk/Desktop/cluster/DUD-E-result/thrb

> <s_m_Source_File>
dock_pv.maegz

> <i_m_Source_File_Index>
198

> <chembl_id>
CHEMBL426806

> <chembl_pref_name>
None

> <i_lp_mmshare_version>
53161

> <r_lp_tautomer_probability>
1

> <s_lp_Force_Field>
OPLS_2005

> <r_lp_Energy>
48.66535

> <b_lp_Chiralities_Consistent>
1

> <s_lp_Variant>
CHEMBL204_lig4115-2

> <s_i_glide_gridfile>
glide-grid_1ype

> <i_i_glide_lignum>
5723

> <i_i_glide_rotatable_bonds>
8

> <r_i_docking_score>
-7.3274943544594

> <r_i_glide_ligand_efficiency>
-0.209356981555983

> <r_i_glide_ligand_efficiency_sa>
-0.684820568358958

> <r_i_glide_ligand_efficiency_ln>
-1.60854763577903

> <r_i_glide_gscore>
-7.3274943544594

> <r_i_glide_lipo>
-3.49178470322753

> <r_i_glide_hbond>
-0.164624662295597

> <r_i_glide_metal>
0

> <r_i_glide_rewards>
-0.530560294880733

> <r_i_glide_evdw>
-41.8947105407715

> <r_i_glide_ecoul>
-10.159966468811

> <r_i_glide_erotb>
0.502909986112092

> <r_i_glide_esite>
-0.0247041828074063

> <r_i_glide_emodel>
-73.8002754131304

> <r_i_glide_energy>
-52.0546770095825

> <r_i_glide_einternal>
8.16472721099854

> <i_i_glide_confnum>
22

> <i_i_glide_posenum>
127

> <r_i_glide_eff_state_penalty>
0

> <s_user_duplicate_titles>
CHEMBL204_lig4115,319363

> <i_f3d_flags>
0

> <s_m_subgroup_title>
dock_pv

> <s_m_subgroupid>
dock_pv

> <b_m_subgroup_collapsed>
1

$$$$
CHEMBL204_lig1980
                    3D
 Schrodinger Suite 2021-1.
 73 77  0  0  1  0            999 V2000
   14.6623  -16.5139   20.0356 N   0  0  0  0  0  0
   15.8750  -17.1021   20.3106 C   0  0  0  0  0  0
   14.4485  -15.7131   18.7976 C   0  0  2  0  0  0
   13.4458  -16.6482   20.8763 C   0  0  1  0  0  0
   15.1547  -14.3376   18.7608 C   0  0  0  0  0  0
   16.9463  -12.6287   20.9397 C   0  0  0  0  0  0
   16.0350  -17.8854   21.6487 C   0  0  1  0  0  0
   18.2436  -12.7242   20.2660 C   0  0  0  0  0  0
   21.9740  -14.1998   25.5588 C   0  0  0  0  0  0
   20.7223  -15.8575   24.2493 N   0  0  0  0  0  0
   12.1041  -16.7325   19.6751 S   0  0  0  0  0  0
   15.0738  -13.5833   19.8717 N   0  0  0  0  0  0
   20.6628  -14.6897   24.9456 C   0  0  0  0  0  0
   18.5189  -12.3394   19.0413 N   0  0  0  0  0  0
   11.5183  -10.9527   23.1154 C   0  0  0  0  0  0
   17.2733  -17.3480   22.3839 C   0  0  0  0  0  0
   12.9220  -15.5844   18.5545 C   0  0  0  0  0  0
   15.7066  -12.2817   20.1154 C   0  0  1  0  0  0
   19.5870  -16.3296   23.6625 C   0  0  0  0  0  0
   19.6076  -13.4125   21.1119 S   0  0  0  0  0  0
   17.2114  -16.1406   23.0877 C   0  0  0  0  0  0
   14.7698  -18.0106   22.5287 C   0  0  0  0  0  0
   16.8158  -17.0404   19.5207 O   0  0  0  0  0  0
   18.3483  -15.6285   23.7527 C   0  0  0  0  0  0
   10.8160  -11.8530   23.9215 N   0  0  0  0  0  0
   13.5003  -17.9647   21.6865 C   0  0  0  0  0  0
   11.6826   -9.7212   23.7781 N   0  0  0  0  0  0
   16.8348  -12.8541   22.1495 O   0  0  0  0  0  0
   15.7604  -13.9756   17.7545 O   0  0  0  0  0  0
   19.7826  -12.5421   18.7236 C   0  0  0  0  0  0
   20.5744  -13.1225   19.7044 C   0  0  0  0  0  0
   18.4886  -18.0354   22.3135 C   0  0  0  0  0  0
   19.4819  -13.9594   25.0986 C   0  0  0  0  0  0
   19.6362  -17.5413   22.9321 C   0  0  0  0  0  0
   18.3148  -14.4304   24.5044 C   0  0  0  0  0  0
   21.7404  -13.4526   26.6393 F   0  0  0  0  0  0
   22.7607  -15.2153   25.9210 F   0  0  0  0  0  0
   22.6286  -13.4559   24.6658 F   0  0  0  0  0  0
   11.8649  -11.2614   21.9334 N   0  0  0  0  0  0
   13.2294  -15.3958   21.7600 C   0  0  0  0  0  0
   14.7695  -11.3187   20.8883 C   0  0  0  0  0  0
   12.4200  -10.2724   21.0292 C   0  0  0  0  0  0
   13.4696  -10.9544   20.1363 C   0  0  0  0  0  0
   14.9143  -16.2948   17.9991 H   0  0  0  0  0  0
   16.2770  -18.8943   21.3116 H   0  0  0  0  0  0
   14.5420  -13.9478   20.6483 H   0  0  0  0  0  0
   12.5194  -14.5850   18.7341 H   0  0  0  0  0  0
   12.6649  -15.8705   17.5333 H   0  0  0  0  0  0
   15.9732  -11.7978   19.1735 H   0  0  0  0  0  0
   16.2963  -15.5713   23.1213 H   0  0  0  0  0  0
   14.8063  -18.9446   23.0925 H   0  0  0  0  0  0
   14.7288  -17.2220   23.2819 H   0  0  0  0  0  0
   10.5766  -12.7531   23.5203 H   0  0  0  0  0  0
   10.0441  -11.4948   24.4719 H   0  0  0  0  0  0
   12.6247  -18.0860   22.3181 H   0  0  0  0  0  0
   13.4888  -18.8213   21.0098 H   0  0  0  0  0  0
   11.9521   -8.9370   23.2072 H   0  0  0  0  0  0
   10.9447   -9.4543   24.4132 H   0  0  0  0  0  0
   20.1251  -12.2755   17.7351 H   0  0  0  0  0  0
   21.6159  -13.4016   19.6718 H   0  0  0  0  0  0
   18.5524  -18.9561   21.7528 H   0  0  0  0  0  0
   19.4659  -13.0361   25.6622 H   0  0  0  0  0  0
   20.5722  -18.0758   22.8527 H   0  0  0  0  0  0
   17.3874  -13.8843   24.5990 H   0  0  0  0  0  0
   14.1254  -15.1416   22.3210 H   0  0  0  0  0  0
   12.9563  -14.5127   21.1828 H   0  0  0  0  0  0
   12.4176  -15.5380   22.4660 H   0  0  0  0  0  0
   15.3064  -10.3970   21.1209 H   0  0  0  0  0  0
   14.4971  -11.7696   21.8469 H   0  0  0  0  0  0
   11.6163   -9.9034   20.3912 H   0  0  0  0  0  0
   12.8538   -9.3972   21.5206 H   0  0  0  0  0  0
   13.0242  -11.8415   19.6825 H   0  0  0  0  0  0
   13.7008  -10.2908   19.3071 H   0  0  0  0  0  0
  1  2  1  0  0  0
  1  3  1  0  0  0
  1  4  1  0  0  0
  2  7  1  0  0  0
  2 23  2  0  0  0
  3  5  1  0  0  0
  3 17  1  0  0  0
  3 44  1  0  0  0
  4 11  1  0  0  0
  4 26  1  0  0  0
  4 40  1  0  0  0
  5 12  1  0  0  0
  5 29  2  0  0  0
  6 18  1  0  0  0
  6  8  1  0  0  0
  6 28  2  0  0  0
  7 16  1  0  0  0
  7 22  1  0  0  0
  7 45  1  0  0  0
  8 14  2  0  0  0
  8 20  1  0  0  0
  9 13  1  0  0  0
  9 36  1  0  0  0
  9 37  1  0  0  0
  9 38  1  0  0  0
 10 19  1  0  0  0
 10 13  2  0  0  0
 11 17  1  0  0  0
 12 18  1  0  0  0
 12 46  1  0  0  0
 13 33  1  0  0  0
 14 30  1  0  0  0
 15 39  2  0  0  0
 15 25  1  0  0  0
 15 27  1  0  0  0
 16 21  1  0  0  0
 16 32  2  0  0  0
 17 47  1  0  0  0
 17 48  1  0  0  0
 18 41  1  0  0  0
 18 49  1  0  0  0
 19 34  2  0  0  0
 19 24  1  0  0  0
 20 31  1  0  0  0
 21 24  2  0  0  0
 21 50  1  0  0  0
 22 26  1  0  0  0
 22 51  1  0  0  0
 22 52  1  0  0  0
 24 35  1  0  0  0
 25 53  1  0  0  0
 25 54  1  0  0  0
 26 55  1  0  0  0
 26 56  1  0  0  0
 27 57  1  0  0  0
 27 58  1  0  0  0
 30 31  2  0  0  0
 30 59  1  0  0  0
 31 60  1  0  0  0
 32 34  1  0  0  0
 32 61  1  0  0  0
 33 35  2  0  0  0
 33 62  1  0  0  0
 34 63  1  0  0  0
 35 64  1  0  0  0
 39 42  1  0  0  0
 40 65  1  0  0  0
 40 66  1  0  0  0
 40 67  1  0  0  0
 41 43  1  0  0  0
 41 68  1  0  0  0
 41 69  1  0  0  0
 42 43  1  0  0  0
 42 70  1  0  0  0
 42 71  1  0  0  0
 43 72  1  0  0  0
 43 73  1  0  0  0
M  END
> <s_m_entry_id>
35349

> <s_m_entry_name>
dock_pv.199

> <s_m_Source_Path>
/home/csk/Desktop/cluster/DUD-E-result/thrb

> <s_m_Source_File>
dock_pv.maegz

> <i_m_Source_File_Index>
199

> <chembl_id>
CHEMBL353492

> <chembl_pref_name>
None

> <i_lp_mmshare_version>
53161

> <r_lp_tautomer_probability>
0.99990000499975

> <s_lp_Force_Field>
OPLS_2005

> <r_lp_Energy>
39.948781

> <b_lp_Chiralities_Consistent>
1

> <s_lp_Variant>
CHEMBL204_lig1980-2

> <s_i_glide_gridfile>
glide-grid_1ype

> <i_i_glide_lignum>
2949

> <i_i_glide_rotatable_bonds>
11

> <r_i_docking_score>
-7.32680591212656

> <r_i_glide_ligand_efficiency>
-0.170390835165734

> <r_i_glide_ligand_efficiency_sa>
-0.596946920678894

> <r_i_glide_ligand_efficiency_ln>
-1.53885695498839

> <r_i_glide_gscore>
-7.32680591212656

> <r_i_glide_lipo>
-2.67607862350731

> <r_i_glide_hbond>
-0.415158794156254

> <r_i_glide_metal>
0

> <r_i_glide_rewards>
-0.981472724723478

> <r_i_glide_evdw>
-53.079174041748

> <r_i_glide_ecoul>
-5.74295234680176

> <r_i_glide_erotb>
0.333323745847102

> <r_i_glide_esite>
-0.0720179614789564

> <r_i_glide_emodel>
-80.3392630577659

> <r_i_glide_energy>
-58.8221263885498

> <r_i_glide_einternal>
10.2891931533813

> <i_i_glide_confnum>
13

> <i_i_glide_posenum>
373

> <r_i_glide_eff_state_penalty>
0

> <s_user_duplicate_titles>
CHEMBL204_lig1980

> <i_f3d_flags>
0

> <s_m_subgroup_title>
dock_pv

> <s_m_subgroupid>
dock_pv

> <b_m_subgroup_collapsed>
1

$$$$
CHEMBL204_lig4702
                    3D
 Schrodinger Suite 2021-1.
 54 56  0  0  1  0            999 V2000
   10.8160  -11.0232   24.1612 N   0  0  0  0  0  0
   11.7328  -10.2181   23.5398 C   0  0  0  0  0  0
   12.0156   -9.0496   23.9209 N   0  0  0  0  0  0
   12.4226  -10.8406   22.3714 C   0  0  0  0  0  0
   13.5048  -10.1848   21.7559 C   0  0  0  0  0  0
   14.2147  -10.7760   20.7187 C   0  0  0  0  0  0
   13.8531  -12.0378   20.2474 C   0  0  0  0  0  0
   14.6687  -12.7119   19.1474 C   0  0  0  0  0  0
   16.0746  -12.8729   19.5213 N   0  0  0  0  0  0
   17.0669  -12.0333   19.1846 C   0  0  0  0  0  0
   16.9277  -11.1167   18.3753 O   0  0  0  0  0  0
   18.4512  -12.2111   19.8546 C   0  0  2  0  0  0
   19.5486  -12.4644   18.8018 C   0  0  0  0  0  0
   20.5891  -13.3167   19.5054 C   0  0  0  0  0  0
   19.7522  -14.1745   20.4405 C   0  0  0  0  0  0
   18.6282  -13.3182   20.8264 N   0  0  0  0  0  0
   17.9331  -13.4451   21.9845 C   0  0  0  0  0  0
   17.0434  -12.6585   22.3094 O   0  0  0  0  0  0
   18.2528  -14.6158   22.9342 C   0  0  0  0  0  0
   19.3935  -14.4113   23.9879 C   0  0  0  0  0  0
   20.2158  -13.0989   23.9571 C   0  0  0  0  0  0
   20.6858  -12.8250   25.3959 C   0  0  0  0  0  0
   19.9967  -13.8636   26.2835 C   0  0  0  0  0  0
   18.8742  -14.4565   25.4314 C   0  0  0  0  0  0
   12.7553  -12.6895   20.8092 C   0  0  0  0  0  0
   12.0538  -12.0998   21.8579 C   0  0  0  0  0  0
   10.1965  -10.6138   24.8532 H   0  0  0  0  0  0
   10.5262  -11.8982   23.7536 H   0  0  0  0  0  0
   12.7253   -8.6169   23.3542 H   0  0  0  0  0  0
   13.8472   -9.2192   22.0983 H   0  0  0  0  0  0
   15.0666  -10.2559   20.3051 H   0  0  0  0  0  0
   14.5638  -12.1135   18.2399 H   0  0  0  0  0  0
   14.2590  -13.6964   18.9171 H   0  0  0  0  0  0
   16.2666  -13.5655   20.2309 H   0  0  0  0  0  0
   18.6817  -11.2884   20.3909 H   0  0  0  0  0  0
   19.9805  -11.5437   18.4112 H   0  0  0  0  0  0
   19.1414  -13.0209   17.9567 H   0  0  0  0  0  0
   21.2501  -12.6774   20.0929 H   0  0  0  0  0  0
   21.2040  -13.9018   18.8210 H   0  0  0  0  0  0
   20.3580  -14.5194   21.2782 H   0  0  0  0  0  0
   19.3635  -15.0507   19.9218 H   0  0  0  0  0  0
   18.4549  -15.5084   22.3409 H   0  0  0  0  0  0
   17.3213  -14.8726   23.4447 H   0  0  0  0  0  0
   20.0945  -15.2405   23.8634 H   0  0  0  0  0  0
   19.6166  -12.2526   23.6250 H   0  0  0  0  0  0
   21.0640  -13.1742   23.2752 H   0  0  0  0  0  0
   20.4151  -11.8139   25.7027 H   0  0  0  0  0  0
   21.7697  -12.9016   25.4855 H   0  0  0  0  0  0
   19.6186  -13.4248   27.2053 H   0  0  0  0  0  0
   20.7037  -14.6446   26.5627 H   0  0  0  0  0  0
   18.6224  -15.4689   25.7490 H   0  0  0  0  0  0
   17.9722  -13.8529   25.5209 H   0  0  0  0  0  0
   12.4533  -13.6658   20.4584 H   0  0  0  0  0  0
   11.2236  -12.6547   22.2699 H   0  0  0  0  0  0
  1  2  1  0  0  0
  1 27  1  0  0  0
  1 28  1  0  0  0
  2  3  2  0  0  0
  2  4  1  0  0  0
  3 29  1  0  0  0
  4  5  2  0  0  0
  4 26  1  0  0  0
  5  6  1  0  0  0
  5 30  1  0  0  0
  6  7  2  0  0  0
  6 31  1  0  0  0
  7  8  1  0  0  0
  7 25  1  0  0  0
  8  9  1  0  0  0
  8 32  1  0  0  0
  8 33  1  0  0  0
  9 10  1  0  0  0
  9 34  1  0  0  0
 10 11  2  0  0  0
 10 12  1  0  0  0
 12 13  1  0  0  0
 12 16  1  0  0  0
 12 35  1  0  0  0
 13 14  1  0  0  0
 13 36  1  0  0  0
 13 37  1  0  0  0
 14 15  1  0  0  0
 14 38  1  0  0  0
 14 39  1  0  0  0
 15 16  1  0  0  0
 15 40  1  0  0  0
 15 41  1  0  0  0
 16 17  1  0  0  0
 17 18  2  0  0  0
 17 19  1  0  0  0
 19 20  1  0  0  0
 19 42  1  0  0  0
 19 43  1  0  0  0
 20 21  1  0  0  0
 20 24  1  0  0  0
 20 44  1  0  0  0
 21 22  1  0  0  0
 21 45  1  0  0  0
 21 46  1  0  0  0
 22 23  1  0  0  0
 22 47  1  0  0  0
 22 48  1  0  0  0
 23 24  1  0  0  0
 23 49  1  0  0  0
 23 50  1  0  0  0
 24 51  1  0  0  0
 24 52  1  0  0  0
 25 26  2  0  0  0
 25 53  1  0  0  0
 26 54  1  0  0  0
M  END
> <s_m_entry_id>
35350

> <s_m_entry_name>
dock_pv.200

> <s_m_Source_Path>
/home/csk/Desktop/cluster/DUD-E-result/thrb

> <s_m_Source_File>
dock_pv.maegz

> <i_m_Source_File_Index>
200

> <chembl_id>
CHEMBL597810

> <chembl_pref_name>
None

> <i_lp_mmshare_version>
53161

> <r_lp_tautomer_probability>
1

> <s_lp_Force_Field>
OPLS_2005

> <r_lp_Energy>
29.645156

> <b_lp_Chiralities_Consistent>
1

> <s_lp_Variant>
CHEMBL204_lig4702-1

> <s_i_glide_gridfile>
glide-grid_1ype

> <i_i_glide_lignum>
6443

> <i_i_glide_rotatable_bonds>
8

> <r_i_docking_score>
-7.32233894510822

> <r_i_glide_ligand_efficiency>
-0.281628420965701

> <r_i_glide_ligand_efficiency_sa>
-0.834323088956563

> <r_i_glide_ligand_efficiency_ln>
-1.71962727470489

> <r_i_glide_gscore>
-7.32233894510822

> <r_i_glide_lipo>
-3.38443741766162

> <r_i_glide_hbond>
-0.0804763104273404

> <r_i_glide_metal>
0

> <r_i_glide_rewards>
-1.88721926369322

> <r_i_glide_evdw>
-42.9492378234863

> <r_i_glide_ecoul>
-5.26090383529663

> <r_i_glide_erotb>
1.05401412194406

> <r_i_glide_esite>
-0.0876226088012956

> <r_i_glide_emodel>
-66.2302923745982

> <r_i_glide_energy>
-48.210141658783

> <r_i_glide_einternal>
4.1287727355957

> <i_i_glide_confnum>
61

> <i_i_glide_posenum>
332

> <r_i_glide_eff_state_penalty>
0

> <s_user_duplicate_titles>
CHEMBL204_lig4702

> <i_f3d_flags>
0

> <s_m_subgroup_title>
dock_pv

> <s_m_subgroupid>
dock_pv

> <b_m_subgroup_collapsed>
1

$$$$
CHEMBL204_lig4466
                    3D
 Schrodinger Suite 2021-1.
 46 49  0  0  1  0            999 V2000
   11.2157  -10.2247   24.0894 C   0  0  0  0  0  0
   12.0501   -9.1609   23.7605 C   0  0  0  0  0  0
   12.9669   -9.2847   22.7178 C   0  0  0  0  0  0
   13.0997  -10.4984   22.0489 C   0  0  0  0  0  0
   12.3104  -11.5944   22.4361 C   0  0  0  0  0  0
   11.3232  -11.4340   23.4099 C   0  0  0  0  0  0
   11.9823   -7.6890   24.6640 Cl  0  0  0  0  0  0
   12.4808  -12.8903   21.9221 N   0  0  0  0  0  0
   13.6351  -13.4625   21.5101 C   0  0  0  0  0  0
   13.5253  -14.9051   21.0437 C   0  0  0  0  0  0
   14.7273  -12.8911   21.5256 O   0  0  0  0  0  0
   12.3467  -15.3157   20.3935 C   0  0  0  0  0  0
   12.1881  -16.6162   19.9269 C   0  0  0  0  0  0
   13.2141  -17.5391   20.0890 C   0  0  0  0  0  0
   14.3948  -17.1614   20.7240 C   0  0  0  0  0  0
   14.5725  -15.8530   21.2084 C   0  0  0  0  0  0
   10.7170  -17.0731   19.1486 Cl  0  0  0  0  0  0
   15.7465  -15.5170   21.9209 N   0  0  0  0  0  0
   17.0077  -15.9776   21.7402 C   0  0  0  0  0  0
   17.9611  -15.5056   22.7205 C   0  0  0  0  0  0
   17.3634  -16.7137   20.8201 O   0  0  0  0  0  0
   19.1891  -14.8895   22.4928 C   0  0  0  0  0  0
   17.6162  -15.6986   24.4254 S   0  0  0  0  0  0
   19.0547  -14.8054   24.8524 C   0  0  0  0  0  0
   19.8452  -14.4717   23.7074 C   0  0  0  0  0  0
   21.0819  -13.8089   23.9331 C   0  0  0  0  0  0
   21.4312  -13.4529   25.2394 C   0  0  0  0  0  0
   20.6194  -13.7534   26.3206 C   0  0  0  0  0  0
   19.4330  -14.4508   26.1530 C   0  0  0  0  0  0
   19.8393  -14.6025   20.9157 Cl  0  0  0  0  0  0
   22.0710  -13.4714   22.8355 C   0  0  0  0  0  0
   10.4760  -10.1266   24.8725 H   0  0  0  0  0  0
   13.6106   -8.4564   22.4628 H   0  0  0  0  0  0
   13.8438  -10.5874   21.2720 H   0  0  0  0  0  0
   10.6768  -12.2537   23.6948 H   0  0  0  0  0  0
   11.6858  -13.5047   22.0405 H   0  0  0  0  0  0
   11.5314  -14.6250   20.2292 H   0  0  0  0  0  0
   13.0933  -18.5496   19.7293 H   0  0  0  0  0  0
   15.1628  -17.9089   20.8554 H   0  0  0  0  0  0
   15.6138  -14.8246   22.6473 H   0  0  0  0  0  0
   22.3597  -12.9354   25.4326 H   0  0  0  0  0  0
   20.9279  -13.4526   27.3115 H   0  0  0  0  0  0
   18.8151  -14.7007   27.0059 H   0  0  0  0  0  0
   21.6302  -12.7813   22.1148 H   0  0  0  0  0  0
   22.3317  -14.3923   22.3204 H   0  0  0  0  0  0
   23.0019  -13.0525   23.2173 H   0  0  0  0  0  0
  1  6  1  0  0  0
  1  2  2  0  0  0
  1 32  1  0  0  0
  2  3  1  0  0  0
  2  7  1  0  0  0
  3  4  2  0  0  0
  3 33  1  0  0  0
  4  5  1  0  0  0
  4 34  1  0  0  0
  5  8  1  0  0  0
  5  6  2  0  0  0
  6 35  1  0  0  0
  8  9  1  0  0  0
  8 36  1  0  0  0
  9 10  1  0  0  0
  9 11  2  0  0  0
 10 16  1  0  0  0
 10 12  2  0  0  0
 12 13  1  0  0  0
 12 37  1  0  0  0
 13 17  1  0  0  0
 13 14  2  0  0  0
 14 15  1  0  0  0
 14 38  1  0  0  0
 15 16  2  0  0  0
 15 39  1  0  0  0
 16 18  1  0  0  0
 18 19  1  0  0  0
 18 40  1  0  0  0
 19 20  1  0  0  0
 19 21  2  0  0  0
 20 22  2  0  0  0
 20 23  1  0  0  0
 22 25  1  0  0  0
 22 30  1  0  0  0
 23 24  1  0  0  0
 24 25  2  0  0  0
 24 29  1  0  0  0
 25 26  1  0  0  0
 26 27  2  0  0  0
 26 31  1  0  0  0
 27 28  1  0  0  0
 27 41  1  0  0  0
 28 29  2  0  0  0
 28 42  1  0  0  0
 29 43  1  0  0  0
 31 44  1  0  0  0
 31 45  1  0  0  0
 31 46  1  0  0  0
M  END
> <s_m_entry_id>
35351

> <s_m_entry_name>
dock_pv.201

> <s_m_Source_Path>
/home/csk/Desktop/cluster/DUD-E-result/thrb

> <s_m_Source_File>
dock_pv.maegz

> <i_m_Source_File_Index>
201

> <chembl_id>
CHEMBL244459

> <chembl_pref_name>
None

> <i_lp_mmshare_version>
53161

> <r_lp_tautomer_probability>
1

> <s_lp_Force_Field>
OPLS_2005

> <r_lp_Energy>
40.207478

> <b_lp_Chiralities_Consistent>
1

> <s_lp_Variant>
CHEMBL204_lig4466-1

> <s_i_glide_gridfile>
glide-grid_1ype

> <i_i_glide_lignum>
6133

> <i_i_glide_rotatable_bonds>
6

> <r_i_docking_score>
-7.32144744172571

> <r_i_glide_ligand_efficiency>
-0.236175723926636

> <r_i_glide_ligand_efficiency_sa>
-0.74191784885842

> <r_i_glide_ligand_efficiency_ln>
-1.65121077352677

> <r_i_glide_gscore>
-7.32144744172571

> <r_i_glide_lipo>
-3.78306038379822

> <r_i_glide_hbond>
-0.460036553325959

> <r_i_glide_metal>
0

> <r_i_glide_rewards>
-0.235279302233359

> <r_i_glide_evdw>
-48.127082824707

> <r_i_glide_ecoul>
-6.14312553405762

> <r_i_glide_erotb>
0.508851842296935

> <r_i_glide_esite>
-0.0241000733211158

> <r_i_glide_emodel>
-75.0355412455754

> <r_i_glide_energy>
-54.2702083587646

> <r_i_glide_einternal>
4.91323614120483

> <i_i_glide_confnum>
29

> <i_i_glide_posenum>
340

> <r_i_glide_eff_state_penalty>
0

> <s_user_duplicate_titles>
CHEMBL204_lig4466

> <i_f3d_flags>
0

> <s_m_subgroup_title>
dock_pv

> <s_m_subgroupid>
dock_pv

> <b_m_subgroup_collapsed>
1

$$$$
CHEMBL204_lig4160
                    3D
 Schrodinger Suite 2021-1.
 43 46  0  0  1  0            999 V2000
   15.9848  -11.3956   20.6351 C   0  0  0  0  0  0
   16.3654  -12.2813   21.5306 N   0  0  0  0  0  0
   17.5967  -12.6959   21.0802 C   0  0  0  0  0  0
   16.8270  -11.2249   19.5739 O   0  0  0  0  0  0
   20.1459  -13.9531   24.6285 C   0  0  0  0  0  0
   17.8583  -12.0666   19.8496 C   0  0  0  0  0  0
   14.9166  -10.5390   20.6714 N   0  0  0  0  0  0
   18.3179  -14.2006   22.8662 N   0  0  0  0  0  0
   18.5611  -13.5738   21.6268 C   0  0  0  0  0  0
   21.6393  -14.3077   24.6776 C   0  0  0  0  0  0
   19.3755  -14.8665   23.6323 C   0  0  0  0  0  0
   22.4686  -13.5937   23.8626 N   0  0  0  0  0  0
   13.8075  -10.6007   21.5225 C   0  0  0  0  0  0
   13.4805   -9.4849   22.3030 C   0  0  0  0  0  0
   19.6298  -14.1108   25.8516 F   0  0  0  0  0  0
   20.0173  -12.6526   24.3459 F   0  0  0  0  0  0
   12.4159   -9.5438   23.2041 C   0  0  0  0  0  0
   12.1305   -8.2520   24.3210 Cl  0  0  0  0  0  0
   19.0138  -12.2882   19.0979 C   0  0  0  0  0  0
   19.9606  -13.1476   19.6509 C   0  0  0  0  0  0
   11.9128  -11.7836   22.4481 C   0  0  0  0  0  0
   19.7424  -13.7671   20.8838 C   0  0  0  0  0  0
   23.8005  -13.8514   23.9072 C   0  0  0  0  0  0
   13.0225  -11.7536   21.6021 C   0  0  0  0  0  0
   22.1260  -15.3147   25.5210 C   0  0  0  0  0  0
   11.6156  -10.6828   23.2530 C   0  0  0  0  0  0
   24.3516  -14.8408   24.7192 C   0  0  0  0  0  0
   23.4958  -15.5837   25.5329 C   0  0  0  0  0  0
   15.0531   -9.6349   20.2459 H   0  0  0  0  0  0
   17.5016  -13.8927   23.3773 H   0  0  0  0  0  0
   20.0765  -15.3671   22.9657 H   0  0  0  0  0  0
   18.9186  -15.6949   24.1753 H   0  0  0  0  0  0
   14.1032   -8.6019   22.2755 H   0  0  0  0  0  0
   19.1674  -11.8301   18.1354 H   0  0  0  0  0  0
   20.8808  -13.3489   19.1202 H   0  0  0  0  0  0
   11.2895  -12.6652   22.5013 H   0  0  0  0  0  0
   20.5308  -14.4112   21.2389 H   0  0  0  0  0  0
   24.4318  -13.2412   23.2753 H   0  0  0  0  0  0
   13.2613  -12.6197   21.0031 H   0  0  0  0  0  0
   21.4584  -15.8743   26.1592 H   0  0  0  0  0  0
   10.7758  -10.7289   23.9325 H   0  0  0  0  0  0
   25.4187  -15.0194   24.7348 H   0  0  0  0  0  0
   23.8940  -16.3474   26.1866 H   0  0  0  0  0  0
  1  2  2  0  0  0
  1  4  1  0  0  0
  1  7  1  0  0  0
  2  3  1  0  0  0
  3  9  1  0  0  0
  3  6  2  0  0  0
  4  6  1  0  0  0
  5 11  1  0  0  0
  5 10  1  0  0  0
  5 15  1  0  0  0
  5 16  1  0  0  0
  6 19  1  0  0  0
  7 13  1  0  0  0
  7 29  1  0  0  0
  8  9  1  0  0  0
  8 11  1  0  0  0
  8 30  1  0  0  0
  9 22  2  0  0  0
 10 12  1  0  0  0
 10 25  2  0  0  0
 11 31  1  0  0  0
 11 32  1  0  0  0
 12 23  2  0  0  0
 13 14  2  0  0  0
 13 24  1  0  0  0
 14 17  1  0  0  0
 14 33  1  0  0  0
 17 18  1  0  0  0
 17 26  2  0  0  0
 19 20  2  0  0  0
 19 34  1  0  0  0
 20 22  1  0  0  0
 20 35  1  0  0  0
 21 24  2  0  0  0
 21 26  1  0  0  0
 21 36  1  0  0  0
 22 37  1  0  0  0
 23 27  1  0  0  0
 23 38  1  0  0  0
 24 39  1  0  0  0
 25 28  1  0  0  0
 25 40  1  0  0  0
 26 41  1  0  0  0
 27 28  2  0  0  0
 27 42  1  0  0  0
 28 43  1  0  0  0
M  END
> <s_m_entry_id>
35352

> <s_m_entry_name>
dock_pv.202

> <s_m_Source_Path>
/home/csk/Desktop/cluster/DUD-E-result/thrb

> <s_m_Source_File>
dock_pv.maegz

> <i_m_Source_File_Index>
202

> <chembl_id>
CHEMBL370762

> <chembl_pref_name>
None

> <i_lp_mmshare_version>
53161

> <r_lp_tautomer_probability>
1

> <s_lp_Force_Field>
OPLS_2005

> <r_lp_Energy>
18.402918

> <b_lp_Chiralities_Consistent>
1

> <s_lp_Variant>
CHEMBL204_lig4160-1

> <s_i_glide_gridfile>
glide-grid_1ype

> <i_i_glide_lignum>
5780

> <i_i_glide_rotatable_bonds>
6

> <r_i_docking_score>
-7.31591429207588

> <r_i_glide_ligand_efficiency>
-0.261282653288424

> <r_i_glide_ligand_efficiency_sa>
-0.793408022636775

> <r_i_glide_ligand_efficiency_ln>
-1.68872782318857

> <r_i_glide_gscore>
-7.31591429207588

> <r_i_glide_lipo>
-3.7175794816479

> <r_i_glide_hbond>
-0.239317726563804

> <r_i_glide_metal>
0

> <r_i_glide_rewards>
-1.31384457693653

> <r_i_glide_evdw>
-45.0650367736816

> <r_i_glide_ecoul>
-2.681316614151

> <r_i_glide_erotb>
0.610276823879095

> <r_i_glide_esite>
0

> <r_i_glide_emodel>
-61.6362983108048

> <r_i_glide_energy>
-47.7463533878326

> <r_i_glide_einternal>
13.4490871429443

> <i_i_glide_confnum>
5

> <i_i_glide_posenum>
331

> <r_i_glide_eff_state_penalty>
0

> <s_user_duplicate_titles>
CHEMBL204_lig4160,329938

> <i_f3d_flags>
0

> <s_m_subgroup_title>
dock_pv

> <s_m_subgroupid>
dock_pv

> <b_m_subgroup_collapsed>
1

$$$$
CHEMBL204_lig4938
                    3D
 Schrodinger Suite 2021-1.
 58 61  0  0  1  0            999 V2000
   15.7973  -11.7567   16.4437 S   0  0  0  0  0  0
   14.5830  -11.6226   17.2509 O   0  0  0  0  0  0
   15.9992  -10.9297   15.2483 O   0  0  0  0  0  0
   16.5154  -11.8621   19.8332 C   0  0  0  0  0  0
   17.4103  -11.9966   18.7524 C   0  0  0  0  0  0
   18.6224  -12.6485   18.9902 C   0  0  0  0  0  0
   18.9122  -13.1546   20.2551 C   0  0  0  0  0  0
   17.9602  -13.0150   21.2748 C   0  0  0  0  0  0
   16.7787  -12.3889   21.0640 N   0  0  0  0  0  0
   17.2149  -11.4535   17.4692 N   0  0  0  0  0  0
   15.9150  -13.4698   15.9445 C   0  0  0  0  0  0
   16.3440  -13.8033   14.6560 C   0  0  0  0  0  0
   16.4113  -15.1418   14.2779 C   0  0  0  0  0  0
   16.0459  -16.1363   15.1827 C   0  0  0  0  0  0
   15.6150  -15.8047   16.4654 C   0  0  0  0  0  0
   15.5486  -14.4685   16.8494 C   0  0  0  0  0  0
   16.1133  -17.4353   14.8130 F   0  0  0  0  0  0
   15.3620  -11.1161   19.6863 O   0  0  0  0  0  0
   18.1077  -13.4794   22.5656 O   0  0  0  0  0  0
   11.3488  -10.7221   23.6848 C   0  0  0  0  0  0
   12.3644  -10.8530   22.6011 C   0  0  0  0  0  0
   13.0922   -9.7240   22.1823 C   0  0  0  0  0  0
   14.0781   -9.8202   21.2083 C   0  0  0  0  0  0
   14.3756  -11.0531   20.6417 C   0  0  0  0  0  0
   13.6443  -12.1818   21.0049 C   0  0  0  0  0  0
   12.6481  -12.0819   21.9720 C   0  0  0  0  0  0
   11.2160   -9.6438   24.3207 N   0  0  0  0  0  0
   10.6044  -11.8530   23.9210 N   0  0  0  0  0  0
   23.1402  -15.3134   24.4613 C   0  0  0  0  0  0
   21.8120  -14.8384   23.9784 C   0  0  0  0  0  0
   21.2420  -13.6323   24.4284 C   0  0  0  0  0  0
   20.0152  -13.1920   23.9528 C   0  0  0  0  0  0
   19.3154  -13.9492   23.0209 C   0  0  0  0  0  0
   19.8363  -15.1650   22.5824 C   0  0  0  0  0  0
   21.0781  -15.5948   23.0445 C   0  0  0  0  0  0
   23.7281  -16.2877   23.9219 N   0  0  0  0  0  0
   23.6381  -14.6007   25.5211 N   0  0  0  0  0  0
   19.3538  -12.7565   18.2026 H   0  0  0  0  0  0
   19.8586  -13.6446   20.4226 H   0  0  0  0  0  0
   18.0437  -11.2907   16.9245 H   0  0  0  0  0  0
   16.6106  -13.0376   13.9423 H   0  0  0  0  0  0
   16.7291  -15.4126   13.2819 H   0  0  0  0  0  0
   15.3261  -16.5849   17.1530 H   0  0  0  0  0  0
   15.2034  -14.2093   17.8404 H   0  0  0  0  0  0
   12.9101   -8.7558   22.6244 H   0  0  0  0  0  0
   14.6350   -8.9423   20.9149 H   0  0  0  0  0  0
   13.8585  -13.1341   20.5446 H   0  0  0  0  0  0
   12.1213  -12.9867   22.2379 H   0  0  0  0  0  0
   10.4598   -9.7206   24.9933 H   0  0  0  0  0  0
    9.7972  -11.7929   24.5406 H   0  0  0  0  0  0
   10.8144  -12.7592   23.5199 H   0  0  0  0  0  0
   21.7450  -12.9986   25.1425 H   0  0  0  0  0  0
   19.6167  -12.2536   24.3065 H   0  0  0  0  0  0
   19.2838  -15.7647   21.8751 H   0  0  0  0  0  0
   21.4662  -16.5345   22.6743 H   0  0  0  0  0  0
   24.6133  -16.4823   24.3653 H   0  0  0  0  0  0
   24.4928  -14.8806   25.9826 H   0  0  0  0  0  0
   23.0617  -13.9213   25.9890 H   0  0  0  0  0  0
  1  2  2  0  0  0
  1  3  2  0  0  0
  1 10  1  0  0  0
  1 11  1  0  0  0
  4  5  1  0  0  0
  4  9  2  0  0  0
  4 18  1  0  0  0
  5  6  2  0  0  0
  5 10  1  0  0  0
  6  7  1  0  0  0
  6 38  1  0  0  0
  7  8  2  0  0  0
  7 39  1  0  0  0
  8  9  1  0  0  0
  8 19  1  0  0  0
 10 40  1  0  0  0
 11 12  1  0  0  0
 11 16  2  0  0  0
 12 13  2  0  0  0
 12 41  1  0  0  0
 13 14  1  0  0  0
 13 42  1  0  0  0
 14 15  2  0  0  0
 14 17  1  0  0  0
 15 16  1  0  0  0
 15 43  1  0  0  0
 16 44  1  0  0  0
 18 24  1  0  0  0
 19 33  1  0  0  0
 20 21  1  0  0  0
 20 27  2  0  0  0
 20 28  1  0  0  0
 21 22  1  0  0  0
 21 26  2  0  0  0
 22 23  2  0  0  0
 22 45  1  0  0  0
 23 24  1  0  0  0
 23 46  1  0  0  0
 24 25  2  0  0  0
 25 26  1  0  0  0
 25 47  1  0  0  0
 26 48  1  0  0  0
 27 49  1  0  0  0
 28 50  1  0  0  0
 28 51  1  0  0  0
 29 30  1  0  0  0
 29 36  2  0  0  0
 29 37  1  0  0  0
 30 31  1  0  0  0
 30 35  2  0  0  0
 31 32  2  0  0  0
 31 52  1  0  0  0
 32 33  1  0  0  0
 32 53  1  0  0  0
 33 34  2  0  0  0
 34 35  1  0  0  0
 34 54  1  0  0  0
 35 55  1  0  0  0
 36 56  1  0  0  0
 37 57  1  0  0  0
 37 58  1  0  0  0
M  END
> <s_m_entry_id>
35353

> <s_m_entry_name>
dock_pv.203

> <s_m_Source_Path>
/home/csk/Desktop/cluster/DUD-E-result/thrb

> <s_m_Source_File>
dock_pv.maegz

> <i_m_Source_File_Index>
203

> <chembl_id>
CHEMBL3099589

> <chembl_pref_name>
None

> <i_lp_mmshare_version>
53161

> <r_lp_tautomer_probability>
1

> <s_lp_Force_Field>
OPLS_2005

> <r_lp_Energy>
10.197336

> <b_lp_Chiralities_Consistent>
1

> <s_lp_Variant>
CHEMBL204_lig4938-1

> <s_i_glide_gridfile>
glide-grid_1ype

> <i_i_glide_lignum>
6732

> <i_i_glide_rotatable_bonds>
9

> <r_i_docking_score>
-7.31377132399858

> <r_i_glide_ligand_efficiency>
-0.197669495243205

> <r_i_glide_ligand_efficiency_sa>
-0.658678610660421

> <r_i_glide_ligand_efficiency_ln>
-1.58618554104867

> <r_i_glide_gscore>
-7.31377132399858

> <r_i_glide_lipo>
-2.95282844061323

> <r_i_glide_hbond>
-0.638674591926036

> <r_i_glide_metal>
0

> <r_i_glide_rewards>
-0.202115492441817

> <r_i_glide_evdw>
-49.7445106506348

> <r_i_glide_ecoul>
-9.54017543792725

> <r_i_glide_erotb>
0.530940301840018

> <r_i_glide_esite>
-0.132841252636689

> <r_i_glide_emodel>
-80.1130635693582

> <r_i_glide_energy>
-59.284686088562

> <r_i_glide_einternal>
11.4251174926758

> <i_i_glide_confnum>
2

> <i_i_glide_posenum>
149

> <r_i_glide_eff_state_penalty>
0

> <s_user_duplicate_titles>
CHEMBL204_lig4938

> <i_f3d_flags>
0

> <s_m_subgroup_title>
dock_pv

> <s_m_subgroupid>
dock_pv

> <b_m_subgroup_collapsed>
1

$$$$
CHEMBL204_lig1152
                    3D
 Schrodinger Suite 2021-1.
 75 78  0  0  1  0            999 V2000
   13.8502  -13.8622   20.0611 C   0  0  0  0  0  0
   19.5091  -13.7232   21.0306 N   0  0  0  0  0  0
   14.3219  -14.6718   20.9767 N   0  0  0  0  0  0
   12.4925  -14.4785   19.1398 S   0  0  0  0  0  0
   14.3614  -12.5318   19.7318 C   0  0  0  0  0  0
   18.9687  -14.4689   22.0335 C   0  0  0  0  0  0
   17.3880  -12.6478   20.1413 C   0  0  0  0  0  0
   18.8740  -12.4886   20.5206 C   0  0  2  0  0  0
   12.6134  -15.9750   20.0330 C   0  0  0  0  0  0
   16.5298  -11.8733   20.8403 N   0  0  0  0  0  0
   13.6800  -15.8689   20.9710 C   0  0  0  0  0  0
   15.0486  -11.7191   20.8411 C   0  0  1  0  0  0
   11.5368  -10.4865   23.2889 C   0  0  0  0  0  0
   19.5543  -15.8923   22.2780 C   0  0  1  0  0  0
   11.8495  -17.1442   19.9126 C   0  0  0  0  0  0
   11.2151   -9.9311   24.5322 N   0  0  0  0  0  0
   14.2451  -12.0679   18.5917 O   0  0  0  0  0  0
   18.0107  -14.0873   22.7143 O   0  0  0  0  0  0
   17.0901  -13.4545   19.2599 O   0  0  0  0  0  0
   19.5847  -16.2742   23.7888 C   0  0  0  0  0  0
   13.9922  -16.9674   21.7867 C   0  0  0  0  0  0
   12.0166   -9.7604   22.3639 N   0  0  0  0  0  0
   11.2159  -11.8532   23.2378 N   0  0  0  0  0  0
   12.1921  -18.2220   20.7209 C   0  0  0  0  0  0
   18.6925  -16.8022   21.4721 N   0  0  2  0  0  0
   20.7491  -14.0224   20.3011 C   0  0  0  0  0  0
   13.2405  -18.1355   21.6400 C   0  0  0  0  0  0
   20.2895  -15.3053   24.7263 C   0  0  0  0  0  0
   19.7217  -12.1264   19.2855 C   0  0  0  0  0  0
   11.4647  -19.3774   20.6451 O   0  0  0  0  0  0
   21.0756  -12.7517   19.5286 C   0  0  0  0  0  0
   14.6882  -10.2027   20.8471 C   0  0  0  0  0  0
   12.0645  -10.2572   21.0034 C   0  0  0  0  0  0
   19.0904  -18.2063   21.5275 C   0  0  0  0  0  0
   21.6975  -15.2095   24.7294 C   0  0  0  0  0  0
   19.5331  -14.3964   25.4938 C   0  0  0  0  0  0
   13.3126   -9.7313   20.2971 C   0  0  0  0  0  0
   22.3256  -14.2543   25.5212 C   0  0  0  0  0  0
   20.1797  -13.4540   26.2778 C   0  0  0  0  0  0
   21.5619  -13.3854   26.2913 C   0  0  0  0  0  0
   18.9944  -11.7206   21.2853 H   0  0  0  0  0  0
   16.9677  -11.2956   21.5470 H   0  0  0  0  0  0
   14.7051  -12.1231   21.7972 H   0  0  0  0  0  0
   20.5871  -15.9444   21.9383 H   0  0  0  0  0  0
   11.0388  -17.1999   19.1990 H   0  0  0  0  0  0
   11.2067   -8.9276   24.5707 H   0  0  0  0  0  0
   10.3695  -10.2913   24.9763 H   0  0  0  0  0  0
   18.5670  -16.4305   24.1563 H   0  0  0  0  0  0
   20.0855  -17.2382   23.9069 H   0  0  0  0  0  0
   14.8086  -16.8984   22.4954 H   0  0  0  0  0  0
   11.1622  -12.2988   22.3386 H   0  0  0  0  0  0
   10.4520  -12.1687   23.8239 H   0  0  0  0  0  0
   18.7679  -16.5373   20.4950 H   0  0  0  0  0  0
   20.5611  -14.8458   19.6072 H   0  0  0  0  0  0
   21.5997  -14.2869   20.9399 H   0  0  0  0  0  0
   13.4733  -18.9978   22.2483 H   0  0  0  0  0  0
   19.3001  -12.5502   18.3695 H   0  0  0  0  0  0
   19.8111  -11.0546   19.1379 H   0  0  0  0  0  0
   10.6950  -19.3059   20.0719 H   0  0  0  0  0  0
   21.6151  -12.9450   18.6040 H   0  0  0  0  0  0
   21.6785  -12.0933   20.1593 H   0  0  0  0  0  0
   14.7820   -9.8087   21.8594 H   0  0  0  0  0  0
   15.4700   -9.6625   20.3216 H   0  0  0  0  0  0
   11.2189   -9.8297   20.4691 H   0  0  0  0  0  0
   11.9907  -11.3398   20.8931 H   0  0  0  0  0  0
   18.4827  -18.7893   20.8324 H   0  0  0  0  0  0
   20.1354  -18.3411   21.2551 H   0  0  0  0  0  0
   18.9307  -18.6237   22.5223 H   0  0  0  0  0  0
   22.2944  -15.8738   24.1173 H   0  0  0  0  0  0
   18.4516  -14.4206   25.4707 H   0  0  0  0  0  0
   13.2954   -8.6496   20.3248 H   0  0  0  0  0  0
   13.2143   -9.9539   19.2386 H   0  0  0  0  0  0
   23.4055  -14.1832   25.5357 H   0  0  0  0  0  0
   19.6154  -12.7573   26.8752 H   0  0  0  0  0  0
   22.0147  -12.6256   26.9092 H   0  0  0  0  0  0
  1  3  2  0  0  0
  1  4  1  0  0  0
  1  5  1  0  0  0
  2  8  1  0  0  0
  2  6  1  0  0  0
  2 26  1  0  0  0
  3 11  1  0  0  0
  4  9  1  0  0  0
  5 12  1  0  0  0
  5 17  2  0  0  0
  6 14  1  0  0  0
  6 18  2  0  0  0
  7 10  1  0  0  0
  7  8  1  0  0  0
  7 19  2  0  0  0
  8 29  1  0  0  0
  8 41  1  0  0  0
  9 15  2  0  0  0
  9 11  1  0  0  0
 10 12  1  0  0  0
 10 42  1  0  0  0
 11 21  2  0  0  0
 12 32  1  0  0  0
 12 43  1  0  0  0
 13 22  2  0  0  0
 13 16  1  0  0  0
 13 23  1  0  0  0
 14 20  1  0  0  0
 14 25  1  0  0  0
 14 44  1  0  0  0
 15 24  1  0  0  0
 15 45  1  0  0  0
 16 46  1  0  0  0
 16 47  1  0  0  0
 20 28  1  0  0  0
 20 48  1  0  0  0
 20 49  1  0  0  0
 21 27  1  0  0  0
 21 50  1  0  0  0
 22 33  1  0  0  0
 23 51  1  0  0  0
 23 52  1  0  0  0
 24 30  1  0  0  0
 24 27  2  0  0  0
 25 34  1  0  0  0
 25 53  1  0  0  0
 26 31  1  0  0  0
 26 54  1  0  0  0
 26 55  1  0  0  0
 27 56  1  0  0  0
 28 35  1  0  0  0
 28 36  2  0  0  0
 29 31  1  0  0  0
 29 57  1  0  0  0
 29 58  1  0  0  0
 30 59  1  0  0  0
 31 60  1  0  0  0
 31 61  1  0  0  0
 32 37  1  0  0  0
 32 62  1  0  0  0
 32 63  1  0  0  0
 33 37  1  0  0  0
 33 64  1  0  0  0
 33 65  1  0  0  0
 34 66  1  0  0  0
 34 67  1  0  0  0
 34 68  1  0  0  0
 35 38  2  0  0  0
 35 69  1  0  0  0
 36 39  1  0  0  0
 36 70  1  0  0  0
 37 71  1  0  0  0
 37 72  1  0  0  0
 38 40  1  0  0  0
 38 73  1  0  0  0
 39 40  2  0  0  0
 39 74  1  0  0  0
 40 75  1  0  0  0
M  END
> <s_m_entry_id>
35354

> <s_m_entry_name>
dock_pv.204

> <s_m_Source_Path>
/home/csk/Desktop/cluster/DUD-E-result/thrb

> <s_m_Source_File>
dock_pv.maegz

> <i_m_Source_File_Index>
204

> <chembl_id>
CHEMBL176660

> <chembl_pref_name>
None

> <i_lp_mmshare_version>
53161

> <r_lp_tautomer_probability>
0.99990000499975

> <s_lp_Force_Field>
OPLS_2005

> <r_lp_Energy>
27.826612

> <b_lp_Chiralities_Consistent>
1

> <s_lp_Variant>
CHEMBL204_lig1152-1

> <s_i_glide_gridfile>
glide-grid_1ype

> <i_i_glide_lignum>
1827

> <i_i_glide_rotatable_bonds>
15

> <r_i_docking_score>
-7.31180299915003

> <r_i_glide_ligand_efficiency>
-0.182795074978751

> <r_i_glide_ligand_efficiency_sa>
-0.625150362000553

> <r_i_glide_ligand_efficiency_ln>
-1.55939240296203

> <r_i_glide_gscore>
-7.31180299915003

> <r_i_glide_lipo>
-3.53913597856436

> <r_i_glide_hbond>
-0.0636256298648324

> <r_i_glide_metal>
0

> <r_i_glide_rewards>
-0.809145819794144

> <r_i_glide_evdw>
-54.4620819091797

> <r_i_glide_ecoul>
-4.9201340675354

> <r_i_glide_erotb>
0.695253707919462

> <r_i_glide_esite>
-0.134025073256861

> <r_i_glide_emodel>
-74.4845987894272

> <r_i_glide_energy>
-59.3822159767151

> <r_i_glide_einternal>
16.3898296356201

> <i_i_glide_confnum>
15

> <i_i_glide_posenum>
161

> <r_i_glide_eff_state_penalty>
0

> <s_user_duplicate_titles>
CHEMBL204_lig1152,297178

> <i_f3d_flags>
0

> <s_m_subgroup_title>
dock_pv

> <s_m_subgroupid>
dock_pv

> <b_m_subgroup_collapsed>
1

$$$$
CHEMBL204_lig3586
                    3D
 Schrodinger Suite 2021-1.
 48 50  0  0  1  0            999 V2000
   18.7146  -12.8071   21.0151 S   0  0  0  0  0  0
   19.6061  -13.4248   22.4292 C   0  0  0  0  0  0
   18.0468  -14.2565   20.2960 N   0  0  3  0  0  0
   11.2946  -10.7244   23.6634 C   0  0  0  0  0  0
   16.7163  -14.7614   20.6116 C   0  0  0  0  0  0
   15.6297  -14.0467   19.7843 C   0  0  0  0  0  0
   19.6919  -12.2565   20.0698 O   0  0  0  0  0  0
   17.6064  -11.9897   21.5215 O   0  0  0  0  0  0
   21.0003  -13.4530   22.4183 C   0  0  0  0  0  0
   12.2264  -10.8387   22.5080 C   0  0  0  0  0  0
   11.2161   -9.6557   24.3211 N   0  0  0  0  0  0
   21.7124  -13.8703   23.5650 C   0  0  0  0  0  0
   14.3711  -14.1931   20.2275 N   0  0  0  0  0  0
   12.2952  -11.9905   21.6991 C   0  0  0  0  0  0
   18.8964  -13.8630   23.5449 C   0  0  0  0  0  0
   15.9094  -13.3642   18.7949 O   0  0  0  0  0  0
   20.9834  -14.3056   24.7133 C   0  0  0  0  0  0
   19.5679  -14.3017   24.6812 C   0  0  0  0  0  0
   10.5528  -11.8514   23.9210 N   0  0  0  0  0  0
   13.1879  -12.0827   20.6295 C   0  0  0  0  0  0
   13.2535  -13.3560   19.7983 C   0  0  0  0  0  0
   13.0867   -9.7737   22.1838 C   0  0  0  0  0  0
   13.9799   -9.8555   21.1193 C   0  0  0  0  0  0
   23.1283  -13.8528   23.6108 C   0  0  0  0  0  0
   14.0206  -11.0031   20.3349 C   0  0  0  0  0  0
   21.6959  -14.7278   25.8562 C   0  0  0  0  0  0
   23.7990  -14.2788   24.7528 C   0  0  0  0  0  0
   23.0870  -14.7229   25.8629 C   0  0  0  0  0  0
   18.7062  -14.8978   19.8473 H   0  0  0  0  0  0
   16.5014  -14.6331   21.6728 H   0  0  0  0  0  0
   16.6605  -15.8334   20.4250 H   0  0  0  0  0  0
   21.5510  -13.1229   21.5495 H   0  0  0  0  0  0
   10.4977   -9.7324   25.0333 H   0  0  0  0  0  0
   14.2129  -14.7544   21.0520 H   0  0  0  0  0  0
   11.6581  -12.8419   21.8972 H   0  0  0  0  0  0
   17.8155  -13.8488   23.5444 H   0  0  0  0  0  0
   19.0125  -14.6290   25.5496 H   0  0  0  0  0  0
    9.7706  -11.7973   24.5725 H   0  0  0  0  0  0
   10.7700  -12.7566   23.5196 H   0  0  0  0  0  0
   12.3227  -13.9184   19.9001 H   0  0  0  0  0  0
   13.3288  -13.0890   18.7416 H   0  0  0  0  0  0
   13.0805   -8.8660   22.7715 H   0  0  0  0  0  0
   14.6445   -9.0317   20.9056 H   0  0  0  0  0  0
   23.6821  -13.4949   22.7561 H   0  0  0  0  0  0
   14.7220  -11.0640   19.5142 H   0  0  0  0  0  0
   21.1449  -15.0563   26.7209 H   0  0  0  0  0  0
   24.8801  -14.2619   24.7839 H   0  0  0  0  0  0
   23.6156  -15.0550   26.7429 H   0  0  0  0  0  0
  1  2  1  0  0  0
  1  3  1  0  0  0
  1  7  2  0  0  0
  1  8  2  0  0  0
  2  9  2  0  0  0
  2 15  1  0  0  0
  3  5  1  0  0  0
  3 29  1  0  0  0
  4 10  1  0  0  0
  4 11  2  0  0  0
  4 19  1  0  0  0
  5  6  1  0  0  0
  5 30  1  0  0  0
  5 31  1  0  0  0
  6 13  1  0  0  0
  6 16  2  0  0  0
  9 12  1  0  0  0
  9 32  1  0  0  0
 10 14  2  0  0  0
 10 22  1  0  0  0
 11 33  1  0  0  0
 12 24  1  0  0  0
 12 17  2  0  0  0
 13 21  1  0  0  0
 13 34  1  0  0  0
 14 20  1  0  0  0
 14 35  1  0  0  0
 15 18  2  0  0  0
 15 36  1  0  0  0
 17 18  1  0  0  0
 17 26  1  0  0  0
 18 37  1  0  0  0
 19 38  1  0  0  0
 19 39  1  0  0  0
 20 21  1  0  0  0
 20 25  2  0  0  0
 21 40  1  0  0  0
 21 41  1  0  0  0
 22 23  2  0  0  0
 22 42  1  0  0  0
 23 25  1  0  0  0
 23 43  1  0  0  0
 24 27  2  0  0  0
 24 44  1  0  0  0
 25 45  1  0  0  0
 26 28  2  0  0  0
 26 46  1  0  0  0
 27 28  1  0  0  0
 27 47  1  0  0  0
 28 48  1  0  0  0
M  END
> <s_m_entry_id>
35355

> <s_m_entry_name>
dock_pv.205

> <s_m_Source_Path>
/home/csk/Desktop/cluster/DUD-E-result/thrb

> <s_m_Source_File>
dock_pv.maegz

> <i_m_Source_File_Index>
205

> <chembl_id>
CHEMBL117156

> <chembl_pref_name>
None

> <i_lp_mmshare_version>
53161

> <r_lp_tautomer_probability>
1

> <s_lp_Force_Field>
OPLS_2005

> <r_lp_Energy>
2.901484

> <b_lp_Chiralities_Consistent>
1

> <s_lp_Variant>
CHEMBL204_lig3586-1

> <s_i_glide_gridfile>
glide-grid_1ype

> <i_i_glide_lignum>
5005

> <i_i_glide_rotatable_bonds>
8

> <r_i_docking_score>
-7.31111828350018

> <r_i_glide_ligand_efficiency>
-0.261111367267864

> <r_i_glide_ligand_efficiency_sa>
-0.792887897396282

> <r_i_glide_ligand_efficiency_ln>
-1.68762076359237

> <r_i_glide_gscore>
-7.31111828350018

> <r_i_glide_lipo>
-3.32799424555937

> <r_i_glide_hbond>
-0.513515421223929

> <r_i_glide_metal>
0

> <r_i_glide_rewards>
-0.826895077320382

> <r_i_glide_evdw>
-42.5035438537598

> <r_i_glide_ecoul>
-7.65044784545898

> <r_i_glide_erotb>
0.746837658025091

> <r_i_glide_esite>
-0.116806827914755

> <r_i_glide_emodel>
-70.1316942371269

> <r_i_glide_energy>
-50.1539916992188

> <r_i_glide_einternal>
4.4113507270813

> <i_i_glide_confnum>
11

> <i_i_glide_posenum>
264

> <r_i_glide_eff_state_penalty>
0

> <s_user_duplicate_titles>
CHEMBL204_lig3586,196286

> <i_f3d_flags>
0

> <s_m_subgroup_title>
dock_pv

> <s_m_subgroupid>
dock_pv

> <b_m_subgroup_collapsed>
1

$$$$
CHEMBL204_lig3506
                    3D
 Schrodinger Suite 2021-1.
 53 56  0  0  1  0            999 V2000
   15.2285  -12.5747   18.1103 S   0  0  0  0  0  0
   18.9318  -14.2942   20.7056 N   0  0  0  0  0  0
   18.2191  -13.4540   19.9205 C   0  0  0  0  0  0
   16.7721  -13.9577   20.0094 C   0  0  1  0  0  0
   16.1068  -13.9761   18.6822 N   0  0  1  0  0  0
   22.1026  -13.8380   24.0442 C   0  0  0  0  0  0
   21.9875  -14.0736   22.7118 O   0  0  0  0  0  0
   14.1055  -12.1827   19.4450 C   0  0  0  0  0  0
   20.7016  -13.8524   22.3523 C   0  0  0  0  0  0
   23.4028  -14.0713   24.6507 C   0  0  0  0  0  0
   20.8579  -13.4516   24.5378 C   0  0  0  0  0  0
   13.4537  -10.6674   21.2311 C   0  0  0  0  0  0
   20.3726  -14.1409   20.9054 C   0  0  0  0  0  0
   16.8173  -15.3213   20.6756 C   0  0  0  0  0  0
   19.9748  -13.4529   23.4624 C   0  0  0  0  0  0
   14.3054  -11.0124   20.1662 C   0  0  0  0  0  0
   16.1715  -11.4606   17.9696 O   0  0  0  0  0  0
   14.4160  -13.0176   16.9779 O   0  0  0  0  0  0
   18.1807  -15.3854   21.3272 C   0  0  0  0  0  0
   24.4496  -13.8569   23.9858 N   0  0  0  0  0  0
   18.6227  -12.4748   19.2922 O   0  0  0  0  0  0
   12.4227  -11.5679   21.6194 C   0  0  0  0  0  0
   13.6173   -9.4531   21.9266 C   0  0  0  0  0  0
   13.0856  -13.0617   19.8059 C   0  0  0  0  0  0
   12.2543  -12.7727   20.8908 C   0  0  0  0  0  0
   23.2663  -14.5452   25.9220 N   0  0  0  0  0  0
   11.6092  -11.2241   22.7233 C   0  0  0  0  0  0
   12.8163   -9.1322   23.0140 C   0  0  0  0  0  0
   11.8071  -10.0241   23.4055 C   0  0  0  0  0  0
   13.1404   -7.9546   23.6541 O   0  0  0  0  0  0
   12.3193   -7.5157   24.7207 C   0  0  0  0  0  0
   16.2159  -13.2491   20.6268 H   0  0  0  0  0  0
   15.6302  -14.8573   18.4724 H   0  0  0  0  0  0
   20.6218  -13.1968   25.5606 H   0  0  0  0  0  0
   20.7799  -13.3544   20.2698 H   0  0  0  0  0  0
   20.8506  -15.0685   20.5891 H   0  0  0  0  0  0
   16.7179  -16.1226   19.9385 H   0  0  0  0  0  0
   16.0169  -15.4537   21.4068 H   0  0  0  0  0  0
   18.9238  -13.2074   23.4922 H   0  0  0  0  0  0
   15.1157  -10.3438   19.9210 H   0  0  0  0  0  0
   18.6642  -16.3480   21.1518 H   0  0  0  0  0  0
   18.1068  -15.2436   22.4060 H   0  0  0  0  0  0
   25.2877  -14.0715   24.5063 H   0  0  0  0  0  0
   14.4066   -8.7739   21.6376 H   0  0  0  0  0  0
   12.9395  -13.9796   19.2553 H   0  0  0  0  0  0
   11.4760  -13.4639   21.1832 H   0  0  0  0  0  0
   24.0790  -14.6547   26.5218 H   0  0  0  0  0  0
   22.3475  -14.6713   26.3196 H   0  0  0  0  0  0
   10.8228  -11.8993   23.0387 H   0  0  0  0  0  0
   11.1634   -9.8099   24.2484 H   0  0  0  0  0  0
   12.6579   -6.5468   25.0815 H   0  0  0  0  0  0
   11.2717   -7.4147   24.4333 H   0  0  0  0  0  0
   12.4033   -8.2342   25.5257 H   0  0  0  0  0  0
  1  5  1  0  0  0
  1  8  1  0  0  0
  1 17  2  0  0  0
  1 18  2  0  0  0
  2  3  1  0  0  0
  2 13  1  0  0  0
  2 19  1  0  0  0
  3  4  1  0  0  0
  3 21  2  0  0  0
  4  5  1  0  0  0
  4 14  1  0  0  0
  4 32  1  0  0  0
  5 33  1  0  0  0
  6  7  1  0  0  0
  6 10  1  0  0  0
  6 11  2  0  0  0
  7  9  1  0  0  0
  8 16  2  0  0  0
  8 24  1  0  0  0
  9 13  1  0  0  0
  9 15  2  0  0  0
 10 20  2  0  0  0
 10 26  1  0  0  0
 11 15  1  0  0  0
 11 34  1  0  0  0
 12 16  1  0  0  0
 12 23  1  0  0  0
 12 22  2  0  0  0
 13 35  1  0  0  0
 13 36  1  0  0  0
 14 19  1  0  0  0
 14 37  1  0  0  0
 14 38  1  0  0  0
 15 39  1  0  0  0
 16 40  1  0  0  0
 19 41  1  0  0  0
 19 42  1  0  0  0
 20 43  1  0  0  0
 22 25  1  0  0  0
 22 27  1  0  0  0
 23 28  2  0  0  0
 23 44  1  0  0  0
 24 25  2  0  0  0
 24 45  1  0  0  0
 25 46  1  0  0  0
 26 47  1  0  0  0
 26 48  1  0  0  0
 27 29  2  0  0  0
 27 49  1  0  0  0
 28 30  1  0  0  0
 28 29  1  0  0  0
 29 50  1  0  0  0
 30 31  1  0  0  0
 31 51  1  0  0  0
 31 52  1  0  0  0
 31 53  1  0  0  0
M  END
> <s_m_entry_id>
35356

> <s_m_entry_name>
dock_pv.206

> <s_m_Source_Path>
/home/csk/Desktop/cluster/DUD-E-result/thrb

> <s_m_Source_File>
dock_pv.maegz

> <i_m_Source_File_Index>
206

> <chembl_id>
CHEMBL436563

> <chembl_pref_name>
None

> <i_lp_mmshare_version>
53161

> <r_lp_tautomer_probability>
1

> <s_lp_Force_Field>
OPLS_2005

> <r_lp_Energy>
11.298669

> <b_lp_Chiralities_Consistent>
1

> <s_lp_Variant>
CHEMBL204_lig3506-1

> <s_i_glide_gridfile>
glide-grid_1ype

> <i_i_glide_lignum>
4882

> <i_i_glide_rotatable_bonds>
7

> <r_i_docking_score>
-7.30795605876814

> <r_i_glide_ligand_efficiency>
-0.235740518024779

> <r_i_glide_ligand_efficiency_sa>
-0.740550701460084

> <r_i_glide_ligand_efficiency_ln>
-1.6481680532086

> <r_i_glide_gscore>
-7.30795605876814

> <r_i_glide_lipo>
-3.50019741458657

> <r_i_glide_hbond>
-0.32

> <r_i_glide_metal>
0

> <r_i_glide_rewards>
-0.310180493300065

> <r_i_glide_evdw>
-49.7518005371094

> <r_i_glide_ecoul>
-8.00205230712891

> <r_i_glide_erotb>
0.510319722043301

> <r_i_glide_esite>
0

> <r_i_glide_emodel>
-75.8950771342006

> <r_i_glide_energy>
-57.7538528442383

> <r_i_glide_einternal>
9.30736637115479

> <i_i_glide_confnum>
4

> <i_i_glide_posenum>
241

> <r_i_glide_eff_state_penalty>
0

> <s_user_duplicate_titles>
CHEMBL204_lig3506

> <i_f3d_flags>
0

> <s_m_subgroup_title>
dock_pv

> <s_m_subgroupid>
dock_pv

> <b_m_subgroup_collapsed>
1

$$$$
CHEMBL204_lig334
                    3D
 Schrodinger Suite 2021-1.
 72 75  0  0  1  0            999 V2000
   16.8586  -16.3859   22.9951 N   0  0  0  0  0  0
   17.3083  -15.3549   22.2390 C   0  0  0  0  0  0
   17.5327  -13.9818   22.9343 C   0  0  1  0  0  0
   16.0931  -17.5105   22.4141 C   0  0  2  0  0  0
   14.8545  -17.1107   21.5775 C   0  0  0  0  0  0
   18.9799  -13.3963   22.8696 C   0  0  0  0  0  0
   13.3488  -13.8321   21.0821 C   0  0  0  0  0  0
   14.2223  -15.9757   21.9212 N   0  0  0  0  0  0
   12.6504  -13.0195   21.9763 C   0  0  0  0  0  0
   14.1591  -13.2256   20.1052 C   0  0  0  0  0  0
   14.2904  -11.8315   20.0955 C   0  0  0  0  0  0
   13.5984  -11.0351   21.0158 C   0  0  0  0  0  0
   12.7554  -11.6352   21.9567 C   0  0  0  0  0  0
   17.4167  -15.4354   21.0120 O   0  0  0  0  0  0
   13.1439  -15.3424   21.1689 C   0  0  0  0  0  0
   14.5204  -17.8252   20.6356 O   0  0  0  0  0  0
   19.5681  -13.2874   21.4541 C   0  0  0  0  0  0
   19.9382  -13.9096   23.9619 C   0  0  0  0  0  0
   16.5538  -13.0521   22.3223 N   0  0  0  0  0  0
   17.0644  -16.5634   24.4343 C   0  0  0  0  0  0
   12.8159   -9.0530   19.9210 N   0  0  0  0  0  0
   15.6926  -18.3534   23.6336 C   0  0  0  0  0  0
   13.7239   -9.5286   20.9424 C   0  0  0  0  0  0
   16.7281  -18.0254   24.6979 C   0  0  0  0  0  0
   14.9226  -14.0397   19.0694 C   0  0  0  0  0  0
   11.9285  -10.8220   22.9475 C   0  0  0  0  0  0
   19.3679  -12.1136   20.7184 C   0  0  0  0  0  0
   20.3487  -15.2475   24.0121 C   0  0  0  0  0  0
   20.4168  -13.0168   24.9298 C   0  0  0  0  0  0
   20.2862  -14.3400   20.8787 C   0  0  0  0  0  0
   21.2693  -15.6680   24.9682 C   0  0  0  0  0  0
   21.3311  -13.4357   25.8911 C   0  0  0  0  0  0
   19.9378  -11.9701   19.4609 C   0  0  0  0  0  0
   20.8160  -14.2070   19.6060 C   0  0  0  0  0  0
   21.7708  -14.7556   25.8913 C   0  0  0  0  0  0
   20.6624  -13.0159   18.9066 C   0  0  0  0  0  0
   17.2613  -14.0504   23.9875 H   0  0  0  0  0  0
   16.7800  -18.0804   21.7849 H   0  0  0  0  0  0
   18.8383  -12.3485   23.1344 H   0  0  0  0  0  0
   14.5030  -15.5008   22.7727 H   0  0  0  0  0  0
   12.0163  -13.4530   22.7215 H   0  0  0  0  0  0
   14.9185  -11.3566   19.3554 H   0  0  0  0  0  0
   13.0178  -15.7607   20.1671 H   0  0  0  0  0  0
   12.2065  -15.5615   21.6820 H   0  0  0  0  0  0
   16.9309  -12.6543   21.4711 H   0  0  0  0  0  0
   15.6967  -13.5273   22.0590 H   0  0  0  0  0  0
   18.0834  -16.3495   24.7465 H   0  0  0  0  0  0
   16.4155  -15.9056   25.0034 H   0  0  0  0  0  0
   11.8687   -9.3252   20.1510 H   0  0  0  0  0  0
   12.8122   -8.0429   19.9206 H   0  0  0  0  0  0
   15.6635  -19.4153   23.4024 H   0  0  0  0  0  0
   14.6984  -18.0740   23.9782 H   0  0  0  0  0  0
   13.4858   -9.0595   21.8970 H   0  0  0  0  0  0
   14.7534   -9.2433   20.7208 H   0  0  0  0  0  0
   17.6180  -18.6340   24.5269 H   0  0  0  0  0  0
   16.3849  -18.2146   25.7161 H   0  0  0  0  0  0
   15.8266  -13.5229   18.7483 H   0  0  0  0  0  0
   15.2524  -14.9954   19.4716 H   0  0  0  0  0  0
   14.2974  -14.2304   18.1983 H   0  0  0  0  0  0
   11.2303  -11.4403   23.5135 H   0  0  0  0  0  0
   12.5751  -10.2978   23.6516 H   0  0  0  0  0  0
   11.3331  -10.0739   22.4232 H   0  0  0  0  0  0
   18.8057  -11.2910   21.1379 H   0  0  0  0  0  0
   19.9681  -15.9708   23.3093 H   0  0  0  0  0  0
   20.1004  -11.9831   24.9322 H   0  0  0  0  0  0
   20.4244  -15.2793   21.3838 H   0  0  0  0  0  0
   21.6015  -16.6954   24.9888 H   0  0  0  0  0  0
   21.7034  -12.7325   26.6222 H   0  0  0  0  0  0
   19.8194  -11.0535   18.9172 H   0  0  0  0  0  0
   21.3148  -15.0487   19.1545 H   0  0  0  0  0  0
   22.5021  -15.0771   26.6180 H   0  0  0  0  0  0
   21.0900  -12.9181   17.9196 H   0  0  0  0  0  0
  1  2  1  0  0  0
  1  4  1  0  0  0
  1 20  1  0  0  0
  2  3  1  0  0  0
  2 14  2  0  0  0
  3  6  1  0  0  0
  3 19  1  0  0  0
  3 37  1  0  0  0
  4  5  1  0  0  0
  4 22  1  0  0  0
  4 38  1  0  0  0
  5  8  1  0  0  0
  5 16  2  0  0  0
  6 17  1  0  0  0
  6 18  1  0  0  0
  6 39  1  0  0  0
  7 15  1  0  0  0
  7  9  1  0  0  0
  7 10  2  0  0  0
  8 15  1  0  0  0
  8 40  1  0  0  0
  9 13  2  0  0  0
  9 41  1  0  0  0
 10 11  1  0  0  0
 10 25  1  0  0  0
 11 12  2  0  0  0
 11 42  1  0  0  0
 12 23  1  0  0  0
 12 13  1  0  0  0
 13 26  1  0  0  0
 15 43  1  0  0  0
 15 44  1  0  0  0
 17 27  1  0  0  0
 17 30  2  0  0  0
 18 28  2  0  0  0
 18 29  1  0  0  0
 19 45  1  0  0  0
 19 46  1  0  0  0
 20 24  1  0  0  0
 20 47  1  0  0  0
 20 48  1  0  0  0
 21 23  1  0  0  0
 21 49  1  0  0  0
 21 50  1  0  0  0
 22 24  1  0  0  0
 22 51  1  0  0  0
 22 52  1  0  0  0
 23 53  1  0  0  0
 23 54  1  0  0  0
 24 55  1  0  0  0
 24 56  1  0  0  0
 25 57  1  0  0  0
 25 58  1  0  0  0
 25 59  1  0  0  0
 26 60  1  0  0  0
 26 61  1  0  0  0
 26 62  1  0  0  0
 27 33  2  0  0  0
 27 63  1  0  0  0
 28 31  1  0  0  0
 28 64  1  0  0  0
 29 32  2  0  0  0
 29 65  1  0  0  0
 30 34  1  0  0  0
 30 66  1  0  0  0
 31 35  2  0  0  0
 31 67  1  0  0  0
 32 35  1  0  0  0
 32 68  1  0  0  0
 33 36  1  0  0  0
 33 69  1  0  0  0
 34 36  2  0  0  0
 34 70  1  0  0  0
 35 71  1  0  0  0
 36 72  1  0  0  0
M  END
> <s_m_entry_id>
35357

> <s_m_entry_name>
dock_pv.207

> <s_m_Source_Path>
/home/csk/Desktop/cluster/DUD-E-result/thrb

> <s_m_Source_File>
dock_pv.maegz

> <i_m_Source_File_Index>
207

> <chembl_id>
CHEMBL3142680

> <chembl_pref_name>
None

> <i_lp_mmshare_version>
53161

> <r_lp_tautomer_probability>
1

> <s_lp_Force_Field>
OPLS_2005

> <r_lp_Energy>
28.32442

> <b_lp_Chiralities_Consistent>
1

> <s_lp_Variant>
CHEMBL204_lig334-2

> <s_i_glide_gridfile>
glide-grid_1ype

> <i_i_glide_lignum>
429

> <i_i_glide_rotatable_bonds>
10

> <r_i_docking_score>
-7.30747475160756

> <r_i_glide_ligand_efficiency>
-0.202985409766877

> <r_i_glide_ligand_efficiency_sa>
-0.670243054836682

> <r_i_glide_ligand_efficiency_ln>
-1.59429356564827

> <r_i_glide_gscore>
-7.30747475160756

> <r_i_glide_lipo>
-3.60197119205298

> <r_i_glide_hbond>
-0.682632838199097

> <r_i_glide_metal>
0

> <r_i_glide_rewards>
-0.252837706262437

> <r_i_glide_evdw>
-40.8760185241699

> <r_i_glide_ecoul>
-9.84535598754883

> <r_i_glide_erotb>
0.778239379690303

> <r_i_glide_esite>
-0.0276680704425257

> <r_i_glide_emodel>
-67.5077409230664

> <r_i_glide_energy>
-50.7213745117188

> <r_i_glide_einternal>
8.39844512939453

> <i_i_glide_confnum>
20

> <i_i_glide_posenum>
68

> <r_i_glide_eff_state_penalty>
0

> <s_user_duplicate_titles>
CHEMBL204_lig334,192713

> <i_f3d_flags>
0

> <s_m_subgroup_title>
dock_pv

> <s_m_subgroupid>
dock_pv

> <b_m_subgroup_collapsed>
1

$$$$
CHEMBL204_lig3550
                    3D
 Schrodinger Suite 2021-1.
 50 52  0  0  1  0            999 V2000
   21.3039  -15.1375   22.8371 S   0  0  0  0  0  0
   20.0314  -15.0423   24.0922 C   0  0  0  0  0  0
   11.5596  -10.5695   23.5208 C   0  0  0  0  0  0
   12.2039  -10.8677   22.2837 N   0  0  0  0  0  0
   20.3509  -15.3451   21.4698 O   0  0  0  0  0  0
   22.0248  -16.3894   23.0976 O   0  0  0  0  0  0
   22.0108  -13.8530   22.7445 O   0  0  0  0  0  0
   11.6155   -9.4531   24.0934 N   0  0  0  0  0  0
   20.2207  -14.3279   25.2869 C   0  0  0  0  0  0
   19.8090  -14.2323   20.8807 C   0  0  0  0  0  0
   12.3986  -12.2122   21.7164 C   0  0  0  0  0  0
   12.5325   -9.8079   21.3251 C   0  0  0  0  0  0
   18.4453  -13.9538   21.0033 C   0  0  0  0  0  0
   10.8159  -11.6214   24.0794 N   0  0  0  0  0  0
   16.5400  -12.6083   20.5815 O   0  0  0  0  0  0
   17.8942  -12.8118   20.4164 C   0  0  0  0  0  0
   21.6686  -13.4528   25.6518 Cl  0  0  0  0  0  0
   13.8969  -12.3919   21.3955 C   0  0  0  0  0  0
   14.0313   -9.8895   21.0192 C   0  0  0  0  0  0
   15.9784  -11.3494   20.2125 C   0  0  0  0  0  0
   18.8517  -15.7727   23.9007 C   0  0  0  0  0  0
   14.4547  -11.2777   20.4770 C   0  0  0  0  0  0
   20.0858  -12.2409   19.5369 C   0  0  0  0  0  0
   20.6145  -13.3850   20.1233 C   0  0  0  0  0  0
   19.2159  -14.3379   26.2504 C   0  0  0  0  0  0
   18.7340  -11.9498   19.6922 C   0  0  0  0  0  0
   17.8524  -15.7693   24.8711 C   0  0  0  0  0  0
   18.0369  -15.0532   26.0471 C   0  0  0  0  0  0
   11.0450   -9.4557   24.9267 H   0  0  0  0  0  0
   12.0781  -13.0038   22.3955 H   0  0  0  0  0  0
   11.7972  -12.3090   20.8100 H   0  0  0  0  0  0
   12.2774   -8.8146   21.7000 H   0  0  0  0  0  0
   11.9460   -9.9572   20.4161 H   0  0  0  0  0  0
   17.8078  -14.6186   21.5638 H   0  0  0  0  0  0
   10.1595  -11.4542   24.8335 H   0  0  0  0  0  0
   10.6391  -12.4759   23.5706 H   0  0  0  0  0  0
   14.4544  -12.4142   22.3304 H   0  0  0  0  0  0
   14.0801  -13.3719   20.9543 H   0  0  0  0  0  0
   14.3054   -9.1039   20.3211 H   0  0  0  0  0  0
   14.5825   -9.6320   21.9217 H   0  0  0  0  0  0
   16.1480  -11.1515   19.1538 H   0  0  0  0  0  0
   16.4981  -10.5679   20.7703 H   0  0  0  0  0  0
   18.7055  -16.3558   23.0035 H   0  0  0  0  0  0
   13.9302  -11.4041   19.5274 H   0  0  0  0  0  0
   20.7251  -11.5820   18.9687 H   0  0  0  0  0  0
   21.6583  -13.6092   20.0106 H   0  0  0  0  0  0
   19.3487  -13.7791   27.1617 H   0  0  0  0  0  0
   18.3525  -11.0532   19.2346 H   0  0  0  0  0  0
   16.9397  -16.3233   24.7124 H   0  0  0  0  0  0
   17.2670  -15.0524   26.8035 H   0  0  0  0  0  0
  1  2  1  0  0  0
  1  5  1  0  0  0
  1  6  2  0  0  0
  1  7  2  0  0  0
  2  9  1  0  0  0
  2 21  2  0  0  0
  3  4  1  0  0  0
  3  8  2  0  0  0
  3 14  1  0  0  0
  4 12  1  0  0  0
  4 11  1  0  0  0
  5 10  1  0  0  0
  8 29  1  0  0  0
  9 17  1  0  0  0
  9 25  2  0  0  0
 10 13  2  0  0  0
 10 24  1  0  0  0
 11 18  1  0  0  0
 11 30  1  0  0  0
 11 31  1  0  0  0
 12 19  1  0  0  0
 12 32  1  0  0  0
 12 33  1  0  0  0
 13 16  1  0  0  0
 13 34  1  0  0  0
 14 35  1  0  0  0
 14 36  1  0  0  0
 15 16  1  0  0  0
 15 20  1  0  0  0
 16 26  2  0  0  0
 18 22  1  0  0  0
 18 37  1  0  0  0
 18 38  1  0  0  0
 19 22  1  0  0  0
 19 39  1  0  0  0
 19 40  1  0  0  0
 20 22  1  0  0  0
 20 41  1  0  0  0
 20 42  1  0  0  0
 21 27  1  0  0  0
 21 43  1  0  0  0
 22 44  1  0  0  0
 23 24  2  0  0  0
 23 26  1  0  0  0
 23 45  1  0  0  0
 24 46  1  0  0  0
 25 28  1  0  0  0
 25 47  1  0  0  0
 26 48  1  0  0  0
 27 28  2  0  0  0
 27 49  1  0  0  0
 28 50  1  0  0  0
M  END
> <s_m_entry_id>
35358

> <s_m_entry_name>
dock_pv.208

> <s_m_Source_Path>
/home/csk/Desktop/cluster/DUD-E-result/thrb

> <s_m_Source_File>
dock_pv.maegz

> <i_m_Source_File_Index>
208

> <chembl_id>
CHEMBL166966

> <chembl_pref_name>
None

> <i_lp_mmshare_version>
53161

> <r_lp_tautomer_probability>
1

> <s_lp_Force_Field>
OPLS_2005

> <r_lp_Energy>
23.721786

> <b_lp_Chiralities_Consistent>
1

> <s_lp_Variant>
CHEMBL204_lig3550-1

> <s_i_glide_gridfile>
glide-grid_1ype

> <i_i_glide_lignum>
4950

> <i_i_glide_rotatable_bonds>
7

> <r_i_docking_score>
-7.29998922800309

> <r_i_glide_ligand_efficiency>
-0.26071390100011

> <r_i_glide_ligand_efficiency_sa>
-0.791680955712271

> <r_i_glide_ligand_efficiency_ln>
-1.68505185082037

> <r_i_glide_gscore>
-7.29998922800309

> <r_i_glide_lipo>
-3.55884358982571

> <r_i_glide_hbond>
-0.335772454980865

> <r_i_glide_metal>
0

> <r_i_glide_rewards>
-1.09225974771971

> <r_i_glide_evdw>
-45.5114288330078

> <r_i_glide_ecoul>
-4.16602230072021

> <r_i_glide_erotb>
0.661879403790241

> <r_i_glide_esite>
-0.0745180525086151

> <r_i_glide_emodel>
-66.58802082947

> <r_i_glide_energy>
-49.677451133728

> <r_i_glide_einternal>
10.9984321594238

> <i_i_glide_confnum>
40

> <i_i_glide_posenum>
334

> <r_i_glide_eff_state_penalty>
0

> <s_user_duplicate_titles>
CHEMBL204_lig3550,279054

> <i_f3d_flags>
0

> <s_m_subgroup_title>
dock_pv

> <s_m_subgroupid>
dock_pv

> <b_m_subgroup_collapsed>
1

$$$$
CHEMBL204_lig5025
                    3D
 Schrodinger Suite 2021-1.
 56 57  0  0  1  0            999 V2000
   19.4441  -13.2406   21.2159 N   0  0  1  0  0  0
   18.9573  -12.1145   20.4002 C   0  0  1  0  0  0
   20.0119  -11.9151   19.2838 C   0  0  0  0  0  0
   20.9766  -13.0794   19.4429 C   0  0  0  0  0  0
   20.8697  -13.3873   20.9286 C   0  0  0  0  0  0
   17.5677  -12.4336   19.7934 C   0  0  0  0  0  0
   16.5959  -11.5308   20.0129 N   0  0  0  0  0  0
   17.3882  -13.4522   19.1227 O   0  0  0  0  0  0
   15.2299  -11.6243   19.4950 C   0  0  0  0  0  0
   14.1797  -11.4005   20.5700 C   0  0  0  0  0  0
   13.3527  -12.4514   20.9590 C   0  0  0  0  0  0
   12.3954  -12.2525   21.9465 C   0  0  0  0  0  0
   12.2366  -11.0040   22.5772 C   0  0  0  0  0  0
   13.0597   -9.9495   22.1394 C   0  0  0  0  0  0
   14.0169  -10.1411   21.1473 C   0  0  0  0  0  0
   19.0919  -13.1241   22.6374 C   0  0  0  0  0  0
   19.4344  -14.3814   23.4786 C   0  0  2  0  0  0
   18.4002  -15.3843   23.2851 N   0  0  0  0  0  0
   19.5999  -14.0898   24.9890 C   0  0  0  0  0  0
   20.8264  -13.2129   25.3612 C   0  0  0  0  0  0
   22.1694  -13.8235   24.9123 C   0  0  0  0  0  0
   20.8538  -12.9098   26.8660 C   0  0  0  0  0  0
   11.2530  -10.7904   23.6788 C   0  0  0  0  0  0
   11.2162   -9.7071   24.3207 N   0  0  0  0  0  0
   10.4179  -11.8530   23.9212 N   0  0  0  0  0  0
   18.8887  -11.1991   20.9950 H   0  0  0  0  0  0
   20.5555  -10.9905   19.4642 H   0  0  0  0  0  0
   19.6088  -11.8705   18.2705 H   0  0  0  0  0  0
   21.9975  -12.8213   19.1535 H   0  0  0  0  0  0
   20.6757  -13.9442   18.8486 H   0  0  0  0  0  0
   21.4796  -12.7131   21.5370 H   0  0  0  0  0  0
   21.2007  -14.4007   21.1584 H   0  0  0  0  0  0
   16.8156  -10.7080   20.5540 H   0  0  0  0  0  0
   15.1078  -10.8623   18.7284 H   0  0  0  0  0  0
   15.0382  -12.5692   18.9784 H   0  0  0  0  0  0
   13.4558  -13.4304   20.5127 H   0  0  0  0  0  0
   11.7909  -13.1019   22.2255 H   0  0  0  0  0  0
   12.9740   -8.9663   22.5809 H   0  0  0  0  0  0
   14.6429   -9.3131   20.8464 H   0  0  0  0  0  0
   18.0265  -12.9057   22.7220 H   0  0  0  0  0  0
   19.5984  -12.2535   23.0450 H   0  0  0  0  0  0
   20.3589  -14.8346   23.1268 H   0  0  0  0  0  0
   17.5209  -15.0679   23.6703 H   0  0  0  0  0  0
   18.2519  -15.4772   22.2875 H   0  0  0  0  0  0
   19.6840  -15.0364   25.5266 H   0  0  0  0  0  0
   18.6911  -13.6189   25.3690 H   0  0  0  0  0  0
   20.7273  -12.2497   24.8626 H   0  0  0  0  0  0
   22.3134  -14.8203   25.3292 H   0  0  0  0  0  0
   23.0095  -13.2088   25.2358 H   0  0  0  0  0  0
   22.2388  -13.9001   23.8287 H   0  0  0  0  0  0
   20.8327  -13.8234   27.4608 H   0  0  0  0  0  0
   21.7422  -12.3483   27.1417 H   0  0  0  0  0  0
   20.0157  -12.2868   27.1648 H   0  0  0  0  0  0
   10.4650   -9.7308   25.0017 H   0  0  0  0  0  0
    9.6456  -11.7470   24.5802 H   0  0  0  0  0  0
   10.5619  -12.7730   23.5213 H   0  0  0  0  0  0
  1  2  1  0  0  0
  1  5  1  0  0  0
  1 16  1  0  0  0
  2  3  1  0  0  0
  2  6  1  0  0  0
  2 26  1  0  0  0
  3  4  1  0  0  0
  3 27  1  0  0  0
  3 28  1  0  0  0
  4  5  1  0  0  0
  4 29  1  0  0  0
  4 30  1  0  0  0
  5 31  1  0  0  0
  5 32  1  0  0  0
  6  7  1  0  0  0
  6  8  2  0  0  0
  7  9  1  0  0  0
  7 33  1  0  0  0
  9 10  1  0  0  0
  9 34  1  0  0  0
  9 35  1  0  0  0
 10 11  2  0  0  0
 10 15  1  0  0  0
 11 12  1  0  0  0
 11 36  1  0  0  0
 12 13  2  0  0  0
 12 37  1  0  0  0
 13 14  1  0  0  0
 13 23  1  0  0  0
 14 15  2  0  0  0
 14 38  1  0  0  0
 15 39  1  0  0  0
 16 17  1  0  0  0
 16 40  1  0  0  0
 16 41  1  0  0  0
 17 18  1  0  0  0
 17 19  1  0  0  0
 17 42  1  0  0  0
 18 43  1  0  0  0
 18 44  1  0  0  0
 19 20  1  0  0  0
 19 45  1  0  0  0
 19 46  1  0  0  0
 20 21  1  0  0  0
 20 22  1  0  0  0
 20 47  1  0  0  0
 21 48  1  0  0  0
 21 49  1  0  0  0
 21 50  1  0  0  0
 22 51  1  0  0  0
 22 52  1  0  0  0
 22 53  1  0  0  0
 23 24  2  0  0  0
 23 25  1  0  0  0
 24 54  1  0  0  0
 25 55  1  0  0  0
 25 56  1  0  0  0
M  END
> <s_m_entry_id>
35359

> <s_m_entry_name>
dock_pv.209

> <s_m_Source_Path>
/home/csk/Desktop/cluster/DUD-E-result/thrb

> <s_m_Source_File>
dock_pv.maegz

> <i_m_Source_File_Index>
209

> <chembl_id>
CHEMBL3423214

> <chembl_pref_name>
None

> <i_lp_mmshare_version>
53161

> <r_lp_tautomer_probability>
1

> <s_lp_Force_Field>
OPLS_2005

> <r_lp_Energy>
44.671606

> <b_lp_Chiralities_Consistent>
1

> <s_lp_Variant>
CHEMBL204_lig5025-1

> <s_i_glide_gridfile>
glide-grid_1ype

> <i_i_glide_lignum>
6872

> <i_i_glide_rotatable_bonds>
9

> <r_i_docking_score>
-7.29807083759578

> <r_i_glide_ligand_efficiency>
-0.291922833503831

> <r_i_glide_ligand_efficiency_sa>
-0.853587542438699

> <r_i_glide_ligand_efficiency_ln>
-1.72986149404475

> <r_i_glide_gscore>
-7.29807083759578

> <r_i_glide_lipo>
-3.6590442946791

> <r_i_glide_hbond>
-0.211935269481718

> <r_i_glide_metal>
0

> <r_i_glide_rewards>
-1.22068934117339

> <r_i_glide_evdw>
-37.5572052001953

> <r_i_glide_ecoul>
-8.72208499908447

> <r_i_glide_erotb>
1.11431449454185

> <r_i_glide_esite>
-0.13454341693098

> <r_i_glide_emodel>
-64.8159270293707

> <r_i_glide_energy>
-46.2792901992798

> <r_i_glide_einternal>
5.60932922363281

> <i_i_glide_confnum>
13

> <i_i_glide_posenum>
351

> <r_i_glide_eff_state_penalty>
0

> <s_user_duplicate_titles>
CHEMBL204_lig5025

> <i_f3d_flags>
0

> <s_m_subgroup_title>
dock_pv

> <s_m_subgroupid>
dock_pv

> <b_m_subgroup_collapsed>
1

$$$$
CHEMBL204_lig4168
                    3D
 Schrodinger Suite 2021-1.
 49 53  0  0  1  0            999 V2000
   17.1038  -12.6566   21.5302 N   0  0  0  0  0  0
   12.6337  -11.0826   21.8192 N   0  0  0  0  0  0
   12.8325   -9.8104   21.4475 N   0  0  0  0  0  0
   16.7047  -11.8328   20.5860 C   0  0  0  0  0  0
   12.4161   -9.0530   22.5234 N   0  0  0  0  0  0
   18.4229  -12.8727   21.2317 C   0  0  0  0  0  0
   11.8815   -9.8691   23.5119 N   0  0  0  0  0  0
   17.6532  -11.4531   19.6811 O   0  0  0  0  0  0
   20.7813  -14.3342   24.8707 C   0  0  0  0  0  0
   12.0144  -11.0840   23.0478 C   0  0  0  0  0  0
   18.7610  -12.1224   20.0919 C   0  0  0  0  0  0
   12.9647  -12.1798   20.9919 C   0  0  0  0  0  0
   14.1973  -12.2945   20.3066 C   0  0  0  0  0  0
   15.3193  -11.2560   20.4214 C   0  0  0  0  0  0
   19.0581  -14.4200   22.9980 N   0  0  0  0  0  0
   19.4018  -13.6734   21.8538 C   0  0  0  0  0  0
   22.2884  -14.6108   24.8312 C   0  0  0  0  0  0
   20.0504  -15.1615   23.7778 C   0  0  0  0  0  0
   22.7152  -15.7473   25.4493 N   0  0  0  0  0  0
   20.3039  -14.6375   26.0809 F   0  0  0  0  0  0
   20.5930  -13.0184   24.7271 F   0  0  0  0  0  0
   20.0342  -12.1093   19.5229 C   0  0  0  0  0  0
   14.4054  -13.4022   19.4709 C   0  0  0  0  0  0
   12.0164  -13.2026   20.8750 C   0  0  0  0  0  0
   20.9938  -12.8975   20.1533 C   0  0  0  0  0  0
   20.6893  -13.6616   21.2837 C   0  0  0  0  0  0
   24.0374  -16.0490   25.3920 C   0  0  0  0  0  0
   23.1668  -13.7678   24.1363 C   0  0  0  0  0  0
   13.4413  -14.3988   19.3433 C   0  0  0  0  0  0
   12.2512  -14.3041   20.0557 C   0  0  0  0  0  0
   24.9689  -15.2546   24.7210 C   0  0  0  0  0  0
   24.5215  -14.0948   24.0883 C   0  0  0  0  0  0
   11.7078  -12.0059   23.5206 H   0  0  0  0  0  0
   15.1677  -10.5705   21.2486 H   0  0  0  0  0  0
   15.2748  -10.6530   19.5197 H   0  0  0  0  0  0
   18.1896  -14.1785   23.4576 H   0  0  0  0  0  0
   20.7716  -15.6194   23.1014 H   0  0  0  0  0  0
   19.5512  -16.0178   24.2319 H   0  0  0  0  0  0
   20.2633  -11.5246   18.6468 H   0  0  0  0  0  0
   15.3289  -13.5034   18.9192 H   0  0  0  0  0  0
   11.0837  -13.1451   21.4179 H   0  0  0  0  0  0
   21.9994  -12.9210   19.7577 H   0  0  0  0  0  0
   21.4909  -14.2452   21.7092 H   0  0  0  0  0  0
   24.3477  -16.9476   25.9043 H   0  0  0  0  0  0
   22.8086  -12.8839   23.6303 H   0  0  0  0  0  0
   13.6203  -15.2476   18.6989 H   0  0  0  0  0  0
   11.5049  -15.0808   19.9705 H   0  0  0  0  0  0
   26.0150  -15.5232   24.7050 H   0  0  0  0  0  0
   25.2160  -13.4549   23.5644 H   0  0  0  0  0  0
  1  4  2  0  0  0
  1  6  1  0  0  0
  2 12  1  0  0  0
  2  3  1  0  0  0
  2 10  1  0  0  0
  3  5  2  0  0  0
  4  8  1  0  0  0
  4 14  1  0  0  0
  5  7  1  0  0  0
  6 11  2  0  0  0
  6 16  1  0  0  0
  7 10  2  0  0  0
  8 11  1  0  0  0
  9 18  1  0  0  0
  9 17  1  0  0  0
  9 20  1  0  0  0
  9 21  1  0  0  0
 10 33  1  0  0  0
 11 22  1  0  0  0
 12 13  1  0  0  0
 12 24  2  0  0  0
 13 14  1  0  0  0
 13 23  2  0  0  0
 14 34  1  0  0  0
 14 35  1  0  0  0
 15 16  1  0  0  0
 15 18  1  0  0  0
 15 36  1  0  0  0
 16 26  2  0  0  0
 17 19  1  0  0  0
 17 28  2  0  0  0
 18 37  1  0  0  0
 18 38  1  0  0  0
 19 27  2  0  0  0
 22 25  2  0  0  0
 22 39  1  0  0  0
 23 29  1  0  0  0
 23 40  1  0  0  0
 24 30  1  0  0  0
 24 41  1  0  0  0
 25 26  1  0  0  0
 25 42  1  0  0  0
 26 43  1  0  0  0
 27 31  1  0  0  0
 27 44  1  0  0  0
 28 32  1  0  0  0
 28 45  1  0  0  0
 29 30  2  0  0  0
 29 46  1  0  0  0
 30 47  1  0  0  0
 31 32  2  0  0  0
 31 48  1  0  0  0
 32 49  1  0  0  0
M  END
> <s_m_entry_id>
35360

> <s_m_entry_name>
dock_pv.210

> <s_m_Source_Path>
/home/csk/Desktop/cluster/DUD-E-result/thrb

> <s_m_Source_File>
dock_pv.maegz

> <i_m_Source_File_Index>
210

> <chembl_id>
CHEMBL198002

> <chembl_pref_name>
None

> <i_lp_mmshare_version>
53161

> <r_lp_tautomer_probability>
1

> <s_lp_Force_Field>
OPLS_2005

> <r_lp_Energy>
31.097156

> <b_lp_Chiralities_Consistent>
1

> <s_lp_Variant>
CHEMBL204_lig4168-1

> <s_i_glide_gridfile>
glide-grid_1ype

> <i_i_glide_lignum>
5792

> <i_i_glide_rotatable_bonds>
7

> <r_i_docking_score>
-7.29752022269195

> <r_i_glide_ligand_efficiency>
-0.228047506959123

> <r_i_glide_ligand_efficiency_sa>
-0.724005704054872

> <r_i_glide_ligand_efficiency_ln>
-1.63411370074905

> <r_i_glide_gscore>
-7.29752022269195

> <r_i_glide_lipo>
-3.26980728433849

> <r_i_glide_hbond>
0

> <r_i_glide_metal>
0

> <r_i_glide_rewards>
-1.67188759802775

> <r_i_glide_evdw>
-50.472095489502

> <r_i_glide_ecoul>
-3.12043380737305

> <r_i_glide_erotb>
0.635844505255341

> <r_i_glide_esite>
0

> <r_i_glide_emodel>
-72.9696588293858

> <r_i_glide_energy>
-53.592529296875

> <r_i_glide_einternal>
8.90505981445312

> <i_i_glide_confnum>
12

> <i_i_glide_posenum>
370

> <r_i_glide_eff_state_penalty>
0

> <s_user_duplicate_titles>
CHEMBL204_lig4168,330004

> <i_f3d_flags>
0

> <s_m_subgroup_title>
dock_pv

> <s_m_subgroupid>
dock_pv

> <b_m_subgroup_collapsed>
1

$$$$
CHEMBL204_lig5002
                    3D
 Schrodinger Suite 2021-1.
 66 69  0  0  1  0            999 V2000
   19.3604  -12.1549   18.0487 C   0  0  0  0  0  0
   18.2998  -12.3735   18.9203 C   0  0  0  0  0  0
   16.9799  -12.4366   18.4714 C   0  0  0  0  0  0
   16.7069  -12.1894   17.1177 C   0  0  0  0  0  0
   17.7532  -11.8590   16.2332 C   0  0  0  0  0  0
   19.0652  -11.8536   16.7206 C   0  0  0  0  0  0
   15.8473  -12.7486   19.4513 C   0  0  2  0  0  0
   15.2881  -11.4518   19.8065 N   0  0  0  0  0  0
   14.2102  -11.3144   20.6821 C   0  0  0  0  0  0
   13.3608  -12.3713   21.0015 C   0  0  0  0  0  0
   12.3760  -12.1937   21.9591 C   0  0  0  0  0  0
   12.2050  -10.9545   22.6043 C   0  0  0  0  0  0
   13.0202   -9.8832   22.2011 C   0  0  0  0  0  0
   14.0150  -10.0619   21.2519 C   0  0  0  0  0  0
   11.2181  -10.7634   23.6925 C   0  0  0  0  0  0
   11.1482   -9.6771   24.3211 N   0  0  0  0  0  0
   10.4194  -11.8499   23.9218 N   0  0  0  0  0  0
   16.2547  -13.6167   20.6549 C   0  0  0  0  0  0
   16.9985  -13.2304   21.6726 N   0  0  0  0  0  0
   15.9275  -14.9427   20.7593 N   0  0  0  0  0  0
   17.6160  -11.7331   14.8615 O   0  0  0  0  0  0
   16.4630  -11.1140   14.2826 C   0  0  0  0  0  0
   16.7100  -11.0588   12.7688 C   0  0  0  0  0  0
   16.5538  -15.4050   21.8843 C   0  0  0  0  0  0
   17.2573  -14.3168   22.3899 C   0  0  0  0  0  0
   18.2030  -14.2889   23.5488 C   0  0  0  0  0  0
   16.2165   -9.7101   14.8552 C   0  0  0  0  0  0
   20.6866  -12.1533   18.4295 O   0  0  0  0  0  0
   21.0427  -12.4842   19.7748 C   0  0  0  0  0  0
   20.8158  -13.9683   20.1240 C   0  0  0  0  0  0
   15.4298  -12.2896   16.6799 F   0  0  0  0  0  0
   19.3259  -13.4531   23.5268 C   0  0  0  0  0  0
   20.1960  -13.4158   24.6135 C   0  0  0  0  0  0
   19.9483  -14.2184   25.7242 C   0  0  0  0  0  0
   18.8439  -15.0659   25.7518 C   0  0  0  0  0  0
   17.9788  -15.1063   24.6613 C   0  0  0  0  0  0
   18.5110  -12.5026   19.9626 H   0  0  0  0  0  0
   19.8913  -11.7056   16.0483 H   0  0  0  0  0  0
   15.0778  -13.2811   18.8885 H   0  0  0  0  0  0
   15.9638  -10.7064   19.8717 H   0  0  0  0  0  0
   13.4738  -13.3430   20.5473 H   0  0  0  0  0  0
   11.7697  -13.0527   22.2057 H   0  0  0  0  0  0
   12.9194   -8.9060   22.6529 H   0  0  0  0  0  0
   14.6580   -9.2314   21.0007 H   0  0  0  0  0  0
   10.3690   -9.7081   24.9730 H   0  0  0  0  0  0
    9.6405  -11.7676   24.5757 H   0  0  0  0  0  0
   10.5967  -12.7622   23.5196 H   0  0  0  0  0  0
   15.3668  -15.4798   20.1129 H   0  0  0  0  0  0
   15.5846  -11.7414   14.4327 H   0  0  0  0  0  0
   15.8499  -10.6348   12.2472 H   0  0  0  0  0  0
   17.5776  -10.4468   12.5232 H   0  0  0  0  0  0
   16.8772  -12.0572   12.3617 H   0  0  0  0  0  0
   16.4871  -16.4392   22.1872 H   0  0  0  0  0  0
   15.3590   -9.2329   14.3793 H   0  0  0  0  0  0
   16.0134   -9.7418   15.9240 H   0  0  0  0  0  0
   17.0796   -9.0619   14.7015 H   0  0  0  0  0  0
   20.5390  -11.8300   20.4856 H   0  0  0  0  0  0
   22.0984  -12.2507   19.8807 H   0  0  0  0  0  0
   21.3154  -14.2255   21.0581 H   0  0  0  0  0  0
   21.2158  -14.6165   19.3459 H   0  0  0  0  0  0
   19.7663  -14.2305   20.2427 H   0  0  0  0  0  0
   19.5177  -12.8212   22.6728 H   0  0  0  0  0  0
   21.0538  -12.7604   24.6004 H   0  0  0  0  0  0
   20.6170  -14.1823   26.5718 H   0  0  0  0  0  0
   18.6557  -15.6843   26.6170 H   0  0  0  0  0  0
   17.1142  -15.7538   24.6930 H   0  0  0  0  0  0
  1  2  2  0  0  0
  1  6  1  0  0  0
  1 28  1  0  0  0
  2  3  1  0  0  0
  2 37  1  0  0  0
  3  4  2  0  0  0
  3  7  1  0  0  0
  4  5  1  0  0  0
  4 31  1  0  0  0
  5  6  2  0  0  0
  5 21  1  0  0  0
  6 38  1  0  0  0
  7  8  1  0  0  0
  7 18  1  0  0  0
  7 39  1  0  0  0
  8  9  1  0  0  0
  8 40  1  0  0  0
  9 10  2  0  0  0
  9 14  1  0  0  0
 10 11  1  0  0  0
 10 41  1  0  0  0
 11 12  2  0  0  0
 11 42  1  0  0  0
 12 13  1  0  0  0
 12 15  1  0  0  0
 13 14  2  0  0  0
 13 43  1  0  0  0
 14 44  1  0  0  0
 15 16  2  0  0  0
 15 17  1  0  0  0
 16 45  1  0  0  0
 17 46  1  0  0  0
 17 47  1  0  0  0
 18 19  2  0  0  0
 18 20  1  0  0  0
 19 25  1  0  0  0
 20 24  1  0  0  0
 20 48  1  0  0  0
 21 22  1  0  0  0
 22 23  1  0  0  0
 22 27  1  0  0  0
 22 49  1  0  0  0
 23 50  1  0  0  0
 23 51  1  0  0  0
 23 52  1  0  0  0
 24 25  2  0  0  0
 24 53  1  0  0  0
 25 26  1  0  0  0
 26 32  2  0  0  0
 26 36  1  0  0  0
 27 54  1  0  0  0
 27 55  1  0  0  0
 27 56  1  0  0  0
 28 29  1  0  0  0
 29 30  1  0  0  0
 29 57  1  0  0  0
 29 58  1  0  0  0
 30 59  1  0  0  0
 30 60  1  0  0  0
 30 61  1  0  0  0
 32 33  1  0  0  0
 32 62  1  0  0  0
 33 34  2  0  0  0
 33 63  1  0  0  0
 34 35  1  0  0  0
 34 64  1  0  0  0
 35 36  2  0  0  0
 35 65  1  0  0  0
 36 66  1  0  0  0
M  END
> <s_m_entry_id>
35361

> <s_m_entry_name>
dock_pv.211

> <s_m_Source_Path>
/home/csk/Desktop/cluster/DUD-E-result/thrb

> <s_m_Source_File>
dock_pv.maegz

> <i_m_Source_File_Index>
211

> <chembl_id>
CHEMBL3403467

> <chembl_pref_name>
None

> <i_lp_mmshare_version>
53161

> <r_lp_tautomer_probability>
0.499999999999999

> <s_lp_Force_Field>
OPLS_2005

> <r_lp_Energy>
20.880921

> <b_lp_Chiralities_Consistent>
1

> <s_lp_Variant>
CHEMBL204_lig5002-1

> <s_i_glide_gridfile>
glide-grid_1ype

> <i_i_glide_lignum>
6816

> <i_i_glide_rotatable_bonds>
10

> <r_i_docking_score>
-7.29063003764625

> <r_i_glide_ligand_efficiency>
-0.202517501045729

> <r_i_glide_ligand_efficiency_sa>
-0.668698054282176

> <r_i_glide_ligand_efficiency_ln>
-1.59061850415349

> <r_i_glide_gscore>
-7.29063003764625

> <r_i_glide_lipo>
-3.3039897323812

> <r_i_glide_hbond>
-0.38107685437909

> <r_i_glide_metal>
0

> <r_i_glide_rewards>
-0.313280030495636

> <r_i_glide_evdw>
-46.5389137268066

> <r_i_glide_ecoul>
-9.53037071228027

> <r_i_glide_erotb>
0.59864584825392

> <r_i_glide_esite>
-0.134427975461875

> <r_i_glide_emodel>
-67.139794526516

> <r_i_glide_energy>
-56.0692844390869

> <r_i_glide_einternal>
22.6777153015137

> <i_i_glide_confnum>
3

> <i_i_glide_posenum>
24

> <r_i_glide_eff_state_penalty>
0

> <s_user_duplicate_titles>
CHEMBL204_lig5002

> <i_f3d_flags>
0

> <s_m_subgroup_title>
dock_pv

> <s_m_subgroupid>
dock_pv

> <b_m_subgroup_collapsed>
1

$$$$
CHEMBL204_lig1905
                    3D
 Schrodinger Suite 2021-1.
 64 67  0  0  1  0            999 V2000
   15.5005  -13.6741   21.5233 C   0  0  0  0  0  0
   14.4676  -13.2069   20.7446 N   0  0  0  0  0  0
   15.7788  -15.0234   21.4429 N   0  0  0  0  0  0
   13.9053  -11.9785   21.1289 C   0  0  0  0  0  0
   11.4028  -10.6535   23.6884 C   0  0  0  0  0  0
   11.2159   -9.5824   24.3210 N   0  0  0  0  0  0
   17.1393  -15.4460   21.8679 C   0  0  0  0  0  0
   19.5724  -17.0000   22.5146 N   0  0  2  0  0  0
   12.8769  -11.9470   22.0751 C   0  0  0  0  0  0
   12.4156  -10.7252   22.6038 C   0  0  0  0  0  0
   16.1414  -12.9196   22.2722 O   0  0  0  0  0  0
   17.2147  -16.3392   23.1219 C   0  0  0  0  0  0
   18.0316  -16.0319   20.7652 C   0  0  0  0  0  0
   19.4755  -16.2572   21.2475 C   0  0  0  0  0  0
   18.6585  -16.5940   23.5924 C   0  0  0  0  0  0
   10.7206  -11.8199   23.9210 N   0  0  0  0  0  0
   20.9585  -17.2012   22.9670 C   0  0  0  0  0  0
   14.0077  -13.8425   19.5048 C   0  0  0  0  0  0
   14.8522  -16.1166   21.0315 C   0  0  0  0  0  0
   21.9068  -15.9676   23.0132 C   0  0  0  0  0  0
   21.5904  -14.8815   24.0390 C   0  0  0  0  0  0
   14.4421  -10.7890   20.6372 C   0  0  0  0  0  0
   12.9878   -9.5438   22.0959 C   0  0  0  0  0  0
   13.9805   -9.5721   21.1218 C   0  0  0  0  0  0
   20.6631  -13.8736   23.7567 C   0  0  0  0  0  0
   22.2736  -14.8682   25.2584 C   0  0  0  0  0  0
   13.3358  -15.8271   20.9625 C   0  0  0  0  0  0
   12.9518  -14.9211   19.7812 C   0  0  0  0  0  0
   22.0117  -13.8682   26.1918 C   0  0  0  0  0  0
   20.3647  -12.9111   24.7149 C   0  0  0  0  0  0
   21.0419  -12.9074   25.9286 C   0  0  0  0  0  0
   10.4662   -9.6898   24.9944 H   0  0  0  0  0  0
   17.6893  -14.5512   22.1643 H   0  0  0  0  0  0
   12.5030  -12.8882   22.4511 H   0  0  0  0  0  0
   16.6816  -15.8531   23.9391 H   0  0  0  0  0  0
   16.7059  -17.2925   22.9791 H   0  0  0  0  0  0
   17.6203  -16.9511   20.3470 H   0  0  0  0  0  0
   18.0665  -15.3224   19.9380 H   0  0  0  0  0  0
   19.9580  -15.2878   21.3299 H   0  0  0  0  0  0
   20.0519  -16.7974   20.4993 H   0  0  0  0  0  0
   19.0210  -15.7057   24.0999 H   0  0  0  0  0  0
   18.6653  -17.3785   24.3500 H   0  0  0  0  0  0
    9.9012  -11.7986   24.5269 H   0  0  0  0  0  0
   10.8544  -12.6436   23.3539 H   0  0  0  0  0  0
   20.9705  -17.7147   23.9300 H   0  0  0  0  0  0
   21.3960  -17.9268   22.2792 H   0  0  0  0  0  0
   13.6013  -13.0862   18.8299 H   0  0  0  0  0  0
   14.8690  -14.2831   18.9970 H   0  0  0  0  0  0
   15.2232  -16.5535   20.1024 H   0  0  0  0  0  0
   14.9570  -16.9149   21.7659 H   0  0  0  0  0  0
   22.9118  -16.3345   23.2203 H   0  0  0  0  0  0
   22.0035  -15.5180   22.0271 H   0  0  0  0  0  0
   15.2496  -10.8082   19.9182 H   0  0  0  0  0  0
   12.6737   -8.5839   22.4749 H   0  0  0  0  0  0
   14.4175   -8.6528   20.7652 H   0  0  0  0  0  0
   20.1416  -13.8425   22.8151 H   0  0  0  0  0  0
   23.0160  -15.6212   25.4823 H   0  0  0  0  0  0
   12.7921  -16.7676   20.8644 H   0  0  0  0  0  0
   13.0040  -15.3878   21.9051 H   0  0  0  0  0  0
   11.9884  -14.4507   19.9869 H   0  0  0  0  0  0
   12.8032  -15.5103   18.8751 H   0  0  0  0  0  0
   22.5570  -13.8535   27.1211 H   0  0  0  0  0  0
   19.6183  -12.1597   24.5084 H   0  0  0  0  0  0
   20.8234  -12.1438   26.6633 H   0  0  0  0  0  0
  1  2  1  0  0  0
  1  3  1  0  0  0
  1 11  2  0  0  0
  2  4  1  0  0  0
  2 18  1  0  0  0
  3  7  1  0  0  0
  3 19  1  0  0  0
  4  9  2  0  0  0
  4 22  1  0  0  0
  5  6  2  0  0  0
  5 10  1  0  0  0
  5 16  1  0  0  0
  6 32  1  0  0  0
  7 12  1  0  0  0
  7 13  1  0  0  0
  7 33  1  0  0  0
  8 14  1  0  0  0
  8 15  1  0  0  0
  8 17  1  0  0  0
  9 10  1  0  0  0
  9 34  1  0  0  0
 10 23  2  0  0  0
 12 15  1  0  0  0
 12 35  1  0  0  0
 12 36  1  0  0  0
 13 14  1  0  0  0
 13 37  1  0  0  0
 13 38  1  0  0  0
 14 39  1  0  0  0
 14 40  1  0  0  0
 15 41  1  0  0  0
 15 42  1  0  0  0
 16 43  1  0  0  0
 16 44  1  0  0  0
 17 20  1  0  0  0
 17 45  1  0  0  0
 17 46  1  0  0  0
 18 28  1  0  0  0
 18 47  1  0  0  0
 18 48  1  0  0  0
 19 27  1  0  0  0
 19 49  1  0  0  0
 19 50  1  0  0  0
 20 21  1  0  0  0
 20 51  1  0  0  0
 20 52  1  0  0  0
 21 25  2  0  0  0
 21 26  1  0  0  0
 22 24  2  0  0  0
 22 53  1  0  0  0
 23 24  1  0  0  0
 23 54  1  0  0  0
 24 55  1  0  0  0
 25 30  1  0  0  0
 25 56  1  0  0  0
 26 29  2  0  0  0
 26 57  1  0  0  0
 27 28  1  0  0  0
 27 58  1  0  0  0
 27 59  1  0  0  0
 28 60  1  0  0  0
 28 61  1  0  0  0
 29 31  1  0  0  0
 29 62  1  0  0  0
 30 31  2  0  0  0
 30 63  1  0  0  0
 31 64  1  0  0  0
M  END
> <s_m_entry_id>
35362

> <s_m_entry_name>
dock_pv.212

> <s_m_Source_Path>
/home/csk/Desktop/cluster/DUD-E-result/thrb

> <s_m_Source_File>
dock_pv.maegz

> <i_m_Source_File_Index>
212

> <chembl_id>
CHEMBL556200

> <chembl_pref_name>
None

> <i_lp_mmshare_version>
53161

> <r_lp_tautomer_probability>
1

> <s_lp_Force_Field>
OPLS_2005

> <r_lp_Energy>
75.332061

> <b_lp_Chiralities_Consistent>
1

> <s_lp_Variant>
CHEMBL204_lig1905-1

> <s_i_glide_gridfile>
glide-grid_1ype

> <i_i_glide_lignum>
2847

> <i_i_glide_rotatable_bonds>
6

> <r_i_docking_score>
-7.28999815672352

> <r_i_glide_ligand_efficiency>
-0.235161230862049

> <r_i_glide_ligand_efficiency_sa>
-0.738730939976989

> <r_i_glide_ligand_efficiency_ln>
-1.64411799595394

> <r_i_glide_gscore>
-7.28999815672352

> <r_i_glide_lipo>
-3.26800305173869

> <r_i_glide_hbond>
-0.679851224208405

> <r_i_glide_metal>
0

> <r_i_glide_rewards>
-0.749599298288876

> <r_i_glide_evdw>
-38.3910713195801

> <r_i_glide_ecoul>
-7.5087718963623

> <r_i_glide_erotb>
0.561955305757479

> <r_i_glide_esite>
-0.10863053781168

> <r_i_glide_emodel>
-61.5932940179474

> <r_i_glide_energy>
-45.8998432159424

> <r_i_glide_einternal>
10.6255760192871

> <i_i_glide_confnum>
84

> <i_i_glide_posenum>
366

> <r_i_glide_eff_state_penalty>
0

> <s_user_duplicate_titles>
CHEMBL204_lig1905

> <i_f3d_flags>
0

> <s_m_subgroup_title>
dock_pv

> <s_m_subgroupid>
dock_pv

> <b_m_subgroup_collapsed>
1

$$$$
CHEMBL204_lig4775
                    3D
 Schrodinger Suite 2021-1.
 65 66  0  0  1  0            999 V2000
   18.9348  -13.9969   21.7013 C   0  0  0  0  0  0
   17.7623  -13.2348   21.5922 C   0  0  0  0  0  0
   17.6695  -12.1752   20.6768 C   0  0  0  0  0  0
   18.7707  -11.8871   19.8744 C   0  0  0  0  0  0
   19.9300  -12.6617   19.9344 C   0  0  0  0  0  0
   20.0068  -13.7199   20.8412 C   0  0  0  0  0  0
   21.0946  -12.3735   19.0092 C   0  0  0  0  0  0
   18.9582  -15.1610   22.6639 C   0  0  0  0  0  0
   18.0679  -16.0030   22.5250 O   0  0  0  0  0  0
   19.8684  -15.2062   23.6886 N   0  0  0  0  0  0
   19.7446  -16.2739   24.7141 C   0  0  0  0  0  0
   18.3995  -16.3660   25.4959 C   0  0  0  0  0  0
   17.8775  -15.0134   26.0211 C   0  0  0  0  0  0
   18.5073  -17.3943   26.6338 C   0  0  0  0  0  0
   21.1710  -14.4943   23.6300 C   0  0  0  0  0  0
   21.8593  -14.0335   24.9450 C   0  0  0  0  0  0
   21.0271  -13.0034   25.7293 C   0  0  0  0  0  0
   23.2601  -13.4778   24.6260 C   0  0  0  0  0  0
   16.5508  -11.3881   20.4875 O   0  0  0  0  0  0
   15.3239  -11.7464   21.1166 C   0  0  0  0  0  0
   14.2806  -10.6563   20.8001 C   0  0  0  0  0  0
   13.1567  -10.5591   21.8326 C   0  0  0  0  0  0
   13.0716   -9.4012   22.6163 C   0  0  0  0  0  0
   12.1090   -9.2833   23.6167 C   0  0  0  0  0  0
   11.2160  -10.3232   23.8448 C   0  0  0  0  0  0
   11.2635  -11.4646   23.0493 C   0  0  0  0  0  0
   12.2250  -11.5967   22.0392 C   0  0  0  0  0  0
   12.2159  -12.8679   21.1985 C   0  0  0  0  0  0
   12.8160  -13.9745   21.9196 N   0  0  0  0  0  0
   16.9215  -13.4869   22.2223 H   0  0  0  0  0  0
   18.6957  -11.0686   19.1780 H   0  0  0  0  0  0
   20.8993  -14.3310   20.8624 H   0  0  0  0  0  0
   20.9563  -11.4540   18.4413 H   0  0  0  0  0  0
   22.0145  -12.2771   19.5863 H   0  0  0  0  0  0
   21.2223  -13.2009   18.3104 H   0  0  0  0  0  0
   20.5288  -16.1773   25.4582 H   0  0  0  0  0  0
   19.9492  -17.2308   24.2313 H   0  0  0  0  0  0
   17.6420  -16.7577   24.8175 H   0  0  0  0  0  0
   18.4427  -14.6734   26.8891 H   0  0  0  0  0  0
   16.8332  -15.0711   26.3209 H   0  0  0  0  0  0
   17.9218  -14.2330   25.2615 H   0  0  0  0  0  0
   19.2154  -17.0721   27.3979 H   0  0  0  0  0  0
   17.5466  -17.5461   27.1219 H   0  0  0  0  0  0
   18.8379  -18.3648   26.2621 H   0  0  0  0  0  0
   21.8584  -15.1445   23.0863 H   0  0  0  0  0  0
   21.0799  -13.5922   23.0293 H   0  0  0  0  0  0
   22.0467  -14.8854   25.5953 H   0  0  0  0  0  0
   20.7650  -12.1420   25.1180 H   0  0  0  0  0  0
   20.0967  -13.4335   26.0870 H   0  0  0  0  0  0
   21.5643  -12.6380   26.6059 H   0  0  0  0  0  0
   23.2166  -12.6531   23.9177 H   0  0  0  0  0  0
   23.7667  -13.1196   25.5227 H   0  0  0  0  0  0
   23.8976  -14.2463   24.1856 H   0  0  0  0  0  0
   14.9962  -12.7141   20.7364 H   0  0  0  0  0  0
   15.4448  -11.8531   22.1936 H   0  0  0  0  0  0
   14.7908   -9.6926   20.7502 H   0  0  0  0  0  0
   13.8600  -10.8072   19.8063 H   0  0  0  0  0  0
   13.7760   -8.5944   22.4773 H   0  0  0  0  0  0
   12.0667   -8.3942   24.2285 H   0  0  0  0  0  0
   10.4643  -10.2415   24.6185 H   0  0  0  0  0  0
   10.5432  -12.2521   23.2226 H   0  0  0  0  0  0
   11.1913  -13.1272   20.9416 H   0  0  0  0  0  0
   12.7308  -12.7223   20.2502 H   0  0  0  0  0  0
   12.1719  -14.2493   22.6589 H   0  0  0  0  0  0
   12.8801  -14.7781   21.3127 H   0  0  0  0  0  0
  1  2  2  0  0  0
  1  6  1  0  0  0
  1  8  1  0  0  0
  2  3  1  0  0  0
  2 30  1  0  0  0
  3  4  2  0  0  0
  3 19  1  0  0  0
  4  5  1  0  0  0
  4 31  1  0  0  0
  5  6  2  0  0  0
  5  7  1  0  0  0
  6 32  1  0  0  0
  7 33  1  0  0  0
  7 34  1  0  0  0
  7 35  1  0  0  0
  8  9  2  0  0  0
  8 10  1  0  0  0
 10 11  1  0  0  0
 10 15  1  0  0  0
 11 12  1  0  0  0
 11 36  1  0  0  0
 11 37  1  0  0  0
 12 13  1  0  0  0
 12 14  1  0  0  0
 12 38  1  0  0  0
 13 39  1  0  0  0
 13 40  1  0  0  0
 13 41  1  0  0  0
 14 42  1  0  0  0
 14 43  1  0  0  0
 14 44  1  0  0  0
 15 16  1  0  0  0
 15 45  1  0  0  0
 15 46  1  0  0  0
 16 17  1  0  0  0
 16 18  1  0  0  0
 16 47  1  0  0  0
 17 48  1  0  0  0
 17 49  1  0  0  0
 17 50  1  0  0  0
 18 51  1  0  0  0
 18 52  1  0  0  0
 18 53  1  0  0  0
 19 20  1  0  0  0
 20 21  1  0  0  0
 20 54  1  0  0  0
 20 55  1  0  0  0
 21 22  1  0  0  0
 21 56  1  0  0  0
 21 57  1  0  0  0
 22 23  2  0  0  0
 22 27  1  0  0  0
 23 24  1  0  0  0
 23 58  1  0  0  0
 24 25  2  0  0  0
 24 59  1  0  0  0
 25 26  1  0  0  0
 25 60  1  0  0  0
 26 27  2  0  0  0
 26 61  1  0  0  0
 27 28  1  0  0  0
 28 29  1  0  0  0
 28 62  1  0  0  0
 28 63  1  0  0  0
 29 64  1  0  0  0
 29 65  1  0  0  0
M  END
> <s_m_entry_id>
35363

> <s_m_entry_name>
dock_pv.213

> <s_m_Source_Path>
/home/csk/Desktop/cluster/DUD-E-result/thrb

> <s_m_Source_File>
dock_pv.maegz

> <i_m_Source_File_Index>
213

> <chembl_id>
CHEMBL1682769

> <chembl_pref_name>
None

> <i_lp_mmshare_version>
53161

> <r_lp_tautomer_probability>
1

> <s_lp_Force_Field>
OPLS_2005

> <r_lp_Energy>
36.407502

> <b_lp_Chiralities_Consistent>
1

> <s_lp_Variant>
CHEMBL204_lig4775-1

> <s_i_glide_gridfile>
glide-grid_1ype

> <i_i_glide_lignum>
6524

> <i_i_glide_rotatable_bonds>
11

> <r_i_docking_score>
-7.28486544889613

> <r_i_glide_ligand_efficiency>
-0.251202256858487

> <r_i_glide_ligand_efficiency_sa>
-0.771772919530326

> <r_i_glide_ligand_efficiency_ln>
-1.66804945954822

> <r_i_glide_gscore>
-7.28486544889613

> <r_i_glide_lipo>
-4.51294350381211

> <r_i_glide_hbond>
-0.32

> <r_i_glide_metal>
0

> <r_i_glide_rewards>
-0.806389351771507

> <r_i_glide_evdw>
-44.7141075134277

> <r_i_glide_ecoul>
-2.70100879669189

> <r_i_glide_erotb>
0.99532410186266

> <r_i_glide_esite>
0

> <r_i_glide_emodel>
-61.6120492863184

> <r_i_glide_energy>
-47.4151163101196

> <r_i_glide_einternal>
13.424280166626

> <i_i_glide_confnum>
76

> <i_i_glide_posenum>
174

> <r_i_glide_eff_state_penalty>
0

> <s_user_duplicate_titles>
CHEMBL204_lig4775

> <i_f3d_flags>
0

> <s_m_subgroup_title>
dock_pv

> <s_m_subgroupid>
dock_pv

> <b_m_subgroup_collapsed>
1

$$$$
CHEMBL204_lig4241
                    3D
 Schrodinger Suite 2021-1.
 61 65  0  0  1  0            999 V2000
   11.8828  -15.0790   19.2498 N   0  0  0  0  0  0
   12.8585  -14.7970   20.1285 N   0  0  0  0  0  0
   13.4905  -15.9394   20.5951 C   0  0  0  0  0  0
   12.7709  -16.9729   20.0219 C   0  0  0  0  0  0
   11.8270  -16.3919   19.1748 C   0  0  0  0  0  0
   10.8650  -17.0965   18.2446 C   0  0  0  0  0  0
   10.4154  -18.2123   18.8131 F   0  0  0  0  0  0
    9.8170  -16.3329   17.9228 F   0  0  0  0  0  0
   11.4801  -17.4532   17.1210 F   0  0  0  0  0  0
   13.1056  -13.4477   20.4391 C   0  0  0  0  0  0
   14.5865  -16.0539   21.5181 C   0  0  0  0  0  0
   14.6750  -17.0306   22.2675 O   0  0  0  0  0  0
   15.5055  -15.0743   21.3957 N   0  0  0  0  0  0
   16.8069  -15.0415   21.9196 C   0  0  0  0  0  0
   17.5603  -16.2016   22.1554 C   0  0  0  0  0  0
   18.8355  -16.1069   22.7062 C   0  0  0  0  0  0
   19.3702  -14.8681   23.0763 C   0  0  0  0  0  0
   18.6389  -13.7110   22.7722 C   0  0  0  0  0  0
   17.3712  -13.7927   22.1987 C   0  0  0  0  0  0
   16.6868  -12.6526   21.9393 F   0  0  0  0  0  0
   14.0794  -12.7402   19.7220 C   0  0  0  0  0  0
   14.3674  -11.4106   20.0298 C   0  0  0  0  0  0
   12.3730  -12.8464   21.4698 C   0  0  0  0  0  0
   12.6418  -11.5067   21.7862 C   0  0  0  0  0  0
   13.6294  -10.8216   21.0627 C   0  0  0  0  0  0
   13.7390   -9.5434   21.5228 O   0  0  0  0  0  0
   12.8150   -9.3783   22.5658 N   0  0  0  0  0  0
   12.1850  -10.5218   22.7128 C   0  0  0  0  0  0
   11.2161  -10.7258   23.6486 N   0  0  0  0  0  0
   20.6720  -14.7622   23.7945 C   0  0  0  0  0  0
   21.6461  -13.8932   23.2790 C   0  0  0  0  0  0
   22.8852  -13.7433   23.9000 C   0  0  0  0  0  0
   23.1722  -14.4606   25.0541 C   0  0  0  0  0  0
   22.2166  -15.3201   25.5864 C   0  0  0  0  0  0
   20.9597  -15.4735   24.9861 C   0  0  0  0  0  0
   19.9771  -16.4449   25.6660 C   0  0  0  0  0  0
   19.0640  -15.8168   26.6321 N   0  0  0  0  0  0
   18.0187  -15.0224   25.9913 C   0  0  0  0  0  0
   18.4229  -16.8407   27.4553 C   0  0  0  0  0  0
   12.9384  -18.0313   20.1609 H   0  0  0  0  0  0
   15.2301  -14.2548   20.8772 H   0  0  0  0  0  0
   17.1713  -17.1788   21.9109 H   0  0  0  0  0  0
   19.4031  -17.0125   22.8660 H   0  0  0  0  0  0
   19.0329  -12.7367   23.0224 H   0  0  0  0  0  0
   14.6279  -13.2271   18.9265 H   0  0  0  0  0  0
   15.1293  -10.8599   19.5003 H   0  0  0  0  0  0
   11.6157  -13.4043   22.0034 H   0  0  0  0  0  0
   10.6456  -11.5601   23.6480 H   0  0  0  0  0  0
   10.8950   -9.9887   24.2612 H   0  0  0  0  0  0
   21.4498  -13.3296   22.3781 H   0  0  0  0  0  0
   23.6224  -13.0686   23.4880 H   0  0  0  0  0  0
   24.1328  -14.3486   25.5369 H   0  0  0  0  0  0
   22.4571  -15.8629   26.4900 H   0  0  0  0  0  0
   20.5879  -17.1771   26.1977 H   0  0  0  0  0  0
   19.4251  -17.0514   24.9539 H   0  0  0  0  0  0
   18.4457  -14.1466   25.5039 H   0  0  0  0  0  0
   17.3086  -14.6556   26.7320 H   0  0  0  0  0  0
   17.4600  -15.5984   25.2492 H   0  0  0  0  0  0
   19.1680  -17.4454   27.9726 H   0  0  0  0  0  0
   17.7978  -16.3802   28.2211 H   0  0  0  0  0  0
   17.7975  -17.5070   26.8579 H   0  0  0  0  0  0
  1  5  2  0  0  0
  1  2  1  0  0  0
  2 10  1  0  0  0
  2  3  1  0  0  0
  3 11  1  0  0  0
  3  4  2  0  0  0
  4  5  1  0  0  0
  4 40  1  0  0  0
  5  6  1  0  0  0
  6  7  1  0  0  0
  6  8  1  0  0  0
  6  9  1  0  0  0
 10 21  2  0  0  0
 10 23  1  0  0  0
 11 12  2  0  0  0
 11 13  1  0  0  0
 13 14  1  0  0  0
 13 41  1  0  0  0
 14 19  2  0  0  0
 14 15  1  0  0  0
 15 16  2  0  0  0
 15 42  1  0  0  0
 16 17  1  0  0  0
 16 43  1  0  0  0
 17 30  1  0  0  0
 17 18  2  0  0  0
 18 19  1  0  0  0
 18 44  1  0  0  0
 19 20  1  0  0  0
 21 22  1  0  0  0
 21 45  1  0  0  0
 22 25  2  0  0  0
 22 46  1  0  0  0
 23 24  2  0  0  0
 23 47  1  0  0  0
 24 25  1  0  0  0
 24 28  1  0  0  0
 25 26  1  0  0  0
 26 27  1  0  0  0
 27 28  2  0  0  0
 28 29  1  0  0  0
 29 48  1  0  0  0
 29 49  1  0  0  0
 30 31  2  0  0  0
 30 35  1  0  0  0
 31 32  1  0  0  0
 31 50  1  0  0  0
 32 33  2  0  0  0
 32 51  1  0  0  0
 33 34  1  0  0  0
 33 52  1  0  0  0
 34 35  2  0  0  0
 34 53  1  0  0  0
 35 36  1  0  0  0
 36 37  1  0  0  0
 36 54  1  0  0  0
 36 55  1  0  0  0
 37 38  1  0  0  0
 37 39  1  0  0  0
 38 56  1  0  0  0
 38 57  1  0  0  0
 38 58  1  0  0  0
 39 59  1  0  0  0
 39 60  1  0  0  0
 39 61  1  0  0  0
M  END
> <s_m_entry_id>
35364

> <s_m_entry_name>
dock_pv.214

> <s_m_Source_Path>
/home/csk/Desktop/cluster/DUD-E-result/thrb

> <s_m_Source_File>
dock_pv.maegz

> <i_m_Source_File_Index>
214

> <chembl_id>
CHEMBL381949

> <chembl_pref_name>
None

> <i_lp_mmshare_version>
53161

> <r_lp_tautomer_probability>
1

> <s_lp_Force_Field>
OPLS_2005

> <r_lp_Energy>
48.062824

> <b_lp_Chiralities_Consistent>
1

> <s_lp_Variant>
CHEMBL204_lig4241-1

> <s_i_glide_gridfile>
glide-grid_1ype

> <i_i_glide_lignum>
5887

> <i_i_glide_rotatable_bonds>
8

> <r_i_docking_score>
-7.28311195713224

> <r_i_glide_ligand_efficiency>
-0.186746460439288

> <r_i_glide_ligand_efficiency_sa>
-0.633296732810733

> <r_i_glide_ligand_efficiency_ln>
-1.56170594703655

> <r_i_glide_gscore>
-7.28311195713224

> <r_i_glide_lipo>
-3.52082833061322

> <r_i_glide_hbond>
0

> <r_i_glide_metal>
0

> <r_i_glide_rewards>
-0.83624202291163

> <r_i_glide_evdw>
-53.8441352844238

> <r_i_glide_ecoul>
-3.48927712440491

> <r_i_glide_erotb>
0.427539639557678

> <r_i_glide_esite>
-0.137982910283143

> <r_i_glide_emodel>
-78.6027006510332

> <r_i_glide_energy>
-57.3334124088287

> <r_i_glide_einternal>
7.54205656051636

> <i_i_glide_confnum>
3

> <i_i_glide_posenum>
72

> <r_i_glide_eff_state_penalty>
0

> <s_user_duplicate_titles>
CHEMBL204_lig4241,343736

> <i_f3d_flags>
0

> <s_m_subgroup_title>
dock_pv

> <s_m_subgroupid>
dock_pv

> <b_m_subgroup_collapsed>
1

$$$$
CHEMBL204_lig4404
                    3D
 Schrodinger Suite 2021-1.
 58 60  0  0  1  0            999 V2000
   12.3191  -12.4131   20.8394 C   0  0  0  0  0  0
   13.2462  -13.5935   21.0823 C   0  0  0  0  0  0
   12.8141  -14.9072   21.2016 C   0  0  0  0  0  0
   14.0811  -16.0343   21.5209 S   0  0  0  0  0  0
   15.2588  -14.7503   21.5210 C   0  0  0  0  0  0
   14.6470  -13.5153   21.2147 C   0  0  0  0  0  0
   15.4781  -12.0128   21.0258 Cl  0  0  0  0  0  0
   16.6458  -15.0651   21.8229 C   0  0  0  0  0  0
   17.4252  -13.9831   22.0187 N   0  0  0  0  0  0
   17.0657  -16.2236   21.8625 O   0  0  0  0  0  0
   18.8080  -13.9933   22.2669 C   0  0  0  0  0  0
   19.7227  -13.4659   21.3114 C   0  0  0  0  0  0
   21.0844  -13.4530   21.6508 C   0  0  0  0  0  0
   21.5319  -13.9089   22.8866 C   0  0  0  0  0  0
   20.6253  -14.3969   23.8184 C   0  0  0  0  0  0
   19.2539  -14.4371   23.5312 C   0  0  0  0  0  0
   19.3178  -12.8671   19.9662 C   0  0  0  0  0  0
   20.0153  -11.9927   19.4442 O   0  0  0  0  0  0
   18.1934  -13.3653   19.4032 N   0  0  0  0  0  0
   23.2118  -13.8452   23.2795 Cl  0  0  0  0  0  0
   17.4389  -12.8766   18.3210 C   0  0  0  0  0  0
   17.8855  -11.8530   17.5439 N   0  0  0  0  0  0
   17.0504  -11.3332   16.6088 C   0  0  0  0  0  0
   15.7624  -11.8173   16.3934 C   0  0  0  0  0  0
   15.3324  -12.9143   17.1411 C   0  0  0  0  0  0
   16.1806  -13.4561   18.1113 C   0  0  0  0  0  0
   14.7253  -11.0530   15.2456 Cl  0  0  0  0  0  0
   18.3042  -14.8525   24.4524 O   0  0  0  0  0  0
   18.6995  -15.2266   25.7678 C   0  0  0  0  0  0
   12.3049  -11.4830   21.9788 N   0  0  1  0  0  0
   11.7434  -10.1604   21.6665 C   0  0  0  0  0  0
   11.5513  -12.0592   23.0907 C   0  0  0  0  0  0
   12.6568   -9.1957   20.8829 C   0  0  2  0  0  0
   12.8160   -9.5433   19.5211 O   0  0  0  0  0  0
   14.0143   -8.9557   21.5702 C   0  0  0  0  0  0
   11.3032  -12.7509   20.6252 H   0  0  0  0  0  0
   12.6540  -11.9096   19.9359 H   0  0  0  0  0  0
   11.7927  -15.2554   21.1432 H   0  0  0  0  0  0
   16.9932  -13.0758   21.9212 H   0  0  0  0  0  0
   21.8169  -13.0649   20.9559 H   0  0  0  0  0  0
   21.0058  -14.7252   24.7731 H   0  0  0  0  0  0
   17.7648  -14.1239   19.9109 H   0  0  0  0  0  0
   17.4166  -10.4885   16.0459 H   0  0  0  0  0  0
   14.3457  -13.3276   16.9892 H   0  0  0  0  0  0
   15.8384  -14.2866   18.7111 H   0  0  0  0  0  0
   17.8144  -15.4987   26.3429 H   0  0  0  0  0  0
   19.3643  -16.0913   25.7565 H   0  0  0  0  0  0
   19.1884  -14.4020   26.2895 H   0  0  0  0  0  0
   11.4680   -9.6481   22.5908 H   0  0  0  0  0  0
   10.8160  -10.2677   21.1214 H   0  0  0  0  0  0
   12.0158  -12.9892   23.4226 H   0  0  0  0  0  0
   11.5453  -11.3839   23.9461 H   0  0  0  0  0  0
   10.5116  -12.2548   22.8203 H   0  0  0  0  0  0
   12.1191   -8.2530   20.8386 H   0  0  0  0  0  0
   11.9365   -9.5654   19.1081 H   0  0  0  0  0  0
   13.9096   -8.2721   22.4132 H   0  0  0  0  0  0
   14.7606   -8.5385   20.8929 H   0  0  0  0  0  0
   14.4160   -9.8719   21.9815 H   0  0  0  0  0  0
  1 30  1  0  0  0
  1  2  1  0  0  0
  1 36  1  0  0  0
  1 37  1  0  0  0
  2  6  1  0  0  0
  2  3  2  0  0  0
  3  4  1  0  0  0
  3 38  1  0  0  0
  4  5  1  0  0  0
  5  8  1  0  0  0
  5  6  2  0  0  0
  6  7  1  0  0  0
  8  9  1  0  0  0
  8 10  2  0  0  0
  9 11  1  0  0  0
  9 39  1  0  0  0
 11 12  2  0  0  0
 11 16  1  0  0  0
 12 13  1  0  0  0
 12 17  1  0  0  0
 13 14  2  0  0  0
 13 40  1  0  0  0
 14 15  1  0  0  0
 14 20  1  0  0  0
 15 16  2  0  0  0
 15 41  1  0  0  0
 16 28  1  0  0  0
 17 18  2  0  0  0
 17 19  1  0  0  0
 19 21  1  0  0  0
 19 42  1  0  0  0
 21 22  2  0  0  0
 21 26  1  0  0  0
 22 23  1  0  0  0
 23 24  2  0  0  0
 23 43  1  0  0  0
 24 25  1  0  0  0
 24 27  1  0  0  0
 25 26  2  0  0  0
 25 44  1  0  0  0
 26 45  1  0  0  0
 28 29  1  0  0  0
 29 46  1  0  0  0
 29 47  1  0  0  0
 29 48  1  0  0  0
 30 31  1  0  0  0
 30 32  1  0  0  0
 31 33  1  0  0  0
 31 49  1  0  0  0
 31 50  1  0  0  0
 32 51  1  0  0  0
 32 52  1  0  0  0
 32 53  1  0  0  0
 33 34  1  0  0  0
 33 35  1  0  0  0
 33 54  1  0  0  0
 34 55  1  0  0  0
 35 56  1  0  0  0
 35 57  1  0  0  0
 35 58  1  0  0  0
M  END
> <s_m_entry_id>
35365

> <s_m_entry_name>
dock_pv.215

> <s_m_Source_Path>
/home/csk/Desktop/cluster/DUD-E-result/thrb

> <s_m_Source_File>
dock_pv.maegz

> <i_m_Source_File_Index>
215

> <chembl_id>
CHEMBL227248

> <chembl_pref_name>
None

> <i_lp_mmshare_version>
53161

> <r_lp_tautomer_probability>
1

> <s_lp_Force_Field>
OPLS_2005

> <r_lp_Energy>
43.521554

> <b_lp_Chiralities_Consistent>
1

> <s_lp_Variant>
CHEMBL204_lig4404-1

> <s_i_glide_gridfile>
glide-grid_1ype

> <i_i_glide_lignum>
6065

> <i_i_glide_rotatable_bonds>
12

> <r_i_docking_score>
-7.28103760778924

> <r_i_glide_ligand_efficiency>
-0.208029645936835

> <r_i_glide_ligand_efficiency_sa>
-0.680478765537996

> <r_i_glide_ligand_efficiency_ln>
-1.59834934883299

> <r_i_glide_gscore>
-7.28103760778924

> <r_i_glide_lipo>
-3.12176560665744

> <r_i_glide_hbond>
-0.608

> <r_i_glide_metal>
0

> <r_i_glide_rewards>
-0.343892745980907

> <r_i_glide_evdw>
-46.4641418457031

> <r_i_glide_ecoul>
-9.73877239227295

> <r_i_glide_erotb>
0.590276502780289

> <r_i_glide_esite>
-0.0136328068050759

> <r_i_glide_emodel>
-77.497868535936

> <r_i_glide_energy>
-56.2029142379761

> <r_i_glide_einternal>
8.56704330444336

> <i_i_glide_confnum>
157

> <i_i_glide_posenum>
333

> <r_i_glide_eff_state_penalty>
0

> <s_user_duplicate_titles>
CHEMBL204_lig4404

> <i_f3d_flags>
0

> <s_m_subgroup_title>
dock_pv

> <s_m_subgroupid>
dock_pv

> <b_m_subgroup_collapsed>
1

$$$$
CHEMBL204_lig5138 
                    3D
 Schrodinger Suite 2021-1.
 75 77  0  0  1  0            999 V2000
   14.8341  -12.9147   19.0824 N   0  0  1  0  0  0
   16.2740  -13.0194   18.7396 C   0  0  2  0  0  0
   17.0300  -11.9723   19.6037 C   0  0  0  0  0  0
   16.4535  -10.9339   19.9398 O   0  0  0  0  0  0
   18.3258  -12.2170   19.9121 N   0  0  0  0  0  0
   19.1048  -13.4531   19.7014 C   0  0  1  0  0  0
   20.5786  -12.9761   19.7169 C   0  0  0  0  0  0
   20.5272  -11.4599   19.8053 C   0  0  0  0  0  0
   19.1881  -11.2010   20.4822 C   0  0  0  0  0  0
   18.8820  -14.5519   20.7608 C   0  0  0  0  0  0
   19.5854  -15.5591   20.7209 O   0  0  0  0  0  0
   17.9745  -14.3409   21.7259 N   0  0  0  0  0  0
   17.7962  -15.2356   22.8708 C   0  0  0  0  0  0
   18.7598  -15.0406   24.0522 C   0  0  0  0  0  0
   18.4195  -15.5188   25.3346 C   0  0  0  0  0  0
   19.2234  -15.1900   26.4278 C   0  0  0  0  0  0
   20.4097  -14.4835   26.2572 C   0  0  0  0  0  0
   20.8174  -14.1245   24.9799 C   0  0  0  0  0  0
   19.9765  -14.3540   23.8950 C   0  0  0  0  0  0
   22.3834  -13.4472   24.7378 Cl  0  0  0  0  0  0
   17.2043  -16.3988   25.6076 C   0  0  0  0  0  0
   17.2323  -17.6470   24.8656 N   0  0  0  0  0  0
   16.4835  -12.7537   17.2221 C   0  0  0  0  0  0
   15.7598  -11.5068   16.6522 C   0  0  0  0  0  0
   16.2000  -11.1138   15.2361 C   0  0  0  0  0  0
   15.9718  -12.1899   14.2878 N   0  0  0  0  0  0
   16.9266  -13.0224   13.7251 C   0  0  0  0  0  0
   16.3486  -14.0790   13.0455 N   0  0  0  0  0  0
   18.1741  -12.8622   13.8291 N   0  0  0  0  0  0
   14.2130  -13.9746   20.3334 S   0  0  0  0  0  0
   12.4477  -13.3450   20.5711 C   0  0  0  0  0  0
   12.4156  -11.9596   21.2013 C   0  0  0  0  0  0
   12.8072  -10.8403   20.4603 C   0  0  0  0  0  0
   12.8137   -9.5821   21.0545 C   0  0  0  0  0  0
   12.4232   -9.4478   22.3845 C   0  0  0  0  0  0
   12.0134  -10.5518   23.1211 C   0  0  0  0  0  0
   12.0146  -11.8097   22.5314 C   0  0  0  0  0  0
   14.9897  -13.6881   21.5425 O   0  0  0  0  0  0
   14.1767  -15.3316   19.7815 O   0  0  0  0  0  0
   14.6926  -11.9426   19.3725 H   0  0  0  0  0  0
   16.6019  -14.0314   18.9819 H   0  0  0  0  0  0
   18.8822  -13.8530   18.7202 H   0  0  0  0  0  0
   21.1310  -13.3124   18.8387 H   0  0  0  0  0  0
   21.1167  -13.3609   20.5846 H   0  0  0  0  0  0
   20.5066  -11.0531   18.7949 H   0  0  0  0  0  0
   21.3844  -11.0267   20.3207 H   0  0  0  0  0  0
   18.8424  -10.1772   20.3495 H   0  0  0  0  0  0
   19.2157  -11.4087   21.5461 H   0  0  0  0  0  0
   17.4199  -13.4956   21.7244 H   0  0  0  0  0  0
   16.7823  -15.0626   23.2262 H   0  0  0  0  0  0
   17.8443  -16.2775   22.5476 H   0  0  0  0  0  0
   18.9459  -15.5130   27.4197 H   0  0  0  0  0  0
   21.0302  -14.2528   27.1106 H   0  0  0  0  0  0
   20.3061  -14.0156   22.9273 H   0  0  0  0  0  0
   17.2160  -16.6708   26.6631 H   0  0  0  0  0  0
   16.2835  -15.8533   25.4227 H   0  0  0  0  0  0
   16.5404  -18.2814   25.2381 H   0  0  0  0  0  0
   16.9626  -17.4807   23.9072 H   0  0  0  0  0  0
   17.5507  -12.6535   17.0192 H   0  0  0  0  0  0
   16.1644  -13.6338   16.6629 H   0  0  0  0  0  0
   14.6834  -11.6803   16.6594 H   0  0  0  0  0  0
   15.9296  -10.6530   17.3057 H   0  0  0  0  0  0
   15.6431  -10.2369   14.9038 H   0  0  0  0  0  0
   17.2528  -10.8314   15.2353 H   0  0  0  0  0  0
   15.0080  -12.4609   14.1623 H   0  0  0  0  0  0
   16.7733  -14.2978   12.1571 H   0  0  0  0  0  0
   15.3481  -14.0050   12.9109 H   0  0  0  0  0  0
   18.6737  -13.6116   13.3668 H   0  0  0  0  0  0
   11.9366  -14.0720   21.2037 H   0  0  0  0  0  0
   11.9625  -13.3531   19.5962 H   0  0  0  0  0  0
   13.0946  -10.9374   19.4250 H   0  0  0  0  0  0
   13.1153   -8.7141   20.4880 H   0  0  0  0  0  0
   12.4308   -8.4772   22.8562 H   0  0  0  0  0  0
   11.6983  -10.4343   24.1478 H   0  0  0  0  0  0
   11.6997  -12.6557   23.1210 H   0  0  0  0  0  0
  1  2  1  0  0  0
  1 30  1  0  0  0
  1 40  1  0  0  0
  2  3  1  0  0  0
  2 23  1  0  0  0
  2 41  1  0  0  0
  3  4  2  0  0  0
  3  5  1  0  0  0
  5  6  1  0  0  0
  5  9  1  0  0  0
  6  7  1  0  0  0
  6 10  1  0  0  0
  6 42  1  0  0  0
  7  8  1  0  0  0
  7 43  1  0  0  0
  7 44  1  0  0  0
  8  9  1  0  0  0
  8 45  1  0  0  0
  8 46  1  0  0  0
  9 47  1  0  0  0
  9 48  1  0  0  0
 10 11  2  0  0  0
 10 12  1  0  0  0
 12 13  1  0  0  0
 12 49  1  0  0  0
 13 14  1  0  0  0
 13 50  1  0  0  0
 13 51  1  0  0  0
 14 15  2  0  0  0
 14 19  1  0  0  0
 15 16  1  0  0  0
 15 21  1  0  0  0
 16 17  2  0  0  0
 16 52  1  0  0  0
 17 18  1  0  0  0
 17 53  1  0  0  0
 18 19  2  0  0  0
 18 20  1  0  0  0
 19 54  1  0  0  0
 21 22  1  0  0  0
 21 55  1  0  0  0
 21 56  1  0  0  0
 22 57  1  0  0  0
 22 58  1  0  0  0
 23 24  1  0  0  0
 23 59  1  0  0  0
 23 60  1  0  0  0
 24 25  1  0  0  0
 24 61  1  0  0  0
 24 62  1  0  0  0
 25 26  1  0  0  0
 25 63  1  0  0  0
 25 64  1  0  0  0
 26 27  1  0  0  0
 26 65  1  0  0  0
 27 28  1  0  0  0
 27 29  2  0  0  0
 28 66  1  0  0  0
 28 67  1  0  0  0
 29 68  1  0  0  0
 30 31  1  0  0  0
 30 38  2  0  0  0
 30 39  2  0  0  0
 31 32  1  0  0  0
 31 69  1  0  0  0
 31 70  1  0  0  0
 32 33  2  0  0  0
 32 37  1  0  0  0
 33 34  1  0  0  0
 33 71  1  0  0  0
 34 35  2  0  0  0
 34 72  1  0  0  0
 35 36  1  0  0  0
 35 73  1  0  0  0
 36 37  2  0  0  0
 36 74  1  0  0  0
 37 75  1  0  0  0
M  END
> <s_m_entry_id>
35366

> <s_m_entry_name>
dock_pv.216

> <s_m_Source_Path>
/home/csk/Desktop/cluster/DUD-E-result/thrb

> <s_m_Source_File>
dock_pv.maegz

> <i_m_Source_File_Index>
216

> <chembl_id>
CHEMBL4559358

> <chembl_pref_name>
None

> <i_lp_mmshare_version>
53161

> <r_lp_tautomer_probability>
1

> <s_lp_Force_Field>
OPLS_2005

> <r_lp_Energy>
24.457472

> <b_lp_Chiralities_Consistent>
1

> <s_lp_Variant>
CHEMBL204_lig5138 -1

> <s_i_glide_gridfile>
glide-grid_1ype

> <i_i_glide_lignum>
7036

> <i_i_glide_rotatable_bonds>
16

> <r_i_docking_score>
-7.2786061562913

> <r_i_glide_ligand_efficiency>
-0.186630927084392

> <r_i_glide_ligand_efficiency_sa>
-0.632904934776038

> <r_i_glide_ligand_efficiency_ln>
-1.56073977543149

> <r_i_glide_gscore>
-7.2786061562913

> <r_i_glide_lipo>
-4.03696204181927

> <r_i_glide_hbond>
-0.122972846036979

> <r_i_glide_metal>
0

> <r_i_glide_rewards>
-0.670877177601398

> <r_i_glide_evdw>
-51.6510467529297

> <r_i_glide_ecoul>
-3.76835799217224

> <r_i_glide_erotb>
0.777254045007087

> <r_i_glide_esite>
-0.0772420993684216

> <r_i_glide_emodel>
-63.3135182579065

> <r_i_glide_energy>
-55.4194047451019

> <r_i_glide_einternal>
25.4290027618408

> <i_i_glide_confnum>
100

> <i_i_glide_posenum>
140

> <r_i_glide_eff_state_penalty>
0

> <s_user_duplicate_titles>
CHEMBL204_lig5138 

> <i_f3d_flags>
0

> <s_m_subgroup_title>
dock_pv

> <s_m_subgroupid>
dock_pv

> <b_m_subgroup_collapsed>
1

$$$$
CHEMBL204_lig540
                    3D
 Schrodinger Suite 2021-1.
 63 67  0  0  1  0            999 V2000
   15.7311  -12.9064   19.4593 C   0  0  0  0  0  0
   14.4137  -12.0615   19.6749 C   0  0  0  0  0  0
   16.7408  -17.1235   23.2375 N   0  0  0  0  0  0
   17.3987  -16.8801   24.4215 C   0  0  0  0  0  0
   17.8218  -14.5777   23.6136 N   0  0  0  0  0  0
   17.9541  -15.5018   24.4978 C   0  0  0  0  0  0
   13.7099  -12.0383   20.8480 N   0  0  0  0  0  0
   17.0861  -14.8634   22.4454 C   0  0  0  0  0  0
   16.5385  -16.1454   22.2126 C   0  0  0  0  0  0
   16.1423  -13.0373   17.9853 C   0  0  0  0  0  0
   16.8608  -12.0616   18.8655 C   0  0  0  0  0  0
   16.1057  -14.0559   20.3873 C   0  0  0  0  0  0
   16.8762  -13.8286   21.5324 C   0  0  0  0  0  0
   24.3506  -14.3202   24.1154 C   0  0  0  0  0  0
   15.8182  -16.3765   21.0324 C   0  0  0  0  0  0
   18.8082  -15.1620   25.7294 C   0  0  0  0  0  0
   14.0159  -11.3895   18.7208 O   0  0  0  0  0  0
   17.5268  -17.7140   25.3230 O   0  0  0  0  0  0
   22.9658  -14.5583   24.6147 C   0  0  0  0  0  0
   25.0143  -15.2123   23.5226 N   0  0  0  0  0  0
   15.6047  -15.3369   20.1295 C   0  0  0  0  0  0
   12.5368  -11.1503   21.0843 C   0  0  2  0  0  0
   22.2480  -13.5853   25.3379 C   0  0  0  0  0  0
   22.3177  -15.7790   24.3608 C   0  0  0  0  0  0
   24.8167  -13.0528   24.3210 N   0  0  0  0  0  0
   20.2871  -14.9792   25.3994 C   0  0  0  0  0  0
   16.1627  -18.4616   23.0246 C   0  0  0  0  0  0
   13.8191  -13.0279   21.9285 C   0  0  0  0  0  0
   20.9989  -15.9925   24.7521 C   0  0  0  0  0  0
   20.9267  -13.7844   25.7195 C   0  0  0  0  0  0
   12.8160   -9.0531   19.8132 O   0  0  0  0  0  0
   12.4164  -13.0534   22.5092 C   0  0  0  0  0  0
   12.8031   -9.6224   21.1038 C   0  0  0  0  0  0
   11.9405  -11.6298   22.4103 C   0  0  0  0  0  0
   16.6650  -13.9406   17.6694 H   0  0  0  0  0  0
   15.4951  -12.6623   17.1900 H   0  0  0  0  0  0
   16.7091  -10.9919   18.7094 H   0  0  0  0  0  0
   17.8857  -12.2820   19.1668 H   0  0  0  0  0  0
   17.2667  -12.8407   21.7355 H   0  0  0  0  0  0
   15.3877  -17.3420   20.8134 H   0  0  0  0  0  0
   18.4171  -14.2544   26.1925 H   0  0  0  0  0  0
   18.7356  -15.9159   26.5145 H   0  0  0  0  0  0
   25.9345  -14.8770   23.2729 H   0  0  0  0  0  0
   15.0097  -15.5157   19.2448 H   0  0  0  0  0  0
   11.8146  -11.3532   20.2941 H   0  0  0  0  0  0
   22.6939  -12.6422   25.6023 H   0  0  0  0  0  0
   22.8236  -16.5715   23.8270 H   0  0  0  0  0  0
   25.7234  -12.7919   23.9572 H   0  0  0  0  0  0
   24.2642  -12.3680   24.8109 H   0  0  0  0  0  0
   16.3249  -19.1467   23.8575 H   0  0  0  0  0  0
   15.0861  -18.3849   22.8767 H   0  0  0  0  0  0
   16.5961  -18.9230   22.1371 H   0  0  0  0  0  0
   14.4998  -12.6910   22.7106 H   0  0  0  0  0  0
   14.0025  -14.0484   21.6045 H   0  0  0  0  0  0
   20.5205  -16.9337   24.5171 H   0  0  0  0  0  0
   20.3988  -12.9970   26.2404 H   0  0  0  0  0  0
   11.9667   -9.2310   19.3847 H   0  0  0  0  0  0
   12.4160  -13.4526   23.5209 H   0  0  0  0  0  0
   11.7796  -13.7018   21.9045 H   0  0  0  0  0  0
   13.7487   -9.4042   21.6035 H   0  0  0  0  0  0
   12.0284   -9.1119   21.6805 H   0  0  0  0  0  0
   12.3483  -11.0584   23.2484 H   0  0  0  0  0  0
   10.8543  -11.5247   22.4533 H   0  0  0  0  0  0
  1  2  1  0  0  0
  1 10  1  0  0  0
  1 11  1  0  0  0
  1 12  1  0  0  0
  2  7  1  0  0  0
  2 17  2  0  0  0
  3  9  1  0  0  0
  3  4  1  0  0  0
  3 27  1  0  0  0
  4 18  2  0  0  0
  4  6  1  0  0  0
  5  8  1  0  0  0
  5  6  2  0  0  0
  6 16  1  0  0  0
  7 22  1  0  0  0
  7 28  1  0  0  0
  8 13  2  0  0  0
  8  9  1  0  0  0
  9 15  2  0  0  0
 10 11  1  0  0  0
 10 35  1  0  0  0
 10 36  1  0  0  0
 11 37  1  0  0  0
 11 38  1  0  0  0
 12 13  1  0  0  0
 12 21  2  0  0  0
 13 39  1  0  0  0
 14 19  1  0  0  0
 14 20  2  0  0  0
 14 25  1  0  0  0
 15 21  1  0  0  0
 15 40  1  0  0  0
 16 26  1  0  0  0
 16 41  1  0  0  0
 16 42  1  0  0  0
 19 23  2  0  0  0
 19 24  1  0  0  0
 20 43  1  0  0  0
 21 44  1  0  0  0
 22 33  1  0  0  0
 22 34  1  0  0  0
 22 45  1  0  0  0
 23 30  1  0  0  0
 23 46  1  0  0  0
 24 29  2  0  0  0
 24 47  1  0  0  0
 25 48  1  0  0  0
 25 49  1  0  0  0
 26 29  1  0  0  0
 26 30  2  0  0  0
 27 50  1  0  0  0
 27 51  1  0  0  0
 27 52  1  0  0  0
 28 32  1  0  0  0
 28 53  1  0  0  0
 28 54  1  0  0  0
 29 55  1  0  0  0
 30 56  1  0  0  0
 31 33  1  0  0  0
 31 57  1  0  0  0
 32 34  1  0  0  0
 32 58  1  0  0  0
 32 59  1  0  0  0
 33 60  1  0  0  0
 33 61  1  0  0  0
 34 62  1  0  0  0
 34 63  1  0  0  0
M  END
> <s_m_entry_id>
35367

> <s_m_entry_name>
dock_pv.217

> <s_m_Source_Path>
/home/csk/Desktop/cluster/DUD-E-result/thrb

> <s_m_Source_File>
dock_pv.maegz

> <i_m_Source_File_Index>
217

> <chembl_id>
CHEMBL307385

> <chembl_pref_name>
None

> <i_lp_mmshare_version>
53161

> <r_lp_tautomer_probability>
1

> <s_lp_Force_Field>
OPLS_2005

> <r_lp_Energy>
65.881483

> <b_lp_Chiralities_Consistent>
1

> <s_lp_Variant>
CHEMBL204_lig540-1

> <s_i_glide_gridfile>
glide-grid_1ype

> <i_i_glide_lignum>
745

> <i_i_glide_rotatable_bonds>
8

> <r_i_docking_score>
-7.27618116676968

> <r_i_glide_ligand_efficiency>
-0.214005328434402

> <r_i_glide_ligand_efficiency_sa>
-0.693294186717418

> <r_i_glide_ligand_efficiency_ln>
-1.60751250970816

> <r_i_glide_gscore>
-7.27618116676968

> <r_i_glide_lipo>
-2.48012665721396

> <r_i_glide_hbond>
-0.650834433280301

> <r_i_glide_metal>
0

> <r_i_glide_rewards>
-0.781712424296838

> <r_i_glide_evdw>
-43.2208480834961

> <r_i_glide_ecoul>
-11.7853012084961

> <r_i_glide_erotb>
0.571692639752752

> <r_i_glide_esite>
-0.00636270628211368

> <r_i_glide_emodel>
-72.9525899865633

> <r_i_glide_energy>
-55.0061492919922

> <r_i_glide_einternal>
8.93947601318359

> <i_i_glide_confnum>
17

> <i_i_glide_posenum>
338

> <r_i_glide_eff_state_penalty>
0

> <s_user_duplicate_titles>
CHEMBL204_lig540

> <i_f3d_flags>
0

> <s_m_subgroup_title>
dock_pv

> <s_m_subgroupid>
dock_pv

> <b_m_subgroup_collapsed>
1

$$$$
CHEMBL204_lig5173
                    3D
 Schrodinger Suite 2021-1.
 54 55  0  0  1  0            999 V2000
   20.3036  -15.5790   22.6813 O   0  0  0  0  0  0
   19.6536  -14.2652   22.7186 S   0  0  0  0  0  0
   18.2919  -14.1251   23.2455 O   0  0  0  0  0  0
   19.6507  -13.6141   21.0755 N   0  0  1  0  0  0
   19.0497  -12.2745   20.8001 C   0  0  1  0  0  0
   20.1207  -11.5844   19.9210 C   0  0  0  0  0  0
   21.3376  -12.4941   19.9242 C   0  0  0  0  0  0
   20.7716  -13.8870   20.1433 C   0  0  0  0  0  0
   17.7219  -12.4204   20.0287 C   0  0  0  0  0  0
   16.7481  -11.5549   20.3498 N   0  0  0  0  0  0
   17.6276  -13.2032   19.0841 O   0  0  0  0  0  0
   15.4459  -11.4910   19.6915 C   0  0  0  0  0  0
   14.3186  -11.3008   20.6865 C   0  0  0  0  0  0
   14.0347  -10.0298   21.1821 C   0  0  0  0  0  0
   13.0390   -9.8669   22.1359 C   0  0  0  0  0  0
   12.2876  -10.9608   22.6045 C   0  0  0  0  0  0
   12.5411  -12.2202   22.0274 C   0  0  0  0  0  0
   13.5464  -12.3909   21.0811 C   0  0  0  0  0  0
   11.2802  -10.7694   23.6879 C   0  0  0  0  0  0
   10.4674  -11.8530   23.9210 N   0  0  0  0  0  0
   11.2158   -9.6830   24.3207 N   0  0  0  0  0  0
   20.7470  -13.0530   23.6740 C   0  0  0  0  0  0
   21.3805  -13.6932   24.9246 C   0  0  0  0  0  0
   22.6991  -14.4676   24.6747 C   0  0  0  0  0  0
   23.0823  -15.2841   25.9183 C   0  0  0  0  0  0
   23.8654  -13.5459   24.2605 C   0  0  0  0  0  0
   18.8171  -11.7357   21.7204 H   0  0  0  0  0  0
   20.3761  -10.6035   20.3192 H   0  0  0  0  0  0
   19.7957  -11.4535   18.8856 H   0  0  0  0  0  0
   22.0161  -12.2377   20.7359 H   0  0  0  0  0  0
   21.9110  -12.4241   18.9999 H   0  0  0  0  0  0
   21.4475  -14.6730   20.4811 H   0  0  0  0  0  0
   20.3682  -14.2622   19.2023 H   0  0  0  0  0  0
   16.9350  -10.8416   21.0423 H   0  0  0  0  0  0
   15.4687  -10.6532   19.0027 H   0  0  0  0  0  0
   15.2425  -12.3588   19.0600 H   0  0  0  0  0  0
   14.6141   -9.1735   20.8688 H   0  0  0  0  0  0
   12.8714   -8.8776   22.5357 H   0  0  0  0  0  0
   11.9996  -13.1020   22.3369 H   0  0  0  0  0  0
   13.7445  -13.3781   20.6867 H   0  0  0  0  0  0
    9.6810  -11.7620   24.5641 H   0  0  0  0  0  0
   10.6377  -12.7676   23.5215 H   0  0  0  0  0  0
   10.4429   -9.7125   24.9796 H   0  0  0  0  0  0
   20.0915  -12.2339   23.9599 H   0  0  0  0  0  0
   21.4890  -12.6563   22.9864 H   0  0  0  0  0  0
   20.6420  -14.3468   25.3928 H   0  0  0  0  0  0
   21.5727  -12.9096   25.6597 H   0  0  0  0  0  0
   22.5386  -15.1762   23.8628 H   0  0  0  0  0  0
   23.2156  -14.6328   26.7808 H   0  0  0  0  0  0
   24.0113  -15.8357   25.7682 H   0  0  0  0  0  0
   22.3094  -16.0108   26.1688 H   0  0  0  0  0  0
   24.0526  -12.7736   25.0086 H   0  0  0  0  0  0
   24.7891  -14.1116   24.1347 H   0  0  0  0  0  0
   23.6764  -13.0535   23.3066 H   0  0  0  0  0  0
  1  2  2  0  0  0
  2  3  2  0  0  0
  2  4  1  0  0  0
  2 22  1  0  0  0
  4  5  1  0  0  0
  4  8  1  0  0  0
  5  6  1  0  0  0
  5  9  1  0  0  0
  5 27  1  0  0  0
  6  7  1  0  0  0
  6 28  1  0  0  0
  6 29  1  0  0  0
  7  8  1  0  0  0
  7 30  1  0  0  0
  7 31  1  0  0  0
  8 32  1  0  0  0
  8 33  1  0  0  0
  9 10  1  0  0  0
  9 11  2  0  0  0
 10 12  1  0  0  0
 10 34  1  0  0  0
 12 13  1  0  0  0
 12 35  1  0  0  0
 12 36  1  0  0  0
 13 14  2  0  0  0
 13 18  1  0  0  0
 14 15  1  0  0  0
 14 37  1  0  0  0
 15 16  2  0  0  0
 15 38  1  0  0  0
 16 17  1  0  0  0
 16 19  1  0  0  0
 17 18  2  0  0  0
 17 39  1  0  0  0
 18 40  1  0  0  0
 19 20  1  0  0  0
 19 21  2  0  0  0
 20 41  1  0  0  0
 20 42  1  0  0  0
 21 43  1  0  0  0
 22 23  1  0  0  0
 22 44  1  0  0  0
 22 45  1  0  0  0
 23 24  1  0  0  0
 23 46  1  0  0  0
 23 47  1  0  0  0
 24 25  1  0  0  0
 24 26  1  0  0  0
 24 48  1  0  0  0
 25 49  1  0  0  0
 25 50  1  0  0  0
 25 51  1  0  0  0
 26 52  1  0  0  0
 26 53  1  0  0  0
 26 54  1  0  0  0
M  END
> <s_m_entry_id>
35368

> <s_m_entry_name>
dock_pv.218

> <s_m_Source_Path>
/home/csk/Desktop/cluster/DUD-E-result/thrb

> <s_m_Source_File>
dock_pv.maegz

> <i_m_Source_File_Index>
218

> <chembl_id>
CHEMBL4585526

> <chembl_pref_name>
None

> <i_lp_mmshare_version>
53161

> <r_lp_tautomer_probability>
1

> <s_lp_Force_Field>
OPLS_2005

> <r_lp_Energy>
5.563641

> <b_lp_Chiralities_Consistent>
1

> <s_lp_Variant>
CHEMBL204_lig5173-1

> <s_i_glide_gridfile>
glide-grid_1ype

> <i_i_glide_lignum>
7065

> <i_i_glide_rotatable_bonds>
9

> <r_i_docking_score>
-7.27372391494132

> <r_i_glide_ligand_efficiency>
-0.279758612113128

> <r_i_glide_ligand_efficiency_sa>
-0.828783787588158

> <r_i_glide_ligand_efficiency_ln>
-1.70821019438912

> <r_i_glide_gscore>
-7.27372391494132

> <r_i_glide_lipo>
-3.1365157330984

> <r_i_glide_hbond>
-0.216966572507714

> <r_i_glide_metal>
0

> <r_i_glide_rewards>
-1.37764845835726

> <r_i_glide_evdw>
-40.6059074401855

> <r_i_glide_ecoul>
-8.81115818023682

> <r_i_glide_erotb>
0.938002430430293

> <r_i_glide_esite>
-0.128626482363436

> <r_i_glide_emodel>
-68.3299023204389

> <r_i_glide_energy>
-49.4170656204224

> <r_i_glide_einternal>
4.8443603515625

> <i_i_glide_confnum>
92

> <i_i_glide_posenum>
355

> <r_i_glide_eff_state_penalty>
0

> <s_user_duplicate_titles>
CHEMBL204_lig5173

> <i_f3d_flags>
0

> <s_m_subgroup_title>
dock_pv

> <s_m_subgroupid>
dock_pv

> <b_m_subgroup_collapsed>
1

$$$$
CHEMBL204_lig3526
                    3D
 Schrodinger Suite 2021-1.
 56 58  0  0  1  0            999 V2000
   20.3116  -14.1019   24.9534 S   0  0  0  0  0  0
   11.5201  -10.7794   23.3418 C   0  0  0  0  0  0
   12.1799  -11.0534   22.1011 N   0  0  0  0  0  0
   19.8073  -14.8554   23.5462 O   0  0  0  0  0  0
   22.0691  -14.4222   24.7946 C   0  0  0  0  0  0
   19.4694  -14.0729   22.4736 C   0  0  0  0  0  0
   20.0963  -12.6540   24.8443 O   0  0  0  0  0  0
   19.8047  -14.8753   26.0929 O   0  0  0  0  0  0
   11.5408   -9.6663   23.9221 N   0  0  0  0  0  0
   18.1894  -13.5264   22.3969 C   0  0  0  0  0  0
   12.6976   -9.9694   21.2516 C   0  0  0  0  0  0
   12.1956  -12.3499   21.4025 C   0  0  0  0  0  0
   17.8051  -12.7517   21.3044 C   0  0  0  0  0  0
   22.6483  -15.5211   25.4387 C   0  0  0  0  0  0
   10.8160  -11.8526   23.9209 N   0  0  0  0  0  0
   20.0174  -13.0673   20.3415 C   0  0  0  0  0  0
   20.3835  -13.8492   21.4425 C   0  0  0  0  0  0
   16.5196  -12.2528   21.3130 O   0  0  0  0  0  0
   18.7325  -12.5183   20.2765 C   0  0  0  0  0  0
   24.0217  -15.7586   25.3260 C   0  0  0  0  0  0
   15.8986  -11.9348   20.0679 C   0  0  0  0  0  0
   13.6600  -12.7244   21.0829 C   0  0  0  0  0  0
   14.1815  -10.2475   20.9682 C   0  0  0  0  0  0
   14.4046  -11.6182   20.2918 C   0  0  0  0  0  0
   22.8653  -13.5702   24.0286 C   0  0  0  0  0  0
   24.2346  -13.8006   23.9211 C   0  0  0  0  0  0
   21.0190  -12.7987   19.2350 C   0  0  0  0  0  0
   24.8137  -14.8959   24.5629 C   0  0  0  0  0  0
   24.6533  -16.9476   26.0244 C   0  0  0  0  0  0
   10.9735   -9.6919   24.7573 H   0  0  0  0  0  0
   17.4818  -13.7202   23.1911 H   0  0  0  0  0  0
   12.5786   -8.9862   21.7106 H   0  0  0  0  0  0
   12.1297   -9.9496   20.3224 H   0  0  0  0  0  0
   11.7331  -13.1501   21.9775 H   0  0  0  0  0  0
   11.6156  -12.2616   20.4847 H   0  0  0  0  0  0
   22.0323  -16.1851   26.0313 H   0  0  0  0  0  0
   10.2036  -11.7217   24.7190 H   0  0  0  0  0  0
   10.7627  -12.7761   23.5068 H   0  0  0  0  0  0
   21.3707  -14.2850   21.5015 H   0  0  0  0  0  0
   18.4678  -11.9070   19.4290 H   0  0  0  0  0  0
   15.9904  -12.7776   19.3824 H   0  0  0  0  0  0
   16.3874  -11.0801   19.5992 H   0  0  0  0  0  0
   14.1691  -12.9247   22.0295 H   0  0  0  0  0  0
   13.7183  -13.6736   20.5485 H   0  0  0  0  0  0
   14.6172   -9.4522   20.3682 H   0  0  0  0  0  0
   14.7201  -10.1873   21.9112 H   0  0  0  0  0  0
   13.9124  -11.5537   19.3211 H   0  0  0  0  0  0
   22.4226  -12.7260   23.5197 H   0  0  0  0  0  0
   24.8429  -13.1263   23.3403 H   0  0  0  0  0  0
   22.0161  -12.6503   19.6503 H   0  0  0  0  0  0
   21.0527  -13.6393   18.5389 H   0  0  0  0  0  0
   20.7756  -11.8885   18.6825 H   0  0  0  0  0  0
   25.8803  -15.0638   24.4775 H   0  0  0  0  0  0
   25.4503  -17.3721   25.4111 H   0  0  0  0  0  0
   25.0793  -16.6487   26.9825 H   0  0  0  0  0  0
   23.9257  -17.7433   26.1926 H   0  0  0  0  0  0
  1  4  1  0  0  0
  1  5  1  0  0  0
  1  7  2  0  0  0
  1  8  2  0  0  0
  2  3  1  0  0  0
  2  9  2  0  0  0
  2 15  1  0  0  0
  3 11  1  0  0  0
  3 12  1  0  0  0
  4  6  1  0  0  0
  5 14  1  0  0  0
  5 25  2  0  0  0
  6 10  2  0  0  0
  6 17  1  0  0  0
  9 30  1  0  0  0
 10 13  1  0  0  0
 10 31  1  0  0  0
 11 23  1  0  0  0
 11 32  1  0  0  0
 11 33  1  0  0  0
 12 22  1  0  0  0
 12 34  1  0  0  0
 12 35  1  0  0  0
 13 18  1  0  0  0
 13 19  2  0  0  0
 14 20  2  0  0  0
 14 36  1  0  0  0
 15 37  1  0  0  0
 15 38  1  0  0  0
 16 17  2  0  0  0
 16 19  1  0  0  0
 16 27  1  0  0  0
 17 39  1  0  0  0
 18 21  1  0  0  0
 19 40  1  0  0  0
 20 29  1  0  0  0
 20 28  1  0  0  0
 21 24  1  0  0  0
 21 41  1  0  0  0
 21 42  1  0  0  0
 22 24  1  0  0  0
 22 43  1  0  0  0
 22 44  1  0  0  0
 23 24  1  0  0  0
 23 45  1  0  0  0
 23 46  1  0  0  0
 24 47  1  0  0  0
 25 26  1  0  0  0
 25 48  1  0  0  0
 26 28  2  0  0  0
 26 49  1  0  0  0
 27 50  1  0  0  0
 27 51  1  0  0  0
 27 52  1  0  0  0
 28 53  1  0  0  0
 29 54  1  0  0  0
 29 55  1  0  0  0
 29 56  1  0  0  0
M  END
> <s_m_entry_id>
35369

> <s_m_entry_name>
dock_pv.219

> <s_m_Source_Path>
/home/csk/Desktop/cluster/DUD-E-result/thrb

> <s_m_Source_File>
dock_pv.maegz

> <i_m_Source_File_Index>
219

> <chembl_id>
CHEMBL166437

> <chembl_pref_name>
None

> <i_lp_mmshare_version>
53161

> <r_lp_tautomer_probability>
1

> <s_lp_Force_Field>
OPLS_2005

> <r_lp_Energy>
22.475318

> <b_lp_Chiralities_Consistent>
1

> <s_lp_Variant>
CHEMBL204_lig3526-1

> <s_i_glide_gridfile>
glide-grid_1ype

> <i_i_glide_lignum>
4913

> <i_i_glide_rotatable_bonds>
7

> <r_i_docking_score>
-7.27066153834037

> <r_i_glide_ligand_efficiency>
-0.250712466839323

> <r_i_glide_ligand_efficiency_sa>
-0.770268129415083

> <r_i_glide_ligand_efficiency_ln>
-1.66479712421104

> <r_i_glide_gscore>
-7.27066153834037

> <r_i_glide_lipo>
-3.23873190896539

> <r_i_glide_hbond>
-0.395881633191752

> <r_i_glide_metal>
0

> <r_i_glide_rewards>
-1.1894376672655

> <r_i_glide_evdw>
-45.6100807189941

> <r_i_glide_ecoul>
-5.16257858276367

> <r_i_glide_erotb>
0.680311305469657

> <r_i_glide_esite>
-0.0720308110231209

> <r_i_glide_emodel>
-70.5622368949089

> <r_i_glide_energy>
-50.7726593017578

> <r_i_glide_einternal>
4.3255033493042

> <i_i_glide_confnum>
27

> <i_i_glide_posenum>
377

> <r_i_glide_eff_state_penalty>
0

> <s_user_duplicate_titles>
CHEMBL204_lig3526,279000

> <i_f3d_flags>
0

> <s_m_subgroup_title>
dock_pv

> <s_m_subgroupid>
dock_pv

> <b_m_subgroup_collapsed>
1

$$$$
CHEMBL204_lig3308
                    3D
 Schrodinger Suite 2021-1.
 71 74  0  0  1  0            999 V2000
   15.4667  -11.6723   20.4007 C   0  0  2  0  0  0
   15.1260  -12.9574   21.2134 C   0  0  0  0  0  0
   14.2640  -13.9212   20.7794 N   0  0  0  0  0  0
   13.4026   -9.8820   21.0795 S   0  0  0  0  0  0
   14.2244  -10.9758   19.9684 N   0  0  2  0  0  0
   14.2068  -15.2754   21.3823 C   0  0  2  0  0  0
   16.5304  -11.7570   19.2394 C   0  0  0  0  0  0
   15.5561  -16.0260   21.4788 C   0  0  0  0  0  0
   21.2753  -13.4713   25.5236 C   0  0  0  0  0  0
   16.0153  -16.2529   22.7202 N   0  0  0  0  0  0
   14.4144   -9.0530   21.7326 O   0  0  0  0  0  0
   12.3014   -9.2729   20.3360 O   0  0  0  0  0  0
   15.6584  -13.0538   22.3205 O   0  0  0  0  0  0
   20.2399  -14.3590   24.9106 C   0  0  0  0  0  0
   22.4687  -13.4910   25.1183 N   0  0  0  0  0  0
   12.7171  -10.9453   22.2796 N   0  0  0  0  0  0
   16.1320  -16.3856   20.4511 O   0  0  0  0  0  0
   16.0641  -12.4675   17.9583 C   0  0  0  0  0  0
   17.9865  -12.1549   19.5894 C   0  0  0  0  0  0
   20.5569  -15.1622   23.7979 C   0  0  0  0  0  0
   18.9230  -14.4327   25.4032 C   0  0  0  0  0  0
   20.8186  -12.6534   26.5290 N   0  0  0  0  0  0
   13.1776  -13.7644   19.7995 C   0  0  0  0  0  0
   17.2633  -16.9411   23.0505 C   0  0  0  0  0  0
   18.3047  -16.0315   23.6987 C   0  0  0  0  0  0
   19.6035  -15.9780   23.1942 C   0  0  0  0  0  0
   17.9716  -15.2566   24.8098 C   0  0  0  0  0  0
   13.2022  -16.0318   20.4960 C   0  0  0  0  0  0
   12.2532  -14.9516   20.0278 C   0  0  0  0  0  0
   18.9224  -12.2697   18.5462 C   0  0  0  0  0  0
   15.8332  -11.7261   16.7922 C   0  0  0  0  0  0
   16.0179  -13.8648   17.9095 C   0  0  0  0  0  0
   18.4188  -12.4075   20.8968 C   0  0  0  0  0  0
   15.6157  -12.3814   15.5833 C   0  0  0  0  0  0
   15.7707  -14.5203   16.7067 C   0  0  0  0  0  0
   19.7171  -12.8427   21.1378 C   0  0  0  0  0  0
   20.2360  -12.6573   18.7913 C   0  0  0  0  0  0
   15.5941  -13.7750   15.5454 C   0  0  0  0  0  0
   20.6214  -12.9638   20.0900 C   0  0  0  0  0  0
   15.9335  -10.9942   21.1189 H   0  0  0  0  0  0
   13.5747  -11.6050   19.4909 H   0  0  0  0  0  0
   13.7672  -15.1637   22.3743 H   0  0  0  0  0  0
   16.6679  -10.7093   18.9586 H   0  0  0  0  0  0
   15.5160  -15.8129   23.4869 H   0  0  0  0  0  0
   23.0508  -12.8445   25.6254 H   0  0  0  0  0  0
   11.8888  -11.4845   22.0163 H   0  0  0  0  0  0
   13.3697  -11.3956   22.9267 H   0  0  0  0  0  0
   21.5533  -15.1505   23.3762 H   0  0  0  0  0  0
   18.6140  -13.8551   26.2618 H   0  0  0  0  0  0
   21.4285  -11.9617   26.9389 H   0  0  0  0  0  0
   19.8334  -12.5852   26.7302 H   0  0  0  0  0  0
   12.5924  -12.8564   19.9347 H   0  0  0  0  0  0
   13.5667  -13.7795   18.7836 H   0  0  0  0  0  0
   17.0222  -17.7362   23.7572 H   0  0  0  0  0  0
   17.6948  -17.4354   22.1769 H   0  0  0  0  0  0
   19.8822  -16.5674   22.3325 H   0  0  0  0  0  0
   16.9712  -15.2885   25.2184 H   0  0  0  0  0  0
   12.6854  -16.8287   21.0314 H   0  0  0  0  0  0
   13.6926  -16.4782   19.6300 H   0  0  0  0  0  0
   11.5605  -14.7203   20.8374 H   0  0  0  0  0  0
   11.6698  -15.2276   19.1479 H   0  0  0  0  0  0
   18.6332  -12.0642   17.5262 H   0  0  0  0  0  0
   15.8719  -10.6471   16.8110 H   0  0  0  0  0  0
   16.2175  -14.4484   18.7953 H   0  0  0  0  0  0
   17.7821  -12.2754   21.7515 H   0  0  0  0  0  0
   15.4583  -11.8153   14.6763 H   0  0  0  0  0  0
   15.7418  -15.6011   16.6707 H   0  0  0  0  0  0
   20.0304  -13.0557   22.1478 H   0  0  0  0  0  0
   20.9423  -12.7572   17.9802 H   0  0  0  0  0  0
   15.4092  -14.2850   14.6076 H   0  0  0  0  0  0
   21.6276  -13.2954   20.2923 H   0  0  0  0  0  0
  1  2  1  0  0  0
  1  5  1  0  0  0
  1  7  1  0  0  0
  1 40  1  0  0  0
  2  3  1  0  0  0
  2 13  2  0  0  0
  3  6  1  0  0  0
  3 23  1  0  0  0
  4  5  1  0  0  0
  4 11  2  0  0  0
  4 12  2  0  0  0
  4 16  1  0  0  0
  5 41  1  0  0  0
  6  8  1  0  0  0
  6 28  1  0  0  0
  6 42  1  0  0  0
  7 18  1  0  0  0
  7 19  1  0  0  0
  7 43  1  0  0  0
  8 10  1  0  0  0
  8 17  2  0  0  0
  9 14  1  0  0  0
  9 15  2  0  0  0
  9 22  1  0  0  0
 10 24  1  0  0  0
 10 44  1  0  0  0
 14 20  2  0  0  0
 14 21  1  0  0  0
 15 45  1  0  0  0
 16 46  1  0  0  0
 16 47  1  0  0  0
 18 31  2  0  0  0
 18 32  1  0  0  0
 19 30  1  0  0  0
 19 33  2  0  0  0
 20 26  1  0  0  0
 20 48  1  0  0  0
 21 27  2  0  0  0
 21 49  1  0  0  0
 22 50  1  0  0  0
 22 51  1  0  0  0
 23 29  1  0  0  0
 23 52  1  0  0  0
 23 53  1  0  0  0
 24 25  1  0  0  0
 24 54  1  0  0  0
 24 55  1  0  0  0
 25 26  2  0  0  0
 25 27  1  0  0  0
 26 56  1  0  0  0
 27 57  1  0  0  0
 28 29  1  0  0  0
 28 58  1  0  0  0
 28 59  1  0  0  0
 29 60  1  0  0  0
 29 61  1  0  0  0
 30 37  2  0  0  0
 30 62  1  0  0  0
 31 34  1  0  0  0
 31 63  1  0  0  0
 32 35  2  0  0  0
 32 64  1  0  0  0
 33 36  1  0  0  0
 33 65  1  0  0  0
 34 38  2  0  0  0
 34 66  1  0  0  0
 35 38  1  0  0  0
 35 67  1  0  0  0
 36 39  2  0  0  0
 36 68  1  0  0  0
 37 39  1  0  0  0
 37 69  1  0  0  0
 38 70  1  0  0  0
 39 71  1  0  0  0
M  END
> <s_m_entry_id>
35370

> <s_m_entry_name>
dock_pv.220

> <s_m_Source_Path>
/home/csk/Desktop/cluster/DUD-E-result/thrb

> <s_m_Source_File>
dock_pv.maegz

> <i_m_Source_File_Index>
220

> <chembl_id>
CHEMBL331771

> <chembl_pref_name>
None

> <i_lp_mmshare_version>
53161

> <r_lp_tautomer_probability>
1

> <s_lp_Force_Field>
OPLS_2005

> <r_lp_Energy>
21.437049

> <b_lp_Chiralities_Consistent>
1

> <s_lp_Variant>
CHEMBL204_lig3308-1

> <s_i_glide_gridfile>
glide-grid_1ype

> <i_i_glide_lignum>
4640

> <i_i_glide_rotatable_bonds>
12

> <r_i_docking_score>
-7.26770089308315

> <r_i_glide_ligand_efficiency>
-0.18635130495085

> <r_i_glide_ligand_efficiency_sa>
-0.631956676998208

> <r_i_glide_ligand_efficiency_ln>
-1.55840137743536

> <r_i_glide_gscore>
-7.26770089308315

> <r_i_glide_lipo>
-2.46810470131676

> <r_i_glide_hbond>
-0.730858214595398

> <r_i_glide_metal>
0

> <r_i_glide_rewards>
-0.966213018115375

> <r_i_glide_evdw>
-53.9784126281738

> <r_i_glide_ecoul>
-7.05993700027466

> <r_i_glide_erotb>
0.688413454063161

> <r_i_glide_esite>
-0.0330272316688878

> <r_i_glide_emodel>
-83.7710585519823

> <r_i_glide_energy>
-61.0383496284485

> <r_i_glide_einternal>
7.50830173492432

> <i_i_glide_confnum>
59

> <i_i_glide_posenum>
297

> <r_i_glide_eff_state_penalty>
0

> <s_user_duplicate_titles>
CHEMBL204_lig3308,641226

> <i_f3d_flags>
0

> <s_m_subgroup_title>
dock_pv

> <s_m_subgroupid>
dock_pv

> <b_m_subgroup_collapsed>
1

$$$$
CHEMBL204_lig3551
                    3D
 Schrodinger Suite 2021-1.
 58 61  0  0  1  0            999 V2000
   16.6648  -12.1088   17.3909 S   0  0  0  0  0  0
   19.7400  -13.2569   21.1254 N   0  0  0  0  0  0
   19.8280  -12.4758   20.0208 C   0  0  0  0  0  0
   18.3918  -12.0591   19.6655 C   0  0  1  0  0  0
   18.0345  -12.6574   18.3533 N   0  0  1  0  0  0
   15.2174  -12.4101   18.4049 C   0  0  0  0  0  0
   18.7077  -15.8659   25.8340 C   0  0  0  0  0  0
   13.8145  -11.7223   20.2863 C   0  0  0  0  0  0
   17.5441  -12.4733   20.8559 C   0  0  0  0  0  0
   14.8894  -11.4931   19.3996 C   0  0  0  0  0  0
   16.8158  -10.6610   17.2227 O   0  0  0  0  0  0
   16.5694  -12.9859   16.2208 O   0  0  0  0  0  0
   20.8827  -14.0377   21.6306 C   0  0  0  0  0  0
   19.8143  -15.1205   25.1666 C   0  0  0  0  0  0
   18.3765  -13.4779   21.5993 C   0  0  0  0  0  0
   18.7932  -16.2170   27.0387 N   0  0  0  0  0  0
   20.8308  -12.1969   19.3642 O   0  0  0  0  0  0
   19.9036  -15.0023   23.7667 C   0  0  0  0  0  0
   13.0656  -12.9268   20.1499 C   0  0  0  0  0  0
   13.4763  -10.8013   21.3126 C   0  0  0  0  0  0
   20.8919  -14.2300   23.1463 C   0  0  0  0  0  0
   14.4669  -13.5761   18.2603 C   0  0  0  0  0  0
   13.4036  -13.8420   19.1209 C   0  0  0  0  0  0
   12.0162  -13.1788   21.0588 C   0  0  0  0  0  0
   17.6161  -16.1123   25.0372 N   0  0  0  0  0  0
   12.4141  -11.0660   22.1856 C   0  0  0  0  0  0
   11.7001  -12.2529   22.0483 C   0  0  0  0  0  0
   20.8202  -14.4907   25.9213 C   0  0  0  0  0  0
   21.8482  -13.7709   25.3134 C   0  0  0  0  0  0
   21.8820  -13.6376   23.9279 C   0  0  0  0  0  0
   11.9873  -10.1045   23.2960 C   0  0  0  0  0  0
   12.6825   -8.7349   23.3116 C   0  0  0  0  0  0
   18.3778  -10.9812   19.5170 H   0  0  0  0  0  0
   18.3152  -13.6314   18.2172 H   0  0  0  0  0  0
   16.5950  -12.9408   20.6039 H   0  0  0  0  0  0
   17.3339  -11.6033   21.4831 H   0  0  0  0  0  0
   15.5197  -10.6373   19.5453 H   0  0  0  0  0  0
   21.8242  -13.5798   21.3181 H   0  0  0  0  0  0
   20.8706  -15.0240   21.1636 H   0  0  0  0  0  0
   18.0563  -14.4990   21.3790 H   0  0  0  0  0  0
   18.2868  -13.3159   22.6748 H   0  0  0  0  0  0
   17.9664  -16.7006   27.3533 H   0  0  0  0  0  0
   19.1812  -15.4969   23.1349 H   0  0  0  0  0  0
   14.0570   -9.8952   21.4033 H   0  0  0  0  0  0
   14.7167  -14.2939   17.4917 H   0  0  0  0  0  0
   12.8367  -14.7536   19.0108 H   0  0  0  0  0  0
   11.4512  -14.0963   20.9821 H   0  0  0  0  0  0
   16.8024  -16.5607   25.4290 H   0  0  0  0  0  0
   17.5093  -15.6307   24.1596 H   0  0  0  0  0  0
   10.8796  -12.4651   22.7201 H   0  0  0  0  0  0
   20.8049  -14.5406   27.0004 H   0  0  0  0  0  0
   22.6068  -13.2982   25.9194 H   0  0  0  0  0  0
   22.6663  -13.0539   23.4687 H   0  0  0  0  0  0
   10.9122   -9.9378   23.1952 H   0  0  0  0  0  0
   12.1302  -10.5965   24.2581 H   0  0  0  0  0  0
   12.2490   -8.0799   24.0690 H   0  0  0  0  0  0
   13.7469   -8.8149   23.5205 H   0  0  0  0  0  0
   12.5708   -8.2565   22.3423 H   0  0  0  0  0  0
  1  5  1  0  0  0
  1  6  1  0  0  0
  1 11  2  0  0  0
  1 12  2  0  0  0
  2  3  1  0  0  0
  2 13  1  0  0  0
  2 15  1  0  0  0
  3  4  1  0  0  0
  3 17  2  0  0  0
  4  5  1  0  0  0
  4  9  1  0  0  0
  4 33  1  0  0  0
  5 34  1  0  0  0
  6 10  2  0  0  0
  6 22  1  0  0  0
  7 14  1  0  0  0
  7 16  2  0  0  0
  7 25  1  0  0  0
  8 10  1  0  0  0
  8 20  1  0  0  0
  8 19  2  0  0  0
  9 15  1  0  0  0
  9 35  1  0  0  0
  9 36  1  0  0  0
 10 37  1  0  0  0
 13 21  1  0  0  0
 13 38  1  0  0  0
 13 39  1  0  0  0
 14 18  2  0  0  0
 14 28  1  0  0  0
 15 40  1  0  0  0
 15 41  1  0  0  0
 16 42  1  0  0  0
 18 21  1  0  0  0
 18 43  1  0  0  0
 19 23  1  0  0  0
 19 24  1  0  0  0
 20 26  2  0  0  0
 20 44  1  0  0  0
 21 30  2  0  0  0
 22 23  2  0  0  0
 22 45  1  0  0  0
 23 46  1  0  0  0
 24 27  2  0  0  0
 24 47  1  0  0  0
 25 48  1  0  0  0
 25 49  1  0  0  0
 26 31  1  0  0  0
 26 27  1  0  0  0
 27 50  1  0  0  0
 28 29  2  0  0  0
 28 51  1  0  0  0
 29 30  1  0  0  0
 29 52  1  0  0  0
 30 53  1  0  0  0
 31 32  1  0  0  0
 31 54  1  0  0  0
 31 55  1  0  0  0
 32 56  1  0  0  0
 32 57  1  0  0  0
 32 58  1  0  0  0
M  END
> <s_m_entry_id>
35371

> <s_m_entry_name>
dock_pv.221

> <s_m_Source_Path>
/home/csk/Desktop/cluster/DUD-E-result/thrb

> <s_m_Source_File>
dock_pv.maegz

> <i_m_Source_File_Index>
221

> <chembl_id>
CHEMBL118799

> <chembl_pref_name>
None

> <i_lp_mmshare_version>
53161

> <r_lp_tautomer_probability>
1

> <s_lp_Force_Field>
OPLS_2005

> <r_lp_Energy>
14.944065

> <b_lp_Chiralities_Consistent>
1

> <s_lp_Variant>
CHEMBL204_lig3551-1

> <s_i_glide_gridfile>
glide-grid_1ype

> <i_i_glide_lignum>
4951

> <i_i_glide_rotatable_bonds>
7

> <r_i_docking_score>
-7.2641450136437

> <r_i_glide_ligand_efficiency>
-0.227004531676366

> <r_i_glide_ligand_efficiency_sa>
-0.720694463936644

> <r_i_glide_ligand_efficiency_ln>
-1.62664008166931

> <r_i_glide_gscore>
-7.2641450136437

> <r_i_glide_lipo>
-3.62130440389221

> <r_i_glide_hbond>
0

> <r_i_glide_metal>
0

> <r_i_glide_rewards>
-1.070036168577

> <r_i_glide_evdw>
-47.2753219604492

> <r_i_glide_ecoul>
-4.54042911529541

> <r_i_glide_erotb>
0.493842992969331

> <r_i_glide_esite>
-0.0218169688270509

> <r_i_glide_emodel>
-72.8598107639441

> <r_i_glide_energy>
-51.8157510757446

> <r_i_glide_einternal>
5.40567874908447

> <i_i_glide_confnum>
7

> <i_i_glide_posenum>
290

> <r_i_glide_eff_state_penalty>
0

> <s_user_duplicate_titles>
CHEMBL204_lig3551

> <i_f3d_flags>
0

> <s_m_subgroup_title>
dock_pv

> <s_m_subgroupid>
dock_pv

> <b_m_subgroup_collapsed>
1

$$$$
CHEMBL204_lig1781
                    3D
 Schrodinger Suite 2021-1.
 58 62  0  0  1  0            999 V2000
   21.4492  -11.8532   18.5995 C   0  0  0  0  0  0
   20.1597  -11.6324   19.1427 O   0  0  0  0  0  0
   19.8197  -12.3140   20.2913 C   0  0  0  0  0  0
   20.6585  -13.1113   21.0817 C   0  0  0  0  0  0
   20.1902  -13.7822   22.2278 C   0  0  0  0  0  0
   18.8435  -13.6388   22.6223 C   0  0  0  0  0  0
   17.9816  -12.8808   21.8242 C   0  0  0  0  0  0
   16.6357  -12.6520   21.9210 N   0  0  0  0  0  0
   16.4070  -11.8203   20.9261 C   0  0  0  0  0  0
   15.2284  -11.2691   20.5237 N   0  0  0  0  0  0
   13.9063  -11.8601   20.6654 C   0  0  2  0  0  0
   13.2065  -11.8569   19.3022 C   0  0  0  0  0  0
   13.2161  -10.6528   18.7230 F   0  0  0  0  0  0
   13.0451  -11.2240   21.7641 C   0  0  0  0  0  0
   12.0131  -11.9891   22.3192 C   0  0  0  0  0  0
   11.2160  -11.4753   23.3394 C   0  0  0  0  0  0
   11.4290  -10.1872   23.8156 C   0  0  0  0  0  0
   12.4399   -9.4072   23.2614 C   0  0  0  0  0  0
   12.7868   -7.8533   23.9234 Cl  0  0  0  0  0  0
   13.2295   -9.9121   22.2246 C   0  0  0  0  0  0
   17.4801  -11.4934   20.1526 O   0  0  0  0  0  0
   18.4919  -12.2083   20.7089 C   0  0  0  0  0  0
   21.1807  -14.5836   23.0514 C   0  0  0  0  0  0
   22.2984  -14.0882   23.2409 O   0  0  0  0  0  0
   20.8453  -15.8133   23.5502 N   0  0  0  0  0  0
   19.5721  -16.5176   23.2861 C   0  0  0  0  0  0
   18.9241  -16.6166   24.6806 C   0  0  1  0  0  0
   17.8397  -17.6774   24.9572 C   0  0  0  0  0  0
   18.7233  -18.3080   26.0706 C   0  0  0  0  0  0
   19.7976  -17.4610   25.5189 N   0  0  0  0  0  0
   21.1491  -17.4670   25.5211 C   0  0  0  0  0  0
   21.7916  -18.1980   26.2761 O   0  0  0  0  0  0
   21.8037  -16.5283   24.4495 C   0  0  1  0  0  0
   22.8780  -17.3204   23.6951 C   0  0  0  0  0  0
   21.5422  -11.3419   17.6391 H   0  0  0  0  0  0
   22.2193  -11.4611   19.2636 H   0  0  0  0  0  0
   21.6166  -12.9167   18.4215 H   0  0  0  0  0  0
   21.6978  -13.2214   20.8071 H   0  0  0  0  0  0
   18.4602  -14.1013   23.5180 H   0  0  0  0  0  0
   15.2480  -10.5680   19.7988 H   0  0  0  0  0  0
   14.0482  -12.9045   20.9553 H   0  0  0  0  0  0
   12.1702  -12.1847   19.3894 H   0  0  0  0  0  0
   13.7009  -12.5362   18.6068 H   0  0  0  0  0  0
   11.8269  -12.9963   21.9720 H   0  0  0  0  0  0
   10.4232  -12.0783   23.7626 H   0  0  0  0  0  0
   10.8154   -9.8063   24.6208 H   0  0  0  0  0  0
   14.0144   -9.2921   21.8166 H   0  0  0  0  0  0
   19.8013  -17.5116   22.8949 H   0  0  0  0  0  0
   18.9299  -16.0647   22.5325 H   0  0  0  0  0  0
   18.7439  -15.6307   25.1181 H   0  0  0  0  0  0
   17.6636  -18.3094   24.0851 H   0  0  0  0  0  0
   16.9342  -17.1869   25.3157 H   0  0  0  0  0  0
   18.9639  -19.3491   25.8591 H   0  0  0  0  0  0
   18.5359  -18.0454   27.1120 H   0  0  0  0  0  0
   22.3375  -15.7944   25.0575 H   0  0  0  0  0  0
   23.6073  -17.7550   24.3798 H   0  0  0  0  0  0
   22.4232  -18.1205   23.1100 H   0  0  0  0  0  0
   23.4153  -16.6583   23.0160 H   0  0  0  0  0  0
  1  2  1  0  0  0
  1 35  1  0  0  0
  1 36  1  0  0  0
  1 37  1  0  0  0
  2  3  1  0  0  0
  3  4  2  0  0  0
  3 22  1  0  0  0
  4  5  1  0  0  0
  4 38  1  0  0  0
  5  6  2  0  0  0
  5 23  1  0  0  0
  6  7  1  0  0  0
  6 39  1  0  0  0
  7  8  1  0  0  0
  7 22  2  0  0  0
  8  9  2  0  0  0
  9 10  1  0  0  0
  9 21  1  0  0  0
 10 11  1  0  0  0
 10 40  1  0  0  0
 11 12  1  0  0  0
 11 14  1  0  0  0
 11 41  1  0  0  0
 12 13  1  0  0  0
 12 42  1  0  0  0
 12 43  1  0  0  0
 14 15  2  0  0  0
 14 20  1  0  0  0
 15 16  1  0  0  0
 15 44  1  0  0  0
 16 17  2  0  0  0
 16 45  1  0  0  0
 17 18  1  0  0  0
 17 46  1  0  0  0
 18 19  1  0  0  0
 18 20  2  0  0  0
 20 47  1  0  0  0
 21 22  1  0  0  0
 23 24  2  0  0  0
 23 25  1  0  0  0
 25 26  1  0  0  0
 25 33  1  0  0  0
 26 27  1  0  0  0
 26 48  1  0  0  0
 26 49  1  0  0  0
 27 28  1  0  0  0
 27 30  1  0  0  0
 27 50  1  0  0  0
 28 29  1  0  0  0
 28 51  1  0  0  0
 28 52  1  0  0  0
 29 30  1  0  0  0
 29 53  1  0  0  0
 29 54  1  0  0  0
 30 31  1  0  0  0
 31 32  2  0  0  0
 31 33  1  0  0  0
 33 34  1  0  0  0
 33 55  1  0  0  0
 34 56  1  0  0  0
 34 57  1  0  0  0
 34 58  1  0  0  0
M  END
> <s_m_entry_id>
35372

> <s_m_entry_name>
dock_pv.222

> <s_m_Source_Path>
/home/csk/Desktop/cluster/DUD-E-result/thrb

> <s_m_Source_File>
dock_pv.maegz

> <i_m_Source_File_Index>
222

> <chembl_id>
CHEMBL3948587

> <chembl_pref_name>
None

> <i_lp_mmshare_version>
53161

> <r_lp_tautomer_probability>
1

> <s_lp_Force_Field>
OPLS_2005

> <r_lp_Energy>
49.477186

> <b_lp_Chiralities_Consistent>
1

> <s_lp_Variant>
CHEMBL204_lig1781-3

> <s_i_glide_gridfile>
glide-grid_1ype

> <i_i_glide_lignum>
2659

> <i_i_glide_rotatable_bonds>
7

> <r_i_docking_score>
-7.25942788599042

> <r_i_glide_ligand_efficiency>
-0.213512584882071

> <r_i_glide_ligand_efficiency_sa>
-0.691697888892159

> <r_i_glide_ligand_efficiency_ln>
-1.60381124007041

> <r_i_glide_gscore>
-7.25942788599042

> <r_i_glide_lipo>
-3.34571561190911

> <r_i_glide_hbond>
-0.0743597238635648

> <r_i_glide_metal>
0

> <r_i_glide_rewards>
-1.1840167497018

> <r_i_glide_evdw>
-43.8570022583008

> <r_i_glide_ecoul>
-5.56230354309082

> <r_i_glide_erotb>
0.42864216955745

> <r_i_glide_esite>
-0.0567823256947343

> <r_i_glide_emodel>
-65.3211987068767

> <r_i_glide_energy>
-49.4193058013916

> <r_i_glide_einternal>
9.84442043304443

> <i_i_glide_confnum>
76

> <i_i_glide_posenum>
315

> <r_i_glide_eff_state_penalty>
0

> <s_user_duplicate_titles>
CHEMBL204_lig1781

> <i_f3d_flags>
0

> <s_m_subgroup_title>
dock_pv

> <s_m_subgroupid>
dock_pv

> <b_m_subgroup_collapsed>
1

$$$$
CHEMBL204_lig4506
                    3D
 Schrodinger Suite 2021-1.
 57 59  0  0  1  0            999 V2000
   20.6816  -13.4529   22.0925 C   0  0  0  0  0  0
   19.4210  -13.7259   22.6325 C   0  0  0  0  0  0
   18.3123  -13.7861   21.7781 C   0  0  0  0  0  0
   18.4433  -13.5018   20.4097 C   0  0  0  0  0  0
   19.7042  -13.1400   19.9040 C   0  0  0  0  0  0
   20.8163  -13.1476   20.7405 C   0  0  0  0  0  0
   19.9358  -12.6527   18.2607 Cl  0  0  0  0  0  0
   17.0889  -14.0854   22.2833 F   0  0  0  0  0  0
   17.2174  -13.6295   19.5013 C   0  0  0  0  0  0
   16.3351  -12.3779   19.4701 C   0  0  0  0  0  0
   15.0531  -12.5541   19.8271 N   0  0  0  0  0  0
   16.7969  -11.3049   19.0826 O   0  0  0  0  0  0
   13.9755  -11.5802   19.6741 C   0  0  0  0  0  0
   19.2104  -13.8560   24.0141 N   0  0  0  0  0  0
   20.0163  -13.1215   24.9898 C   0  0  0  0  0  0
   20.9717  -13.9683   25.8570 C   0  0  0  0  0  0
   22.2643  -14.3737   25.1366 C   0  0  0  0  0  0
   21.3114  -13.2474   26.9262 F   0  0  0  0  0  0
   20.3413  -15.0510   26.3208 F   0  0  0  0  0  0
   23.3126  -13.4537   25.0143 C   0  0  0  0  0  0
   24.5063  -13.8198   24.3998 C   0  0  0  0  0  0
   24.6643  -15.1160   23.9211 C   0  0  0  0  0  0
   23.6221  -16.0357   24.0142 C   0  0  0  0  0  0
   22.4218  -15.6645   24.6149 C   0  0  0  0  0  0
   13.1930  -11.3039   20.9605 C   0  0  0  0  0  0
   13.3344  -10.0891   21.6566 C   0  0  0  0  0  0
   12.5596   -9.7466   22.7189 N   0  0  0  0  0  0
   11.6161  -10.6232   23.1306 C   0  0  0  0  0  0
   11.4233  -11.8542   22.5180 C   0  0  0  0  0  0
   12.2202  -12.2085   21.4256 C   0  0  0  0  0  0
   14.3699   -9.0528   21.2691 C   0  0  0  0  0  0
   10.8163  -10.2537   24.2076 N   0  0  0  0  0  0
   12.0146  -13.5674   20.7740 C   0  0  0  0  0  0
   21.5569  -13.4146   22.7208 H   0  0  0  0  0  0
   21.7889  -12.8892   20.3473 H   0  0  0  0  0  0
   16.6390  -14.5015   19.8123 H   0  0  0  0  0  0
   17.5106  -13.8529   18.4774 H   0  0  0  0  0  0
   14.7772  -13.4619   20.1683 H   0  0  0  0  0  0
   13.2870  -11.9681   18.9224 H   0  0  0  0  0  0
   14.3332  -10.6532   19.2336 H   0  0  0  0  0  0
   18.3251  -14.2320   24.3303 H   0  0  0  0  0  0
   20.5400  -12.2833   24.5292 H   0  0  0  0  0  0
   19.2985  -12.6545   25.6644 H   0  0  0  0  0  0
   23.2161  -12.4578   25.4184 H   0  0  0  0  0  0
   25.3177  -13.1112   24.3214 H   0  0  0  0  0  0
   25.6037  -15.4060   23.4728 H   0  0  0  0  0  0
   23.7472  -17.0375   23.6295 H   0  0  0  0  0  0
   21.6233  -16.3879   24.6899 H   0  0  0  0  0  0
   10.6535  -12.5197   22.8793 H   0  0  0  0  0  0
   15.3470   -9.5118   21.1209 H   0  0  0  0  0  0
   14.4830   -8.2805   22.0310 H   0  0  0  0  0  0
   14.0576   -8.5793   20.3401 H   0  0  0  0  0  0
    9.9777  -10.7825   24.4305 H   0  0  0  0  0  0
   10.9286   -9.3301   24.5920 H   0  0  0  0  0  0
   12.9636  -14.0750   20.6117 H   0  0  0  0  0  0
   11.4230  -14.2271   21.4078 H   0  0  0  0  0  0
   11.5166  -13.4608   19.8103 H   0  0  0  0  0  0
  1  6  1  0  0  0
  1  2  2  0  0  0
  1 34  1  0  0  0
  2  3  1  0  0  0
  2 14  1  0  0  0
  3  8  1  0  0  0
  3  4  2  0  0  0
  4  9  1  0  0  0
  4  5  1  0  0  0
  5  6  2  0  0  0
  5  7  1  0  0  0
  6 35  1  0  0  0
  9 10  1  0  0  0
  9 36  1  0  0  0
  9 37  1  0  0  0
 10 11  1  0  0  0
 10 12  2  0  0  0
 11 13  1  0  0  0
 11 38  1  0  0  0
 13 25  1  0  0  0
 13 39  1  0  0  0
 13 40  1  0  0  0
 14 15  1  0  0  0
 14 41  1  0  0  0
 15 16  1  0  0  0
 15 42  1  0  0  0
 15 43  1  0  0  0
 16 17  1  0  0  0
 16 18  1  0  0  0
 16 19  1  0  0  0
 17 20  2  0  0  0
 17 24  1  0  0  0
 20 21  1  0  0  0
 20 44  1  0  0  0
 21 22  2  0  0  0
 21 45  1  0  0  0
 22 23  1  0  0  0
 22 46  1  0  0  0
 23 24  2  0  0  0
 23 47  1  0  0  0
 24 48  1  0  0  0
 25 26  2  0  0  0
 25 30  1  0  0  0
 26 27  1  0  0  0
 26 31  1  0  0  0
 27 28  2  0  0  0
 28 29  1  0  0  0
 28 32  1  0  0  0
 29 30  2  0  0  0
 29 49  1  0  0  0
 30 33  1  0  0  0
 31 50  1  0  0  0
 31 51  1  0  0  0
 31 52  1  0  0  0
 32 53  1  0  0  0
 32 54  1  0  0  0
 33 55  1  0  0  0
 33 56  1  0  0  0
 33 57  1  0  0  0
M  END
> <s_m_entry_id>
35373

> <s_m_entry_name>
dock_pv.223

> <s_m_Source_Path>
/home/csk/Desktop/cluster/DUD-E-result/thrb

> <s_m_Source_File>
dock_pv.maegz

> <i_m_Source_File_Index>
223

> <chembl_id>
CHEMBL250465

> <chembl_pref_name>
None

> <i_lp_mmshare_version>
53161

> <r_lp_tautomer_probability>
0.999999772200052

> <s_lp_Force_Field>
OPLS_2005

> <r_lp_Energy>
16.147093

> <b_lp_Chiralities_Consistent>
1

> <s_lp_Variant>
CHEMBL204_lig4506-1

> <s_i_glide_gridfile>
glide-grid_1ype

> <i_i_glide_lignum>
6173

> <i_i_glide_rotatable_bonds>
9

> <r_i_docking_score>
-7.25642491422563

> <r_i_glide_ligand_efficiency>
-0.219891664067443

> <r_i_glide_ligand_efficiency_sa>
-0.705310060554193

> <r_i_glide_ligand_efficiency_ln>
-1.61379132916637

> <r_i_glide_gscore>
-7.25642491422563

> <r_i_glide_lipo>
-4.04395802064785

> <r_i_glide_hbond>
-0.0649177039433851

> <r_i_glide_metal>
0

> <r_i_glide_rewards>
-0.910470974321643

> <r_i_glide_evdw>
-50.069896697998

> <r_i_glide_ecoul>
-2.56302690505981

> <r_i_glide_erotb>
0.712348473025904

> <r_i_glide_esite>
-0.0614778176797789

> <r_i_glide_emodel>
-70.2371489931459

> <r_i_glide_energy>
-52.6329236030579

> <r_i_glide_einternal>
12.0881519317627

> <i_i_glide_confnum>
15

> <i_i_glide_posenum>
51

> <r_i_glide_eff_state_penalty>
0

> <s_user_duplicate_titles>
CHEMBL204_lig4506,416179

> <i_f3d_flags>
0

> <s_m_subgroup_title>
dock_pv

> <s_m_subgroupid>
dock_pv

> <b_m_subgroup_collapsed>
1

$$$$
CHEMBL204_lig4218
                    3D
 Schrodinger Suite 2021-1.
 52 54  0  0  1  0            999 V2000
   18.8698  -13.5132   21.0213 N   0  0  0  0  0  0
   17.5199  -13.8322   20.9513 C   0  0  0  0  0  0
   16.6936  -12.9329   20.0845 C   0  0  0  0  0  0
   15.3564  -13.3107   20.0151 N   0  0  0  0  0  0
   14.8796  -14.3936   20.7595 C   0  0  0  0  0  0
   15.7372  -15.1225   21.5213 C   0  0  0  0  0  0
   17.0768  -14.8610   21.5929 N   0  0  0  0  0  0
   17.1652  -11.9585   19.4794 O   0  0  0  0  0  0
   13.3836  -14.6877   20.7289 C   0  0  0  0  0  0
   14.4960  -12.4968   19.1225 C   0  0  0  0  0  0
   13.8931  -11.2570   19.8079 C   0  0  0  0  0  0
   14.1208  -11.0178   21.1100 N   0  0  0  0  0  0
   13.2160  -10.5023   19.1191 O   0  0  0  0  0  0
   13.5551   -9.8879   21.8493 C   0  0  0  0  0  0
   12.4163  -10.2864   22.7762 C   0  0  0  0  0  0
   11.9137   -9.5456   23.8460 C   0  0  0  0  0  0
   10.8739  -10.3028   24.3209 N   0  0  0  0  0  0
   10.8580  -11.4508   23.5813 C   0  0  0  0  0  0
   11.7658  -11.4401   22.6411 N   0  0  0  0  0  0
   19.9193  -14.4097   21.4941 C   0  0  0  0  0  0
   21.1756  -13.6558   21.9631 C   0  0  0  0  0  0
   21.3280  -13.5621   23.4789 C   0  0  0  0  0  0
   20.2639  -13.1240   24.2724 C   0  0  0  0  0  0
   20.4121  -13.0530   25.6549 C   0  0  0  0  0  0
   21.6164  -13.4243   26.2428 C   0  0  0  0  0  0
   22.6856  -13.8514   25.4603 C   0  0  0  0  0  0
   22.5426  -13.9147   24.0768 C   0  0  0  0  0  0
   12.3198   -8.2108   24.4379 C   0  0  0  0  0  0
   19.1787  -12.7428   20.4445 H   0  0  0  0  0  0
   15.3734  -15.9481   22.1185 H   0  0  0  0  0  0
   13.1175  -15.4884   21.4213 H   0  0  0  0  0  0
   12.8041  -13.8114   21.0198 H   0  0  0  0  0  0
   13.0688  -15.0006   19.7335 H   0  0  0  0  0  0
   13.6992  -13.1089   18.7041 H   0  0  0  0  0  0
   15.0591  -12.1699   18.2480 H   0  0  0  0  0  0
   14.6738  -11.6781   21.6347 H   0  0  0  0  0  0
   13.2379   -9.0753   21.1923 H   0  0  0  0  0  0
   14.3660   -9.4521   22.4308 H   0  0  0  0  0  0
   10.1105  -12.2107   23.7674 H   0  0  0  0  0  0
   10.2167  -10.0614   25.0592 H   0  0  0  0  0  0
   19.5474  -15.0469   22.2999 H   0  0  0  0  0  0
   20.1757  -15.0816   20.6725 H   0  0  0  0  0  0
   22.0159  -14.2154   21.5716 H   0  0  0  0  0  0
   21.2479  -12.6590   21.5207 H   0  0  0  0  0  0
   19.3253  -12.8412   23.8173 H   0  0  0  0  0  0
   19.5983  -12.7095   26.2747 H   0  0  0  0  0  0
   21.7227  -13.3700   27.3152 H   0  0  0  0  0  0
   23.6199  -14.1300   25.9259 H   0  0  0  0  0  0
   23.3753  -14.2481   23.4762 H   0  0  0  0  0  0
   11.6156   -7.4139   24.2165 H   0  0  0  0  0  0
   12.4156   -8.2536   25.5208 H   0  0  0  0  0  0
   13.2889   -7.8820   24.0636 H   0  0  0  0  0  0
  1  2  1  0  0  0
  1 20  1  0  0  0
  1 29  1  0  0  0
  2  3  1  0  0  0
  2  7  2  0  0  0
  3  8  2  0  0  0
  3  4  1  0  0  0
  4 10  1  0  0  0
  4  5  1  0  0  0
  5  9  1  0  0  0
  5  6  2  0  0  0
  6  7  1  0  0  0
  6 30  1  0  0  0
  9 31  1  0  0  0
  9 32  1  0  0  0
  9 33  1  0  0  0
 10 11  1  0  0  0
 10 34  1  0  0  0
 10 35  1  0  0  0
 11 12  1  0  0  0
 11 13  2  0  0  0
 12 14  1  0  0  0
 12 36  1  0  0  0
 14 37  1  0  0  0
 14 38  1  0  0  0
 14 15  1  0  0  0
 15 16  2  0  0  0
 15 19  1  0  0  0
 16 28  1  0  0  0
 16 17  1  0  0  0
 17 40  1  0  0  0
 17 18  1  0  0  0
 18 39  1  0  0  0
 18 19  2  0  0  0
 20 21  1  0  0  0
 20 41  1  0  0  0
 20 42  1  0  0  0
 21 22  1  0  0  0
 21 43  1  0  0  0
 21 44  1  0  0  0
 22 23  2  0  0  0
 22 27  1  0  0  0
 23 24  1  0  0  0
 23 45  1  0  0  0
 24 25  2  0  0  0
 24 46  1  0  0  0
 25 26  1  0  0  0
 25 47  1  0  0  0
 26 27  2  0  0  0
 26 48  1  0  0  0
 27 49  1  0  0  0
 28 50  1  0  0  0
 28 51  1  0  0  0
 28 52  1  0  0  0
M  END
> <s_m_entry_id>
35374

> <s_m_entry_name>
dock_pv.224

> <s_m_Source_Path>
/home/csk/Desktop/cluster/DUD-E-result/thrb

> <s_m_Source_File>
dock_pv.maegz

> <i_m_Source_File_Index>
224

> <chembl_id>
CHEMBL200959

> <chembl_pref_name>
None

> <i_lp_mmshare_version>
53161

> <r_lp_tautomer_probability>
0.499999999999999

> <s_lp_Force_Field>
OPLS_2005

> <r_lp_Energy>
19.10382

> <b_lp_Chiralities_Consistent>
1

> <s_lp_Variant>
CHEMBL204_lig4218-2

> <s_i_glide_gridfile>
glide-grid_1ype

> <i_i_glide_lignum>
5857

> <i_i_glide_rotatable_bonds>
9

> <r_i_docking_score>
-7.25621968120297

> <r_i_glide_ligand_efficiency>
-0.259150702900106

> <r_i_glide_ligand_efficiency_sa>
-0.786934165606213

> <r_i_glide_ligand_efficiency_ln>
-1.67494855428917

> <r_i_glide_gscore>
-7.25621968120297

> <r_i_glide_lipo>
-3.46175604456548

> <r_i_glide_hbond>
-0.403643285470792

> <r_i_glide_metal>
0

> <r_i_glide_rewards>
-1.1590614304849

> <r_i_glide_evdw>
-44.7889022827148

> <r_i_glide_ecoul>
-6.11887741088867

> <r_i_glide_erotb>
1.07231765908121

> <r_i_glide_esite>
-0.146799853993954

> <r_i_glide_emodel>
-70.7100955753668

> <r_i_glide_energy>
-50.9077796936035

> <r_i_glide_einternal>
6.24161767959595

> <i_i_glide_confnum>
76

> <i_i_glide_posenum>
315

> <r_i_glide_eff_state_penalty>
0

> <s_user_duplicate_titles>
CHEMBL204_lig4218,CHEMBL204_lig4218,334921

> <i_f3d_flags>
0

> <s_m_subgroup_title>
dock_pv

> <s_m_subgroupid>
dock_pv

> <b_m_subgroup_collapsed>
1

$$$$
CHEMBL204_lig3518
                    3D
 Schrodinger Suite 2021-1.
 55 57  0  0  1  0            999 V2000
   20.5356  -14.1007   25.0413 S   0  0  0  0  0  0
   11.5558  -10.8222   23.3046 C   0  0  0  0  0  0
   12.2044  -11.1577   22.0712 N   0  0  0  0  0  0
   19.7210  -14.9192   23.8324 O   0  0  0  0  0  0
   22.1989  -14.6132   24.6322 C   0  0  0  0  0  0
   19.4018  -14.2422   22.6883 C   0  0  0  0  0  0
   20.4160  -12.6530   24.8338 O   0  0  0  0  0  0
   20.1909  -14.7263   26.3210 O   0  0  0  0  0  0
   11.6155   -9.6938   23.8563 N   0  0  0  0  0  0
   18.0903  -13.8031   22.5215 C   0  0  0  0  0  0
   12.1055  -12.4529   21.3733 C   0  0  0  0  0  0
   12.8591  -10.1380   21.2389 C   0  0  0  0  0  0
   17.7032  -13.1354   21.3613 C   0  0  0  0  0  0
   10.8160  -11.8530   23.9154 N   0  0  0  0  0  0
   23.2570  -13.7013   24.6735 C   0  0  0  0  0  0
   22.4239  -15.9432   24.2744 C   0  0  0  0  0  0
   19.9751  -13.3368   20.5176 C   0  0  0  0  0  0
   20.3466  -14.0107   21.6851 C   0  0  0  0  0  0
   16.3901  -12.7320   21.2966 O   0  0  0  0  0  0
   18.6562  -12.9051   20.3572 C   0  0  0  0  0  0
   24.7517  -15.4388   23.9255 C   0  0  0  0  0  0
   26.0160  -15.8529   23.5210 N   0  0  0  0  0  0
   23.7034  -16.3558   23.9207 C   0  0  0  0  0  0
   24.5371  -14.1163   24.3114 C   0  0  0  0  0  0
   15.8058  -12.4338   20.0319 C   0  0  0  0  0  0
   13.5228  -12.9842   21.0808 C   0  0  0  0  0  0
   14.3000  -10.6007   20.9667 C   0  0  0  0  0  0
   14.3547  -11.9685   20.2565 C   0  0  0  0  0  0
   21.0000  -13.0577   19.4346 C   0  0  0  0  0  0
   11.0579   -9.6782   24.6981 H   0  0  0  0  0  0
   17.3625  -13.9889   23.2983 H   0  0  0  0  0  0
   11.5271  -13.1979   21.9192 H   0  0  0  0  0  0
   11.6015  -12.2924   20.4214 H   0  0  0  0  0  0
   12.8590   -9.1501   21.7034 H   0  0  0  0  0  0
   12.3015  -10.0458   20.3047 H   0  0  0  0  0  0
   10.2167  -11.6826   24.7148 H   0  0  0  0  0  0
   10.7331  -12.7826   23.5206 H   0  0  0  0  0  0
   23.0915  -12.6756   24.9720 H   0  0  0  0  0  0
   21.6070  -16.6510   24.2566 H   0  0  0  0  0  0
   21.3620  -14.3558   21.8156 H   0  0  0  0  0  0
   18.3881  -12.3832   19.4527 H   0  0  0  0  0  0
   26.1583  -16.8428   23.3886 H   0  0  0  0  0  0
   26.8026  -15.2819   23.8104 H   0  0  0  0  0  0
   23.8694  -17.3822   23.6283 H   0  0  0  0  0  0
   25.3561  -13.4106   24.3235 H   0  0  0  0  0  0
   15.8241  -13.3180   19.3931 H   0  0  0  0  0  0
   16.3518  -11.6436   19.5145 H   0  0  0  0  0  0
   14.0097  -13.2013   22.0333 H   0  0  0  0  0  0
   13.4871  -13.9491   20.5730 H   0  0  0  0  0  0
   14.8577   -9.8519   20.4047 H   0  0  0  0  0  0
   14.8158  -10.6706   21.9199 H   0  0  0  0  0  0
   13.8632  -11.8474   19.2888 H   0  0  0  0  0  0
   21.9284  -12.6973   19.8782 H   0  0  0  0  0  0
   21.2148  -13.9692   18.8766 H   0  0  0  0  0  0
   20.6607  -12.2874   18.7408 H   0  0  0  0  0  0
  1  4  1  0  0  0
  1  5  1  0  0  0
  1  7  2  0  0  0
  1  8  2  0  0  0
  2  3  1  0  0  0
  2  9  2  0  0  0
  2 14  1  0  0  0
  3 12  1  0  0  0
  3 11  1  0  0  0
  4  6  1  0  0  0
  5 15  2  0  0  0
  5 16  1  0  0  0
  6 10  2  0  0  0
  6 18  1  0  0  0
  9 30  1  0  0  0
 10 13  1  0  0  0
 10 31  1  0  0  0
 11 26  1  0  0  0
 11 32  1  0  0  0
 11 33  1  0  0  0
 12 27  1  0  0  0
 12 34  1  0  0  0
 12 35  1  0  0  0
 13 19  1  0  0  0
 13 20  2  0  0  0
 14 36  1  0  0  0
 14 37  1  0  0  0
 15 24  1  0  0  0
 15 38  1  0  0  0
 16 23  2  0  0  0
 16 39  1  0  0  0
 17 18  2  0  0  0
 17 20  1  0  0  0
 17 29  1  0  0  0
 18 40  1  0  0  0
 19 25  1  0  0  0
 20 41  1  0  0  0
 21 23  1  0  0  0
 21 22  1  0  0  0
 21 24  2  0  0  0
 22 42  1  0  0  0
 22 43  1  0  0  0
 23 44  1  0  0  0
 24 45  1  0  0  0
 25 28  1  0  0  0
 25 46  1  0  0  0
 25 47  1  0  0  0
 26 28  1  0  0  0
 26 48  1  0  0  0
 26 49  1  0  0  0
 27 28  1  0  0  0
 27 50  1  0  0  0
 27 51  1  0  0  0
 28 52  1  0  0  0
 29 53  1  0  0  0
 29 54  1  0  0  0
 29 55  1  0  0  0
M  END
> <s_m_entry_id>
35375

> <s_m_entry_name>
dock_pv.225

> <s_m_Source_Path>
/home/csk/Desktop/cluster/DUD-E-result/thrb

> <s_m_Source_File>
dock_pv.maegz

> <i_m_Source_File_Index>
225

> <chembl_id>
CHEMBL167334

> <chembl_pref_name>
None

> <i_lp_mmshare_version>
53161

> <r_lp_tautomer_probability>
1

> <s_lp_Force_Field>
OPLS_2005

> <r_lp_Energy>
25.036504

> <b_lp_Chiralities_Consistent>
1

> <s_lp_Variant>
CHEMBL204_lig3518-1

> <s_i_glide_gridfile>
glide-grid_1ype

> <i_i_glide_lignum>
4902

> <i_i_glide_rotatable_bonds>
7

> <r_i_docking_score>
-7.25355678255441

> <r_i_glide_ligand_efficiency>
-0.25012264767429

> <r_i_glide_ligand_efficiency_sa>
-0.768456018072275

> <r_i_glide_ligand_efficiency_ln>
-1.66088056887524

> <r_i_glide_gscore>
-7.25355678255441

> <r_i_glide_lipo>
-2.96449024995061

> <r_i_glide_hbond>
-0.327120866184091

> <r_i_glide_metal>
0

> <r_i_glide_rewards>
-1.25659844313811

> <r_i_glide_evdw>
-45.1313400268555

> <r_i_glide_ecoul>
-6.76156949996948

> <r_i_glide_erotb>
0.677411840257639

> <r_i_glide_esite>
-0.111956637201039

> <r_i_glide_emodel>
-72.1923348957346

> <r_i_glide_energy>
-51.892909526825

> <r_i_glide_einternal>
2.76365518569946

> <i_i_glide_confnum>
3

> <i_i_glide_posenum>
373

> <r_i_glide_eff_state_penalty>
0

> <s_user_duplicate_titles>
CHEMBL204_lig3518,279097

> <i_f3d_flags>
0

> <s_m_subgroup_title>
dock_pv

> <s_m_subgroupid>
dock_pv

> <b_m_subgroup_collapsed>
1

$$$$
CHEMBL204_lig4863
                    3D
 Schrodinger Suite 2021-1.
 53 54  0  0  1  0            999 V2000
   19.9144  -14.2447   21.6563 N   0  0  3  0  0  0
   19.5241  -14.3899   23.3676 S   0  0  0  0  0  0
   20.8428  -15.3539   24.1066 C   0  0  0  0  0  0
   19.6159  -13.0529   23.9599 O   0  0  0  0  0  0
   18.2941  -15.1818   23.4686 O   0  0  0  0  0  0
   20.5552  -16.4947   24.8560 C   0  0  0  0  0  0
   21.5910  -17.2150   25.4458 C   0  0  0  0  0  0
   22.9146  -16.8019   25.2874 C   0  0  0  0  0  0
   23.2408  -15.6569   24.5345 C   0  0  0  0  0  0
   22.1688  -14.9435   23.9616 C   0  0  0  0  0  0
   12.3980  -12.2751   21.9435 C   0  0  0  0  0  0
   12.2295  -11.0181   22.5547 C   0  0  0  0  0  0
   13.0458   -9.9655   22.1002 C   0  0  0  0  0  0
   14.0156  -10.1681   21.1220 C   0  0  0  0  0  0
   14.1997  -11.4386   20.5762 C   0  0  0  0  0  0
   13.3714  -12.4862   20.9731 C   0  0  0  0  0  0
   11.2484  -10.7931   23.6585 C   0  0  0  0  0  0
   10.4163  -11.8530   23.9210 N   0  0  0  0  0  0
   11.2161   -9.7023   24.2870 N   0  0  0  0  0  0
   15.3083  -11.6859   19.5650 C   0  0  0  0  0  0
   16.6317  -11.3766   20.1106 N   0  0  0  0  0  0
   17.7491  -12.0755   19.8637 C   0  0  0  0  0  0
   19.0210  -11.5628   20.5542 C   0  0  0  0  0  0
   17.7754  -13.0548   19.1199 O   0  0  0  0  0  0
   20.3439  -12.2731   20.1424 C   0  0  0  0  0  0
   20.9141  -13.2720   21.1677 C   0  0  0  0  0  0
   24.6430  -15.1941   24.3216 C   0  0  0  0  0  0
   25.6062  -15.8629   25.0396 N   0  0  0  0  0  0
   24.8765  -14.2530   23.5210 N   0  0  0  0  0  0
   19.5799  -14.9707   21.0181 H   0  0  0  0  0  0
   19.5334  -16.8214   24.9893 H   0  0  0  0  0  0
   21.3688  -18.0977   26.0273 H   0  0  0  0  0  0
   23.6827  -17.4005   25.7539 H   0  0  0  0  0  0
   22.3655  -14.0460   23.3958 H   0  0  0  0  0  0
   11.7985  -13.1235   22.2348 H   0  0  0  0  0  0
   12.9522   -8.9765   22.5270 H   0  0  0  0  0  0
   14.6444   -9.3433   20.8184 H   0  0  0  0  0  0
   13.4928  -13.4750   20.5544 H   0  0  0  0  0  0
    9.6450  -11.7393   24.5800 H   0  0  0  0  0  0
   10.5538  -12.7738   23.5211 H   0  0  0  0  0  0
   10.4681   -9.7171   24.9713 H   0  0  0  0  0  0
   15.2529  -12.7094   19.1852 H   0  0  0  0  0  0
   15.1387  -11.0531   18.6950 H   0  0  0  0  0  0
   16.7064  -10.5380   20.6682 H   0  0  0  0  0  0
   19.1053  -10.5015   20.3213 H   0  0  0  0  0  0
   18.8583  -11.6210   21.6314 H   0  0  0  0  0  0
   20.2549  -12.7727   19.1760 H   0  0  0  0  0  0
   21.1095  -11.5140   19.9747 H   0  0  0  0  0  0
   21.7384  -13.8266   20.7230 H   0  0  0  0  0  0
   21.3419  -12.7295   22.0109 H   0  0  0  0  0  0
   26.5778  -15.5746   24.9791 H   0  0  0  0  0  0
   25.3428  -16.4612   25.8061 H   0  0  0  0  0  0
   25.8587  -14.0142   23.4572 H   0  0  0  0  0  0
  1 26  1  0  0  0
  1  2  1  0  0  0
  1 30  1  0  0  0
  2  4  2  0  0  0
  2  5  2  0  0  0
  2  3  1  0  0  0
  3 10  1  0  0  0
  3  6  2  0  0  0
  6  7  1  0  0  0
  6 31  1  0  0  0
  7  8  2  0  0  0
  7 32  1  0  0  0
  8  9  1  0  0  0
  8 33  1  0  0  0
  9 10  2  0  0  0
  9 27  1  0  0  0
 10 34  1  0  0  0
 11 12  2  0  0  0
 11 16  1  0  0  0
 11 35  1  0  0  0
 12 13  1  0  0  0
 12 17  1  0  0  0
 13 14  2  0  0  0
 13 36  1  0  0  0
 14 15  1  0  0  0
 14 37  1  0  0  0
 15 16  2  0  0  0
 15 20  1  0  0  0
 16 38  1  0  0  0
 17 18  1  0  0  0
 17 19  2  0  0  0
 18 39  1  0  0  0
 18 40  1  0  0  0
 19 41  1  0  0  0
 20 21  1  0  0  0
 20 42  1  0  0  0
 20 43  1  0  0  0
 21 22  1  0  0  0
 21 44  1  0  0  0
 22 23  1  0  0  0
 22 24  2  0  0  0
 23 25  1  0  0  0
 23 45  1  0  0  0
 23 46  1  0  0  0
 25 26  1  0  0  0
 25 47  1  0  0  0
 25 48  1  0  0  0
 26 49  1  0  0  0
 26 50  1  0  0  0
 27 28  1  0  0  0
 27 29  2  0  0  0
 28 51  1  0  0  0
 28 52  1  0  0  0
 29 53  1  0  0  0
M  END
> <s_m_entry_id>
35376

> <s_m_entry_name>
dock_pv.226

> <s_m_Source_Path>
/home/csk/Desktop/cluster/DUD-E-result/thrb

> <s_m_Source_File>
dock_pv.maegz

> <i_m_Source_File_Index>
226

> <chembl_id>
CHEMBL2159272

> <chembl_pref_name>
None

> <i_lp_mmshare_version>
53161

> <r_lp_tautomer_probability>
1

> <s_lp_Force_Field>
OPLS_2005

> <r_lp_Energy>
-0.075024

> <b_lp_Chiralities_Consistent>
1

> <s_lp_Variant>
CHEMBL204_lig4863-1

> <s_i_glide_gridfile>
glide-grid_1ype

> <i_i_glide_lignum>
6647

> <i_i_glide_rotatable_bonds>
11

> <r_i_docking_score>
-7.24977446218059

> <r_i_glide_ligand_efficiency>
-0.249992222833813

> <r_i_glide_ligand_efficiency_sa>
-0.768055311640841

> <r_i_glide_ligand_efficiency_ln>
-1.66001451342101

> <r_i_glide_gscore>
-7.24977446218059

> <r_i_glide_lipo>
-2.46663831439752

> <r_i_glide_hbond>
-1.12755535062986

> <r_i_glide_metal>
0

> <r_i_glide_rewards>
-0.211080383848373

> <r_i_glide_evdw>
-41.5737113952637

> <r_i_glide_ecoul>
-14.9226312637329

> <r_i_glide_erotb>
1.02500631158629

> <r_i_glide_esite>
-0.152426465568003

> <r_i_glide_emodel>
-75.7928136465298

> <r_i_glide_energy>
-56.4963426589966

> <r_i_glide_einternal>
8.79657077789307

> <i_i_glide_confnum>
6

> <i_i_glide_posenum>
380

> <r_i_glide_eff_state_penalty>
0

> <s_user_duplicate_titles>
CHEMBL204_lig4863

> <i_f3d_flags>
0

> <s_m_subgroup_title>
dock_pv

> <s_m_subgroupid>
dock_pv

> <b_m_subgroup_collapsed>
1

$$$$
CHEMBL204_lig4216
                    3D
 Schrodinger Suite 2021-1.
 58 61  0  0  1  0            999 V2000
   15.2485  -13.0920   20.4873 C   0  0  0  0  0  0
   16.5840  -12.8391   21.2677 C   0  0  1  0  0  0
   16.4159  -13.0532   22.7210 N   0  0  0  0  0  0
   17.7679  -13.7600   20.8458 C   0  0  0  0  0  0
   17.6632  -14.9781   21.0200 O   0  0  0  0  0  0
   18.8969  -13.1834   20.3601 N   0  0  0  0  0  0
   19.0296  -11.8311   19.8230 C   0  0  0  0  0  0
   20.0787  -11.9846   18.7346 C   0  0  0  0  0  0
   21.0472  -12.9707   19.3494 C   0  0  0  0  0  0
   20.1781  -13.9069   20.2261 C   0  0  1  0  0  0
   15.3828  -13.0402   18.9552 C   0  0  0  0  0  0
   14.0888  -12.2274   21.0155 C   0  0  0  0  0  0
   15.1399  -14.1942   18.2000 C   0  0  0  0  0  0
   15.2527  -14.1643   16.8126 C   0  0  0  0  0  0
   15.6160  -12.9807   16.1757 C   0  0  0  0  0  0
   15.8621  -11.8265   16.9140 C   0  0  0  0  0  0
   15.7450  -11.8570   18.3010 C   0  0  0  0  0  0
   12.9074  -12.8422   21.4470 C   0  0  0  0  0  0
   11.8739  -12.0781   21.9805 C   0  0  0  0  0  0
   12.0166  -10.6971   22.0832 C   0  0  0  0  0  0
   13.1814  -10.0705   21.6517 C   0  0  0  0  0  0
   14.2162  -10.8349   21.1209 C   0  0  0  0  0  0
   20.8138  -14.2333   21.5945 C   0  0  0  0  0  0
   20.4258  -15.3734   22.1904 N   0  0  0  0  0  0
   21.6207  -13.4531   22.0949 O   0  0  0  0  0  0
   20.9576  -15.8705   23.4672 C   0  0  0  0  0  0
   20.8499  -14.8785   24.6193 C   0  0  0  0  0  0
   21.8393  -14.4577   25.5089 C   0  0  0  0  0  0
   21.2443  -13.5173   26.3029 N   0  0  0  0  0  0
   19.9511  -13.4520   25.8696 C   0  0  0  0  0  0
   19.6987  -14.2711   24.8811 N   0  0  0  0  0  0
   14.9774  -14.1235   20.7262 H   0  0  0  0  0  0
   16.8629  -11.7947   21.1450 H   0  0  0  0  0  0
   15.7973  -13.8370   22.9199 H   0  0  0  0  0  0
   17.3023  -13.2825   23.1523 H   0  0  0  0  0  0
   18.1160  -11.4217   19.4018 H   0  0  0  0  0  0
   19.3722  -11.1631   20.6148 H   0  0  0  0  0  0
   19.6219  -12.4262   17.8476 H   0  0  0  0  0  0
   20.5616  -11.0558   18.4428 H   0  0  0  0  0  0
   21.6079  -13.5035   18.5854 H   0  0  0  0  0  0
   21.7764  -12.4078   19.9329 H   0  0  0  0  0  0
   20.0013  -14.8342   19.6820 H   0  0  0  0  0  0
   14.8568  -15.1178   18.6838 H   0  0  0  0  0  0
   15.0514  -15.0531   16.2312 H   0  0  0  0  0  0
   15.6945  -12.9592   15.0984 H   0  0  0  0  0  0
   16.1337  -10.9090   16.4137 H   0  0  0  0  0  0
   15.9359  -10.9583   18.8640 H   0  0  0  0  0  0
   12.7869  -13.9141   21.3865 H   0  0  0  0  0  0
   10.9657  -12.5566   22.3202 H   0  0  0  0  0  0
   11.2133  -10.1108   22.5057 H   0  0  0  0  0  0
   13.2869   -9.0000   21.7431 H   0  0  0  0  0  0
   15.1236  -10.3362   20.8170 H   0  0  0  0  0  0
   19.7397  -15.9485   21.7208 H   0  0  0  0  0  0
   20.4366  -16.7942   23.7187 H   0  0  0  0  0  0
   21.9992  -16.1552   23.3081 H   0  0  0  0  0  0
   22.8853  -14.7072   25.6182 H   0  0  0  0  0  0
   21.6681  -12.9760   27.0439 H   0  0  0  0  0  0
   19.2560  -12.7640   26.3217 H   0  0  0  0  0  0
  1 11  1  0  0  0
  1 12  1  0  0  0
  1  2  1  0  0  0
  1 32  1  0  0  0
  2  3  1  0  0  0
  2  4  1  0  0  0
  2 33  1  0  0  0
  3 34  1  0  0  0
  3 35  1  0  0  0
  4  5  2  0  0  0
  4  6  1  0  0  0
  6 10  1  0  0  0
  6  7  1  0  0  0
  7  8  1  0  0  0
  7 36  1  0  0  0
  7 37  1  0  0  0
  8  9  1  0  0  0
  8 38  1  0  0  0
  8 39  1  0  0  0
  9 10  1  0  0  0
  9 40  1  0  0  0
  9 41  1  0  0  0
 10 23  1  0  0  0
 10 42  1  0  0  0
 11 17  1  0  0  0
 11 13  2  0  0  0
 12 18  2  0  0  0
 12 22  1  0  0  0
 13 14  1  0  0  0
 13 43  1  0  0  0
 14 15  2  0  0  0
 14 44  1  0  0  0
 15 16  1  0  0  0
 15 45  1  0  0  0
 16 17  2  0  0  0
 16 46  1  0  0  0
 17 47  1  0  0  0
 18 19  1  0  0  0
 18 48  1  0  0  0
 19 20  2  0  0  0
 19 49  1  0  0  0
 20 21  1  0  0  0
 20 50  1  0  0  0
 21 22  2  0  0  0
 21 51  1  0  0  0
 22 52  1  0  0  0
 23 24  1  0  0  0
 23 25  2  0  0  0
 24 26  1  0  0  0
 24 53  1  0  0  0
 26 27  1  0  0  0
 26 54  1  0  0  0
 26 55  1  0  0  0
 27 28  2  0  0  0
 27 31  1  0  0  0
 28 29  1  0  0  0
 28 56  1  0  0  0
 29 30  1  0  0  0
 29 57  1  0  0  0
 30 31  2  0  0  0
 30 58  1  0  0  0
M  END
> <s_m_entry_id>
35377

> <s_m_entry_name>
dock_pv.227

> <s_m_Source_Path>
/home/csk/Desktop/cluster/DUD-E-result/thrb

> <s_m_Source_File>
dock_pv.maegz

> <i_m_Source_File_Index>
227

> <chembl_id>
CHEMBL265363

> <chembl_pref_name>
None

> <i_lp_mmshare_version>
53161

> <r_lp_tautomer_probability>
0.499999999999999

> <s_lp_Force_Field>
OPLS_2005

> <r_lp_Energy>
25.390144

> <b_lp_Chiralities_Consistent>
1

> <s_lp_Variant>
CHEMBL204_lig4216-1

> <s_i_glide_gridfile>
glide-grid_1ype

> <i_i_glide_lignum>
5853

> <i_i_glide_rotatable_bonds>
9

> <r_i_docking_score>
-7.24191403983821

> <r_i_glide_ligand_efficiency>
-0.233610130317362

> <r_i_glide_ligand_efficiency_sa>
-0.733858342741572

> <r_i_glide_ligand_efficiency_ln>
-1.63327355399509

> <r_i_glide_gscore>
-7.24191403983821

> <r_i_glide_lipo>
-2.87610724514813

> <r_i_glide_hbond>
-0.532085953804444

> <r_i_glide_metal>
0

> <r_i_glide_rewards>
-1.46813850443542

> <r_i_glide_evdw>
-42.5432929992676

> <r_i_glide_ecoul>
-7.63716793060303

> <r_i_glide_erotb>
0.907157503103614

> <r_i_glide_esite>
0

> <r_i_glide_emodel>
-66.9164496079017

> <r_i_glide_energy>
-50.1804609298706

> <r_i_glide_einternal>
4.22626447677612

> <i_i_glide_confnum>
95

> <i_i_glide_posenum>
370

> <r_i_glide_eff_state_penalty>
0

> <s_user_duplicate_titles>
CHEMBL204_lig4216,334942

> <i_f3d_flags>
0

> <s_m_subgroup_title>
dock_pv

> <s_m_subgroupid>
dock_pv

> <b_m_subgroup_collapsed>
1

$$$$
CHEMBL204_lig4381
                    3D
 Schrodinger Suite 2021-1.
 53 56  0  0  1  0            999 V2000
   20.4317  -13.5815   22.2625 C   0  0  0  0  0  0
   19.4991  -14.7404   21.9887 C   0  0  0  0  0  0
   19.9246  -16.0462   21.7800 C   0  0  0  0  0  0
   18.6317  -17.1618   21.5251 S   0  0  0  0  0  0
   17.4781  -15.8654   21.5940 C   0  0  0  0  0  0
   18.0947  -14.6481   21.9180 C   0  0  0  0  0  0
   17.2508  -13.1652   22.1977 Cl  0  0  0  0  0  0
   16.0892  -16.1640   21.3720 C   0  0  0  0  0  0
   15.4612  -15.2416   20.6117 N   0  0  0  0  0  0
   15.5734  -17.2104   21.7749 O   0  0  0  0  0  0
   14.2152  -15.4045   19.9726 C   0  0  0  0  0  0
   13.2261  -14.4007   20.1079 C   0  0  0  0  0  0
   11.9931  -14.5971   19.4810 C   0  0  0  0  0  0
   11.7310  -15.7291   18.7210 C   0  0  0  0  0  0
   12.7200  -16.6864   18.5450 C   0  0  0  0  0  0
   13.9781  -16.5327   19.1480 C   0  0  0  0  0  0
   13.4522  -13.1027   20.8570 C   0  0  0  0  0  0
   14.5261  -12.5080   20.7542 O   0  0  0  0  0  0
   12.4015  -12.6657   21.5884 N   0  0  0  0  0  0
   10.2015  -15.9179   17.9435 Cl  0  0  0  0  0  0
   12.2895  -11.4560   22.2904 C   0  0  0  0  0  0
   13.0598  -10.3719   21.9801 N   0  0  0  0  0  0
   12.9127   -9.2444   22.7211 C   0  0  0  0  0  0
   12.0164   -9.1489   23.7840 C   0  0  0  0  0  0
   11.2160  -10.2526   24.0739 C   0  0  0  0  0  0
   11.3310  -11.4115   23.3053 C   0  0  0  0  0  0
   11.9188   -7.7020   24.7214 Cl  0  0  0  0  0  0
   15.0185  -17.4222   18.9278 O   0  0  0  0  0  0
   14.8255  -18.5496   18.0829 C   0  0  0  0  0  0
   20.8200  -13.4896   23.6696 N   0  0  0  0  0  0
   19.8305  -12.9659   24.5929 C   0  0  0  0  0  0
   20.3353  -13.1380   26.0140 C   0  0  0  0  0  0
   22.0870  -13.5370   25.9216 S   0  0  0  0  0  0
   22.0614  -13.8571   24.1598 C   0  0  0  0  0  0
   23.0466  -14.3129   23.5214 N   0  0  0  0  0  0
   19.9592  -12.6530   21.9536 H   0  0  0  0  0  0
   21.3164  -13.6541   21.6266 H   0  0  0  0  0  0
   20.9441  -16.4046   21.7899 H   0  0  0  0  0  0
   15.8990  -14.3376   20.5030 H   0  0  0  0  0  0
   11.2168  -13.8491   19.5514 H   0  0  0  0  0  0
   12.4965  -17.5317   17.9122 H   0  0  0  0  0  0
   11.6418  -13.3157   21.7308 H   0  0  0  0  0  0
   13.5593   -8.4168   22.4688 H   0  0  0  0  0  0
   10.4882  -10.2136   24.8733 H   0  0  0  0  0  0
   10.6920  -12.2530   23.5301 H   0  0  0  0  0  0
   15.7462  -19.1305   18.0514 H   0  0  0  0  0  0
   14.0348  -19.1983   18.4608 H   0  0  0  0  0  0
   14.5909  -18.2490   17.0600 H   0  0  0  0  0  0
   18.8611  -13.4530   24.4878 H   0  0  0  0  0  0
   19.6859  -11.9056   24.3936 H   0  0  0  0  0  0
   20.1865  -12.2470   26.6250 H   0  0  0  0  0  0
   19.8388  -13.9748   26.5066 H   0  0  0  0  0  0
   22.8159  -14.4174   22.5453 H   0  0  0  0  0  0
  1 30  1  0  0  0
  1  2  1  0  0  0
  1 36  1  0  0  0
  1 37  1  0  0  0
  2  6  1  0  0  0
  2  3  2  0  0  0
  3  4  1  0  0  0
  3 38  1  0  0  0
  4  5  1  0  0  0
  5  8  1  0  0  0
  5  6  2  0  0  0
  6  7  1  0  0  0
  8  9  1  0  0  0
  8 10  2  0  0  0
  9 11  1  0  0  0
  9 39  1  0  0  0
 11 12  2  0  0  0
 11 16  1  0  0  0
 12 13  1  0  0  0
 12 17  1  0  0  0
 13 14  2  0  0  0
 13 40  1  0  0  0
 14 15  1  0  0  0
 14 20  1  0  0  0
 15 16  2  0  0  0
 15 41  1  0  0  0
 16 28  1  0  0  0
 17 18  2  0  0  0
 17 19  1  0  0  0
 19 21  1  0  0  0
 19 42  1  0  0  0
 21 22  2  0  0  0
 21 26  1  0  0  0
 22 23  1  0  0  0
 23 24  2  0  0  0
 23 43  1  0  0  0
 24 25  1  0  0  0
 24 27  1  0  0  0
 25 26  2  0  0  0
 25 44  1  0  0  0
 26 45  1  0  0  0
 28 29  1  0  0  0
 29 46  1  0  0  0
 29 47  1  0  0  0
 29 48  1  0  0  0
 30 31  1  0  0  0
 30 34  1  0  0  0
 31 32  1  0  0  0
 31 49  1  0  0  0
 31 50  1  0  0  0
 32 33  1  0  0  0
 32 51  1  0  0  0
 32 52  1  0  0  0
 33 34  1  0  0  0
 34 35  2  0  0  0
 35 53  1  0  0  0
M  END
> <s_m_entry_id>
35378

> <s_m_entry_name>
dock_pv.228

> <s_m_Source_Path>
/home/csk/Desktop/cluster/DUD-E-result/thrb

> <s_m_Source_File>
dock_pv.maegz

> <i_m_Source_File_Index>
228

> <chembl_id>
CHEMBL449703

> <chembl_pref_name>
None

> <i_lp_mmshare_version>
53161

> <r_lp_tautomer_probability>
1

> <s_lp_Force_Field>
OPLS_2005

> <r_lp_Energy>
37.15348

> <b_lp_Chiralities_Consistent>
1

> <s_lp_Variant>
CHEMBL204_lig4381-1

> <s_i_glide_gridfile>
glide-grid_1ype

> <i_i_glide_lignum>
6039

> <i_i_glide_rotatable_bonds>
9

> <r_i_docking_score>
-7.23776142228614

> <r_i_glide_ligand_efficiency>
-0.20679318349389

> <r_i_glide_ligand_efficiency_sa>
-0.676434214901857

> <r_i_glide_ligand_efficiency_ln>
-1.58884926565187

> <r_i_glide_gscore>
-7.23776142228614

> <r_i_glide_lipo>
-3.2982410471696

> <r_i_glide_hbond>
-0.188488004282632

> <r_i_glide_metal>
0

> <r_i_glide_rewards>
-0.705791735236861

> <r_i_glide_evdw>
-54.8655738830566

> <r_i_glide_ecoul>
-4.81895589828491

> <r_i_glide_erotb>
0.421022979280815

> <r_i_glide_esite>
-0.000141535982300337

> <r_i_glide_emodel>
-81.110526201201

> <r_i_glide_energy>
-59.6845297813416

> <r_i_glide_einternal>
8.237548828125

> <i_i_glide_confnum>
39

> <i_i_glide_posenum>
148

> <r_i_glide_eff_state_penalty>
0

> <s_user_duplicate_titles>
CHEMBL204_lig4381

> <i_f3d_flags>
0

> <s_m_subgroup_title>
dock_pv

> <s_m_subgroupid>
dock_pv

> <b_m_subgroup_collapsed>
1

$$$$
CHEMBL204_lig313
                    3D
 Schrodinger Suite 2021-1.
 67 70  0  0  1  0            999 V2000
   16.7184  -16.9244   22.6875 N   0  0  0  0  0  0
   17.6809  -16.2559   21.9945 C   0  0  0  0  0  0
   19.0455  -15.9528   22.6867 C   0  0  2  0  0  0
   15.5524  -17.5380   22.0114 C   0  0  2  0  0  0
   14.6013  -16.6046   21.2392 C   0  0  0  0  0  0
   19.3373  -14.4213   22.8599 C   0  0  0  0  0  0
   14.1111  -15.5351   21.8910 N   0  0  0  0  0  0
   13.0271  -12.0726   21.7352 C   0  0  0  0  0  0
   17.5561  -15.9521   20.8037 O   0  0  0  0  0  0
   13.6456  -13.1970   21.1452 C   0  0  0  0  0  0
   13.1191  -14.6210   21.3155 C   0  0  0  0  0  0
   14.3174  -16.8970   20.0763 O   0  0  0  0  0  0
   19.4713  -13.5973   21.5692 C   0  0  0  0  0  0
   20.4831  -14.1451   23.8456 C   0  0  0  0  0  0
   13.5753  -10.7922   21.5154 C   0  0  0  0  0  0
   20.0571  -16.7421   21.9529 N   0  0  0  0  0  0
   16.7558  -17.3217   24.1010 C   0  0  0  0  0  0
   14.8012  -18.2780   23.1267 C   0  0  0  0  0  0
   15.8330  -18.5260   24.2047 C   0  0  0  0  0  0
   15.3021  -11.7574   20.1205 C   0  0  0  0  0  0
   11.7876  -12.2484   22.6119 C   0  0  0  0  0  0
   14.7754  -13.0221   20.3406 C   0  0  0  0  0  0
   14.7168  -10.6520   20.7217 C   0  0  0  0  0  0
   12.9730   -9.5368   22.1255 C   0  0  0  0  0  0
   20.2358  -13.4289   25.0250 C   0  0  0  0  0  0
   20.4157  -13.9247   20.5868 C   0  0  0  0  0  0
   18.6519  -12.4776   21.3865 C   0  0  0  0  0  0
   21.7783  -14.6102   23.5810 C   0  0  0  0  0  0
   18.7838  -11.6911   20.2488 C   0  0  0  0  0  0
   20.5228  -13.1567   19.4327 C   0  0  0  0  0  0
   22.8121  -14.3581   24.4744 C   0  0  0  0  0  0
   21.2715  -13.1749   25.9198 C   0  0  0  0  0  0
   22.5522  -13.6447   25.6374 C   0  0  0  0  0  0
   19.7066  -12.0461   19.2688 C   0  0  0  0  0  0
   19.0622  -16.3387   23.7000 H   0  0  0  0  0  0
   15.9516  -18.2763   21.3146 H   0  0  0  0  0  0
   18.4421  -14.0402   23.3585 H   0  0  0  0  0  0
   14.4175  -15.3286   22.8381 H   0  0  0  0  0  0
   12.7758  -14.9435   20.3285 H   0  0  0  0  0  0
   12.2210  -14.6782   21.9219 H   0  0  0  0  0  0
   19.7782  -17.7082   21.8585 H   0  0  0  0  0  0
   20.1540  -16.3752   21.0166 H   0  0  0  0  0  0
   17.7271  -17.6261   24.4814 H   0  0  0  0  0  0
   16.3990  -16.4902   24.7083 H   0  0  0  0  0  0
   14.3342  -19.1975   22.7758 H   0  0  0  0  0  0
   14.0163  -17.6455   23.5244 H   0  0  0  0  0  0
   16.4008  -19.4196   23.9533 H   0  0  0  0  0  0
   15.4061  -18.6629   25.1987 H   0  0  0  0  0  0
   16.1636  -11.6377   19.4819 H   0  0  0  0  0  0
   11.4136  -11.3314   23.0642 H   0  0  0  0  0  0
   10.9658  -12.6774   22.0361 H   0  0  0  0  0  0
   12.0157  -12.9340   23.4277 H   0  0  0  0  0  0
   15.2498  -13.8774   19.8766 H   0  0  0  0  0  0
   15.1518   -9.6759   20.5670 H   0  0  0  0  0  0
   13.5783   -8.6531   21.9267 H   0  0  0  0  0  0
   11.9681   -9.3669   21.7407 H   0  0  0  0  0  0
   12.9030   -9.6381   23.2046 H   0  0  0  0  0  0
   19.2449  -13.0593   25.2493 H   0  0  0  0  0  0
   21.0851  -14.7601   20.7037 H   0  0  0  0  0  0
   17.9240  -12.2003   22.1359 H   0  0  0  0  0  0
   21.9999  -15.1665   22.6837 H   0  0  0  0  0  0
   18.1711  -10.8114   20.1271 H   0  0  0  0  0  0
   21.2418  -13.4200   18.6722 H   0  0  0  0  0  0
   23.8101  -14.7160   24.2695 H   0  0  0  0  0  0
   21.0802  -12.6120   26.8236 H   0  0  0  0  0  0
   23.3627  -13.4551   26.3210 H   0  0  0  0  0  0
   19.8058  -11.4560   18.3720 H   0  0  0  0  0  0
  1  2  1  0  0  0
  1  4  1  0  0  0
  1 17  1  0  0  0
  2  3  1  0  0  0
  2  9  2  0  0  0
  3  6  1  0  0  0
  3 16  1  0  0  0
  3 35  1  0  0  0
  4  5  1  0  0  0
  4 18  1  0  0  0
  4 36  1  0  0  0
  5  7  1  0  0  0
  5 12  2  0  0  0
  6 13  1  0  0  0
  6 14  1  0  0  0
  6 37  1  0  0  0
  7 11  1  0  0  0
  7 38  1  0  0  0
  8 10  2  0  0  0
  8 15  1  0  0  0
  8 21  1  0  0  0
 10 11  1  0  0  0
 10 22  1  0  0  0
 11 39  1  0  0  0
 11 40  1  0  0  0
 13 26  2  0  0  0
 13 27  1  0  0  0
 14 25  1  0  0  0
 14 28  2  0  0  0
 15 24  1  0  0  0
 15 23  2  0  0  0
 16 41  1  0  0  0
 16 42  1  0  0  0
 17 19  1  0  0  0
 17 43  1  0  0  0
 17 44  1  0  0  0
 18 19  1  0  0  0
 18 45  1  0  0  0
 18 46  1  0  0  0
 19 47  1  0  0  0
 19 48  1  0  0  0
 20 22  2  0  0  0
 20 23  1  0  0  0
 20 49  1  0  0  0
 21 50  1  0  0  0
 21 51  1  0  0  0
 21 52  1  0  0  0
 22 53  1  0  0  0
 23 54  1  0  0  0
 24 55  1  0  0  0
 24 56  1  0  0  0
 24 57  1  0  0  0
 25 32  2  0  0  0
 25 58  1  0  0  0
 26 30  1  0  0  0
 26 59  1  0  0  0
 27 29  2  0  0  0
 27 60  1  0  0  0
 28 31  1  0  0  0
 28 61  1  0  0  0
 29 34  1  0  0  0
 29 62  1  0  0  0
 30 34  2  0  0  0
 30 63  1  0  0  0
 31 33  2  0  0  0
 31 64  1  0  0  0
 32 33  1  0  0  0
 32 65  1  0  0  0
 33 66  1  0  0  0
 34 67  1  0  0  0
M  END
> <s_m_entry_id>
35379

> <s_m_entry_name>
dock_pv.229

> <s_m_Source_Path>
/home/csk/Desktop/cluster/DUD-E-result/thrb

> <s_m_Source_File>
dock_pv.maegz

> <i_m_Source_File_Index>
229

> <chembl_id>
CHEMBL3142678

> <chembl_pref_name>
None

> <i_lp_mmshare_version>
53161

> <r_lp_tautomer_probability>
1

> <s_lp_Force_Field>
OPLS_2005

> <r_lp_Energy>
32.895007

> <b_lp_Chiralities_Consistent>
1

> <s_lp_Variant>
CHEMBL204_lig313-1

> <s_i_glide_gridfile>
glide-grid_1ype

> <i_i_glide_lignum>
397

> <i_i_glide_rotatable_bonds>
9

> <r_i_docking_score>
-7.23729346715613

> <r_i_glide_ligand_efficiency>
-0.212861572563415

> <r_i_glide_ligand_efficiency_sa>
-0.689588861704345

> <r_i_glide_ligand_efficiency_ln>
-1.5989211261005

> <r_i_glide_gscore>
-7.23729346715613

> <r_i_glide_lipo>
-4.19218819035528

> <r_i_glide_hbond>
-0.32

> <r_i_glide_metal>
0

> <r_i_glide_rewards>
-0.530846137234128

> <r_i_glide_evdw>
-45.2342109680176

> <r_i_glide_ecoul>
-5.25726318359375

> <r_i_glide_erotb>
0.871119777600564

> <r_i_glide_esite>
-0.0150788912273428

> <r_i_glide_emodel>
-64.5401711779772

> <r_i_glide_energy>
-50.4914741516113

> <r_i_glide_einternal>
9.27285861968994

> <i_i_glide_confnum>
114

> <i_i_glide_posenum>
251

> <r_i_glide_eff_state_penalty>
0

> <s_user_duplicate_titles>
CHEMBL204_lig313,1559

> <i_f3d_flags>
0

> <s_m_subgroup_title>
dock_pv

> <s_m_subgroupid>
dock_pv

> <b_m_subgroup_collapsed>
1

$$$$
CHEMBL204_lig5168 
                    3D
 Schrodinger Suite 2021-1.
 51 53  0  0  1  0            999 V2000
   18.5510  -13.8295   21.9663 C   0  0  0  0  0  0
   19.2993  -13.3041   20.9659 N   0  0  0  0  0  0
   19.0597  -11.9777   20.3602 C   0  0  1  0  0  0
   20.3862  -11.6876   19.6308 C   0  0  0  0  0  0
   20.9331  -13.0491   19.2544 C   0  0  0  0  0  0
   20.5024  -13.9329   20.4135 C   0  0  0  0  0  0
   17.8028  -11.9101   19.4626 C   0  0  0  0  0  0
   16.6298  -11.9013   20.1089 N   0  0  0  0  0  0
   17.9116  -11.8531   18.2369 O   0  0  0  0  0  0
   15.3139  -11.8291   19.4855 C   0  0  0  0  0  0
   14.2268  -11.5380   20.5139 C   0  0  0  0  0  0
   13.3047  -12.5273   20.8516 C   0  0  0  0  0  0
   12.3412  -12.2824   21.8254 C   0  0  0  0  0  0
   12.2647  -11.0439   22.4902 C   0  0  0  0  0  0
   13.1710  -10.0432   22.0912 C   0  0  0  0  0  0
   14.1407  -10.2844   21.1203 C   0  0  0  0  0  0
   11.2841  -10.7880   23.5901 C   0  0  0  0  0  0
   10.4858  -11.8530   23.9210 N   0  0  0  0  0  0
   11.2166   -9.6721   24.1665 N   0  0  0  0  0  0
   18.9388  -15.2079   22.5459 C   0  0  0  0  0  0
   18.7218  -15.3429   24.0526 C   0  0  0  0  0  0
   17.9154  -16.3744   24.5425 C   0  0  0  0  0  0
   17.7625  -16.5469   25.9145 C   0  0  0  0  0  0
   18.4155  -15.6874   26.7941 C   0  0  0  0  0  0
   19.2177  -14.6532   26.3182 C   0  0  0  0  0  0
   19.3753  -14.4835   24.9452 C   0  0  0  0  0  0
   17.5639  -13.2461   22.4174 O   0  0  0  0  0  0
   18.9252  -11.2266   21.1401 H   0  0  0  0  0  0
   21.0746  -11.1965   20.3210 H   0  0  0  0  0  0
   20.2999  -11.0530   18.7528 H   0  0  0  0  0  0
   22.0126  -13.0368   19.1116 H   0  0  0  0  0  0
   20.4640  -13.3943   18.3315 H   0  0  0  0  0  0
   21.2809  -13.9415   21.1781 H   0  0  0  0  0  0
   20.3323  -14.9585   20.0822 H   0  0  0  0  0  0
   16.6498  -12.0886   21.1055 H   0  0  0  0  0  0
   15.3008  -11.0530   18.7180 H   0  0  0  0  0  0
   15.1060  -12.7712   18.9744 H   0  0  0  0  0  0
   13.3449  -13.4999   20.3829 H   0  0  0  0  0  0
   11.6632  -13.0881   22.0631 H   0  0  0  0  0  0
   13.1528   -9.0700   22.5618 H   0  0  0  0  0  0
   14.8446   -9.5053   20.8638 H   0  0  0  0  0  0
    9.7112  -11.7248   24.5726 H   0  0  0  0  0  0
   10.6234  -12.7803   23.5357 H   0  0  0  0  0  0
   10.4764   -9.6804   24.8583 H   0  0  0  0  0  0
   19.9826  -15.4614   22.3693 H   0  0  0  0  0  0
   18.3488  -15.9556   22.0148 H   0  0  0  0  0  0
   17.4109  -17.0471   23.8646 H   0  0  0  0  0  0
   17.1398  -17.3426   26.2965 H   0  0  0  0  0  0
   18.2898  -15.8206   27.8589 H   0  0  0  0  0  0
   19.7148  -13.9862   27.0079 H   0  0  0  0  0  0
   20.0062  -13.6875   24.5766 H   0  0  0  0  0  0
  1  2  1  0  0  0
  1 20  1  0  0  0
  1 27  2  0  0  0
  2  3  1  0  0  0
  2  6  1  0  0  0
  3  4  1  0  0  0
  3  7  1  0  0  0
  3 28  1  0  0  0
  4  5  1  0  0  0
  4 29  1  0  0  0
  4 30  1  0  0  0
  5  6  1  0  0  0
  5 31  1  0  0  0
  5 32  1  0  0  0
  6 33  1  0  0  0
  6 34  1  0  0  0
  7  8  1  0  0  0
  7  9  2  0  0  0
  8 10  1  0  0  0
  8 35  1  0  0  0
 10 11  1  0  0  0
 10 36  1  0  0  0
 10 37  1  0  0  0
 11 12  2  0  0  0
 11 16  1  0  0  0
 12 13  1  0  0  0
 12 38  1  0  0  0
 13 14  2  0  0  0
 13 39  1  0  0  0
 14 15  1  0  0  0
 14 17  1  0  0  0
 15 16  2  0  0  0
 15 40  1  0  0  0
 16 41  1  0  0  0
 17 18  1  0  0  0
 17 19  2  0  0  0
 18 42  1  0  0  0
 18 43  1  0  0  0
 19 44  1  0  0  0
 20 21  1  0  0  0
 20 45  1  0  0  0
 20 46  1  0  0  0
 21 22  2  0  0  0
 21 26  1  0  0  0
 22 23  1  0  0  0
 22 47  1  0  0  0
 23 24  2  0  0  0
 23 48  1  0  0  0
 24 25  1  0  0  0
 24 49  1  0  0  0
 25 26  2  0  0  0
 25 50  1  0  0  0
 26 51  1  0  0  0
M  END
> <s_m_entry_id>
35380

> <s_m_entry_name>
dock_pv.230

> <s_m_Source_Path>
/home/csk/Desktop/cluster/DUD-E-result/thrb

> <s_m_Source_File>
dock_pv.maegz

> <i_m_Source_File_Index>
230

> <chembl_id>
CHEMBL4519966

> <chembl_pref_name>
None

> <i_lp_mmshare_version>
53161

> <r_lp_tautomer_probability>
1

> <s_lp_Force_Field>
OPLS_2005

> <r_lp_Energy>
15.645212

> <b_lp_Chiralities_Consistent>
1

> <s_lp_Variant>
CHEMBL204_lig5168 -1

> <s_i_glide_gridfile>
glide-grid_1ype

> <i_i_glide_lignum>
7060

> <i_i_glide_rotatable_bonds>
8

> <r_i_docking_score>
-7.23662706853418

> <r_i_glide_ligand_efficiency>
-0.268023224760525

> <r_i_glide_ligand_efficiency_sa>
-0.804069673398215

> <r_i_glide_ligand_efficiency_ln>
-1.68456747643333

> <r_i_glide_gscore>
-7.23662706853418

> <r_i_glide_lipo>
-3.13565084783642

> <r_i_glide_hbond>
-0.19779206407278

> <r_i_glide_metal>
0

> <r_i_glide_rewards>
-1.5236602691339

> <r_i_glide_evdw>
-40.0391540527344

> <r_i_glide_ecoul>
-8.43798446655273

> <r_i_glide_erotb>
1.01322673603152

> <r_i_glide_esite>
-0.125095250902963

> <r_i_glide_emodel>
-68.9189464308773

> <r_i_glide_energy>
-48.4771385192871

> <r_i_glide_einternal>
4.43929004669189

> <i_i_glide_confnum>
77

> <i_i_glide_posenum>
21

> <r_i_glide_eff_state_penalty>
0

> <s_user_duplicate_titles>
CHEMBL204_lig5168 

> <i_f3d_flags>
0

> <s_m_subgroup_title>
dock_pv

> <s_m_subgroupid>
dock_pv

> <b_m_subgroup_collapsed>
1

$$$$
CHEMBL204_lig4182
                    3D
 Schrodinger Suite 2021-1.
 44 47  0  0  1  0            999 V2000
   15.4112  -12.5779   20.1441 C   0  0  0  0  0  0
   16.4854  -13.4108   20.3182 N   0  0  0  0  0  0
   17.3099  -13.2249   13.9462 N   0  3  0  0  0  0
   16.3226  -13.0308   14.8691 C   0  0  0  0  0  0
   16.4535  -13.6904   21.6039 C   0  0  0  0  0  0
   15.9944  -11.6019   15.3545 C   0  0  0  0  0  0
   15.4824  -13.0519   22.3209 O   0  0  0  0  0  0
   14.7856  -12.3640   21.3796 C   0  0  0  0  0  0
   14.8592  -11.9490   19.0147 C   0  0  0  0  0  0
   15.5061  -12.0860   17.7795 N   0  0  0  0  0  0
   18.0156  -12.2553   13.5476 O   0  5  0  0  0  0
   13.7304  -11.1844   19.1226 N   0  0  0  0  0  0
   14.9992  -11.4982   16.5400 C   0  0  0  0  0  0
   17.3129  -14.6969   22.3464 C   0  0  0  0  0  0
   17.1261  -10.9887   15.7180 F   0  0  0  0  0  0
   15.4942  -10.9334   14.3159 F   0  0  0  0  0  0
   18.7241  -14.2161   22.6570 C   0  0  0  0  0  0
   13.6394  -11.5743   21.5263 C   0  0  0  0  0  0
   19.0814  -13.8726   23.9660 C   0  0  0  0  0  0
   13.1523  -11.0139   20.3428 C   0  0  0  0  0  0
   17.6207  -14.4403   13.4450 C   0  0  0  0  0  0
   20.3887  -13.4845   24.2632 C   0  0  0  0  0  0
   15.6166  -14.1610   15.3199 C   0  0  0  0  0  0
   20.8184  -13.0554   25.8806 Cl  0  0  0  0  0  0
   20.9989  -13.7887   21.9436 C   0  0  0  0  0  0
   19.6900  -14.1652   21.6462 C   0  0  0  0  0  0
   21.3480  -13.4532   23.2514 C   0  0  0  0  0  0
   16.9317  -15.5727   13.8739 C   0  0  0  0  0  0
   15.9252  -15.4257   14.8233 C   0  0  0  0  0  0
   16.2755  -12.7406   17.7307 H   0  0  0  0  0  0
   14.7933  -10.4432   16.7228 H   0  0  0  0  0  0
   14.0226  -11.9277   16.2936 H   0  0  0  0  0  0
   16.8198  -15.0243   23.2621 H   0  0  0  0  0  0
   17.4037  -15.5941   21.7338 H   0  0  0  0  0  0
   13.1572  -11.4249   22.4825 H   0  0  0  0  0  0
   18.3444  -13.9082   24.7563 H   0  0  0  0  0  0
   12.2626  -10.4007   20.3629 H   0  0  0  0  0  0
   18.4157  -14.4671   12.7150 H   0  0  0  0  0  0
   14.8089  -14.0835   16.0336 H   0  0  0  0  0  0
   21.7407  -13.7612   21.1600 H   0  0  0  0  0  0
   19.4305  -14.4338   20.6326 H   0  0  0  0  0  0
   22.3614  -13.1580   23.4775 H   0  0  0  0  0  0
   17.1669  -16.5495   13.4752 H   0  0  0  0  0  0
   15.3637  -16.2878   15.1593 H   0  0  0  0  0  0
  1  2  1  0  0  0
  1  8  2  0  0  0
  1  9  1  0  0  0
  2  5  2  0  0  0
  3  4  1  0  0  0
  3 11  1  0  0  0
  3 21  2  0  0  0
  4  6  1  0  0  0
  4 23  2  0  0  0
  5 14  1  0  0  0
  5  7  1  0  0  0
  6 13  1  0  0  0
  6 15  1  0  0  0
  6 16  1  0  0  0
  7  8  1  0  0  0
  8 18  1  0  0  0
  9 10  1  0  0  0
  9 12  2  0  0  0
 10 13  1  0  0  0
 10 30  1  0  0  0
 12 20  1  0  0  0
 13 31  1  0  0  0
 13 32  1  0  0  0
 14 17  1  0  0  0
 14 33  1  0  0  0
 14 34  1  0  0  0
 17 19  2  0  0  0
 17 26  1  0  0  0
 18 20  2  0  0  0
 18 35  1  0  0  0
 19 22  1  0  0  0
 19 36  1  0  0  0
 20 37  1  0  0  0
 21 28  1  0  0  0
 21 38  1  0  0  0
 22 24  1  0  0  0
 22 27  2  0  0  0
 23 29  1  0  0  0
 23 39  1  0  0  0
 25 26  2  0  0  0
 25 27  1  0  0  0
 25 40  1  0  0  0
 26 41  1  0  0  0
 27 42  1  0  0  0
 28 29  2  0  0  0
 28 43  1  0  0  0
 29 44  1  0  0  0
M  CHG  2   3   1  11  -1
M  END
> <s_m_entry_id>
35381

> <s_m_entry_name>
dock_pv.231

> <s_m_Source_Path>
/home/csk/Desktop/cluster/DUD-E-result/thrb

> <s_m_Source_File>
dock_pv.maegz

> <i_m_Source_File_Index>
231

> <chembl_id>
CHEMBL194316

> <chembl_pref_name>
None

> <i_lp_mmshare_version>
53161

> <r_lp_tautomer_probability>
1

> <s_lp_Force_Field>
OPLS_2005

> <r_lp_Energy>
21.530533

> <b_lp_Chiralities_Consistent>
1

> <s_lp_Variant>
CHEMBL204_lig4182-1

> <s_i_glide_gridfile>
glide-grid_1ype

> <i_i_glide_lignum>
5813

> <i_i_glide_rotatable_bonds>
6

> <r_i_docking_score>
-7.23244174021821

> <r_i_glide_ligand_efficiency>
-0.249394542766145

> <r_i_glide_ligand_efficiency_sa>
-0.766219049114628

> <r_i_glide_ligand_efficiency_ln>
-1.65604575961153

> <r_i_glide_gscore>
-7.23244174021821

> <r_i_glide_lipo>
-2.40452361500604

> <r_i_glide_hbond>
-0.551655863715569

> <r_i_glide_metal>
0

> <r_i_glide_rewards>
-1.3092508991462

> <r_i_glide_evdw>
-33.8584365844727

> <r_i_glide_ecoul>
-11.7177886962891

> <r_i_glide_erotb>
0.568683237510767

> <r_i_glide_esite>
-0.0851044661941823

> <r_i_glide_emodel>
-61.5103694105857

> <r_i_glide_energy>
-45.5762252807617

> <r_i_glide_einternal>
6.15544319152832

> <i_i_glide_confnum>
34

> <i_i_glide_posenum>
375

> <r_i_glide_eff_state_penalty>
0

> <s_user_duplicate_titles>
CHEMBL204_lig4182,329917

> <i_f3d_flags>
0

> <s_m_subgroup_title>
dock_pv

> <s_m_subgroupid>
dock_pv

> <b_m_subgroup_collapsed>
1

$$$$
CHEMBL204_lig323
                    3D
 Schrodinger Suite 2021-1.
 49 51  0  0  1  0            999 V2000
   19.1980  -12.9843   20.6312 C   0  0  0  0  0  0
   18.5405  -13.3011   21.8850 C   0  0  0  0  0  0
   18.7266  -11.9468   19.6211 C   0  0  2  0  0  0
   17.3363  -12.2525   19.0137 C   0  0  0  0  0  0
   19.3675  -13.8106   22.8171 N   0  0  0  0  0  0
   11.2309  -10.8026   23.5956 C   0  0  0  0  0  0
   16.2952  -11.6020   19.5549 N   0  0  0  0  0  0
   12.1463  -11.0543   22.4434 C   0  0  0  0  0  0
   11.2181   -9.7034   24.2086 N   0  0  0  0  0  0
   20.3221  -13.6134   20.2160 C   0  0  0  0  0  0
   17.3401  -13.0930   22.0665 O   0  0  0  0  0  0
   17.2145  -13.0515   18.0844 O   0  0  0  0  0  0
   13.0732  -10.0765   22.0437 C   0  0  0  0  0  0
   12.1295  -12.2621   21.7195 C   0  0  0  0  0  0
   10.4161  -11.8530   23.9206 N   0  0  0  0  0  0
   14.8992  -11.7732   19.1564 C   0  0  0  0  0  0
   19.0316  -14.3306   24.0631 C   0  0  0  0  0  0
   13.9305  -11.5132   20.3005 C   0  0  0  0  0  0
   13.9566  -10.3005   20.9922 C   0  0  0  0  0  0
   13.0073  -12.4902   20.6653 C   0  0  0  0  0  0
   20.8163  -13.0756   18.9024 C   0  0  0  0  0  0
   19.8506  -11.9653   18.5676 C   0  0  0  0  0  0
   17.8514  -15.0493   24.2864 C   0  0  0  0  0  0
   19.9754  -14.1830   25.0762 C   0  0  0  0  0  0
   19.7268  -14.7390   26.3212 C   0  0  0  0  0  0
   17.6160  -15.6155   25.5329 C   0  0  0  0  0  0
   18.5519  -15.4533   26.5494 C   0  0  0  0  0  0
   18.6658  -10.9648   20.0924 H   0  0  0  0  0  0
   20.3516  -13.7748   22.6114 H   0  0  0  0  0  0
   16.4701  -10.9462   20.3011 H   0  0  0  0  0  0
   10.5040   -9.7117   24.9272 H   0  0  0  0  0  0
   20.8593  -14.4065   20.7203 H   0  0  0  0  0  0
   13.1294   -9.1309   22.5638 H   0  0  0  0  0  0
   11.4353  -13.0541   21.9576 H   0  0  0  0  0  0
    9.6632  -11.7193   24.5950 H   0  0  0  0  0  0
   10.5294  -12.7759   23.5213 H   0  0  0  0  0  0
   14.6882  -11.0530   18.3670 H   0  0  0  0  0  0
   14.7242  -12.7574   18.7156 H   0  0  0  0  0  0
   14.6657   -9.5287   20.7281 H   0  0  0  0  0  0
   12.9680  -13.4346   20.1408 H   0  0  0  0  0  0
   21.8335  -12.6949   18.9986 H   0  0  0  0  0  0
   20.8162  -13.8542   18.1437 H   0  0  0  0  0  0
   20.4162  -11.0437   18.6115 H   0  0  0  0  0  0
   19.5036  -12.0568   17.5359 H   0  0  0  0  0  0
   17.1224  -15.1886   23.5017 H   0  0  0  0  0  0
   20.8948  -13.6395   24.9082 H   0  0  0  0  0  0
   20.4452  -14.6104   27.1152 H   0  0  0  0  0  0
   16.7086  -16.1727   25.7068 H   0  0  0  0  0  0
   18.3668  -15.8826   27.5231 H   0  0  0  0  0  0
  1  2  1  0  0  0
  1  3  1  0  0  0
  1 10  2  0  0  0
  2  5  1  0  0  0
  2 11  2  0  0  0
  3  4  1  0  0  0
  3 22  1  0  0  0
  3 28  1  0  0  0
  4  7  1  0  0  0
  4 12  2  0  0  0
  5 17  1  0  0  0
  5 29  1  0  0  0
  6  8  1  0  0  0
  6  9  2  0  0  0
  6 15  1  0  0  0
  7 16  1  0  0  0
  7 30  1  0  0  0
  8 14  2  0  0  0
  8 13  1  0  0  0
  9 31  1  0  0  0
 10 21  1  0  0  0
 10 32  1  0  0  0
 13 19  2  0  0  0
 13 33  1  0  0  0
 14 20  1  0  0  0
 14 34  1  0  0  0
 15 35  1  0  0  0
 15 36  1  0  0  0
 16 18  1  0  0  0
 16 37  1  0  0  0
 16 38  1  0  0  0
 17 23  2  0  0  0
 17 24  1  0  0  0
 18 19  1  0  0  0
 18 20  2  0  0  0
 19 39  1  0  0  0
 20 40  1  0  0  0
 21 22  1  0  0  0
 21 41  1  0  0  0
 21 42  1  0  0  0
 22 43  1  0  0  0
 22 44  1  0  0  0
 23 26  1  0  0  0
 23 45  1  0  0  0
 24 25  2  0  0  0
 24 46  1  0  0  0
 25 27  1  0  0  0
 25 47  1  0  0  0
 26 27  2  0  0  0
 26 48  1  0  0  0
 27 49  1  0  0  0
M  END
> <s_m_entry_id>
35382

> <s_m_entry_name>
dock_pv.232

> <s_m_Source_Path>
/home/csk/Desktop/cluster/DUD-E-result/thrb

> <s_m_Source_File>
dock_pv.maegz

> <i_m_Source_File_Index>
232

> <chembl_id>
CHEMBL416904

> <chembl_pref_name>
None

> <i_lp_mmshare_version>
53161

> <r_lp_tautomer_probability>
1

> <s_lp_Force_Field>
OPLS_2005

> <r_lp_Energy>
25.963347

> <b_lp_Chiralities_Consistent>
1

> <s_lp_Variant>
CHEMBL204_lig323-1

> <s_i_glide_gridfile>
glide-grid_1ype

> <i_i_glide_lignum>
411

> <i_i_glide_rotatable_bonds>
8

> <r_i_docking_score>
-7.23007538115191

> <r_i_glide_ligand_efficiency>
-0.267780569672293

> <r_i_glide_ligand_efficiency_sa>
-0.803341708134318

> <r_i_glide_ligand_efficiency_ln>
-1.68304235162375

> <r_i_glide_gscore>
-7.23007538115191

> <r_i_glide_lipo>
-3.13476400491275

> <r_i_glide_hbond>
-0.195336350588279

> <r_i_glide_metal>
0

> <r_i_glide_rewards>
-1.36055460030746

> <r_i_glide_evdw>
-41.9026069641113

> <r_i_glide_ecoul>
-8.89579105377197

> <r_i_glide_erotb>
1.02330410030385

> <r_i_glide_esite>
-0.133225519375912

> <r_i_glide_emodel>
-69.7412459195274

> <r_i_glide_energy>
-50.7983980178833

> <r_i_glide_einternal>
4.67756509780884

> <i_i_glide_confnum>
9

> <i_i_glide_posenum>
391

> <r_i_glide_eff_state_penalty>
0

> <s_user_duplicate_titles>
CHEMBL204_lig323

> <i_f3d_flags>
0

> <s_m_subgroup_title>
dock_pv

> <s_m_subgroupid>
dock_pv

> <b_m_subgroup_collapsed>
1

$$$$
CHEMBL204_lig4753
                    3D
 Schrodinger Suite 2021-1.
 53 55  0  0  1  0            999 V2000
   13.2173  -10.1339   21.8867 C   0  0  0  0  0  0
   13.1132   -9.0532   22.7661 C   0  0  0  0  0  0
   12.1642   -9.0529   23.7836 C   0  0  0  0  0  0
   11.3385  -10.1597   23.9615 C   0  0  0  0  0  0
   11.4514  -11.2538   23.1071 C   0  0  0  0  0  0
   12.3686  -11.2432   22.0414 C   0  0  0  0  0  0
   14.2212  -10.0242   20.7429 C   0  0  0  0  0  0
   14.9627  -11.2440   20.3726 N   0  0  0  0  0  0
   14.8372  -11.8531   19.1741 C   0  0  0  0  0  0
   15.6965  -13.0676   18.7853 C   0  0  0  0  0  0
   16.4800  -13.6655   19.8890 N   0  0  0  0  0  0
   14.0508  -11.4529   18.3210 O   0  0  0  0  0  0
   16.0983  -14.8419   20.5292 C   0  0  0  0  0  0
   16.9673  -15.5385   21.3001 C   0  0  0  0  0  0
   18.2636  -15.1426   21.4664 N   0  0  0  0  0  0
   18.6281  -14.0191   20.9440 C   0  0  0  0  0  0
   17.7449  -13.1325   20.1119 C   0  0  0  0  0  0
   19.9465  -13.6003   21.0767 N   0  0  0  0  0  0
   21.1177  -14.4638   21.2556 C   0  0  0  0  0  0
   21.1727  -15.3504   22.5176 C   0  0  0  0  0  0
   21.2781  -14.5727   23.8237 C   0  0  0  0  0  0
   20.1411  -14.3444   24.6085 C   0  0  0  0  0  0
   20.2634  -13.6504   25.8130 C   0  0  0  0  0  0
   21.5169  -13.2037   26.2284 C   0  0  0  0  0  0
   22.6292  -13.4529   25.4202 C   0  0  0  0  0  0
   22.4811  -14.0966   24.2445 N   0  3  0  0  0  0
   14.4459  -15.4290   20.2927 Cl  0  0  0  0  0  0
   18.1259  -12.0547   19.6330 O   0  0  0  0  0  0
   23.5121  -14.2530   23.5304 O   0  5  0  0  0  0
   12.4614  -12.2523   21.1053 O   0  0  0  0  0  0
   12.0158   -7.6671   24.7992 Cl  0  0  0  0  0  0
   11.8797  -13.5119   21.3788 C   0  0  0  0  0  0
   13.7628   -8.1981   22.6622 H   0  0  0  0  0  0
   10.5934  -10.1695   24.7449 H   0  0  0  0  0  0
   10.7748  -12.0794   23.2691 H   0  0  0  0  0  0
   13.6161   -9.6508   19.9184 H   0  0  0  0  0  0
   14.9707   -9.2606   20.9616 H   0  0  0  0  0  0
   15.6234  -11.6054   21.0429 H   0  0  0  0  0  0
   15.0353  -13.8211   18.3594 H   0  0  0  0  0  0
   16.3498  -12.7603   17.9672 H   0  0  0  0  0  0
   16.6627  -16.4551   21.7872 H   0  0  0  0  0  0
   20.1583  -12.6980   20.6735 H   0  0  0  0  0  0
   21.1580  -15.1256   20.3881 H   0  0  0  0  0  0
   22.0155  -13.8535   21.1892 H   0  0  0  0  0  0
   20.3269  -16.0322   22.5673 H   0  0  0  0  0  0
   22.0336  -16.0145   22.4399 H   0  0  0  0  0  0
   19.1720  -14.6973   24.2845 H   0  0  0  0  0  0
   19.3912  -13.4602   26.4230 H   0  0  0  0  0  0
   21.6165  -12.6602   27.1572 H   0  0  0  0  0  0
   23.6346  -13.1346   25.6569 H   0  0  0  0  0  0
   11.9621  -14.1451   20.4965 H   0  0  0  0  0  0
   12.4067  -14.0017   22.2011 H   0  0  0  0  0  0
   10.8206  -13.4229   21.6020 H   0  0  0  0  0  0
  1  6  1  0  0  0
  1  2  2  0  0  0
  1  7  1  0  0  0
  2  3  1  0  0  0
  2 33  1  0  0  0
  3  4  2  0  0  0
  3 31  1  0  0  0
  4  5  1  0  0  0
  4 34  1  0  0  0
  5  6  2  0  0  0
  5 35  1  0  0  0
  6 30  1  0  0  0
  7  8  1  0  0  0
  7 36  1  0  0  0
  7 37  1  0  0  0
  8  9  1  0  0  0
  8 38  1  0  0  0
  9 10  1  0  0  0
  9 12  2  0  0  0
 10 11  1  0  0  0
 10 39  1  0  0  0
 10 40  1  0  0  0
 11 13  1  0  0  0
 11 17  1  0  0  0
 13 14  2  0  0  0
 13 27  1  0  0  0
 14 15  1  0  0  0
 14 41  1  0  0  0
 15 16  2  0  0  0
 16 17  1  0  0  0
 16 18  1  0  0  0
 17 28  2  0  0  0
 18 19  1  0  0  0
 18 42  1  0  0  0
 19 20  1  0  0  0
 19 43  1  0  0  0
 19 44  1  0  0  0
 20 21  1  0  0  0
 20 45  1  0  0  0
 20 46  1  0  0  0
 21 22  2  0  0  0
 21 26  1  0  0  0
 22 23  1  0  0  0
 22 47  1  0  0  0
 23 24  2  0  0  0
 23 48  1  0  0  0
 24 25  1  0  0  0
 24 49  1  0  0  0
 25 26  2  0  0  0
 25 50  1  0  0  0
 26 29  1  0  0  0
 30 32  1  0  0  0
 32 51  1  0  0  0
 32 52  1  0  0  0
 32 53  1  0  0  0
M  CHG  2  26   1  29  -1
M  END
> <s_m_entry_id>
35383

> <s_m_entry_name>
dock_pv.233

> <s_m_Source_Path>
/home/csk/Desktop/cluster/DUD-E-result/thrb

> <s_m_Source_File>
dock_pv.maegz

> <i_m_Source_File_Index>
233

> <chembl_id>
CHEMBL1682764

> <chembl_pref_name>
None

> <i_lp_mmshare_version>
53161

> <r_lp_tautomer_probability>
1

> <s_lp_Force_Field>
OPLS_2005

> <r_lp_Energy>
23.670487

> <b_lp_Chiralities_Consistent>
1

> <s_lp_Variant>
CHEMBL204_lig4753-1

> <s_i_glide_gridfile>
glide-grid_1ype

> <i_i_glide_lignum>
6498

> <i_i_glide_rotatable_bonds>
10

> <r_i_docking_score>
-7.22779660267442

> <r_i_glide_ligand_efficiency>
-0.225868643833576

> <r_i_glide_ligand_efficiency_sa>
-0.717088244827685

> <r_i_glide_ligand_efficiency_ln>
-1.61850068163302

> <r_i_glide_gscore>
-7.22779660267442

> <r_i_glide_lipo>
-3.38153477222326

> <r_i_glide_hbond>
-0.0542355106283664

> <r_i_glide_metal>
0

> <r_i_glide_rewards>
-0.706100423794248

> <r_i_glide_evdw>
-46.5290489196777

> <r_i_glide_ecoul>
-9.78666687011719

> <r_i_glide_erotb>
0.70852658047292

> <r_i_glide_esite>
0

> <r_i_glide_emodel>
-73.5567030739591

> <r_i_glide_energy>
-56.3157157897949

> <r_i_glide_einternal>
16.7122688293457

> <i_i_glide_confnum>
28

> <i_i_glide_posenum>
195

> <r_i_glide_eff_state_penalty>
0

> <s_user_duplicate_titles>
CHEMBL204_lig4753

> <i_f3d_flags>
0

> <s_m_subgroup_title>
dock_pv

> <s_m_subgroupid>
dock_pv

> <b_m_subgroup_collapsed>
1

$$$$
CHEMBL204_lig2192
                    3D
 Schrodinger Suite 2021-1.
 60 62  0  0  1  0            999 V2000
   21.5449  -16.8146   23.4618 S   0  0  0  0  0  0
   21.2160  -16.2043   21.8324 N   0  0  0  0  0  0
   11.4400  -10.5519   23.7517 C   0  0  0  0  0  0
   12.4152  -10.6728   22.6324 C   0  0  0  0  0  0
   20.4555  -17.7242   23.8337 O   0  0  0  0  0  0
   22.9413  -17.2630   23.4505 O   0  0  0  0  0  0
   21.4481  -15.3689   24.5134 C   0  0  0  0  0  0
   12.6714  -11.8979   21.9837 C   0  0  0  0  0  0
   13.5692  -12.0040   20.9162 C   0  0  0  0  0  0
   12.4820  -15.3480   19.1201 C   0  0  0  0  0  0
   13.8042  -13.3436   20.2046 C   0  0  2  0  0  0
   11.2168   -9.4533   24.3210 N   0  0  0  0  0  0
   12.5124  -14.2167   20.1543 C   0  0  0  0  0  0
   13.4432  -15.6044   18.3924 O   0  0  0  0  0  0
   15.0298  -14.1108   20.7767 C   0  0  0  0  0  0
   20.0163  -15.5447   21.5392 C   0  0  0  0  0  0
   10.8157  -11.7216   24.0878 N   0  0  0  0  0  0
   17.6485  -14.1676   20.9658 C   0  0  0  0  0  0
   16.3844  -13.3724   20.6287 C   0  0  0  0  0  0
   11.2868  -15.9685   19.0947 O   0  0  0  0  0  0
   18.7799  -16.1460   21.7810 C   0  0  0  0  0  0
   20.0693  -14.2613   20.9966 C   0  0  0  0  0  0
   17.6012  -15.4588   21.5043 C   0  0  0  0  0  0
   18.8898  -13.5745   20.7168 C   0  0  0  0  0  0
   13.1212   -9.5469   22.1751 C   0  0  0  0  0  0
   14.2424  -10.8576   20.4903 C   0  0  0  0  0  0
   14.0261   -9.6366   21.1212 C   0  0  0  0  0  0
   22.5898  -14.5972   24.7355 C   0  0  0  0  0  0
   20.2221  -14.9969   25.0726 C   0  0  0  0  0  0
   11.0341  -17.0032   18.1547 C   0  0  0  0  0  0
   20.1416  -13.8524   25.8622 C   0  0  0  0  0  0
   22.5040  -13.4531   25.5211 C   0  0  0  0  0  0
   21.2816  -13.0830   26.0813 C   0  0  0  0  0  0
   22.0482  -15.8377   21.3864 H   0  0  0  0  0  0
   12.1699  -12.7960   22.3097 H   0  0  0  0  0  0
   14.0307  -13.0908   19.1659 H   0  0  0  0  0  0
   10.4899   -9.5525   25.0206 H   0  0  0  0  0  0
   12.3195  -14.6535   21.1343 H   0  0  0  0  0  0
   11.6586  -13.5756   19.9335 H   0  0  0  0  0  0
   14.8527  -14.3423   21.8287 H   0  0  0  0  0  0
   15.1113  -15.0700   20.2658 H   0  0  0  0  0  0
    9.9877  -11.6766   24.6808 H   0  0  0  0  0  0
   10.9208  -12.5520   23.5233 H   0  0  0  0  0  0
   16.4833  -13.0307   19.5973 H   0  0  0  0  0  0
   16.3827  -12.4800   21.2560 H   0  0  0  0  0  0
   18.7215  -17.1459   22.1829 H   0  0  0  0  0  0
   21.0218  -13.7890   20.8021 H   0  0  0  0  0  0
   16.6615  -15.9465   21.7132 H   0  0  0  0  0  0
   18.9433  -12.5775   20.3049 H   0  0  0  0  0  0
   12.9767   -8.5850   22.6457 H   0  0  0  0  0  0
   14.9447  -10.9098   19.6714 H   0  0  0  0  0  0
   14.5634   -8.7578   20.7964 H   0  0  0  0  0  0
   23.5393  -14.8781   24.3031 H   0  0  0  0  0  0
   19.3348  -15.5874   24.8932 H   0  0  0  0  0  0
   10.0212  -17.3844   18.2861 H   0  0  0  0  0  0
   11.1282  -16.6351   17.1311 H   0  0  0  0  0  0
   11.7285  -17.8340   18.2877 H   0  0  0  0  0  0
   19.2003  -13.5574   26.3011 H   0  0  0  0  0  0
   23.3856  -12.8532   25.6878 H   0  0  0  0  0  0
   21.2159  -12.1910   26.6891 H   0  0  0  0  0  0
  1  2  1  0  0  0
  1  5  2  0  0  0
  1  6  2  0  0  0
  1  7  1  0  0  0
  2 16  1  0  0  0
  2 34  1  0  0  0
  3  4  1  0  0  0
  3 12  2  0  0  0
  3 17  1  0  0  0
  4  8  2  0  0  0
  4 25  1  0  0  0
  7 28  2  0  0  0
  7 29  1  0  0  0
  8  9  1  0  0  0
  8 35  1  0  0  0
  9 11  1  0  0  0
  9 26  2  0  0  0
 10 13  1  0  0  0
 10 14  2  0  0  0
 10 20  1  0  0  0
 11 15  1  0  0  0
 11 13  1  0  0  0
 11 36  1  0  0  0
 12 37  1  0  0  0
 13 38  1  0  0  0
 13 39  1  0  0  0
 15 19  1  0  0  0
 15 40  1  0  0  0
 15 41  1  0  0  0
 16 21  2  0  0  0
 16 22  1  0  0  0
 17 42  1  0  0  0
 17 43  1  0  0  0
 18 24  1  0  0  0
 18 19  1  0  0  0
 18 23  2  0  0  0
 19 44  1  0  0  0
 19 45  1  0  0  0
 20 30  1  0  0  0
 21 23  1  0  0  0
 21 46  1  0  0  0
 22 24  2  0  0  0
 22 47  1  0  0  0
 23 48  1  0  0  0
 24 49  1  0  0  0
 25 27  2  0  0  0
 25 50  1  0  0  0
 26 27  1  0  0  0
 26 51  1  0  0  0
 27 52  1  0  0  0
 28 32  1  0  0  0
 28 53  1  0  0  0
 29 31  2  0  0  0
 29 54  1  0  0  0
 30 55  1  0  0  0
 30 56  1  0  0  0
 30 57  1  0  0  0
 31 33  1  0  0  0
 31 58  1  0  0  0
 32 33  2  0  0  0
 32 59  1  0  0  0
 33 60  1  0  0  0
M  END
> <s_m_entry_id>
35384

> <s_m_entry_name>
dock_pv.234

> <s_m_Source_Path>
/home/csk/Desktop/cluster/DUD-E-result/thrb

> <s_m_Source_File>
dock_pv.maegz

> <i_m_Source_File_Index>
234

> <chembl_id>
CHEMBL348038

> <chembl_pref_name>
None

> <i_lp_mmshare_version>
53161

> <r_lp_tautomer_probability>
1

> <s_lp_Force_Field>
OPLS_2005

> <r_lp_Energy>
11.543654

> <b_lp_Chiralities_Consistent>
1

> <s_lp_Variant>
CHEMBL204_lig2192-2

> <s_i_glide_gridfile>
glide-grid_1ype

> <i_i_glide_lignum>
3218

> <i_i_glide_rotatable_bonds>
11

> <r_i_docking_score>
-7.22421309293819

> <r_i_glide_ligand_efficiency>
-0.218915548270854

> <r_i_glide_ligand_efficiency_sa>
-0.702179135630232

> <r_i_glide_ligand_efficiency_ln>
-1.60662758689593

> <r_i_glide_gscore>
-7.22421309293819

> <r_i_glide_lipo>
-3.73001732402949

> <r_i_glide_hbond>
-0.481502983412033

> <r_i_glide_metal>
0

> <r_i_glide_rewards>
-0.198498687782347

> <r_i_glide_evdw>
-46.0106048583984

> <r_i_glide_ecoul>
-8.3556604385376

> <r_i_glide_erotb>
0.837422756399849

> <r_i_glide_esite>
-0.0977375454136147

> <r_i_glide_emodel>
-75.6515668209298

> <r_i_glide_energy>
-54.366265296936

> <r_i_glide_einternal>
4.25498008728027

> <i_i_glide_confnum>
33

> <i_i_glide_posenum>
270

> <r_i_glide_eff_state_penalty>
0

> <s_user_duplicate_titles>
CHEMBL204_lig2192

> <i_f3d_flags>
0

> <s_m_subgroup_title>
dock_pv

> <s_m_subgroupid>
dock_pv

> <b_m_subgroup_collapsed>
1

$$$$
CHEMBL204_lig4857
                    3D
 Schrodinger Suite 2021-1.
 45 46  0  0  1  0            999 V2000
   21.0473  -13.6787   21.0365 C   0  0  0  0  0  0
   20.0428  -14.1618   22.1006 C   0  0  0  0  0  0
   19.0824  -13.0367   22.5348 C   0  0  0  0  0  0
   18.3541  -12.3778   21.3327 C   0  0  0  0  0  0
   19.3952  -11.8667   20.3080 C   0  0  0  0  0  0
   20.3731  -12.9699   19.8451 C   0  0  0  0  0  0
   17.4481  -13.3269   20.6903 N   0  0  0  0  0  0
   16.2284  -13.6344   21.1523 C   0  0  0  0  0  0
   15.4945  -14.7646   20.4093 C   0  0  0  0  0  0
   15.7259  -13.0527   22.1159 O   0  0  0  0  0  0
   14.0492  -14.6162   20.4819 N   0  0  2  0  0  0
   13.1925  -13.4220   19.5222 S   0  0  0  0  0  0
   13.1593  -11.9720   20.5598 C   0  0  0  0  0  0
   14.0016  -13.1053   18.3373 O   0  0  0  0  0  0
   11.8074  -13.8839   19.4017 O   0  0  0  0  0  0
   12.2768  -11.9114   21.6390 C   0  0  0  0  0  0
   12.2414  -10.7928   22.4944 C   0  0  0  0  0  0
   13.1257   -9.7344   22.2069 C   0  0  0  0  0  0
   14.0169   -9.7966   21.1392 C   0  0  0  0  0  0
   14.0390  -10.9174   20.3200 C   0  0  0  0  0  0
   11.3164  -10.7084   23.6580 C   0  0  0  0  0  0
   10.6008  -11.8530   23.9209 N   0  0  0  0  0  0
   11.2164   -9.6441   24.3210 N   0  0  0  0  0  0
   21.6117  -14.5342   20.6712 H   0  0  0  0  0  0
   21.7704  -13.0049   21.4990 H   0  0  0  0  0  0
   19.4725  -15.0042   21.7078 H   0  0  0  0  0  0
   20.5800  -14.5458   22.9692 H   0  0  0  0  0  0
   18.3480  -13.4515   23.2271 H   0  0  0  0  0  0
   19.6161  -12.2876   23.1165 H   0  0  0  0  0  0
   17.7716  -11.5177   21.6776 H   0  0  0  0  0  0
   19.9477  -11.0239   20.7203 H   0  0  0  0  0  0
   18.8771  -11.4581   19.4406 H   0  0  0  0  0  0
   19.8421  -13.7052   19.2408 H   0  0  0  0  0  0
   21.1365  -12.5452   19.1913 H   0  0  0  0  0  0
   17.8365  -13.8807   19.9407 H   0  0  0  0  0  0
   15.8138  -14.7807   19.3654 H   0  0  0  0  0  0
   15.8021  -15.7219   20.8320 H   0  0  0  0  0  0
   13.5830  -14.9577   21.3294 H   0  0  0  0  0  0
   11.6148  -12.7501   21.7993 H   0  0  0  0  0  0
   13.1451   -8.8503   22.8315 H   0  0  0  0  0  0
   14.7023   -8.9805   20.9585 H   0  0  0  0  0  0
   14.7485  -10.9698   19.5064 H   0  0  0  0  0  0
    9.8178  -11.8032   24.5723 H   0  0  0  0  0  0
   10.8116  -12.7601   23.5214 H   0  0  0  0  0  0
   10.5053   -9.7385   25.0380 H   0  0  0  0  0  0
  1  2  1  0  0  0
  1  6  1  0  0  0
  1 24  1  0  0  0
  1 25  1  0  0  0
  2  3  1  0  0  0
  2 26  1  0  0  0
  2 27  1  0  0  0
  3  4  1  0  0  0
  3 28  1  0  0  0
  3 29  1  0  0  0
  4  7  1  0  0  0
  4  5  1  0  0  0
  4 30  1  0  0  0
  5  6  1  0  0  0
  5 31  1  0  0  0
  5 32  1  0  0  0
  6 33  1  0  0  0
  6 34  1  0  0  0
  7  8  1  0  0  0
  7 35  1  0  0  0
  8  9  1  0  0  0
  8 10  2  0  0  0
  9 11  1  0  0  0
  9 36  1  0  0  0
  9 37  1  0  0  0
 11 12  1  0  0  0
 11 38  1  0  0  0
 12 15  2  0  0  0
 12 13  1  0  0  0
 12 14  2  0  0  0
 13 16  2  0  0  0
 13 20  1  0  0  0
 16 17  1  0  0  0
 16 39  1  0  0  0
 17 18  2  0  0  0
 17 21  1  0  0  0
 18 19  1  0  0  0
 18 40  1  0  0  0
 19 20  2  0  0  0
 19 41  1  0  0  0
 20 42  1  0  0  0
 21 22  1  0  0  0
 21 23  2  0  0  0
 22 43  1  0  0  0
 22 44  1  0  0  0
 23 45  1  0  0  0
M  END
> <s_m_entry_id>
35385

> <s_m_entry_name>
dock_pv.235

> <s_m_Source_Path>
/home/csk/Desktop/cluster/DUD-E-result/thrb

> <s_m_Source_File>
dock_pv.maegz

> <i_m_Source_File_Index>
235

> <chembl_id>
CHEMBL2159395

> <chembl_pref_name>
None

> <i_lp_mmshare_version>
53161

> <r_lp_tautomer_probability>
1

> <s_lp_Force_Field>
OPLS_2005

> <r_lp_Energy>
2.996829

> <b_lp_Chiralities_Consistent>
1

> <s_lp_Variant>
CHEMBL204_lig4857-1

> <s_i_glide_gridfile>
glide-grid_1ype

> <i_i_glide_lignum>
6641

> <i_i_glide_rotatable_bonds>
7

> <r_i_docking_score>
-7.2198044750249

> <r_i_glide_ligand_efficiency>
-0.313904542392387

> <r_i_glide_ligand_efficiency_sa>
-0.892702762002103

> <r_i_glide_ligand_efficiency_ln>
-1.74581418762855

> <r_i_glide_gscore>
-7.2198044750249

> <r_i_glide_lipo>
-2.70036511117941

> <r_i_glide_hbond>
-0.686440247417773

> <r_i_glide_metal>
0

> <r_i_glide_rewards>
-1.43315514912702

> <r_i_glide_evdw>
-35.8252372741699

> <r_i_glide_ecoul>
-8.82075119018555

> <r_i_glide_erotb>
0.825611354894905

> <r_i_glide_esite>
-0.111080779959264

> <r_i_glide_emodel>
-63.4882841682293

> <r_i_glide_energy>
-44.6459884643555

> <r_i_glide_einternal>
3.02860617637634

> <i_i_glide_confnum>
188

> <i_i_glide_posenum>
64

> <r_i_glide_eff_state_penalty>
0

> <s_user_duplicate_titles>
CHEMBL204_lig4857

> <i_f3d_flags>
0

> <s_m_subgroup_title>
dock_pv

> <s_m_subgroupid>
dock_pv

> <b_m_subgroup_collapsed>
1

$$$$
CHEMBL204_lig1134
                    3D
 Schrodinger Suite 2021-1.
 76 80  0  0  1  0            999 V2000
   16.0037  -14.3730   16.1811 C   0  0  0  0  0  0
   17.7085  -14.0733   21.2043 N   0  0  0  0  0  0
   15.8765  -14.0718   14.9145 N   0  0  0  0  0  0
   15.8212  -15.7363   16.7157 C   0  0  0  0  0  0
   18.9712  -14.5584   21.1035 C   0  0  0  0  0  0
   16.4207  -13.0101   17.2181 S   0  0  0  0  0  0
   16.1776  -15.9467   20.3214 C   0  0  0  0  0  0
   15.1200  -16.0357   18.0447 C   0  0  1  0  0  0
   16.5486  -14.9577   21.4451 C   0  0  2  0  0  0
   15.8870  -15.3983   19.1283 N   0  0  0  0  0  0
   16.0404  -12.7461   14.6749 C   0  0  0  0  0  0
   16.3497  -11.9617   15.8156 C   0  0  0  0  0  0
   20.1405  -13.5387   20.9741 C   0  0  1  0  0  0
   12.0251  -11.4431   21.7850 C   0  0  0  0  0  0
   12.3975  -12.5223   20.8170 C   0  0  0  0  0  0
   12.3764  -10.2488   21.5880 N   0  0  0  0  0  0
   16.1733  -16.6946   16.0228 O   0  0  0  0  0  0
   19.2235  -15.7663   21.1047 O   0  0  0  0  0  0
   16.0831  -17.1450   20.5770 O   0  0  0  0  0  0
   13.5947  -15.6580   18.0071 C   0  0  0  0  0  0
   21.3707  -13.9674   21.8288 C   0  0  0  0  0  0
   13.0449  -12.2117   19.6116 C   0  0  0  0  0  0
   12.1172  -13.8808   21.0414 C   0  0  0  0  0  0
   20.4230  -13.4522   19.5221 N   0  0  2  0  0  0
   11.2763  -11.8530   22.8612 N   0  0  0  0  0  0
   17.3009  -12.6607   21.2556 C   0  0  0  0  0  0
   13.1458  -14.5543   18.9762 C   0  0  0  0  0  0
   12.4814  -14.8844   20.1513 C   0  0  0  0  0  0
   13.3946  -13.2092   18.7078 C   0  0  0  0  0  0
   21.3356  -13.7603   23.3432 C   0  0  0  0  0  0
   15.3986  -13.9684   21.6618 C   0  0  0  0  0  0
   16.0348  -12.6745   22.0814 C   0  0  0  0  0  0
   15.9177  -12.1367   13.4187 C   0  0  0  0  0  0
   16.5407  -10.5776   15.7191 C   0  0  0  0  0  0
   21.1865  -12.2752   19.1366 C   0  0  0  0  0  0
   20.1500  -13.4536   24.0526 C   0  0  0  0  0  0
   22.5284  -13.9463   24.0767 C   0  0  0  0  0  0
   16.4094   -9.9945   14.4590 C   0  0  0  0  0  0
   16.0999  -10.7553   13.3321 C   0  0  0  0  0  0
   20.1813  -13.3004   25.4312 C   0  0  0  0  0  0
   22.5370  -13.7956   25.4568 C   0  0  0  0  0  0
   21.3686  -13.4632   26.1300 C   0  0  0  0  0  0
   15.1702  -17.1197   18.1881 H   0  0  0  0  0  0
   16.7303  -15.5068   22.3717 H   0  0  0  0  0  0
   15.9513  -14.3935   19.0582 H   0  0  0  0  0  0
   19.8610  -12.5612   21.3428 H   0  0  0  0  0  0
   12.0381   -9.6464   22.3231 H   0  0  0  0  0  0
   13.2393  -15.4526   16.9954 H   0  0  0  0  0  0
   13.0325  -16.5582   18.2633 H   0  0  0  0  0  0
   21.6157  -15.0129   21.6357 H   0  0  0  0  0  0
   22.2466  -13.4153   21.4957 H   0  0  0  0  0  0
   13.2669  -11.1860   19.3532 H   0  0  0  0  0  0
   11.6159  -14.2029   21.9209 H   0  0  0  0  0  0
   19.5779  -13.5134   18.9726 H   0  0  0  0  0  0
   10.8650  -11.1732   23.4855 H   0  0  0  0  0  0
   11.0007  -12.8214   22.9775 H   0  0  0  0  0  0
   17.1059  -12.3093   20.2413 H   0  0  0  0  0  0
   17.9886  -11.9655   21.7303 H   0  0  0  0  0  0
   12.2550  -15.9135   20.3867 H   0  0  0  0  0  0
   13.8312  -12.9253   17.7665 H   0  0  0  0  0  0
   14.9151  -13.7411   20.7272 H   0  0  0  0  0  0
   14.6189  -14.3364   22.3210 H   0  0  0  0  0  0
   15.3887  -11.8125   21.9207 H   0  0  0  0  0  0
   16.3136  -12.7346   23.1251 H   0  0  0  0  0  0
   15.6615  -12.7201   12.5453 H   0  0  0  0  0  0
   16.7610   -9.9788   16.5911 H   0  0  0  0  0  0
   21.4292  -12.3167   18.0742 H   0  0  0  0  0  0
   20.6070  -11.3704   19.3192 H   0  0  0  0  0  0
   22.1183  -12.1951   19.6919 H   0  0  0  0  0  0
   19.2109  -13.3190   23.5446 H   0  0  0  0  0  0
   23.4438  -14.2038   23.5660 H   0  0  0  0  0  0
   16.5253   -8.9278   14.3452 H   0  0  0  0  0  0
   15.9864  -10.2541   12.3786 H   0  0  0  0  0  0
   19.2751  -13.0534   25.9637 H   0  0  0  0  0  0
   23.4554  -13.9333   26.0084 H   0  0  0  0  0  0
   21.3803  -13.3397   27.2021 H   0  0  0  0  0  0
  1  3  2  0  0  0
  1  4  1  0  0  0
  1  6  1  0  0  0
  2  9  1  0  0  0
  2  5  1  0  0  0
  2 26  1  0  0  0
  3 11  1  0  0  0
  4  8  1  0  0  0
  4 17  2  0  0  0
  5 13  1  0  0  0
  5 18  2  0  0  0
  6 12  1  0  0  0
  7 10  1  0  0  0
  7  9  1  0  0  0
  7 19  2  0  0  0
  8 10  1  0  0  0
  8 20  1  0  0  0
  8 43  1  0  0  0
  9 31  1  0  0  0
  9 44  1  0  0  0
 10 45  1  0  0  0
 11 33  1  0  0  0
 11 12  2  0  0  0
 12 34  1  0  0  0
 13 21  1  0  0  0
 13 24  1  0  0  0
 13 46  1  0  0  0
 14 15  1  0  0  0
 14 16  2  0  0  0
 14 25  1  0  0  0
 15 22  2  0  0  0
 15 23  1  0  0  0
 16 47  1  0  0  0
 20 27  1  0  0  0
 20 48  1  0  0  0
 20 49  1  0  0  0
 21 30  1  0  0  0
 21 50  1  0  0  0
 21 51  1  0  0  0
 22 29  1  0  0  0
 22 52  1  0  0  0
 23 28  2  0  0  0
 23 53  1  0  0  0
 24 35  1  0  0  0
 24 54  1  0  0  0
 25 55  1  0  0  0
 25 56  1  0  0  0
 26 32  1  0  0  0
 26 57  1  0  0  0
 26 58  1  0  0  0
 27 28  1  0  0  0
 27 29  2  0  0  0
 28 59  1  0  0  0
 29 60  1  0  0  0
 30 36  1  0  0  0
 30 37  2  0  0  0
 31 32  1  0  0  0
 31 61  1  0  0  0
 31 62  1  0  0  0
 32 63  1  0  0  0
 32 64  1  0  0  0
 33 39  2  0  0  0
 33 65  1  0  0  0
 34 38  2  0  0  0
 34 66  1  0  0  0
 35 67  1  0  0  0
 35 68  1  0  0  0
 35 69  1  0  0  0
 36 40  2  0  0  0
 36 70  1  0  0  0
 37 41  1  0  0  0
 37 71  1  0  0  0
 38 39  1  0  0  0
 38 72  1  0  0  0
 39 73  1  0  0  0
 40 42  1  0  0  0
 40 74  1  0  0  0
 41 42  2  0  0  0
 41 75  1  0  0  0
 42 76  1  0  0  0
M  END
> <s_m_entry_id>
35386

> <s_m_entry_name>
dock_pv.236

> <s_m_Source_Path>
/home/csk/Desktop/cluster/DUD-E-result/thrb

> <s_m_Source_File>
dock_pv.maegz

> <i_m_Source_File_Index>
236

> <chembl_id>
CHEMBL366687

> <chembl_pref_name>
None

> <i_lp_mmshare_version>
53161

> <r_lp_tautomer_probability>
0.99990000499975

> <s_lp_Force_Field>
OPLS_2005

> <r_lp_Energy>
20.624792

> <b_lp_Chiralities_Consistent>
1

> <s_lp_Variant>
CHEMBL204_lig1134-1

> <s_i_glide_gridfile>
glide-grid_1ype

> <i_i_glide_lignum>
1799

> <i_i_glide_rotatable_bonds>
13

> <r_i_docking_score>
-7.21850905574042

> <r_i_glide_ligand_efficiency>
-0.171869263231915

> <r_i_glide_ligand_efficiency_sa>
-0.597422137686817

> <r_i_glide_ligand_efficiency_ln>
-1.52364129146598

> <r_i_glide_gscore>
-7.21850905574042

> <r_i_glide_lipo>
-3.32196108865537

> <r_i_glide_hbond>
-0.32

> <r_i_glide_metal>
0

> <r_i_glide_rewards>
-0.526552093027372

> <r_i_glide_evdw>
-54.3953323364258

> <r_i_glide_ecoul>
-5.14127397537231

> <r_i_glide_erotb>
0.452375542676173

> <r_i_glide_esite>
-0.0114137036067192

> <r_i_glide_emodel>
-70.8675947452708

> <r_i_glide_energy>
-59.5366063117981

> <r_i_glide_einternal>
30.6247215270996

> <i_i_glide_confnum>
6

> <i_i_glide_posenum>
14

> <r_i_glide_eff_state_penalty>
0

> <s_user_duplicate_titles>
CHEMBL204_lig1134

> <i_f3d_flags>
0

> <s_m_subgroup_title>
dock_pv

> <s_m_subgroupid>
dock_pv

> <b_m_subgroup_collapsed>
1

$$$$
CHEMBL204_lig122
                    3D
 Schrodinger Suite 2021-1.
 48 50  0  0  1  0            999 V2000
   12.7293   -7.7377   24.3211 Br  0  0  0  0  0  0
   20.2484  -12.5705   19.3586 Cl  0  0  0  0  0  0
   19.2490  -15.5635   24.8337 S   0  0  0  0  0  0
   17.8697  -15.3521   25.2864 O   0  0  0  0  0  0
   19.8011  -16.9179   24.7051 O   0  0  0  0  0  0
   15.1550  -10.9056   20.6290 O   0  0  0  0  0  0
   17.2191  -13.1894   19.0896 O   0  0  0  0  0  0
   13.4888  -12.0611   19.5688 O   0  0  0  0  0  0
   11.7446  -13.0528   21.5661 O   0  0  0  0  0  0
   20.3134  -14.6572   25.9194 N   0  0  0  0  0  0
   17.6751  -12.2867   21.1324 N   0  0  0  0  0  0
   19.4237  -14.7726   23.2334 C   0  0  0  0  0  0
   18.6563  -13.2085   21.5378 C   0  0  0  0  0  0
   18.4768  -13.8519   22.7703 C   0  0  0  0  0  0
   20.5417  -15.0680   22.4516 C   0  0  0  0  0  0
   19.8328  -13.4524   20.7950 C   0  0  0  0  0  0
   21.7813  -14.7001   25.6957 C   0  0  0  0  0  0
   19.8837  -13.2971   26.3508 C   0  0  0  0  0  0
   20.7408  -14.4069   21.2431 C   0  0  0  0  0  0
   13.0186  -10.9783   21.6703 C   0  0  0  0  0  0
   22.0985  -13.2565   25.3458 C   0  0  0  0  0  0
   21.1750  -12.4823   26.2639 C   0  0  0  0  0  0
   17.0428  -12.3147   19.9377 C   0  0  0  0  0  0
   13.8724  -11.3542   20.5027 C   0  0  0  0  0  0
   11.9937  -11.8274   22.1302 C   0  0  0  0  0  0
   13.2155   -9.7465   22.3210 C   0  0  0  0  0  0
   16.1264  -11.1335   19.6006 C   0  0  0  0  0  0
   12.4159   -9.3777   23.4061 C   0  0  0  0  0  0
   11.2159  -11.4541   23.2225 C   0  0  0  0  0  0
   11.4176  -10.2344   23.8589 C   0  0  0  0  0  0
   11.1690  -13.5899   22.1268 H   0  0  0  0  0  0
   17.3208  -11.6531   21.8303 H   0  0  0  0  0  0
   17.5965  -13.6463   23.3651 H   0  0  0  0  0  0
   21.2707  -15.7904   22.7881 H   0  0  0  0  0  0
   22.2775  -14.9315   26.6385 H   0  0  0  0  0  0
   22.1046  -15.4888   25.0156 H   0  0  0  0  0  0
   19.2054  -12.8296   25.6366 H   0  0  0  0  0  0
   19.5974  -13.2501   27.4012 H   0  0  0  0  0  0
   21.6160  -14.6253   20.6553 H   0  0  0  0  0  0
   23.1494  -13.0118   25.5017 H   0  0  0  0  0  0
   21.8657  -13.0535   24.2983 H   0  0  0  0  0  0
   20.9853  -11.4637   25.9215 H   0  0  0  0  0  0
   21.6161  -12.3977   27.2580 H   0  0  0  0  0  0
   13.9884   -9.0626   21.9990 H   0  0  0  0  0  0
   15.6840  -11.2884   18.6132 H   0  0  0  0  0  0
   16.7532  -10.2527   19.5174 H   0  0  0  0  0  0
   10.4283  -12.1035   23.5833 H   0  0  0  0  0  0
   10.7989   -9.9584   24.7014 H   0  0  0  0  0  0
  1 28  1  0  0  0
  2 16  1  0  0  0
  3  4  2  0  0  0
  3  5  2  0  0  0
  3 10  1  0  0  0
  3 12  1  0  0  0
  6 24  1  0  0  0
  6 27  1  0  0  0
  7 23  2  0  0  0
  8 24  2  0  0  0
  9 25  1  0  0  0
  9 31  1  0  0  0
 10 17  1  0  0  0
 10 18  1  0  0  0
 11 13  1  0  0  0
 11 23  1  0  0  0
 11 32  1  0  0  0
 12 14  1  0  0  0
 12 15  2  0  0  0
 13 14  2  0  0  0
 13 16  1  0  0  0
 14 33  1  0  0  0
 15 19  1  0  0  0
 15 34  1  0  0  0
 16 19  2  0  0  0
 17 21  1  0  0  0
 17 35  1  0  0  0
 17 36  1  0  0  0
 18 22  1  0  0  0
 18 37  1  0  0  0
 18 38  1  0  0  0
 19 39  1  0  0  0
 20 24  1  0  0  0
 20 25  1  0  0  0
 20 26  2  0  0  0
 21 22  1  0  0  0
 21 40  1  0  0  0
 21 41  1  0  0  0
 22 42  1  0  0  0
 22 43  1  0  0  0
 23 27  1  0  0  0
 25 29  2  0  0  0
 26 28  1  0  0  0
 26 44  1  0  0  0
 27 45  1  0  0  0
 27 46  1  0  0  0
 28 30  2  0  0  0
 29 30  1  0  0  0
 29 47  1  0  0  0
 30 48  1  0  0  0
M  END
> <s_m_entry_id>
35387

> <s_m_entry_name>
dock_pv.237

> <s_m_Source_Path>
/home/csk/Desktop/cluster/DUD-E-result/thrb

> <s_m_Source_File>
dock_pv.maegz

> <i_m_Source_File_Index>
237

> <chembl_id>
CHEMBL1559457

> <chembl_pref_name>
None

> <i_lp_mmshare_version>
53161

> <r_lp_tautomer_probability>
1

> <s_lp_Force_Field>
OPLS_2005

> <r_lp_Energy>
26.008333

> <b_lp_Chiralities_Consistent>
1

> <s_lp_Variant>
CHEMBL204_lig122-1

> <s_i_glide_gridfile>
glide-grid_1ype

> <i_i_glide_lignum>
141

> <i_i_glide_rotatable_bonds>
9

> <r_i_docking_score>
-7.21580530195739

> <r_i_glide_ligand_efficiency>
-0.24052684339858

> <r_i_glide_ligand_efficiency_sa>
-0.747372825515219

> <r_i_glide_ligand_efficiency_ln>
-1.63950958710065

> <r_i_glide_gscore>
-7.21580530195739

> <r_i_glide_lipo>
-3.36863091342968

> <r_i_glide_hbond>
0

> <r_i_glide_metal>
0

> <r_i_glide_rewards>
-0.782108454650997

> <r_i_glide_evdw>
-52.0794067382812

> <r_i_glide_ecoul>
-7.15892934799194

> <r_i_glide_erotb>
0.612743805236144

> <r_i_glide_esite>
0

> <r_i_glide_emodel>
-75.8381019286964

> <r_i_glide_energy>
-59.2383360862732

> <r_i_glide_einternal>
17.0801906585693

> <i_i_glide_confnum>
55

> <i_i_glide_posenum>
79

> <r_i_glide_eff_state_penalty>
0

> <s_user_duplicate_titles>
CHEMBL204_lig122

> <i_f3d_flags>
0

> <s_m_subgroup_title>
dock_pv

> <s_m_subgroupid>
dock_pv

> <b_m_subgroup_collapsed>
1

$$$$
CHEMBL204_lig4709
                    3D
 Schrodinger Suite 2021-1.
 52 53  0  0  1  0            999 V2000
   19.6056  -13.6164   24.7125 C   0  0  0  0  0  0
   18.3258  -14.4803   24.6226 C   0  0  0  0  0  0
   18.4024  -15.6001   25.6799 C   0  0  0  0  0  0
   18.0359  -15.0300   23.1866 C   0  0  1  0  0  0
   16.8160  -15.8547   23.1211 N   0  0  0  0  0  0
   17.8291  -13.8310   22.2018 C   0  0  0  0  0  0
   16.8914  -13.0531   22.4035 O   0  0  0  0  0  0
   18.6809  -13.7001   21.1497 N   0  0  0  0  0  0
   19.8280  -14.5707   20.8784 C   0  0  0  0  0  0
   20.7044  -13.8147   19.8954 C   0  0  0  0  0  0
   19.7432  -12.9038   19.1687 C   0  0  0  0  0  0
   18.6273  -12.5839   20.1732 C   0  0  1  0  0  0
   17.3133  -12.3293   19.4036 C   0  0  0  0  0  0
   17.2019  -11.2685   18.7897 O   0  0  0  0  0  0
   16.3629  -13.2783   19.4150 N   0  0  0  0  0  0
   15.0072  -13.0912   18.8973 C   0  0  0  0  0  0
   14.0730  -12.5147   19.9534 C   0  0  0  0  0  0
   13.0719  -13.3083   20.5087 C   0  0  0  0  0  0
   12.2634  -12.7979   21.5178 C   0  0  0  0  0  0
   12.4263  -11.4851   21.9995 C   0  0  0  0  0  0
   13.4057  -10.6873   21.3832 C   0  0  0  0  0  0
   14.2167  -11.1932   20.3740 C   0  0  0  0  0  0
   11.6160  -10.9411   23.1257 C   0  0  0  0  0  0
   11.6871   -9.7311   23.4599 N   0  0  0  0  0  0
   10.8160  -11.8529   23.7636 N   0  0  0  0  0  0
   20.4861  -14.1897   24.4219 H   0  0  0  0  0  0
   19.7650  -13.2574   25.7298 H   0  0  0  0  0  0
   19.5601  -12.7362   24.0712 H   0  0  0  0  0  0
   17.4864  -13.8528   24.9226 H   0  0  0  0  0  0
   19.1934  -16.3123   25.4430 H   0  0  0  0  0  0
   18.6016  -15.1933   26.6717 H   0  0  0  0  0  0
   17.4646  -16.1533   25.7439 H   0  0  0  0  0  0
   18.8616  -15.6756   22.9006 H   0  0  0  0  0  0
   16.0288  -15.3367   23.5110 H   0  0  0  0  0  0
   16.5692  -16.1058   22.1759 H   0  0  0  0  0  0
   20.4195  -14.8062   21.7635 H   0  0  0  0  0  0
   19.4650  -15.5004   20.4378 H   0  0  0  0  0  0
   21.4432  -13.2202   20.4340 H   0  0  0  0  0  0
   21.2161  -14.4889   19.2130 H   0  0  0  0  0  0
   20.2318  -12.0114   18.7763 H   0  0  0  0  0  0
   19.3317  -13.4500   18.3216 H   0  0  0  0  0  0
   18.8841  -11.6743   20.7211 H   0  0  0  0  0  0
   16.5167  -14.1000   19.9796 H   0  0  0  0  0  0
   15.0033  -12.4251   18.0310 H   0  0  0  0  0  0
   14.6293  -14.0504   18.5400 H   0  0  0  0  0  0
   12.9305  -14.3288   20.1843 H   0  0  0  0  0  0
   11.5066  -13.4528   21.9210 H   0  0  0  0  0  0
   13.5705   -9.6682   21.7036 H   0  0  0  0  0  0
   14.9810  -10.5629   19.9468 H   0  0  0  0  0  0
   11.0671   -9.5425   24.2348 H   0  0  0  0  0  0
   10.1221  -11.5399   24.4352 H   0  0  0  0  0  0
   10.8165  -12.8388   23.5211 H   0  0  0  0  0  0
  1  2  1  0  0  0
  1 26  1  0  0  0
  1 27  1  0  0  0
  1 28  1  0  0  0
  2  3  1  0  0  0
  2  4  1  0  0  0
  2 29  1  0  0  0
  3 30  1  0  0  0
  3 31  1  0  0  0
  3 32  1  0  0  0
  4  5  1  0  0  0
  4  6  1  0  0  0
  4 33  1  0  0  0
  5 34  1  0  0  0
  5 35  1  0  0  0
  6  7  2  0  0  0
  6  8  1  0  0  0
  8  9  1  0  0  0
  8 12  1  0  0  0
  9 10  1  0  0  0
  9 36  1  0  0  0
  9 37  1  0  0  0
 10 11  1  0  0  0
 10 38  1  0  0  0
 10 39  1  0  0  0
 11 12  1  0  0  0
 11 40  1  0  0  0
 11 41  1  0  0  0
 12 13  1  0  0  0
 12 42  1  0  0  0
 13 14  2  0  0  0
 13 15  1  0  0  0
 15 16  1  0  0  0
 15 43  1  0  0  0
 16 17  1  0  0  0
 16 44  1  0  0  0
 16 45  1  0  0  0
 17 18  2  0  0  0
 17 22  1  0  0  0
 18 19  1  0  0  0
 18 46  1  0  0  0
 19 20  2  0  0  0
 19 47  1  0  0  0
 20 21  1  0  0  0
 20 23  1  0  0  0
 21 22  2  0  0  0
 21 48  1  0  0  0
 22 49  1  0  0  0
 23 24  2  0  0  0
 23 25  1  0  0  0
 24 50  1  0  0  0
 25 51  1  0  0  0
 25 52  1  0  0  0
M  END
> <s_m_entry_id>
35388

> <s_m_entry_name>
dock_pv.238

> <s_m_Source_Path>
/home/csk/Desktop/cluster/DUD-E-result/thrb

> <s_m_Source_File>
dock_pv.maegz

> <i_m_Source_File_Index>
238

> <chembl_id>
CHEMBL599865

> <chembl_pref_name>
None

> <i_lp_mmshare_version>
53161

> <r_lp_tautomer_probability>
1

> <s_lp_Force_Field>
OPLS_2005

> <r_lp_Energy>
23.570158

> <b_lp_Chiralities_Consistent>
1

> <s_lp_Variant>
CHEMBL204_lig4709-1

> <s_i_glide_gridfile>
glide-grid_1ype

> <i_i_glide_lignum>
6450

> <i_i_glide_rotatable_bonds>
8

> <r_i_docking_score>
-7.21330504549521

> <r_i_glide_ligand_efficiency>
-0.288532201819809

> <r_i_glide_ligand_efficiency_sa>
-0.843673275261508

> <r_i_glide_ligand_efficiency_ln>
-1.70976946109111

> <r_i_glide_gscore>
-7.21330504549521

> <r_i_glide_lipo>
-2.36741085332307

> <r_i_glide_hbond>
-0.677897310600962

> <r_i_glide_metal>
0

> <r_i_glide_rewards>
-1.59219028076106

> <r_i_glide_evdw>
-37.1700401306152

> <r_i_glide_ecoul>
-10.4594459533691

> <r_i_glide_erotb>
0.955338111188516

> <r_i_glide_esite>
-0.103725812462502

> <r_i_glide_emodel>
-67.4417246799451

> <r_i_glide_energy>
-47.6294860839844

> <r_i_glide_einternal>
3.44766974449158

> <i_i_glide_confnum>
35

> <i_i_glide_posenum>
268

> <r_i_glide_eff_state_penalty>
0

> <s_user_duplicate_titles>
CHEMBL204_lig4709,CHEMBL204_lig5021

> <i_f3d_flags>
0

> <s_m_subgroup_title>
dock_pv

> <s_m_subgroupid>
dock_pv

> <b_m_subgroup_collapsed>
1

$$$$
CHEMBL204_lig2211
                    3D
 Schrodinger Suite 2021-1.
 47 48  0  0  1  0            999 V2000
   16.4860  -10.3819   14.9660 C   0  0  0  0  0  0
   11.2160  -10.7582   23.7006 C   0  0  0  0  0  0
   16.4361  -11.6722   15.7122 C   0  0  0  0  0  0
   17.0785  -11.7952   16.9584 C   0  0  0  0  0  0
   16.9580  -12.9406   17.7536 C   0  0  0  0  0  0
   20.0240  -12.4260   18.7206 C   0  0  0  0  0  0
   12.2346  -10.9300   22.6368 C   0  0  0  0  0  0
   17.4985  -12.9758   19.1937 C   0  0  1  0  0  0
   17.2489   -9.4530   15.3371 N   0  0  0  0  0  0
   11.1166   -9.6694   24.3210 N   0  0  0  0  0  0
   18.7525  -12.1075   19.5228 C   0  0  0  0  0  0
   20.3373  -11.8539   17.6788 O   0  0  0  0  0  0
   16.3427  -12.6935   20.1831 C   0  0  0  0  0  0
   12.4130  -12.1506   21.9606 C   0  0  0  0  0  0
   13.0692   -9.8542   22.2842 C   0  0  0  0  0  0
   15.6407  -10.2962   13.8888 N   0  0  0  0  0  0
   10.4167  -11.8530   23.9211 N   0  0  0  0  0  0
   14.3001  -11.2518   20.7663 C   0  0  0  0  0  0
   20.7699  -13.3964   19.3154 O   0  0  0  0  0  0
   15.4784  -11.4529   19.8349 C   0  0  0  0  0  0
   13.4301  -12.3083   21.0322 C   0  0  0  0  0  0
   14.0886  -10.0101   21.3579 C   0  0  0  0  0  0
   15.7295  -12.7962   15.2457 C   0  0  0  0  0  0
   16.2053  -14.0144   17.2690 C   0  0  0  0  0  0
   15.6160  -13.9535   16.0113 C   0  0  0  0  0  0
   17.6156  -10.9519   17.3606 H   0  0  0  0  0  0
   17.8135  -14.0042   19.3821 H   0  0  0  0  0  0
   17.1398   -8.6323   14.7576 H   0  0  0  0  0  0
   10.3243   -9.7041   24.9596 H   0  0  0  0  0  0
   18.5190  -11.0531   19.4177 H   0  0  0  0  0  0
   19.0032  -12.2211   20.5785 H   0  0  0  0  0  0
   15.7117  -13.5819   20.2049 H   0  0  0  0  0  0
   16.7300  -12.5966   21.1983 H   0  0  0  0  0  0
   11.7886  -13.0093   22.1646 H   0  0  0  0  0  0
   12.9642   -8.8895   22.7618 H   0  0  0  0  0  0
   15.6157   -9.4606   13.3125 H   0  0  0  0  0  0
   15.0575  -11.0742   13.6225 H   0  0  0  0  0  0
    9.6288  -11.7763   24.5663 H   0  0  0  0  0  0
   10.6037  -12.7650   23.5214 H   0  0  0  0  0  0
   21.5603  -13.5832   18.8040 H   0  0  0  0  0  0
   16.1110  -10.5638   19.8332 H   0  0  0  0  0  0
   15.0540  -11.5319   18.8342 H   0  0  0  0  0  0
   13.5503  -13.2659   20.5469 H   0  0  0  0  0  0
   14.7428   -9.1767   21.1410 H   0  0  0  0  0  0
   15.2312  -12.7921   14.2876 H   0  0  0  0  0  0
   16.0662  -14.8996   17.8718 H   0  0  0  0  0  0
   15.0414  -14.7894   15.6389 H   0  0  0  0  0  0
  1  3  1  0  0  0
  1  9  2  0  0  0
  1 16  1  0  0  0
  2  7  1  0  0  0
  2 10  2  0  0  0
  2 17  1  0  0  0
  3  4  2  0  0  0
  3 23  1  0  0  0
  4  5  1  0  0  0
  4 26  1  0  0  0
  5  8  1  0  0  0
  5 24  2  0  0  0
  6 11  1  0  0  0
  6 12  2  0  0  0
  6 19  1  0  0  0
  7 15  2  0  0  0
  7 14  1  0  0  0
  8 11  1  0  0  0
  8 13  1  0  0  0
  8 27  1  0  0  0
  9 28  1  0  0  0
 10 29  1  0  0  0
 11 30  1  0  0  0
 11 31  1  0  0  0
 13 20  1  0  0  0
 13 32  1  0  0  0
 13 33  1  0  0  0
 14 21  2  0  0  0
 14 34  1  0  0  0
 15 22  1  0  0  0
 15 35  1  0  0  0
 16 36  1  0  0  0
 16 37  1  0  0  0
 17 38  1  0  0  0
 17 39  1  0  0  0
 18 20  1  0  0  0
 18 21  1  0  0  0
 18 22  2  0  0  0
 19 40  1  0  0  0
 20 41  1  0  0  0
 20 42  1  0  0  0
 21 43  1  0  0  0
 22 44  1  0  0  0
 23 25  2  0  0  0
 23 45  1  0  0  0
 24 25  1  0  0  0
 24 46  1  0  0  0
 25 47  1  0  0  0
M  END
> <s_m_entry_id>
35389

> <s_m_entry_name>
dock_pv.239

> <s_m_Source_Path>
/home/csk/Desktop/cluster/DUD-E-result/thrb

> <s_m_Source_File>
dock_pv.maegz

> <i_m_Source_File_Index>
239

> <chembl_id>
CHEMBL347586

> <chembl_pref_name>
None

> <i_lp_mmshare_version>
53161

> <r_lp_tautomer_probability>
1

> <s_lp_Force_Field>
OPLS_2005

> <r_lp_Energy>
3.294293

> <b_lp_Chiralities_Consistent>
1

> <s_lp_Variant>
CHEMBL204_lig2211-2

> <s_i_glide_gridfile>
glide-grid_1ype

> <i_i_glide_lignum>
3248

> <i_i_glide_rotatable_bonds>
9

> <r_i_docking_score>
-7.21063263694025

> <r_i_glide_ligand_efficiency>
-0.28842530547761

> <r_i_glide_ligand_efficiency_sa>
-0.843360708461105

> <r_i_glide_ligand_efficiency_ln>
-1.70913602017796

> <r_i_glide_gscore>
-7.21063263694025

> <r_i_glide_lipo>
-2.01266149271447

> <r_i_glide_hbond>
-0.629002278618346

> <r_i_glide_metal>
0

> <r_i_glide_rewards>
-1.30448151739927

> <r_i_glide_evdw>
-36.5261077880859

> <r_i_glide_ecoul>
-15.0213375091553

> <r_i_glide_erotb>
0.990850867587256

> <r_i_glide_esite>
-0.175832200017835

> <r_i_glide_emodel>
-71.1381742727213

> <r_i_glide_energy>
-51.5474452972412

> <r_i_glide_einternal>
7.15293455123901

> <i_i_glide_confnum>
61

> <i_i_glide_posenum>
388

> <r_i_glide_eff_state_penalty>
0

> <s_user_duplicate_titles>
CHEMBL204_lig2211

> <i_f3d_flags>
0

> <s_m_subgroup_title>
dock_pv

> <s_m_subgroupid>
dock_pv

> <b_m_subgroup_collapsed>
1

$$$$
CHEMBL204_lig313
                    3D
 Schrodinger Suite 2021-1.
 67 70  0  0  1  0            999 V2000
   15.7132  -16.4909   21.4846 N   0  0  0  0  0  0
   16.5737  -15.4540   21.3016 C   0  0  0  0  0  0
   17.4727  -15.0205   22.5042 C   0  0  1  0  0  0
   14.6975  -16.8899   20.4796 C   0  0  2  0  0  0
   13.6857  -15.8007   20.0773 C   0  0  0  0  0  0
   18.9932  -14.8473   22.1469 C   0  0  0  0  0  0
   13.2382  -14.9909   21.0529 N   0  0  0  0  0  0
   12.5207  -11.5185   21.8834 C   0  0  0  0  0  0
   16.6331  -14.8164   20.2451 O   0  0  0  0  0  0
   12.9952  -12.5124   21.0002 C   0  0  0  0  0  0
   12.3163  -13.8757   20.8462 C   0  0  0  0  0  0
   13.3363  -15.7234   18.8997 O   0  0  0  0  0  0
   19.8838  -14.7348   23.3922 C   0  0  0  0  0  0
   19.3759  -13.7799   21.1085 C   0  0  0  0  0  0
   13.1874  -10.2757   21.9380 C   0  0  0  0  0  0
   16.8165  -13.8533   23.1148 N   0  0  0  0  0  0
   15.6814  -17.3970   22.6363 C   0  0  0  0  0  0
   13.9784  -18.0959   21.1185 C   0  0  0  0  0  0
   14.9638  -18.6402   22.1374 C   0  0  0  0  0  0
   14.8038  -11.0539   20.3177 C   0  0  0  0  0  0
   11.3311  -11.8146   22.8062 C   0  0  0  0  0  0
   14.1400  -12.2695   20.2345 C   0  0  0  0  0  0
   14.3120  -10.0498   21.1380 C   0  0  0  0  0  0
   12.7470   -9.1631   22.8784 C   0  0  0  0  0  0
   20.3911  -14.0731   20.1893 C   0  0  0  0  0  0
   19.9338  -13.5480   24.1343 C   0  0  0  0  0  0
   20.6899  -15.8162   23.7668 C   0  0  0  0  0  0
   18.7902  -12.5077   21.1022 C   0  0  0  0  0  0
   21.5670  -15.6951   24.8411 C   0  0  0  0  0  0
   20.8052  -13.4286   25.2112 C   0  0  0  0  0  0
   19.2099  -11.5492   20.1949 C   0  0  0  0  0  0
   20.8153  -13.1088   19.2836 C   0  0  0  0  0  0
   20.2234  -11.8533   19.2890 C   0  0  0  0  0  0
   21.6292  -14.4982   25.5456 C   0  0  0  0  0  0
   17.4733  -15.7801   23.2812 H   0  0  0  0  0  0
   15.2368  -17.2220   19.5890 H   0  0  0  0  0  0
   19.2607  -15.7973   21.6798 H   0  0  0  0  0  0
   13.5907  -15.1098   21.9894 H   0  0  0  0  0  0
   11.8654  -13.8939   19.8499 H   0  0  0  0  0  0
   11.4778  -14.0154   21.5205 H   0  0  0  0  0  0
   15.9220  -14.1513   23.5180 H   0  0  0  0  0  0
   17.3807  -13.5511   23.8952 H   0  0  0  0  0  0
   16.6719  -17.6832   22.9946 H   0  0  0  0  0  0
   15.1259  -16.9212   23.4494 H   0  0  0  0  0  0
   13.6895  -18.8476   20.3788 H   0  0  0  0  0  0
   13.0694  -17.7809   21.6366 H   0  0  0  0  0  0
   15.6832  -19.2824   21.6242 H   0  0  0  0  0  0
   14.4993  -19.2162   22.9375 H   0  0  0  0  0  0
   15.6905  -10.8848   19.7224 H   0  0  0  0  0  0
   11.0351  -10.9874   23.4502 H   0  0  0  0  0  0
   10.4414  -12.1029   22.2466 H   0  0  0  0  0  0
   11.5844  -12.6503   23.4593 H   0  0  0  0  0  0
   14.5236  -13.0328   19.5721 H   0  0  0  0  0  0
   14.8412   -9.1086   21.1852 H   0  0  0  0  0  0
   13.3521   -8.2617   22.7778 H   0  0  0  0  0  0
   11.7090   -8.9058   22.6739 H   0  0  0  0  0  0
   12.8135   -9.4926   23.9151 H   0  0  0  0  0  0
   20.8713  -15.0410   20.1863 H   0  0  0  0  0  0
   19.3253  -12.6991   23.8585 H   0  0  0  0  0  0
   20.6629  -16.7441   23.2138 H   0  0  0  0  0  0
   18.0274  -12.2213   21.8067 H   0  0  0  0  0  0
   22.2033  -16.5229   25.1222 H   0  0  0  0  0  0
   20.8579  -12.5046   25.7705 H   0  0  0  0  0  0
   18.7573  -10.5693   20.2277 H   0  0  0  0  0  0
   21.6099  -13.3288   18.5868 H   0  0  0  0  0  0
   20.5675  -11.1057   18.5929 H   0  0  0  0  0  0
   22.3187  -14.3991   26.3711 H   0  0  0  0  0  0
  1  2  1  0  0  0
  1  4  1  0  0  0
  1 17  1  0  0  0
  2  3  1  0  0  0
  2  9  2  0  0  0
  3  6  1  0  0  0
  3 16  1  0  0  0
  3 35  1  0  0  0
  4  5  1  0  0  0
  4 18  1  0  0  0
  4 36  1  0  0  0
  5  7  1  0  0  0
  5 12  2  0  0  0
  6 13  1  0  0  0
  6 14  1  0  0  0
  6 37  1  0  0  0
  7 11  1  0  0  0
  7 38  1  0  0  0
  8 10  2  0  0  0
  8 15  1  0  0  0
  8 21  1  0  0  0
 10 11  1  0  0  0
 10 22  1  0  0  0
 11 39  1  0  0  0
 11 40  1  0  0  0
 13 26  2  0  0  0
 13 27  1  0  0  0
 14 25  1  0  0  0
 14 28  2  0  0  0
 15 24  1  0  0  0
 15 23  2  0  0  0
 16 41  1  0  0  0
 16 42  1  0  0  0
 17 19  1  0  0  0
 17 43  1  0  0  0
 17 44  1  0  0  0
 18 19  1  0  0  0
 18 45  1  0  0  0
 18 46  1  0  0  0
 19 47  1  0  0  0
 19 48  1  0  0  0
 20 22  2  0  0  0
 20 23  1  0  0  0
 20 49  1  0  0  0
 21 50  1  0  0  0
 21 51  1  0  0  0
 21 52  1  0  0  0
 22 53  1  0  0  0
 23 54  1  0  0  0
 24 55  1  0  0  0
 24 56  1  0  0  0
 24 57  1  0  0  0
 25 32  2  0  0  0
 25 58  1  0  0  0
 26 30  1  0  0  0
 26 59  1  0  0  0
 27 29  2  0  0  0
 27 60  1  0  0  0
 28 31  1  0  0  0
 28 61  1  0  0  0
 29 34  1  0  0  0
 29 62  1  0  0  0
 30 34  2  0  0  0
 30 63  1  0  0  0
 31 33  2  0  0  0
 31 64  1  0  0  0
 32 33  1  0  0  0
 32 65  1  0  0  0
 33 66  1  0  0  0
 34 67  1  0  0  0
M  END
> <s_m_entry_id>
35390

> <s_m_entry_name>
dock_pv.240

> <s_m_Source_Path>
/home/csk/Desktop/cluster/DUD-E-result/thrb

> <s_m_Source_File>
dock_pv.maegz

> <i_m_Source_File_Index>
240

> <chembl_id>
CHEMBL3142678

> <chembl_pref_name>
None

> <i_lp_mmshare_version>
53161

> <r_lp_tautomer_probability>
1

> <s_lp_Force_Field>
OPLS_2005

> <r_lp_Energy>
31.8828

> <b_lp_Chiralities_Consistent>
1

> <s_lp_Variant>
CHEMBL204_lig313-2

> <s_i_glide_gridfile>
glide-grid_1ype

> <i_i_glide_lignum>
398

> <i_i_glide_rotatable_bonds>
9

> <r_i_docking_score>
-7.20747422015357

> <r_i_glide_ligand_efficiency>
-0.21198453588687

> <r_i_glide_ligand_efficiency_sa>
-0.686747603340193

> <r_i_glide_ligand_efficiency_ln>
-1.59233321803609

> <r_i_glide_gscore>
-7.20747422015357

> <r_i_glide_lipo>
-3.76753913127604

> <r_i_glide_hbond>
-0.382408292273658

> <r_i_glide_metal>
0

> <r_i_glide_rewards>
-0.542393677740042

> <r_i_glide_evdw>
-39.6883888244629

> <r_i_glide_ecoul>
-9.33325672149658

> <r_i_glide_erotb>
0.871119777600564

> <r_i_glide_esite>
-0.00184494701676228

> <r_i_glide_emodel>
-65.1570007831096

> <r_i_glide_energy>
-49.0216455459595

> <r_i_glide_einternal>
6.1273021697998

> <i_i_glide_confnum>
58

> <i_i_glide_posenum>
242

> <r_i_glide_eff_state_penalty>
0

> <s_user_duplicate_titles>
CHEMBL204_lig313

> <i_f3d_flags>
0

> <s_m_subgroup_title>
dock_pv

> <s_m_subgroupid>
dock_pv

> <b_m_subgroup_collapsed>
1

$$$$
CHEMBL204_lig1743
                    3D
 Schrodinger Suite 2021-1.
 64 67  0  0  1  0            999 V2000
   19.0994  -18.6753   28.9413 C   0  0  0  0  0  0
   18.9090  -18.2926   27.4676 C   0  0  0  0  0  0
   18.6014  -16.7954   27.2234 C   0  0  0  0  0  0
   20.1123  -19.2292   29.3605 O   0  0  0  0  0  0
   18.0193  -18.3521   29.7148 O   0  0  0  0  0  0
   18.8856  -16.2815   25.8640 N   0  0  0  0  0  0
   20.0251  -15.4686   25.7562 C   0  0  0  0  0  0
   21.2868  -16.0400   25.5210 C   0  0  0  0  0  0
   22.4076  -15.2210   25.3987 C   0  0  0  0  0  0
   22.2799  -13.8392   25.5225 C   0  0  0  0  0  0
   21.0356  -13.2693   25.7940 C   0  0  0  0  0  0
   19.9050  -14.0808   25.9111 C   0  0  0  0  0  0
   23.3683  -13.0535   25.3702 F   0  0  0  0  0  0
   21.4281  -17.3768   25.3743 F   0  0  0  0  0  0
   17.9935  -16.5362   24.8461 C   0  0  0  0  0  0
   17.0176  -17.2669   25.0618 O   0  0  0  0  0  0
   16.2737  -13.9111   19.8126 C   0  0  0  0  0  0
   15.7764  -14.6649   20.7608 N   0  0  0  0  0  0
   16.8413  -14.9764   21.5571 C   0  0  0  0  0  0
   18.0377  -14.4310   21.0510 C   0  0  0  0  0  0
   17.6444  -13.7241   19.9277 N   0  0  0  0  0  0
   16.8606  -15.7081   22.7478 C   0  0  0  0  0  0
   18.0602  -15.8574   23.4682 C   0  0  0  0  0  0
   19.2422  -15.3749   22.8730 C   0  0  0  0  0  0
   19.2656  -14.6495   21.6777 C   0  0  0  0  0  0
   18.5143  -12.9028   19.0863 C   0  0  0  0  0  0
   18.9447  -11.6284   19.8317 C   0  0  0  0  0  0
   15.3921  -13.3058   18.7291 C   0  0  0  0  0  0
   14.9983  -11.9259   19.0093 N   0  0  0  0  0  0
   14.1048  -11.6638   20.0615 C   0  0  0  0  0  0
   13.0764  -12.5318   20.4345 C   0  0  0  0  0  0
   12.2554  -12.2204   21.5175 C   0  0  0  0  0  0
   12.4342  -11.0348   22.2564 C   0  0  0  0  0  0
   13.4564  -10.1618   21.8363 C   0  0  0  0  0  0
   14.2760  -10.4716   20.7557 C   0  0  0  0  0  0
   11.5869  -10.6910   23.4357 C   0  0  0  0  0  0
   10.8158  -11.7209   23.9167 N   0  0  0  0  0  0
   11.6160   -9.5345   23.9335 N   0  0  0  0  0  0
   18.2130  -18.9421   26.9355 H   0  0  0  0  0  0
   19.8518  -18.5205   26.9695 H   0  0  0  0  0  0
   19.2163  -16.2195   27.9123 H   0  0  0  0  0  0
   17.6153  -16.5169   27.5777 H   0  0  0  0  0  0
   17.3143  -17.8984   29.2481 H   0  0  0  0  0  0
   23.3754  -15.6563   25.2021 H   0  0  0  0  0  0
   20.9474  -12.1975   25.9104 H   0  0  0  0  0  0
   18.9411  -13.6360   26.1112 H   0  0  0  0  0  0
   15.9316  -16.0932   23.1352 H   0  0  0  0  0  0
   20.2059  -15.5491   23.3117 H   0  0  0  0  0  0
   20.1935  -14.2705   21.2734 H   0  0  0  0  0  0
   19.3911  -13.4946   18.8207 H   0  0  0  0  0  0
   18.0080  -12.6538   18.1540 H   0  0  0  0  0  0
   19.6646  -11.0563   19.2494 H   0  0  0  0  0  0
   18.0935  -10.9825   20.0520 H   0  0  0  0  0  0
   19.4367  -11.8627   20.7738 H   0  0  0  0  0  0
   15.9257  -13.3083   17.7800 H   0  0  0  0  0  0
   14.5088  -13.9165   18.5363 H   0  0  0  0  0  0
   15.7706  -11.2758   19.0079 H   0  0  0  0  0  0
   12.9052  -13.4576   19.9052 H   0  0  0  0  0  0
   11.4774  -12.9269   21.7704 H   0  0  0  0  0  0
   13.6528   -9.2359   22.3578 H   0  0  0  0  0  0
   15.0676   -9.7878   20.4892 H   0  0  0  0  0  0
   10.1071  -11.5016   24.6095 H   0  0  0  0  0  0
   10.8345  -12.6590   23.5316 H   0  0  0  0  0  0
   12.2415   -8.9150   23.4460 H   0  0  0  0  0  0
  1  2  1  0  0  0
  1  4  2  0  0  0
  1  5  1  0  0  0
  2  3  1  0  0  0
  2 39  1  0  0  0
  2 40  1  0  0  0
  3  6  1  0  0  0
  3 41  1  0  0  0
  3 42  1  0  0  0
  5 43  1  0  0  0
  6  7  1  0  0  0
  6 15  1  0  0  0
  7  8  1  0  0  0
  7 12  2  0  0  0
  8  9  2  0  0  0
  8 14  1  0  0  0
  9 10  1  0  0  0
  9 44  1  0  0  0
 10 11  2  0  0  0
 10 13  1  0  0  0
 11 12  1  0  0  0
 11 45  1  0  0  0
 12 46  1  0  0  0
 15 16  2  0  0  0
 15 23  1  0  0  0
 17 18  2  0  0  0
 17 21  1  0  0  0
 17 28  1  0  0  0
 18 19  1  0  0  0
 19 20  1  0  0  0
 19 22  2  0  0  0
 20 21  1  0  0  0
 20 25  2  0  0  0
 21 26  1  0  0  0
 22 23  1  0  0  0
 22 47  1  0  0  0
 23 24  2  0  0  0
 24 25  1  0  0  0
 24 48  1  0  0  0
 25 49  1  0  0  0
 26 27  1  0  0  0
 26 50  1  0  0  0
 26 51  1  0  0  0
 27 52  1  0  0  0
 27 53  1  0  0  0
 27 54  1  0  0  0
 28 29  1  0  0  0
 28 55  1  0  0  0
 28 56  1  0  0  0
 29 30  1  0  0  0
 29 57  1  0  0  0
 30 31  1  0  0  0
 30 35  2  0  0  0
 31 32  2  0  0  0
 31 58  1  0  0  0
 32 33  1  0  0  0
 32 59  1  0  0  0
 33 34  2  0  0  0
 33 36  1  0  0  0
 34 35  1  0  0  0
 34 60  1  0  0  0
 35 61  1  0  0  0
 36 37  1  0  0  0
 36 38  2  0  0  0
 37 62  1  0  0  0
 37 63  1  0  0  0
 38 64  1  0  0  0
M  END
> <s_m_entry_id>
35392

> <s_m_entry_name>
dock_pv.242

> <s_m_Source_Path>
/home/csk/Desktop/cluster/DUD-E-result/thrb

> <s_m_Source_File>
dock_pv.maegz

> <i_m_Source_File_Index>
242

> <chembl_id>
CHEMBL3982468

> <chembl_pref_name>
None

> <i_lp_mmshare_version>
53161

> <r_lp_tautomer_probability>
1

> <s_lp_Force_Field>
OPLS_2005

> <r_lp_Energy>
35.019098

> <b_lp_Chiralities_Consistent>
1

> <s_lp_Variant>
CHEMBL204_lig1743-1

> <s_i_glide_gridfile>
glide-grid_1ype

> <i_i_glide_lignum>
2526

> <i_i_glide_rotatable_bonds>
12

> <r_i_docking_score>
-7.20435776155668

> <r_i_glide_ligand_efficiency>
-0.189588362146228

> <r_i_glide_ligand_efficiency_sa>
-0.63739141017806

> <r_i_glide_ligand_efficiency_ln>
-1.55347146412515

> <r_i_glide_gscore>
-7.20435776155668

> <r_i_glide_lipo>
-3.31568391102354

> <r_i_glide_hbond>
-0.415521029832842

> <r_i_glide_metal>
0

> <r_i_glide_rewards>
-0.970398237356858

> <r_i_glide_evdw>
-49.6073799133301

> <r_i_glide_ecoul>
-4.1674427986145

> <r_i_glide_erotb>
0.682651751704998

> <r_i_glide_esite>
-0.0799209195897669

> <r_i_glide_emodel>
-72.7518745094258

> <r_i_glide_energy>
-53.7748227119446

> <r_i_glide_einternal>
8.44478702545166

> <i_i_glide_confnum>
154

> <i_i_glide_posenum>
397

> <r_i_glide_eff_state_penalty>
0

> <s_user_duplicate_titles>
CHEMBL204_lig1743

> <i_f3d_flags>
0

> <s_m_subgroup_title>
dock_pv

> <s_m_subgroupid>
dock_pv

> <b_m_subgroup_collapsed>
1

$$$$
CHEMBL204_lig3418
                    3D
 Schrodinger Suite 2021-1.
 53 55  0  0  1  0            999 V2000
   18.2835  -12.8872   21.1491 S   0  0  0  0  0  0
   12.0917  -10.4709   22.6390 N   0  0  0  0  0  0
   11.6709   -9.8620   23.8659 C   0  0  0  0  0  0
   19.2867  -13.4540   22.5181 C   0  0  0  0  0  0
   17.7784  -14.3545   20.3216 N   0  0  1  0  0  0
   16.7475  -15.2022   20.9094 C   0  0  0  0  0  0
   15.3464  -14.7100   20.5209 C   0  0  0  0  0  0
   19.1556  -12.1526   20.2259 O   0  0  0  0  0  0
   17.0847  -12.2531   21.7107 O   0  0  0  0  0  0
   20.6796  -13.4538   22.4309 C   0  0  0  0  0  0
   12.0158   -8.7070   24.2350 N   0  0  0  0  0  0
   11.8766  -11.8792   22.2508 C   0  0  0  0  0  0
   21.4657  -13.8529   23.5411 C   0  0  0  0  0  0
   14.4562  -14.6197   21.5201 N   0  0  0  0  0  0
   18.6571  -13.8888   23.6826 C   0  0  0  0  0  0
   15.0937  -14.4026   19.3553 O   0  0  0  0  0  0
   10.8192  -10.6526   24.6582 N   0  0  0  0  0  0
   13.1938  -12.4712   21.6904 C   0  0  1  0  0  0
   20.8134  -14.2948   24.7297 C   0  0  0  0  0  0
   19.3999  -14.3094   24.7803 C   0  0  0  0  0  0
   13.1364  -13.9967   21.4435 C   0  0  0  0  0  0
   12.4391   -9.6489   21.4727 C   0  0  0  0  0  0
   13.7381  -10.1563   20.8291 C   0  0  0  0  0  0
   13.6532  -11.6457   20.4686 C   0  0  0  0  0  0
   22.8818  -13.8131   23.5145 C   0  0  0  0  0  0
   21.5979  -14.7039   25.8319 C   0  0  0  0  0  0
   23.6268  -14.2099   24.6202 C   0  0  0  0  0  0
   22.9886  -14.6596   25.7691 C   0  0  0  0  0  0
   17.5455  -14.1543   19.3457 H   0  0  0  0  0  0
   16.8543  -15.2523   21.9924 H   0  0  0  0  0  0
   16.8624  -16.2297   20.5649 H   0  0  0  0  0  0
   21.1735  -13.1172   21.5301 H   0  0  0  0  0  0
   11.5969   -8.4684   25.1195 H   0  0  0  0  0  0
   11.5823  -12.4741   23.1162 H   0  0  0  0  0  0
   11.0676  -11.9932   21.5321 H   0  0  0  0  0  0
   14.7457  -14.8881   22.4531 H   0  0  0  0  0  0
   17.5791  -13.8884   23.7511 H   0  0  0  0  0  0
   10.2445  -10.2215   25.3727 H   0  0  0  0  0  0
   10.3563  -11.4507   24.2462 H   0  0  0  0  0  0
   13.9482  -12.2796   22.4566 H   0  0  0  0  0  0
   18.9001  -14.6365   25.6808 H   0  0  0  0  0  0
   12.5322  -14.4694   22.2196 H   0  0  0  0  0  0
   12.6343  -14.2246   20.5000 H   0  0  0  0  0  0
   11.6152   -9.6856   20.7582 H   0  0  0  0  0  0
   12.5625   -8.6063   21.7520 H   0  0  0  0  0  0
   13.9185   -9.5826   19.9294 H   0  0  0  0  0  0
   14.5881   -9.9492   21.4832 H   0  0  0  0  0  0
   12.9686  -11.8039   19.6343 H   0  0  0  0  0  0
   14.6233  -11.9842   20.1113 H   0  0  0  0  0  0
   23.3811  -13.4541   22.6277 H   0  0  0  0  0  0
   21.1005  -15.0526   26.7211 H   0  0  0  0  0  0
   24.7061  -14.1724   24.5864 H   0  0  0  0  0  0
   23.5827  -14.9690   26.6180 H   0  0  0  0  0  0
  1  4  1  0  0  0
  1  5  1  0  0  0
  1  8  2  0  0  0
  1  9  2  0  0  0
  2  3  1  0  0  0
  2 12  1  0  0  0
  2 22  1  0  0  0
  3 11  2  0  0  0
  3 17  1  0  0  0
  4 10  2  0  0  0
  4 15  1  0  0  0
  5  6  1  0  0  0
  5 29  1  0  0  0
  6  7  1  0  0  0
  6 30  1  0  0  0
  6 31  1  0  0  0
  7 14  1  0  0  0
  7 16  2  0  0  0
 10 13  1  0  0  0
 10 32  1  0  0  0
 11 33  1  0  0  0
 12 18  1  0  0  0
 12 34  1  0  0  0
 12 35  1  0  0  0
 13 19  1  0  0  0
 13 25  2  0  0  0
 14 21  1  0  0  0
 14 36  1  0  0  0
 15 20  2  0  0  0
 15 37  1  0  0  0
 17 38  1  0  0  0
 17 39  1  0  0  0
 18 21  1  0  0  0
 18 24  1  0  0  0
 18 40  1  0  0  0
 19 20  1  0  0  0
 19 26  2  0  0  0
 20 41  1  0  0  0
 21 42  1  0  0  0
 21 43  1  0  0  0
 22 23  1  0  0  0
 22 44  1  0  0  0
 22 45  1  0  0  0
 23 24  1  0  0  0
 23 46  1  0  0  0
 23 47  1  0  0  0
 24 48  1  0  0  0
 24 49  1  0  0  0
 25 27  1  0  0  0
 25 50  1  0  0  0
 26 28  1  0  0  0
 26 51  1  0  0  0
 27 28  2  0  0  0
 27 52  1  0  0  0
 28 53  1  0  0  0
M  END
> <s_m_entry_id>
35393

> <s_m_entry_name>
dock_pv.243

> <s_m_Source_Path>
/home/csk/Desktop/cluster/DUD-E-result/thrb

> <s_m_Source_File>
dock_pv.maegz

> <i_m_Source_File_Index>
243

> <chembl_id>
CHEMBL544131

> <chembl_pref_name>
None

> <i_lp_mmshare_version>
53161

> <r_lp_tautomer_probability>
1

> <s_lp_Force_Field>
OPLS_2005

> <r_lp_Energy>
17.449605

> <b_lp_Chiralities_Consistent>
1

> <s_lp_Variant>
CHEMBL204_lig3418-2

> <s_i_glide_gridfile>
glide-grid_1ype

> <i_i_glide_lignum>
4770

> <i_i_glide_rotatable_bonds>
8

> <r_i_docking_score>
-7.20425398403963

> <r_i_glide_ligand_efficiency>
-0.257294785144272

> <r_i_glide_ligand_efficiency_sa>
-0.7812985062224

> <r_i_glide_ligand_efficiency_ln>
-1.6629533456047

> <r_i_glide_gscore>
-7.20425398403963

> <r_i_glide_lipo>
-3.12021384858946

> <r_i_glide_hbond>
-0.417234128406512

> <r_i_glide_metal>
0

> <r_i_glide_rewards>
-1.302067041665

> <r_i_glide_evdw>
-40.9062576293945

> <r_i_glide_ecoul>
-6.2082200050354

> <r_i_glide_erotb>
0.723561233126913

> <r_i_glide_esite>
-0.111754316280534

> <r_i_glide_emodel>
-66.3080164369687

> <r_i_glide_energy>
-47.1144776344299

> <r_i_glide_einternal>
5.97550010681152

> <i_i_glide_confnum>
1

> <i_i_glide_posenum>
395

> <r_i_glide_eff_state_penalty>
0

> <s_user_duplicate_titles>
CHEMBL204_lig3418,547067

> <i_f3d_flags>
0

> <s_m_subgroup_title>
dock_pv

> <s_m_subgroupid>
dock_pv

> <b_m_subgroup_collapsed>
1

$$$$
CHEMBL204_lig4571
                    3D
 Schrodinger Suite 2021-1.
 51 53  0  0  1  0            999 V2000
   25.2161  -15.0128   24.4967 C   0  0  0  0  0  0
   24.6548  -13.7480   24.3206 C   0  0  0  0  0  0
   23.3819  -13.4544   24.6782 N   0  0  0  0  0  0
   22.6222  -14.4413   25.2315 C   0  0  0  0  0  0
   23.1284  -15.7281   25.4667 C   0  0  0  0  0  0
   24.4441  -16.0081   25.0940 C   0  0  0  0  0  0
   21.1439  -14.0963   25.4636 C   0  0  0  0  0  0
   20.4642  -13.5750   24.1746 C   0  0  0  0  0  0
   21.0852  -13.1688   26.4220 F   0  0  0  0  0  0
   20.4838  -15.1643   25.9189 F   0  0  0  0  0  0
   20.7046  -14.3950   22.9837 N   0  0  0  0  0  0
   20.0544  -13.9327   21.8346 C   0  0  0  0  0  0
   18.7041  -14.2220   21.6218 C   0  0  0  0  0  0
   18.0463  -13.7465   20.4758 C   0  0  0  0  0  0
   18.7636  -12.9500   19.5513 C   0  0  0  0  0  0
   20.1249  -12.7120   19.7513 C   0  0  0  0  0  0
   20.7700  -13.2113   20.8808 C   0  0  0  0  0  0
   16.5584  -14.0840   20.2991 C   0  0  0  0  0  0
   15.6848  -12.9089   20.7338 C   0  0  0  0  0  0
   14.9783  -12.3150   19.7586 N   0  0  0  0  0  0
   15.7090  -12.5301   21.9049 O   0  0  0  0  0  0
   14.2494  -11.0532   19.8691 C   0  0  0  0  0  0
   13.2663  -10.9282   21.0221 C   0  0  0  0  0  0
   18.0241  -14.9553   22.5375 F   0  0  0  0  0  0
   18.1254  -12.3395   18.3849 C   0  0  0  0  0  0
   17.6172  -11.8534   17.4632 N   0  0  0  0  0  0
   12.4131  -11.9822   21.3682 C   0  0  0  0  0  0
   11.5790  -11.8472   22.4744 C   0  0  0  0  0  0
   11.6161  -10.6577   23.1995 C   0  0  0  0  0  0
   12.4160   -9.6168   22.8699 N   0  0  0  0  0  0
   13.2345   -9.7670   21.7998 C   0  0  0  0  0  0
   10.8170  -10.5081   24.3212 N   0  0  0  0  0  0
   26.2335  -15.2114   24.1932 H   0  0  0  0  0  0
   25.2190  -12.9414   23.8781 H   0  0  0  0  0  0
   22.5145  -16.5026   25.9013 H   0  0  0  0  0  0
   24.8571  -16.9927   25.2555 H   0  0  0  0  0  0
   20.8149  -12.5637   23.9665 H   0  0  0  0  0  0
   19.3923  -13.4635   24.3379 H   0  0  0  0  0  0
   21.6883  -14.5787   22.8392 H   0  0  0  0  0  0
   20.7013  -12.1275   19.0467 H   0  0  0  0  0  0
   21.8213  -13.0073   21.0281 H   0  0  0  0  0  0
   16.2709  -14.9557   20.8888 H   0  0  0  0  0  0
   16.3645  -14.3653   19.2622 H   0  0  0  0  0  0
   15.0522  -12.6994   18.8296 H   0  0  0  0  0  0
   13.6972  -10.9042   18.9400 H   0  0  0  0  0  0
   14.9895  -10.2538   19.9215 H   0  0  0  0  0  0
   12.4067  -12.8997   20.7999 H   0  0  0  0  0  0
   10.9153  -12.6512   22.7580 H   0  0  0  0  0  0
   13.8873   -8.9313   21.5851 H   0  0  0  0  0  0
   10.0720  -11.1748   24.4876 H   0  0  0  0  0  0
   10.7282   -9.5865   24.7226 H   0  0  0  0  0  0
  1  6  1  0  0  0
  1  2  2  0  0  0
  1 33  1  0  0  0
  2  3  1  0  0  0
  2 34  1  0  0  0
  3  4  2  0  0  0
  4  5  1  0  0  0
  4  7  1  0  0  0
  5  6  2  0  0  0
  5 35  1  0  0  0
  6 36  1  0  0  0
  7  8  1  0  0  0
  7  9  1  0  0  0
  7 10  1  0  0  0
  8 11  1  0  0  0
  8 37  1  0  0  0
  8 38  1  0  0  0
 11 12  1  0  0  0
 11 39  1  0  0  0
 12 17  1  0  0  0
 12 13  2  0  0  0
 13 24  1  0  0  0
 13 14  1  0  0  0
 14 18  1  0  0  0
 14 15  2  0  0  0
 15 16  1  0  0  0
 15 25  1  0  0  0
 16 17  2  0  0  0
 16 40  1  0  0  0
 17 41  1  0  0  0
 18 19  1  0  0  0
 18 42  1  0  0  0
 18 43  1  0  0  0
 19 20  1  0  0  0
 19 21  2  0  0  0
 20 22  1  0  0  0
 20 44  1  0  0  0
 22 23  1  0  0  0
 22 45  1  0  0  0
 22 46  1  0  0  0
 23 27  2  0  0  0
 23 31  1  0  0  0
 25 26  3  0  0  0
 27 28  1  0  0  0
 27 47  1  0  0  0
 28 29  2  0  0  0
 28 48  1  0  0  0
 29 30  1  0  0  0
 29 32  1  0  0  0
 30 31  2  0  0  0
 31 49  1  0  0  0
 32 50  1  0  0  0
 32 51  1  0  0  0
M  END
> <s_m_entry_id>
35394

> <s_m_entry_name>
dock_pv.244

> <s_m_Source_Path>
/home/csk/Desktop/cluster/DUD-E-result/thrb

> <s_m_Source_File>
dock_pv.maegz

> <i_m_Source_File_Index>
244

> <chembl_id>
CHEMBL255916

> <chembl_pref_name>
None

> <i_lp_mmshare_version>
53161

> <r_lp_tautomer_probability>
0.999999772200052

> <s_lp_Force_Field>
OPLS_2005

> <r_lp_Energy>
16.242529

> <b_lp_Chiralities_Consistent>
1

> <s_lp_Variant>
CHEMBL204_lig4571-1

> <s_i_glide_gridfile>
glide-grid_1ype

> <i_i_glide_lignum>
6242

> <i_i_glide_rotatable_bonds>
9

> <r_i_docking_score>
-7.20381013767774

> <r_i_glide_ligand_efficiency>
-0.225119066802429

> <r_i_glide_ligand_efficiency_sa>
-0.714708486094888

> <r_i_glide_ligand_efficiency_ln>
-1.61312945827393

> <r_i_glide_gscore>
-7.20381013767774

> <r_i_glide_lipo>
-3.29442239102971

> <r_i_glide_hbond>
-0.202380677889128

> <r_i_glide_metal>
0

> <r_i_glide_rewards>
-1.32328367131532

> <r_i_glide_evdw>
-49.5678443908691

> <r_i_glide_ecoul>
-4.32395601272583

> <r_i_glide_erotb>
0.82348503727317

> <r_i_glide_esite>
-0.0802228132644234

> <r_i_glide_emodel>
-75.4139301211655

> <r_i_glide_energy>
-53.891800403595

> <r_i_glide_einternal>
5.49692869186401

> <i_i_glide_confnum>
10

> <i_i_glide_posenum>
262

> <r_i_glide_eff_state_penalty>
0

> <s_user_duplicate_titles>
CHEMBL204_lig4571,426087

> <i_f3d_flags>
0

> <s_m_subgroup_title>
dock_pv

> <s_m_subgroupid>
dock_pv

> <b_m_subgroup_collapsed>
1

$$$$
CHEMBL204_lig4232
                    3D
 Schrodinger Suite 2021-1.
 64 67  0  0  1  0            999 V2000
   12.8854  -10.5150   21.1985 C   0  0  0  0  0  0
   12.4096   -9.9118   22.5027 C   0  0  0  0  0  0
   12.7763   -8.7887   23.2468 C   0  0  0  0  0  0
   12.0168   -8.6204   24.3223 N   0  0  0  0  0  0
   11.2162   -9.6539   24.3206 C   0  0  0  0  0  0
   11.3875  -10.4551   23.2336 N   0  0  0  0  0  0
   18.5489  -14.2092   23.1198 C   0  0  0  0  0  0
   17.6950  -15.5190   22.8889 C   0  0  1  0  0  0
   17.2185  -16.0213   24.2009 N   0  0  0  0  0  0
   16.4778  -15.3960   21.8908 C   0  0  0  0  0  0
   16.4184  -14.4176   21.1520 O   0  0  0  0  0  0
   15.5280  -16.3722   21.8159 N   0  0  0  0  0  0
   15.5468  -17.6677   22.5036 C   0  0  0  0  0  0
   14.6242  -18.5661   21.6971 C   0  0  0  0  0  0
   13.5932  -17.5972   21.1555 C   0  0  0  0  0  0
   14.3963  -16.3279   20.8520 C   0  0  1  0  0  0
   19.0092  -13.4719   21.8507 C   0  0  0  0  0  0
   19.7149  -14.3861   24.1192 C   0  0  0  0  0  0
   19.9991  -14.0066   21.0171 C   0  0  0  0  0  0
   20.4191  -13.3046   19.8903 C   0  0  0  0  0  0
   19.8343  -12.0776   19.5821 C   0  0  0  0  0  0
   18.8288  -11.5509   20.3893 C   0  0  0  0  0  0
   18.4204  -12.2437   21.5232 C   0  0  0  0  0  0
   19.8933  -13.4526   25.1435 C   0  0  0  0  0  0
   20.9586  -13.5589   26.0336 C   0  0  0  0  0  0
   21.8492  -14.6228   25.9130 C   0  0  0  0  0  0
   21.6755  -15.5763   24.9122 C   0  0  0  0  0  0
   20.6110  -15.4590   24.0171 C   0  0  0  0  0  0
   13.4750  -15.0887   20.8362 C   0  0  0  0  0  0
   13.4616  -14.2998   21.9203 N   0  0  0  0  0  0
   12.8107  -14.8653   19.8257 O   0  0  0  0  0  0
   12.7757  -13.0145   21.9779 C   0  0  0  0  0  0
   13.6115  -11.8724   21.3491 C   0  0  0  0  0  0
   13.5570   -9.8157   20.6997 H   0  0  0  0  0  0
   12.0394  -10.6340   20.5170 H   0  0  0  0  0  0
   13.5696   -8.0995   23.0042 H   0  0  0  0  0  0
   10.8451  -11.2775   23.0050 H   0  0  0  0  0  0
   10.4358   -9.8794   25.0336 H   0  0  0  0  0  0
   17.8519  -13.5315   23.6142 H   0  0  0  0  0  0
   18.3524  -16.2548   22.4289 H   0  0  0  0  0  0
   16.6084  -15.3449   24.6457 H   0  0  0  0  0  0
   16.6895  -16.8756   24.1120 H   0  0  0  0  0  0
   16.5435  -18.1069   22.5737 H   0  0  0  0  0  0
   15.1478  -17.5427   23.5145 H   0  0  0  0  0  0
   15.1755  -19.0090   20.8666 H   0  0  0  0  0  0
   14.1874  -19.3689   22.2882 H   0  0  0  0  0  0
   13.0754  -17.9838   20.2773 H   0  0  0  0  0  0
   12.8444  -17.3996   21.9216 H   0  0  0  0  0  0
   14.8366  -16.4237   19.8579 H   0  0  0  0  0  0
   20.4559  -14.9570   21.2438 H   0  0  0  0  0  0
   21.1929  -13.7131   19.2560 H   0  0  0  0  0  0
   20.1656  -11.5244   18.7151 H   0  0  0  0  0  0
   18.3648  -10.6060   20.1526 H   0  0  0  0  0  0
   17.6430  -11.8215   22.1421 H   0  0  0  0  0  0
   19.2166  -12.6229   25.2510 H   0  0  0  0  0  0
   21.0904  -12.8216   26.8122 H   0  0  0  0  0  0
   22.6856  -14.7073   26.5927 H   0  0  0  0  0  0
   22.3698  -16.3997   24.8243 H   0  0  0  0  0  0
   20.4907  -16.2006   23.2437 H   0  0  0  0  0  0
   14.0360  -14.5462   22.7140 H   0  0  0  0  0  0
   11.7969  -13.0722   21.4949 H   0  0  0  0  0  0
   12.5538  -12.7964   23.0224 H   0  0  0  0  0  0
   14.5272  -11.7343   21.9244 H   0  0  0  0  0  0
   13.9408  -12.1846   20.3570 H   0  0  0  0  0  0
  1 33  1  0  0  0
  1 34  1  0  0  0
  1 35  1  0  0  0
  1  2  1  0  0  0
  2  3  2  0  0  0
  2  6  1  0  0  0
  3 36  1  0  0  0
  3  4  1  0  0  0
  4  5  2  0  0  0
  5  6  1  0  0  0
  5 38  1  0  0  0
  6 37  1  0  0  0
  7 17  1  0  0  0
  7 18  1  0  0  0
  7  8  1  0  0  0
  7 39  1  0  0  0
  8  9  1  0  0  0
  8 10  1  0  0  0
  8 40  1  0  0  0
  9 41  1  0  0  0
  9 42  1  0  0  0
 10 11  2  0  0  0
 10 12  1  0  0  0
 12 13  1  0  0  0
 12 16  1  0  0  0
 13 14  1  0  0  0
 13 43  1  0  0  0
 13 44  1  0  0  0
 14 15  1  0  0  0
 14 45  1  0  0  0
 14 46  1  0  0  0
 15 16  1  0  0  0
 15 47  1  0  0  0
 15 48  1  0  0  0
 16 29  1  0  0  0
 16 49  1  0  0  0
 17 19  2  0  0  0
 17 23  1  0  0  0
 18 24  2  0  0  0
 18 28  1  0  0  0
 19 20  1  0  0  0
 19 50  1  0  0  0
 20 21  2  0  0  0
 20 51  1  0  0  0
 21 22  1  0  0  0
 21 52  1  0  0  0
 22 23  2  0  0  0
 22 53  1  0  0  0
 23 54  1  0  0  0
 24 25  1  0  0  0
 24 55  1  0  0  0
 25 26  2  0  0  0
 25 56  1  0  0  0
 26 27  1  0  0  0
 26 57  1  0  0  0
 27 28  2  0  0  0
 27 58  1  0  0  0
 28 59  1  0  0  0
 29 30  1  0  0  0
 29 31  2  0  0  0
 30 32  1  0  0  0
 30 60  1  0  0  0
 32 33  1  0  0  0
 32 61  1  0  0  0
 32 62  1  0  0  0
 33 63  1  0  0  0
 33 64  1  0  0  0
M  END
> <s_m_entry_id>
35395

> <s_m_entry_name>
dock_pv.245

> <s_m_Source_Path>
/home/csk/Desktop/cluster/DUD-E-result/thrb

> <s_m_Source_File>
dock_pv.maegz

> <i_m_Source_File_Index>
245

> <chembl_id>
CHEMBL371769

> <chembl_pref_name>
None

> <i_lp_mmshare_version>
53161

> <r_lp_tautomer_probability>
0.499999999999999

> <s_lp_Force_Field>
OPLS_2005

> <r_lp_Energy>
27.675938

> <b_lp_Chiralities_Consistent>
1

> <s_lp_Variant>
CHEMBL204_lig4232-2

> <s_i_glide_gridfile>
glide-grid_1ype

> <i_i_glide_lignum>
5875

> <i_i_glide_rotatable_bonds>
11

> <r_i_docking_score>
-7.20287072731781

> <r_i_glide_ligand_efficiency>
-0.218268809918722

> <r_i_glide_ligand_efficiency_sa>
-0.700104700165659

> <r_i_glide_ligand_efficiency_ln>
-1.60188115528681

> <r_i_glide_gscore>
-7.20287072731781

> <r_i_glide_lipo>
-3.51354601352516

> <r_i_glide_hbond>
-0.565832790662173

> <r_i_glide_metal>
0

> <r_i_glide_rewards>
-0.635062800919562

> <r_i_glide_evdw>
-46.5142631530762

> <r_i_glide_ecoul>
-7.21157550811768

> <r_i_glide_erotb>
1.00791362996529

> <r_i_glide_esite>
-0.0888932683047527

> <r_i_glide_emodel>
-75.1188807413908

> <r_i_glide_energy>
-53.7258386611938

> <r_i_glide_einternal>
4.52571439743042

> <i_i_glide_confnum>
120

> <i_i_glide_posenum>
46

> <r_i_glide_eff_state_penalty>
0

> <s_user_duplicate_titles>
CHEMBL204_lig4232,335050

> <i_f3d_flags>
0

> <s_m_subgroup_title>
dock_pv

> <s_m_subgroupid>
dock_pv

> <b_m_subgroup_collapsed>
1

$$$$
CHEMBL204_lig5111
                    3D
 Schrodinger Suite 2021-1.
 58 61  0  0  1  0            999 V2000
   12.4150  -15.4471   20.6631 N   0  0  0  0  0  0
   13.2677  -14.4251   20.0732 C   0  0  0  0  0  0
   13.1178  -13.0302   20.7005 C   0  0  0  0  0  0
   12.0156  -12.7314   21.5209 C   0  0  0  0  0  0
   11.9034  -11.5054   22.1629 C   0  0  0  0  0  0
   12.8853  -10.5446   21.9731 C   0  0  0  0  0  0
   12.7935   -9.0529   22.8133 Cl  0  0  0  0  0  0
   13.9558  -10.7884   21.1210 C   0  0  0  0  0  0
   14.0863  -12.0256   20.4766 C   0  0  0  0  0  0
   15.2746  -12.2121   19.5326 C   0  0  0  0  0  0
   16.5740  -11.9415   20.1539 N   0  0  0  0  0  0
   17.6356  -12.7561   20.0670 C   0  0  0  0  0  0
   17.6123  -13.8526   19.5217 O   0  0  0  0  0  0
   18.9547  -12.2317   20.6572 C   0  0  2  0  0  0
   19.8937  -11.7128   19.5578 C   0  0  0  0  0  0
   20.8677  -12.8374   19.2916 C   0  0  0  0  0  0
   21.0190  -13.5015   20.6465 C   0  0  0  0  0  0
   19.7596  -13.2579   21.3588 N   0  0  0  0  0  0
   19.3795  -13.7383   22.5773 C   0  0  0  0  0  0
   18.2503  -13.4679   22.9943 O   0  0  0  0  0  0
   20.3516  -14.5414   23.5321 C   0  0  1  0  0  0
   21.2179  -15.3606   22.7649 O   0  0  0  0  0  0
   21.2286  -13.4913   24.2783 C   0  0  0  0  0  0
   20.4934  -12.8085   25.4465 C   0  0  0  0  0  0
   20.0822  -13.8572   26.4856 C   0  0  0  0  0  0
   19.3271  -15.0331   25.8660 C   0  0  0  0  0  0
   18.4773  -15.8239   26.6498 C   0  0  0  0  0  0
   17.8599  -16.9517   26.1134 C   0  0  0  0  0  0
   18.0969  -17.2614   24.7801 C   0  0  0  0  0  0
   18.8933  -16.5058   23.9902 N   0  0  0  0  0  0
   19.5017  -15.3961   24.5075 C   0  0  0  0  0  0
   12.4745  -15.3880   21.6728 H   0  0  0  0  0  0
   11.4479  -15.2796   20.4129 H   0  0  0  0  0  0
   13.0840  -14.3682   18.9994 H   0  0  0  0  0  0
   14.2939  -14.7593   20.2156 H   0  0  0  0  0  0
   11.2333  -13.4541   21.6999 H   0  0  0  0  0  0
   11.0610  -11.3107   22.8134 H   0  0  0  0  0  0
   14.6944  -10.0128   20.9780 H   0  0  0  0  0  0
   15.2511  -13.1833   19.0382 H   0  0  0  0  0  0
   15.1523  -11.5046   18.7123 H   0  0  0  0  0  0
   16.6880  -11.0528   20.6145 H   0  0  0  0  0  0
   18.7254  -11.4093   21.3411 H   0  0  0  0  0  0
   19.3707  -11.4527   18.6408 H   0  0  0  0  0  0
   20.4292  -10.8342   19.9207 H   0  0  0  0  0  0
   20.4181  -13.5470   18.5957 H   0  0  0  0  0  0
   21.8137  -12.5062   18.8648 H   0  0  0  0  0  0
   21.2190  -14.5604   20.4844 H   0  0  0  0  0  0
   21.8481  -13.0611   21.2020 H   0  0  0  0  0  0
   20.6782  -15.8953   22.1785 H   0  0  0  0  0  0
   22.1161  -13.9834   24.6797 H   0  0  0  0  0  0
   21.6175  -12.7394   23.5905 H   0  0  0  0  0  0
   21.1354  -12.0634   25.9184 H   0  0  0  0  0  0
   19.6163  -12.2686   25.0864 H   0  0  0  0  0  0
   20.9815  -14.2497   26.9613 H   0  0  0  0  0  0
   19.4991  -13.3868   27.2755 H   0  0  0  0  0  0
   18.3098  -15.5773   27.6875 H   0  0  0  0  0  0
   17.2182  -17.5710   26.7202 H   0  0  0  0  0  0
   17.6446  -18.1259   24.3181 H   0  0  0  0  0  0
  1  2  1  0  0  0
  1 32  1  0  0  0
  1 33  1  0  0  0
  2  3  1  0  0  0
  2 34  1  0  0  0
  2 35  1  0  0  0
  3  4  2  0  0  0
  3  9  1  0  0  0
  4  5  1  0  0  0
  4 36  1  0  0  0
  5  6  2  0  0  0
  5 37  1  0  0  0
  6  7  1  0  0  0
  6  8  1  0  0  0
  8  9  2  0  0  0
  8 38  1  0  0  0
  9 10  1  0  0  0
 10 11  1  0  0  0
 10 39  1  0  0  0
 10 40  1  0  0  0
 11 12  1  0  0  0
 11 41  1  0  0  0
 12 13  2  0  0  0
 12 14  1  0  0  0
 14 15  1  0  0  0
 14 18  1  0  0  0
 14 42  1  0  0  0
 15 16  1  0  0  0
 15 43  1  0  0  0
 15 44  1  0  0  0
 16 17  1  0  0  0
 16 45  1  0  0  0
 16 46  1  0  0  0
 17 18  1  0  0  0
 17 47  1  0  0  0
 17 48  1  0  0  0
 18 19  1  0  0  0
 19 20  2  0  0  0
 19 21  1  0  0  0
 21 22  1  0  0  0
 21 23  1  0  0  0
 21 31  1  0  0  0
 22 49  1  0  0  0
 23 24  1  0  0  0
 23 50  1  0  0  0
 23 51  1  0  0  0
 24 25  1  0  0  0
 24 52  1  0  0  0
 24 53  1  0  0  0
 25 26  1  0  0  0
 25 54  1  0  0  0
 25 55  1  0  0  0
 26 27  2  0  0  0
 26 31  1  0  0  0
 27 28  1  0  0  0
 27 56  1  0  0  0
 28 29  2  0  0  0
 28 57  1  0  0  0
 29 30  1  0  0  0
 29 58  1  0  0  0
 30 31  2  0  0  0
M  END
> <s_m_entry_id>
35396

> <s_m_entry_name>
dock_pv.246

> <s_m_Source_Path>
/home/csk/Desktop/cluster/DUD-E-result/thrb

> <s_m_Source_File>
dock_pv.maegz

> <i_m_Source_File_Index>
246

> <chembl_id>
CHEMBL3920415

> <chembl_pref_name>
None

> <i_lp_mmshare_version>
53161

> <r_lp_tautomer_probability>
1

> <s_lp_Force_Field>
OPLS_2005

> <r_lp_Energy>
33.524459

> <b_lp_Chiralities_Consistent>
1

> <s_lp_Variant>
CHEMBL204_lig5111-1

> <s_i_glide_gridfile>
glide-grid_1ype

> <i_i_glide_lignum>
7002

> <i_i_glide_rotatable_bonds>
8

> <r_i_docking_score>
-7.2017752730952

> <r_i_glide_ligand_efficiency>
-0.232315331390168

> <r_i_glide_ligand_efficiency_sa>
-0.729790886447604

> <r_i_glide_ligand_efficiency_ln>
-1.62422103198907

> <r_i_glide_gscore>
-7.2017752730952

> <r_i_glide_lipo>
-3.96713364483141

> <r_i_glide_hbond>
0

> <r_i_glide_metal>
0

> <r_i_glide_rewards>
-1.06424044088633

> <r_i_glide_evdw>
-45.8129539489746

> <r_i_glide_ecoul>
-3.27340316772461

> <r_i_glide_erotb>
0.611256985229965

> <r_i_glide_esite>
0

> <r_i_glide_emodel>
-66.7589956849035

> <r_i_glide_energy>
-49.0863571166992

> <r_i_glide_einternal>
5.35558080673218

> <i_i_glide_confnum>
265

> <i_i_glide_posenum>
339

> <r_i_glide_eff_state_penalty>
0

> <s_user_duplicate_titles>
CHEMBL204_lig5111

> <i_f3d_flags>
0

> <s_m_subgroup_title>
dock_pv

> <s_m_subgroupid>
dock_pv

> <b_m_subgroup_collapsed>
1

$$$$
CHEMBL204_lig4644
                    3D
 Schrodinger Suite 2021-1.
 69 72  0  0  1  0            999 V2000
   13.3751  -17.1844   19.8810 N   0  0  0  0  0  0
   12.8297  -16.4099   18.8985 C   0  0  0  0  0  0
   13.7195  -15.1564   18.5694 C   0  0  2  0  0  0
   15.4537  -15.9781   19.9311 C   0  0  0  0  0  0
   14.5976  -16.9008   20.5346 C   0  0  0  0  0  0
   15.1095  -15.3517   18.7527 O   0  0  0  0  0  0
   18.5086  -16.0259   22.2335 C   0  0  0  0  0  0
   19.2678  -15.1341   21.5681 N   0  0  0  0  0  0
   21.1928  -13.7382   20.7938 C   0  0  0  0  0  0
   20.6241  -14.6733   21.8990 C   0  0  1  0  0  0
   17.1403  -16.3029   21.6447 C   0  0  0  0  0  0
   12.0155   -9.4539   23.6886 C   0  0  0  0  0  0
   16.6968  -15.6689   20.4733 C   0  0  0  0  0  0
   20.3571  -12.5372   20.3145 C   0  0  0  0  0  0
   15.0297  -17.5295   21.7144 C   0  0  0  0  0  0
   13.1965  -14.1758   19.4123 O   0  0  0  0  0  0
   11.7479  -16.6045   18.3397 O   0  0  0  0  0  0
   12.4226  -10.3249   22.5483 C   0  0  0  0  0  0
   12.5553   -8.3398   23.9203 N   0  0  0  0  0  0
   18.8884  -16.5842   23.2645 O   0  0  0  0  0  0
   16.2807  -17.2315   22.2589 C   0  0  0  0  0  0
   20.7512  -11.8523   19.3692 O   0  0  0  0  0  0
   20.8481  -14.0985   23.3095 C   0  0  0  0  0  0
   13.4258   -9.9092   21.6516 C   0  0  0  0  0  0
   11.8399  -11.5909   22.3296 C   0  0  0  0  0  0
   10.9992   -9.9768   24.4425 N   0  0  0  0  0  0
   12.5794  -18.3210   20.3756 C   0  0  0  0  0  0
   13.7165  -12.8614   19.2658 C   0  0  0  0  0  0
   13.2484  -11.9760   20.4120 C   0  0  0  0  0  0
   19.2162  -12.3129   21.0145 O   0  0  0  0  0  0
   13.8329  -10.7241   20.5988 C   0  0  0  0  0  0
   12.2457  -12.4038   21.2834 C   0  0  0  0  0  0
   19.8006  -13.5364   24.0484 C   0  0  0  0  0  0
   22.1213  -14.1908   23.8887 C   0  0  0  0  0  0
   18.3659  -11.2058   20.7402 C   0  0  0  0  0  0
   17.5067  -11.4601   19.4936 C   0  0  0  0  0  0
   22.3455  -13.7258   25.1834 C   0  0  0  0  0  0
   20.0235  -13.0781   25.3452 C   0  0  0  0  0  0
   21.2924  -13.1706   25.9080 C   0  0  0  0  0  0
   13.6085  -14.9239   17.5090 H   0  0  0  0  0  0
   18.9306  -14.8394   20.6661 H   0  0  0  0  0  0
   22.1454  -13.3350   21.1296 H   0  0  0  0  0  0
   21.4103  -14.3375   19.9108 H   0  0  0  0  0  0
   21.2316  -15.5815   21.8562 H   0  0  0  0  0  0
   17.2985  -14.9391   19.9508 H   0  0  0  0  0  0
   14.4138  -18.2615   22.2162 H   0  0  0  0  0  0
   12.1552   -7.8974   24.7345 H   0  0  0  0  0  0
   16.5825  -17.7389   23.1646 H   0  0  0  0  0  0
   13.9092   -8.9486   21.7733 H   0  0  0  0  0  0
   11.0625  -11.9840   22.9681 H   0  0  0  0  0  0
   10.5086   -9.4162   25.1223 H   0  0  0  0  0  0
   10.5134  -10.8058   24.1373 H   0  0  0  0  0  0
   11.6686  -18.5096   19.8001 H   0  0  0  0  0  0
   13.1773  -19.2305   20.3380 H   0  0  0  0  0  0
   12.2783  -18.1541   21.4102 H   0  0  0  0  0  0
   14.8036  -12.8884   19.2708 H   0  0  0  0  0  0
   13.3912  -12.4354   18.3223 H   0  0  0  0  0  0
   14.6133  -10.3848   19.9362 H   0  0  0  0  0  0
   11.7716  -13.3692   21.1652 H   0  0  0  0  0  0
   18.8084  -13.4621   23.6237 H   0  0  0  0  0  0
   22.9393  -14.6340   23.3396 H   0  0  0  0  0  0
   17.7143  -11.0688   21.6034 H   0  0  0  0  0  0
   18.9396  -10.2818   20.6419 H   0  0  0  0  0  0
   16.7909  -10.6531   19.3435 H   0  0  0  0  0  0
   18.1166  -11.5347   18.5941 H   0  0  0  0  0  0
   16.9566  -12.3929   19.5964 H   0  0  0  0  0  0
   23.3288  -13.8007   25.6276 H   0  0  0  0  0  0
   19.2165  -12.6599   25.9210 H   0  0  0  0  0  0
   21.4603  -12.8110   26.9169 H   0  0  0  0  0  0
  1  2  1  0  0  0
  1  5  1  0  0  0
  1 27  1  0  0  0
  2  3  1  0  0  0
  2 17  2  0  0  0
  3  6  1  0  0  0
  3 16  1  0  0  0
  3 40  1  0  0  0
  4  5  1  0  0  0
  4 13  2  0  0  0
  4  6  1  0  0  0
  5 15  2  0  0  0
  7 11  1  0  0  0
  7  8  1  0  0  0
  7 20  2  0  0  0
  8 10  1  0  0  0
  8 41  1  0  0  0
  9 10  1  0  0  0
  9 14  1  0  0  0
  9 42  1  0  0  0
  9 43  1  0  0  0
 10 23  1  0  0  0
 10 44  1  0  0  0
 11 13  1  0  0  0
 11 21  2  0  0  0
 12 18  1  0  0  0
 12 19  2  0  0  0
 12 26  1  0  0  0
 13 45  1  0  0  0
 14 22  2  0  0  0
 14 30  1  0  0  0
 15 21  1  0  0  0
 15 46  1  0  0  0
 16 28  1  0  0  0
 18 24  2  0  0  0
 18 25  1  0  0  0
 19 47  1  0  0  0
 21 48  1  0  0  0
 23 33  2  0  0  0
 23 34  1  0  0  0
 24 31  1  0  0  0
 24 49  1  0  0  0
 25 32  2  0  0  0
 25 50  1  0  0  0
 26 51  1  0  0  0
 26 52  1  0  0  0
 27 53  1  0  0  0
 27 54  1  0  0  0
 27 55  1  0  0  0
 28 29  1  0  0  0
 28 56  1  0  0  0
 28 57  1  0  0  0
 29 31  2  0  0  0
 29 32  1  0  0  0
 30 35  1  0  0  0
 31 58  1  0  0  0
 32 59  1  0  0  0
 33 38  1  0  0  0
 33 60  1  0  0  0
 34 37  2  0  0  0
 34 61  1  0  0  0
 35 36  1  0  0  0
 35 62  1  0  0  0
 35 63  1  0  0  0
 36 64  1  0  0  0
 36 65  1  0  0  0
 36 66  1  0  0  0
 37 39  1  0  0  0
 37 67  1  0  0  0
 38 39  2  0  0  0
 38 68  1  0  0  0
 39 69  1  0  0  0
M  END
> <s_m_entry_id>
35397

> <s_m_entry_name>
dock_pv.247

> <s_m_Source_Path>
/home/csk/Desktop/cluster/DUD-E-result/thrb

> <s_m_Source_File>
dock_pv.maegz

> <i_m_Source_File_Index>
247

> <chembl_id>
CHEMBL511597

> <chembl_pref_name>
None

> <i_lp_mmshare_version>
53161

> <r_lp_tautomer_probability>
1

> <s_lp_Force_Field>
OPLS_2005

> <r_lp_Energy>
27.603729

> <b_lp_Chiralities_Consistent>
1

> <s_lp_Variant>
CHEMBL204_lig4644-1

> <s_i_glide_gridfile>
glide-grid_1ype

> <i_i_glide_lignum>
6343

> <i_i_glide_rotatable_bonds>
12

> <r_i_docking_score>
-7.20012227606091

> <r_i_glide_ligand_efficiency>
-0.184618519898998

> <r_i_glide_ligand_efficiency_sa>
-0.626080436509258

> <r_i_glide_ligand_efficiency_ln>
-1.54391060361267

> <r_i_glide_gscore>
-7.20012227606091

> <r_i_glide_lipo>
-3.53575029283473

> <r_i_glide_hbond>
-0.0494990603688097

> <r_i_glide_metal>
0

> <r_i_glide_rewards>
-0.891534716629314

> <r_i_glide_evdw>
-54.5224876403809

> <r_i_glide_ecoul>
-3.82906270027161

> <r_i_glide_erotb>
0.659067712897349

> <r_i_glide_esite>
-0.0819221320656213

> <r_i_glide_emodel>
-81.7617586298946

> <r_i_glide_energy>
-58.3515503406525

> <r_i_glide_einternal>
3.83291435241699

> <i_i_glide_confnum>
2

> <i_i_glide_posenum>
21

> <r_i_glide_eff_state_penalty>
0

> <s_user_duplicate_titles>
CHEMBL204_lig4644

> <i_f3d_flags>
0

> <s_m_subgroup_title>
dock_pv

> <s_m_subgroupid>
dock_pv

> <b_m_subgroup_collapsed>
1

$$$$
CHEMBL204_lig5037
                    3D
 Schrodinger Suite 2021-1.
 53 57  0  0  1  0            999 V2000
   21.6577  -15.5911   25.0243 C   0  0  0  0  0  0
   20.4042  -15.3075   24.4901 C   0  0  0  0  0  0
   20.2627  -14.3113   23.5235 C   0  0  0  0  0  0
   21.3615  -13.5026   23.2211 C   0  0  0  0  0  0
   22.6136  -13.7941   23.7525 C   0  0  0  0  0  0
   22.8057  -14.8872   24.6157 C   0  0  0  0  0  0
   24.1619  -15.3311   25.0560 C   0  0  0  0  0  0
   25.2155  -14.6558   24.4829 N   0  0  0  0  0  0
   24.2974  -16.2833   25.8693 N   0  0  0  0  0  0
   18.9637  -14.2468   22.6982 C   0  0  2  0  0  0
   18.9642  -15.1182   21.5164 N   0  0  1  0  0  0
   19.4092  -14.3074   20.4010 C   0  0  2  0  0  0
   20.8748  -14.7052   20.1594 C   0  0  0  0  0  0
   21.0594  -16.0389   20.9055 C   0  0  0  0  0  0
   19.6738  -16.3879   21.4502 C   0  0  0  0  0  0
   19.1156  -12.8207   20.7121 C   0  0  2  0  0  0
   18.5405  -12.8774   22.0989 C   0  0  1  0  0  0
   17.0324  -12.7907   21.8676 C   0  0  0  0  0  0
   16.8285  -12.3692   20.5933 N   0  0  0  0  0  0
   17.9665  -12.2932   19.8598 C   0  0  0  0  0  0
   16.1928  -13.0506   22.7209 O   0  0  0  0  0  0
   18.0892  -11.9120   18.6945 O   0  0  0  0  0  0
   15.5083  -12.1518   19.9582 C   0  0  0  0  0  0
   14.3786  -11.5793   20.8111 C   0  0  0  0  0  0
   14.3506  -10.2179   21.1211 C   0  0  0  0  0  0
   13.2964   -9.7005   21.8714 C   0  0  0  0  0  0
   12.2671  -10.5397   22.2945 C   0  0  0  0  0  0
   12.2833  -11.8958   21.9765 C   0  0  0  0  0  0
   13.3383  -12.4150   21.2307 C   0  0  0  0  0  0
   21.7369  -16.4206   25.7127 H   0  0  0  0  0  0
   19.5638  -15.9312   24.7579 H   0  0  0  0  0  0
   21.2858  -12.7005   22.5044 H   0  0  0  0  0  0
   23.4392  -13.1774   23.4323 H   0  0  0  0  0  0
   26.1645  -14.9134   24.7217 H   0  0  0  0  0  0
   25.0723  -13.8305   23.9236 H   0  0  0  0  0  0
   25.2676  -16.4663   26.0729 H   0  0  0  0  0  0
   18.1732  -14.6453   23.3393 H   0  0  0  0  0  0
   18.8890  -14.6537   19.5209 H   0  0  0  0  0  0
   21.0347  -14.9088   19.1025 H   0  0  0  0  0  0
   21.5937  -13.9490   20.4745 H   0  0  0  0  0  0
   21.4455  -16.8244   20.2556 H   0  0  0  0  0  0
   21.7645  -15.9405   21.7298 H   0  0  0  0  0  0
   19.7310  -16.8445   22.4382 H   0  0  0  0  0  0
   19.1333  -17.1052   20.8313 H   0  0  0  0  0  0
   19.9848  -12.1643   20.6694 H   0  0  0  0  0  0
   18.8336  -12.0365   22.7212 H   0  0  0  0  0  0
   15.6129  -11.5045   19.0847 H   0  0  0  0  0  0
   15.1822  -13.1130   19.5561 H   0  0  0  0  0  0
   15.1477   -9.5653   20.7946 H   0  0  0  0  0  0
   13.2769   -8.6546   22.1319 H   0  0  0  0  0  0
   11.4488  -10.1407   22.8774 H   0  0  0  0  0  0
   11.4840  -12.5429   22.3126 H   0  0  0  0  0  0
   13.3491  -13.4688   20.9906 H   0  0  0  0  0  0
  1  2  2  0  0  0
  1  6  1  0  0  0
  1 30  1  0  0  0
  2  3  1  0  0  0
  2 31  1  0  0  0
  3  4  2  0  0  0
  3 10  1  0  0  0
  4  5  1  0  0  0
  4 32  1  0  0  0
  5  6  2  0  0  0
  5 33  1  0  0  0
  6  7  1  0  0  0
  7  8  1  0  0  0
  7  9  2  0  0  0
  8 34  1  0  0  0
  8 35  1  0  0  0
  9 36  1  0  0  0
 10 17  1  0  0  0
 10 11  1  0  0  0
 10 37  1  0  0  0
 11 12  1  0  0  0
 11 15  1  0  0  0
 12 16  1  0  0  0
 12 13  1  0  0  0
 12 38  1  0  0  0
 13 14  1  0  0  0
 13 39  1  0  0  0
 13 40  1  0  0  0
 14 15  1  0  0  0
 14 41  1  0  0  0
 14 42  1  0  0  0
 15 43  1  0  0  0
 15 44  1  0  0  0
 16 17  1  0  0  0
 16 20  1  0  0  0
 16 45  1  0  0  0
 17 18  1  0  0  0
 17 46  1  0  0  0
 18 19  1  0  0  0
 18 21  2  0  0  0
 19 20  1  0  0  0
 19 23  1  0  0  0
 20 22  2  0  0  0
 23 24  1  0  0  0
 23 47  1  0  0  0
 23 48  1  0  0  0
 24 25  2  0  0  0
 24 29  1  0  0  0
 25 26  1  0  0  0
 25 49  1  0  0  0
 26 27  2  0  0  0
 26 50  1  0  0  0
 27 28  1  0  0  0
 27 51  1  0  0  0
 28 29  2  0  0  0
 28 52  1  0  0  0
 29 53  1  0  0  0
M  END
> <s_m_entry_id>
35398

> <s_m_entry_name>
dock_pv.248

> <s_m_Source_Path>
/home/csk/Desktop/cluster/DUD-E-result/thrb

> <s_m_Source_File>
dock_pv.maegz

> <i_m_Source_File_Index>
248

> <chembl_id>
CHEMBL3613791

> <chembl_pref_name>
None

> <i_lp_mmshare_version>
53161

> <r_lp_tautomer_probability>
1

> <s_lp_Force_Field>
OPLS_2005

> <r_lp_Energy>
52.128933

> <b_lp_Chiralities_Consistent>
1

> <s_lp_Variant>
CHEMBL204_lig5037-6

> <s_i_glide_gridfile>
glide-grid_1ype

> <i_i_glide_lignum>
6897

> <i_i_glide_rotatable_bonds>
4

> <r_i_docking_score>
-7.19930129313059

> <r_i_glide_ligand_efficiency>
-0.248251768728641

> <r_i_glide_ligand_efficiency_sa>
-0.762708085215188

> <r_i_glide_ligand_efficiency_ln>
-1.64845743759769

> <r_i_glide_gscore>
-7.19930129313059

> <r_i_glide_lipo>
-3.05921026568056

> <r_i_glide_hbond>
-0.484466281706935

> <r_i_glide_metal>
0

> <r_i_glide_rewards>
-1.38864086872962

> <r_i_glide_evdw>
-37.0379486083984

> <r_i_glide_ecoul>
-5.31781053543091

> <r_i_glide_erotb>
0.387353506805355

> <r_i_glide_esite>
-0.00476837308427738

> <r_i_glide_emodel>
-57.8814511117154

> <r_i_glide_energy>
-42.3557591438293

> <r_i_glide_einternal>
1.71947062015533

> <i_i_glide_confnum>
4

> <i_i_glide_posenum>
2

> <r_i_glide_eff_state_penalty>
0

> <s_user_duplicate_titles>
CHEMBL204_lig5037,CHEMBL204_lig4669,466823

> <i_f3d_flags>
0

> <s_m_subgroup_title>
dock_pv

> <s_m_subgroupid>
dock_pv

> <b_m_subgroup_collapsed>
1

$$$$
CHEMBL204_lig567
                    3D
 Schrodinger Suite 2021-1.
 81 83  0  0  1  0            999 V2000
   17.7348  -14.4208   21.8297 S   0  0  0  0  0  0
   15.9885  -14.5091   21.5277 N   0  0  3  0  0  0
   15.3071  -13.4534   20.7280 C   0  0  1  0  0  0
   14.3944  -14.0497   19.5977 C   0  0  0  0  0  0
   14.2928  -15.4216   19.4914 N   0  0  0  0  0  0
   16.3082  -17.7471   14.8910 C   0  0  0  0  0  0
   17.6467  -17.7229   14.2651 C   0  0  0  0  0  0
   15.2487  -15.7507   21.7512 C   0  0  0  0  0  0
   18.1063  -16.8862   13.3661 N   0  0  0  0  0  0
   14.8255  -16.2314   17.1821 C   0  0  0  0  0  0
   11.6791  -10.3366   23.2593 C   0  0  0  0  0  0
   16.1945  -11.0140   13.1759 C   0  0  0  0  0  0
   15.2505  -16.6271   14.6964 C   0  0  1  0  0  0
   14.4162  -16.4292   15.9133 N   0  0  0  0  0  0
   17.9305  -14.8560   23.6637 C   0  0  0  0  0  0
   13.7275  -15.9866   18.2401 C   0  0  0  0  0  0
   18.8147  -18.9491   14.7126 S   0  0  0  0  0  0
   18.3602  -15.4919   21.0456 O   0  0  0  0  0  0
   18.1586  -13.0285   21.6342 O   0  0  0  0  0  0
   14.9796  -16.3833   20.3935 C   0  0  0  0  0  0
   17.2137  -10.2668   13.2121 N   0  0  0  0  0  0
   12.3391   -9.2673   23.2235 N   0  0  0  0  0  0
   13.8351  -13.2960   18.7973 O   0  0  0  0  0  0
   15.9960  -18.7245   15.5784 O   0  0  0  0  0  0
   19.3404  -17.1530   12.9910 C   0  0  0  0  0  0
   19.9401  -18.2513   13.5912 C   0  0  0  0  0  0
   16.0160  -16.2309   17.4900 O   0  0  0  0  0  0
   16.0912  -12.2833   13.7156 N   0  0  0  0  0  0
   11.6987  -11.3661   22.2805 N   0  0  0  0  0  0
   10.8170  -10.6438   24.3203 N   0  0  0  0  0  0
   14.9983  -10.6530   12.5847 N   0  0  0  0  0  0
   14.5546  -12.5442   21.7362 C   0  0  0  0  0  0
   19.3494  -14.6419   24.1709 C   0  0  0  0  0  0
   15.6920  -15.2510   14.1054 C   0  0  0  0  0  0
   17.1142  -13.1142   14.3213 C   0  0  0  0  0  0
   12.4181  -11.2212   21.0112 C   0  0  0  0  0  0
   20.3900  -15.4369   23.6832 C   0  0  0  0  0  0
   19.6149  -13.6594   25.1268 C   0  0  0  0  0  0
   13.9570  -11.2322   21.1721 C   0  0  0  0  0  0
   16.4765  -14.3209   15.0325 C   0  0  0  0  0  0
   21.6913  -15.2358   24.1388 C   0  0  0  0  0  0
   20.9143  -13.4624   25.5891 C   0  0  0  0  0  0
   21.9490  -14.2508   25.0912 C   0  0  0  0  0  0
   16.0714  -12.8737   20.2099 H   0  0  0  0  0  0
   14.3284  -15.4993   22.2827 H   0  0  0  0  0  0
   15.8397  -16.4078   22.3899 H   0  0  0  0  0  0
   14.5511  -17.0378   13.9665 H   0  0  0  0  0  0
   13.4320  -16.2841   15.7048 H   0  0  0  0  0  0
   17.2164  -14.2478   24.2156 H   0  0  0  0  0  0
   17.6393  -15.8955   23.7922 H   0  0  0  0  0  0
   12.9357  -15.3606   17.8298 H   0  0  0  0  0  0
   13.2398  -16.9348   18.4687 H   0  0  0  0  0  0
   14.3567  -17.2697   20.5252 H   0  0  0  0  0  0
   15.9172  -16.6795   19.9223 H   0  0  0  0  0  0
   17.0113   -9.3904   12.7387 H   0  0  0  0  0  0
   12.1768   -8.7067   24.0450 H   0  0  0  0  0  0
   19.8114  -16.5200   12.2541 H   0  0  0  0  0  0
   20.9338  -18.6549   13.4526 H   0  0  0  0  0  0
   15.2244  -12.7676   13.5294 H   0  0  0  0  0  0
   10.9257  -12.0158   22.2806 H   0  0  0  0  0  0
   10.5379   -9.9265   24.9774 H   0  0  0  0  0  0
   10.0512  -11.2877   24.1625 H   0  0  0  0  0  0
   14.9496   -9.6752   12.3237 H   0  0  0  0  0  0
   14.1860  -10.8763   13.1360 H   0  0  0  0  0  0
   13.7966  -13.1128   22.2798 H   0  0  0  0  0  0
   15.2848  -12.2525   22.4892 H   0  0  0  0  0  0
   14.8162  -14.6867   13.8289 H   0  0  0  0  0  0
   16.1995  -15.3730   13.1511 H   0  0  0  0  0  0
   17.8109  -13.4406   13.5490 H   0  0  0  0  0  0
   17.6797  -12.5128   15.0346 H   0  0  0  0  0  0
   12.0905  -10.3118   20.5015 H   0  0  0  0  0  0
   12.1160  -12.0530   20.3759 H   0  0  0  0  0  0
   20.1958  -16.2009   22.9432 H   0  0  0  0  0  0
   18.8177  -13.0532   25.5220 H   0  0  0  0  0  0
   14.2514  -10.4090   21.8279 H   0  0  0  0  0  0
   14.4184  -11.0007   20.2136 H   0  0  0  0  0  0
   17.2150  -14.9366   15.5250 H   0  0  0  0  0  0
   15.8279  -13.9498   15.8261 H   0  0  0  0  0  0
   22.4945  -15.8470   23.7563 H   0  0  0  0  0  0
   21.1180  -12.7035   26.3323 H   0  0  0  0  0  0
   22.9579  -14.0970   25.4469 H   0  0  0  0  0  0
  1  2  1  0  0  0
  1 15  1  0  0  0
  1 18  2  0  0  0
  1 19  2  0  0  0
  2  3  1  0  0  0
  2  8  1  0  0  0
  3  4  1  0  0  0
  3 32  1  0  0  0
  3 44  1  0  0  0
  4 23  2  0  0  0
  4  5  1  0  0  0
  5 20  1  0  0  0
  5 16  1  0  0  0
  6 13  1  0  0  0
  6  7  1  0  0  0
  6 24  2  0  0  0
  7  9  2  0  0  0
  7 17  1  0  0  0
  8 20  1  0  0  0
  8 45  1  0  0  0
  8 46  1  0  0  0
  9 25  1  0  0  0
 10 16  1  0  0  0
 10 14  1  0  0  0
 10 27  2  0  0  0
 11 29  1  0  0  0
 11 22  2  0  0  0
 11 30  1  0  0  0
 12 28  1  0  0  0
 12 21  2  0  0  0
 12 31  1  0  0  0
 13 14  1  0  0  0
 13 34  1  0  0  0
 13 47  1  0  0  0
 14 48  1  0  0  0
 15 33  1  0  0  0
 15 49  1  0  0  0
 15 50  1  0  0  0
 16 51  1  0  0  0
 16 52  1  0  0  0
 17 26  1  0  0  0
 20 53  1  0  0  0
 20 54  1  0  0  0
 21 55  1  0  0  0
 22 56  1  0  0  0
 25 26  2  0  0  0
 25 57  1  0  0  0
 26 58  1  0  0  0
 28 35  1  0  0  0
 28 59  1  0  0  0
 29 36  1  0  0  0
 29 60  1  0  0  0
 30 61  1  0  0  0
 30 62  1  0  0  0
 31 63  1  0  0  0
 31 64  1  0  0  0
 32 39  1  0  0  0
 32 65  1  0  0  0
 32 66  1  0  0  0
 33 37  1  0  0  0
 33 38  2  0  0  0
 34 40  1  0  0  0
 34 67  1  0  0  0
 34 68  1  0  0  0
 35 40  1  0  0  0
 35 69  1  0  0  0
 35 70  1  0  0  0
 36 39  1  0  0  0
 36 71  1  0  0  0
 36 72  1  0  0  0
 37 41  2  0  0  0
 37 73  1  0  0  0
 38 42  1  0  0  0
 38 74  1  0  0  0
 39 75  1  0  0  0
 39 76  1  0  0  0
 40 77  1  0  0  0
 40 78  1  0  0  0
 41 43  1  0  0  0
 41 79  1  0  0  0
 42 43  2  0  0  0
 42 80  1  0  0  0
 43 81  1  0  0  0
M  END
> <s_m_entry_id>
35399

> <s_m_entry_name>
dock_pv.249

> <s_m_Source_Path>
/home/csk/Desktop/cluster/DUD-E-result/thrb

> <s_m_Source_File>
dock_pv.maegz

> <i_m_Source_File_Index>
249

> <chembl_id>
CHEMBL350514

> <chembl_pref_name>
None

> <i_lp_mmshare_version>
53161

> <r_lp_tautomer_probability>
0.99990000499975

> <s_lp_Force_Field>
OPLS_2005

> <r_lp_Energy>
10.67688

> <b_lp_Chiralities_Consistent>
1

> <s_lp_Variant>
CHEMBL204_lig567-1

> <s_i_glide_gridfile>
glide-grid_1ype

> <i_i_glide_lignum>
773

> <i_i_glide_rotatable_bonds>
19

> <r_i_docking_score>
-7.19906025526606

> <r_i_glide_ligand_efficiency>
-0.16742000593642

> <r_i_glide_ligand_efficiency_sa>
-0.586538923332225

> <r_i_glide_ligand_efficiency_ln>
-1.51202639677694

> <r_i_glide_gscore>
-7.19906025526606

> <r_i_glide_lipo>
-2.19191099730041

> <r_i_glide_hbond>
-0.734606335333256

> <r_i_glide_metal>
0

> <r_i_glide_rewards>
-0.180099135690473

> <r_i_glide_evdw>
-47.7276344299316

> <r_i_glide_ecoul>
-15.3250513076782

> <r_i_glide_erotb>
0.803913550663388

> <r_i_glide_esite>
-0.211217919956994

> <r_i_glide_emodel>
-89.7721434171028

> <r_i_glide_energy>
-63.0526857376099

> <r_i_glide_einternal>
8.64990234375

> <i_i_glide_confnum>
1

> <i_i_glide_posenum>
21

> <r_i_glide_eff_state_penalty>
0

> <s_user_duplicate_titles>
CHEMBL204_lig567

> <i_f3d_flags>
0

> <s_m_subgroup_title>
dock_pv

> <s_m_subgroupid>
dock_pv

> <b_m_subgroup_collapsed>
1

$$$$
CHEMBL204_lig1117
                    3D
 Schrodinger Suite 2021-1.
 69 72  0  0  1  0            999 V2000
   16.6254  -15.4546   21.0257 N   0  0  0  0  0  0
   12.2882  -10.7861   22.4618 N   0  0  0  0  0  0
   17.8559  -16.3057   25.5209 S   0  0  0  0  0  0
   16.1093  -16.3983   21.8840 C   0  0  0  0  0  0
   17.0955  -17.0276   22.9030 C   0  0  2  0  0  0
   12.7523  -12.0742   21.9165 C   0  0  2  0  0  0
   11.4337  -10.6601   23.6016 C   0  0  0  0  0  0
   17.6164  -15.9689   23.8109 N   0  0  1  0  0  0
   17.9691  -14.9921   20.9736 C   0  0  0  0  0  0
   15.0079  -13.8137   19.9863 C   0  0  0  0  0  0
   14.2689  -12.0151   21.5885 C   0  0  1  0  0  0
   15.7768  -15.1391   19.8408 C   0  0  0  0  0  0
   14.8735  -13.2921   21.2175 N   0  0  0  0  0  0
   17.6153  -15.0532   26.2391 O   0  0  0  0  0  0
   17.1044  -17.5167   25.8666 O   0  0  0  0  0  0
   11.2162   -9.5883   24.2195 N   0  0  0  0  0  0
   14.9472  -16.8133   21.8438 O   0  0  0  0  0  0
   19.6875  -16.7149   25.6777 C   0  0  0  0  0  0
   19.0541  -15.8954   20.8682 C   0  0  0  0  0  0
   18.2414  -17.8772   22.2979 C   0  0  0  0  0  0
   14.5635  -13.2812   18.9714 O   0  0  0  0  0  0
   10.8151  -11.8508   24.0264 N   0  0  0  0  0  0
   18.8065  -17.3975   20.9467 C   0  0  0  0  0  0
   12.5368   -9.6449   21.5703 C   0  0  0  0  0  0
   12.0143  -12.5640   20.8160 O   0  0  0  0  0  0
   20.6052  -15.5743   25.2701 C   0  0  0  0  0  0
   18.2524  -13.6166   20.9895 C   0  0  0  0  0  0
   14.6855  -10.7614   20.7799 C   0  0  0  0  0  0
   14.0492   -9.4878   21.3650 C   0  0  0  0  0  0
   20.3556  -15.3956   20.7259 C   0  0  0  0  0  0
   20.7309  -14.4529   26.0943 C   0  0  0  0  0  0
   21.3430  -15.6614   24.0890 C   0  0  0  0  0  0
   19.5483  -13.1345   20.8490 C   0  0  0  0  0  0
   20.6017  -14.0265   20.7101 C   0  0  0  0  0  0
   21.6289  -13.4436   25.7643 C   0  0  0  0  0  0
   22.2386  -14.6489   23.7573 C   0  0  0  0  0  0
   22.3924  -13.5552   24.6046 C   0  0  0  0  0  0
   16.4982  -17.7059   23.5138 H   0  0  0  0  0  0
   12.6547  -12.8494   22.6791 H   0  0  0  0  0  0
   17.2606  -15.0283   23.6262 H   0  0  0  0  0  0
   14.7566  -11.8552   22.5442 H   0  0  0  0  0  0
   15.0764  -15.9346   19.5802 H   0  0  0  0  0  0
   16.4244  -15.0255   18.9738 H   0  0  0  0  0  0
   15.1704  -13.8738   21.9883 H   0  0  0  0  0  0
   10.5320   -9.7269   24.9545 H   0  0  0  0  0  0
   19.8526  -16.9789   26.7202 H   0  0  0  0  0  0
   19.8725  -17.6132   25.0924 H   0  0  0  0  0  0
   19.0588  -17.9586   23.0131 H   0  0  0  0  0  0
   17.8886  -18.9016   22.1666 H   0  0  0  0  0  0
   10.0844  -11.8306   24.7294 H   0  0  0  0  0  0
   10.8708  -12.7269   23.5220 H   0  0  0  0  0  0
   18.1157  -17.6654   20.1447 H   0  0  0  0  0  0
   19.7248  -17.9444   20.7250 H   0  0  0  0  0  0
   12.0406   -9.8371   20.6170 H   0  0  0  0  0  0
   12.1124   -8.7194   21.9614 H   0  0  0  0  0  0
   11.2132  -12.9804   21.1453 H   0  0  0  0  0  0
   17.4573  -12.8948   21.0855 H   0  0  0  0  0  0
   14.3370  -10.8641   19.7520 H   0  0  0  0  0  0
   15.7710  -10.6587   20.7460 H   0  0  0  0  0  0
   14.2498   -8.6489   20.7073 H   0  0  0  0  0  0
   14.4991   -9.2072   22.3166 H   0  0  0  0  0  0
   21.1917  -16.0738   20.6357 H   0  0  0  0  0  0
   20.1485  -14.3714   27.0007 H   0  0  0  0  0  0
   21.2397  -16.5168   23.4381 H   0  0  0  0  0  0
   19.7313  -12.0707   20.8389 H   0  0  0  0  0  0
   21.6107  -13.6592   20.6000 H   0  0  0  0  0  0
   21.7376  -12.5828   26.4086 H   0  0  0  0  0  0
   22.8152  -14.7159   22.8491 H   0  0  0  0  0  0
   23.1079  -12.7850   24.3556 H   0  0  0  0  0  0
  1  4  1  0  0  0
  1  9  1  0  0  0
  1 12  1  0  0  0
  2  6  1  0  0  0
  2  7  1  0  0  0
  2 24  1  0  0  0
  3  8  1  0  0  0
  3 14  2  0  0  0
  3 15  2  0  0  0
  3 18  1  0  0  0
  4  5  1  0  0  0
  4 17  2  0  0  0
  5  8  1  0  0  0
  5 20  1  0  0  0
  5 38  1  0  0  0
  6 11  1  0  0  0
  6 25  1  0  0  0
  6 39  1  0  0  0
  7 16  2  0  0  0
  7 22  1  0  0  0
  8 40  1  0  0  0
  9 19  2  0  0  0
  9 27  1  0  0  0
 10 12  1  0  0  0
 10 13  1  0  0  0
 10 21  2  0  0  0
 11 13  1  0  0  0
 11 28  1  0  0  0
 11 41  1  0  0  0
 12 42  1  0  0  0
 12 43  1  0  0  0
 13 44  1  0  0  0
 16 45  1  0  0  0
 18 26  1  0  0  0
 18 46  1  0  0  0
 18 47  1  0  0  0
 19 23  1  0  0  0
 19 30  1  0  0  0
 20 23  1  0  0  0
 20 48  1  0  0  0
 20 49  1  0  0  0
 22 50  1  0  0  0
 22 51  1  0  0  0
 23 52  1  0  0  0
 23 53  1  0  0  0
 24 29  1  0  0  0
 24 54  1  0  0  0
 24 55  1  0  0  0
 25 56  1  0  0  0
 26 31  2  0  0  0
 26 32  1  0  0  0
 27 33  2  0  0  0
 27 57  1  0  0  0
 28 29  1  0  0  0
 28 58  1  0  0  0
 28 59  1  0  0  0
 29 60  1  0  0  0
 29 61  1  0  0  0
 30 34  2  0  0  0
 30 62  1  0  0  0
 31 35  1  0  0  0
 31 63  1  0  0  0
 32 36  2  0  0  0
 32 64  1  0  0  0
 33 34  1  0  0  0
 33 65  1  0  0  0
 34 66  1  0  0  0
 35 37  2  0  0  0
 35 67  1  0  0  0
 36 37  1  0  0  0
 36 68  1  0  0  0
 37 69  1  0  0  0
M  END
> <s_m_entry_id>
35400

> <s_m_entry_name>
dock_pv.250

> <s_m_Source_Path>
/home/csk/Desktop/cluster/DUD-E-result/thrb

> <s_m_Source_File>
dock_pv.maegz

> <i_m_Source_File_Index>
250

> <chembl_id>
CHEMBL316376

> <chembl_pref_name>
None

> <i_lp_mmshare_version>
53161

> <r_lp_tautomer_probability>
1

> <s_lp_Force_Field>
OPLS_2005

> <r_lp_Energy>
38.022296

> <b_lp_Chiralities_Consistent>
1

> <s_lp_Variant>
CHEMBL204_lig1117-1

> <s_i_glide_gridfile>
glide-grid_1ype

> <i_i_glide_lignum>
1778

> <i_i_glide_rotatable_bonds>
10

> <r_i_docking_score>
-7.19800692415468

> <r_i_glide_ligand_efficiency>
-0.194540727679856

> <r_i_glide_ligand_efficiency_sa>
-0.648252863029659

> <r_i_glide_ligand_efficiency_ln>
-1.56107895662511

> <r_i_glide_gscore>
-7.19800692415468

> <r_i_glide_lipo>
-2.63532662113876

> <r_i_glide_hbond>
-0.468178908408495

> <r_i_glide_metal>
0

> <r_i_glide_rewards>
-0.982690348531131

> <r_i_glide_evdw>
-45.042781829834

> <r_i_glide_ecoul>
-8.57134532928467

> <r_i_glide_erotb>
0.516089603412231

> <r_i_glide_esite>
-0.0900597586041231

> <r_i_glide_emodel>
-65.9626796407858

> <r_i_glide_energy>
-53.6141271591187

> <r_i_glide_einternal>
18.0397834777832

> <i_i_glide_confnum>
36

> <i_i_glide_posenum>
8

> <r_i_glide_eff_state_penalty>
0

> <s_user_duplicate_titles>
CHEMBL204_lig1117,139289

> <i_f3d_flags>
0

> <s_m_subgroup_title>
dock_pv

> <s_m_subgroupid>
dock_pv

> <b_m_subgroup_collapsed>
1

$$$$
CHEMBL204_lig4384
                    3D
 Schrodinger Suite 2021-1.
 54 57  0  0  1  0            999 V2000
   19.7870  -13.1964   23.6664 C   0  0  0  0  0  0
   18.8562  -14.3970   23.6537 C   0  0  0  0  0  0
   18.8619  -15.3789   24.6350 C   0  0  0  0  0  0
   17.6718  -16.6050   24.3993 S   0  0  0  0  0  0
   17.0830  -15.8030   22.9672 C   0  0  0  0  0  0
   17.8572  -14.6539   22.6880 C   0  0  0  0  0  0
   17.6339  -13.6031   21.3311 Cl  0  0  0  0  0  0
   15.9248  -16.3628   22.2832 C   0  0  0  0  0  0
   15.3322  -15.5229   21.4076 N   0  0  0  0  0  0
   15.5056  -17.4939   22.5412 O   0  0  0  0  0  0
   14.1464  -15.7254   20.6663 C   0  0  0  0  0  0
   13.1787  -14.6870   20.6048 C   0  0  0  0  0  0
   12.0160  -14.9004   19.8496 C   0  0  0  0  0  0
   11.7963  -16.0920   19.1697 C   0  0  0  0  0  0
   12.7568  -17.0937   19.2069 C   0  0  0  0  0  0
   13.9370  -16.9139   19.9284 C   0  0  0  0  0  0
   13.3598  -13.3426   21.2880 C   0  0  0  0  0  0
   14.4725  -12.8103   21.3238 O   0  0  0  0  0  0
   12.2445  -12.8019   21.8335 N   0  0  0  0  0  0
   10.3443  -16.3088   18.2626 Cl  0  0  0  0  0  0
   12.1392  -11.5490   22.4541 C   0  0  0  0  0  0
   12.9021  -10.4984   22.0334 N   0  0  0  0  0  0
   12.8260   -9.3330   22.7216 C   0  0  0  0  0  0
   12.0160   -9.1689   23.8444 C   0  0  0  0  0  0
   11.2119  -10.2367   24.2398 C   0  0  0  0  0  0
   11.2391  -11.4315   23.5194 C   0  0  0  0  0  0
   12.0159   -7.6810   24.7209 Cl  0  0  0  0  0  0
   14.8831  -17.9076   19.8636 O   0  0  0  0  0  0
   15.7438  -17.8173   18.7364 C   0  0  0  0  0  0
   21.1158  -13.4542   23.1046 N   0  0  0  0  0  0
   21.1833  -13.5047   21.6456 C   0  0  0  0  0  0
   22.2028  -13.8010   23.8814 C   0  0  0  0  0  0
   23.4680  -13.8723   23.5211 N   0  0  0  0  0  0
   24.1038  -14.2294   24.6200 C   0  0  0  0  0  0
   23.2144  -14.3796   25.6674 C   0  0  0  0  0  0
   21.9828  -14.0874   25.1932 O   0  0  0  0  0  0
   19.9069  -12.8457   24.6925 H   0  0  0  0  0  0
   19.3303  -12.3536   23.1469 H   0  0  0  0  0  0
   19.5189  -15.4328   25.4907 H   0  0  0  0  0  0
   15.6672  -14.5690   21.4106 H   0  0  0  0  0  0
   11.2598  -14.1318   19.7690 H   0  0  0  0  0  0
   12.5993  -18.0091   18.6559 H   0  0  0  0  0  0
   11.4529  -13.4172   21.9639 H   0  0  0  0  0  0
   13.4673   -8.5342   22.3828 H   0  0  0  0  0  0
   10.5492  -10.1442   25.0888 H   0  0  0  0  0  0
   10.6094  -12.2533   23.8294 H   0  0  0  0  0  0
   16.4718  -18.6279   18.7713 H   0  0  0  0  0  0
   15.1923  -17.9053   17.7988 H   0  0  0  0  0  0
   16.2958  -16.8756   18.7295 H   0  0  0  0  0  0
   22.0168  -12.9168   21.2631 H   0  0  0  0  0  0
   21.2153  -14.5340   21.2866 H   0  0  0  0  0  0
   20.2962  -13.0581   21.1999 H   0  0  0  0  0  0
   25.1751  -14.3721   24.6551 H   0  0  0  0  0  0
   23.3033  -14.6489   26.7103 H   0  0  0  0  0  0
  1 30  1  0  0  0
  1  2  1  0  0  0
  1 37  1  0  0  0
  1 38  1  0  0  0
  2  3  2  0  0  0
  2  6  1  0  0  0
  3  4  1  0  0  0
  3 39  1  0  0  0
  4  5  1  0  0  0
  5  8  1  0  0  0
  5  6  2  0  0  0
  6  7  1  0  0  0
  8  9  1  0  0  0
  8 10  2  0  0  0
  9 11  1  0  0  0
  9 40  1  0  0  0
 11 12  2  0  0  0
 11 16  1  0  0  0
 12 13  1  0  0  0
 12 17  1  0  0  0
 13 14  2  0  0  0
 13 41  1  0  0  0
 14 15  1  0  0  0
 14 20  1  0  0  0
 15 16  2  0  0  0
 15 42  1  0  0  0
 16 28  1  0  0  0
 17 18  2  0  0  0
 17 19  1  0  0  0
 19 21  1  0  0  0
 19 43  1  0  0  0
 21 22  2  0  0  0
 21 26  1  0  0  0
 22 23  1  0  0  0
 23 24  2  0  0  0
 23 44  1  0  0  0
 24 25  1  0  0  0
 24 27  1  0  0  0
 25 26  2  0  0  0
 25 45  1  0  0  0
 26 46  1  0  0  0
 28 29  1  0  0  0
 29 47  1  0  0  0
 29 48  1  0  0  0
 29 49  1  0  0  0
 30 31  1  0  0  0
 30 32  1  0  0  0
 31 50  1  0  0  0
 31 51  1  0  0  0
 31 52  1  0  0  0
 32 33  2  0  0  0
 32 36  1  0  0  0
 33 34  1  0  0  0
 34 35  2  0  0  0
 34 53  1  0  0  0
 35 36  1  0  0  0
 35 54  1  0  0  0
M  END
> <s_m_entry_id>
35402

> <s_m_entry_name>
dock_pv.252

> <s_m_Source_Path>
/home/csk/Desktop/cluster/DUD-E-result/thrb

> <s_m_Source_File>
dock_pv.maegz

> <i_m_Source_File_Index>
252

> <chembl_id>
CHEMBL226669

> <chembl_pref_name>
None

> <i_lp_mmshare_version>
53161

> <r_lp_tautomer_probability>
1

> <s_lp_Force_Field>
OPLS_2005

> <r_lp_Energy>
32.452664

> <b_lp_Chiralities_Consistent>
1

> <s_lp_Variant>
CHEMBL204_lig4384-1

> <s_i_glide_gridfile>
glide-grid_1ype

> <i_i_glide_lignum>
6042

> <i_i_glide_rotatable_bonds>
10

> <r_i_docking_score>
-7.19314071117542

> <r_i_glide_ligand_efficiency>
-0.199809464199317

> <r_i_glide_ligand_efficiency_sa>
-0.659756313638678

> <r_i_glide_ligand_efficiency_ln>
-1.56934896697478

> <r_i_glide_gscore>
-7.19314071117542

> <r_i_glide_lipo>
-3.41188793778938

> <r_i_glide_hbond>
-0.201652465253715

> <r_i_glide_metal>
0

> <r_i_glide_rewards>
-0.36579994966849

> <r_i_glide_evdw>
-55.2404098510742

> <r_i_glide_ecoul>
-6.11746120452881

> <r_i_glide_erotb>
0.49668763412537

> <r_i_glide_esite>
-0.030848319356174

> <r_i_glide_emodel>
-83.4920301949489

> <r_i_glide_energy>
-61.357871055603

> <r_i_glide_einternal>
8.06378364562988

> <i_i_glide_confnum>
84

> <i_i_glide_posenum>
323

> <r_i_glide_eff_state_penalty>
0

> <s_user_duplicate_titles>
CHEMBL204_lig4384

> <i_f3d_flags>
0

> <s_m_subgroup_title>
dock_pv

> <s_m_subgroupid>
dock_pv

> <b_m_subgroup_collapsed>
1

$$$$
CHEMBL204_lig4385
                    3D
 Schrodinger Suite 2021-1.
 56 59  0  0  1  0            999 V2000
   20.2436  -13.5824   23.1687 C   0  0  0  0  0  0
   19.6475  -13.3689   21.7829 C   0  0  0  0  0  0
   20.3651  -12.8591   20.7088 C   0  0  0  0  0  0
   19.4268  -12.6528   19.2773 S   0  0  0  0  0  0
   18.0246  -13.3379   20.0602 C   0  0  0  0  0  0
   18.3115  -13.6344   21.4148 C   0  0  0  0  0  0
   17.1938  -14.2832   22.5660 Cl  0  0  0  0  0  0
   16.8188  -13.5613   19.2689 C   0  0  0  0  0  0
   15.7652  -14.0153   19.9698 N   0  0  0  0  0  0
   16.7965  -13.3928   18.0468 O   0  0  0  0  0  0
   14.5854  -14.5820   19.4473 C   0  0  0  0  0  0
   13.3464  -13.9469   19.6845 C   0  0  0  0  0  0
   12.1647  -14.6080   19.3362 C   0  0  0  0  0  0
   12.1987  -15.8531   18.7208 C   0  0  0  0  0  0
   13.4214  -16.4595   18.4479 C   0  0  0  0  0  0
   14.6298  -15.8435   18.8163 C   0  0  0  0  0  0
   13.2679  -12.5473   20.2345 C   0  0  0  0  0  0
   13.9175  -11.6477   19.6971 O   0  0  0  0  0  0
   12.4762  -12.3971   21.3176 N   0  0  0  0  0  0
   10.7209  -16.6322   18.2877 Cl  0  0  0  0  0  0
   12.3340  -11.2469   22.1077 C   0  0  0  0  0  0
   13.1266  -10.1516   21.9198 N   0  0  0  0  0  0
   12.9602   -9.0842   22.7320 C   0  0  0  0  0  0
   12.0162   -9.0564   23.7545 C   0  0  0  0  0  0
   11.2158  -10.1837   23.9525 C   0  0  0  0  0  0
   11.3737  -11.2949   23.1216 C   0  0  0  0  0  0
   11.8417   -7.6400   24.7210 Cl  0  0  0  0  0  0
   15.8667  -16.4418   18.6374 O   0  0  0  0  0  0
   15.9605  -17.6754   17.9327 C   0  0  0  0  0  0
   21.1854  -14.7098   23.2619 N   0  0  0  0  0  0
   20.6759  -16.0223   22.8600 C   0  0  0  0  0  0
   22.4770  -14.5679   23.7893 C   0  0  0  0  0  0
   22.9569  -13.4540   24.1717 N   0  0  0  0  0  0
   24.3229  -13.5545   24.6047 C   0  0  0  0  0  0
   24.7169  -15.0050   24.8719 C   0  0  0  0  0  0
   23.5666  -16.0004   23.9233 S   0  0  0  0  0  0
   19.4679  -13.7394   23.9187 H   0  0  0  0  0  0
   20.7149  -12.6530   23.4884 H   0  0  0  0  0  0
   21.4077  -12.5753   20.7071 H   0  0  0  0  0  0
   15.8537  -14.0407   20.9746 H   0  0  0  0  0  0
   11.2092  -14.1392   19.5093 H   0  0  0  0  0  0
   13.4093  -17.4240   17.9651 H   0  0  0  0  0  0
   11.9505  -13.2008   21.6289 H   0  0  0  0  0  0
   13.6233   -8.2523   22.5629 H   0  0  0  0  0  0
   10.4572  -10.1972   24.7231 H   0  0  0  0  0  0
   10.7463  -12.1639   23.2683 H   0  0  0  0  0  0
   17.0094  -17.9596   17.8504 H   0  0  0  0  0  0
   15.4402  -18.4761   18.4602 H   0  0  0  0  0  0
   15.5641  -17.5904   16.9191 H   0  0  0  0  0  0
   20.7370  -16.7312   23.6872 H   0  0  0  0  0  0
   19.6324  -15.9853   22.5466 H   0  0  0  0  0  0
   21.2554  -16.4174   22.0248 H   0  0  0  0  0  0
   24.4161  -12.9759   25.5211 H   0  0  0  0  0  0
   24.9664  -13.0884   23.8565 H   0  0  0  0  0  0
   25.7457  -15.2245   24.5870 H   0  0  0  0  0  0
   24.5802  -15.2674   25.9202 H   0  0  0  0  0  0
  1 30  1  0  0  0
  1  2  1  0  0  0
  1 37  1  0  0  0
  1 38  1  0  0  0
  2  3  2  0  0  0
  2  6  1  0  0  0
  3  4  1  0  0  0
  3 39  1  0  0  0
  4  5  1  0  0  0
  5  8  1  0  0  0
  5  6  2  0  0  0
  6  7  1  0  0  0
  8  9  1  0  0  0
  8 10  2  0  0  0
  9 11  1  0  0  0
  9 40  1  0  0  0
 11 12  2  0  0  0
 11 16  1  0  0  0
 12 13  1  0  0  0
 12 17  1  0  0  0
 13 14  2  0  0  0
 13 41  1  0  0  0
 14 15  1  0  0  0
 14 20  1  0  0  0
 15 16  2  0  0  0
 15 42  1  0  0  0
 16 28  1  0  0  0
 17 18  2  0  0  0
 17 19  1  0  0  0
 19 21  1  0  0  0
 19 43  1  0  0  0
 21 22  2  0  0  0
 21 26  1  0  0  0
 22 23  1  0  0  0
 23 24  2  0  0  0
 23 44  1  0  0  0
 24 25  1  0  0  0
 24 27  1  0  0  0
 25 26  2  0  0  0
 25 45  1  0  0  0
 26 46  1  0  0  0
 28 29  1  0  0  0
 29 47  1  0  0  0
 29 48  1  0  0  0
 29 49  1  0  0  0
 30 31  1  0  0  0
 30 32  1  0  0  0
 31 50  1  0  0  0
 31 51  1  0  0  0
 31 52  1  0  0  0
 32 33  2  0  0  0
 32 36  1  0  0  0
 33 34  1  0  0  0
 34 35  1  0  0  0
 34 53  1  0  0  0
 34 54  1  0  0  0
 35 36  1  0  0  0
 35 55  1  0  0  0
 35 56  1  0  0  0
M  END
> <s_m_entry_id>
35403

> <s_m_entry_name>
dock_pv.253

> <s_m_Source_Path>
/home/csk/Desktop/cluster/DUD-E-result/thrb

> <s_m_Source_File>
dock_pv.maegz

> <i_m_Source_File_Index>
253

> <chembl_id>
CHEMBL449702

> <chembl_pref_name>
None

> <i_lp_mmshare_version>
53161

> <r_lp_tautomer_probability>
1

> <s_lp_Force_Field>
OPLS_2005

> <r_lp_Energy>
43.646655

> <b_lp_Chiralities_Consistent>
1

> <s_lp_Variant>
CHEMBL204_lig4385-1

> <s_i_glide_gridfile>
glide-grid_1ype

> <i_i_glide_lignum>
6043

> <i_i_glide_rotatable_bonds>
10

> <r_i_docking_score>
-7.19163316109213

> <r_i_glide_ligand_efficiency>
-0.199767587808115

> <r_i_glide_ligand_efficiency_sa>
-0.659618040841646

> <r_i_glide_ligand_efficiency_ln>
-1.5690200602759

> <r_i_glide_gscore>
-7.19163316109213

> <r_i_glide_lipo>
-3.18810368835798

> <r_i_glide_hbond>
0

> <r_i_glide_metal>
0

> <r_i_glide_rewards>
-0.729197515868167

> <r_i_glide_evdw>
-56.3235893249512

> <r_i_glide_ecoul>
-6.03107929229736

> <r_i_glide_erotb>
0.446509403226177

> <r_i_glide_esite>
0

> <r_i_glide_emodel>
-84.6758052481207

> <r_i_glide_energy>
-62.3546686172485

> <r_i_glide_einternal>
9.08673000335693

> <i_i_glide_confnum>
62

> <i_i_glide_posenum>
1

> <r_i_glide_eff_state_penalty>
0

> <s_user_duplicate_titles>
CHEMBL204_lig4385

> <i_f3d_flags>
0

> <s_m_subgroup_title>
dock_pv

> <s_m_subgroupid>
dock_pv

> <b_m_subgroup_collapsed>
1

$$$$
CHEMBL204_lig4519
                    3D
 Schrodinger Suite 2021-1.
 50 51  0  0  1  0            999 V2000
   19.9545  -15.0196   21.6271 C   0  0  0  0  0  0
   18.7320  -14.6979   22.2169 C   0  0  0  0  0  0
   18.1190  -13.4740   21.8991 C   0  0  0  0  0  0
   18.7375  -12.5698   21.0180 C   0  0  0  0  0  0
   19.9801  -12.9053   20.4509 C   0  0  0  0  0  0
   20.5774  -14.1242   20.7622 C   0  0  0  0  0  0
   20.8053  -11.8524   19.3517 Cl  0  0  0  0  0  0
   16.9000  -13.1676   22.4105 F   0  0  0  0  0  0
   18.0321  -11.2505   20.6836 C   0  0  0  0  0  0
   16.9350  -11.4538   19.6308 C   0  0  0  0  0  0
   15.6931  -11.6520   20.0910 N   0  0  0  0  0  0
   17.2186  -11.4535   18.4333 O   0  0  0  0  0  0
   14.5220  -11.9466   19.2646 C   0  0  0  0  0  0
   13.3363  -12.4248   20.1184 C   0  0  0  0  0  0
   12.9426  -11.3924   21.0155 O   0  0  0  0  0  0
   12.2937  -11.9733   22.1537 N   0  0  0  0  0  0
   11.6161  -11.1104   23.0447 C   0  0  0  0  0  0
   10.8154  -11.8525   23.9212 N   0  0  0  0  0  0
   11.6939   -9.8552   23.0842 N   0  0  0  0  0  0
   18.1069  -15.6756   23.0096 N   0  0  0  0  0  0
   17.6505  -15.3258   24.3578 C   0  0  0  0  0  0
   18.6106  -15.7275   25.4994 C   0  0  0  0  0  0
   19.9545  -14.9931   25.4506 C   0  0  0  0  0  0
   18.0386  -15.4588   26.6740 F   0  0  0  0  0  0
   18.8219  -17.0472   25.4803 F   0  0  0  0  0  0
   20.0764  -13.6847   25.9348 C   0  0  0  0  0  0
   21.3191  -13.0529   25.9314 C   0  0  0  0  0  0
   22.4198  -13.7495   25.4327 C   0  0  0  0  0  0
   22.3318  -15.0122   24.9452 N   0  0  0  0  0  0
   21.1144  -15.6146   24.9659 C   0  0  0  0  0  0
   20.4364  -15.9631   21.8380 H   0  0  0  0  0  0
   21.5302  -14.3845   20.3252 H   0  0  0  0  0  0
   18.7318  -10.4922   20.3351 H   0  0  0  0  0  0
   17.6130  -10.8282   21.5964 H   0  0  0  0  0  0
   15.5314  -11.6206   21.0873 H   0  0  0  0  0  0
   14.7666  -12.7133   18.5251 H   0  0  0  0  0  0
   14.2440  -11.0526   18.7057 H   0  0  0  0  0  0
   13.6374  -13.3389   20.6380 H   0  0  0  0  0  0
   12.4902  -12.6788   19.4774 H   0  0  0  0  0  0
   11.9368  -12.8870   21.9179 H   0  0  0  0  0  0
   10.0941  -11.4053   24.4757 H   0  0  0  0  0  0
   10.6378  -12.8364   23.7543 H   0  0  0  0  0  0
   11.1011   -9.4919   23.8162 H   0  0  0  0  0  0
   18.5141  -16.5990   22.9557 H   0  0  0  0  0  0
   17.4038  -14.2679   24.4404 H   0  0  0  0  0  0
   16.7080  -15.8532   24.5123 H   0  0  0  0  0  0
   19.2162  -13.1614   26.3257 H   0  0  0  0  0  0
   21.4220  -12.0500   26.3208 H   0  0  0  0  0  0
   23.4010  -13.2983   25.4210 H   0  0  0  0  0  0
   21.0873  -16.6254   24.5854 H   0  0  0  0  0  0
  1  6  1  0  0  0
  1  2  2  0  0  0
  1 31  1  0  0  0
  2 20  1  0  0  0
  2  3  1  0  0  0
  3  4  2  0  0  0
  3  8  1  0  0  0
  4  9  1  0  0  0
  4  5  1  0  0  0
  5  6  2  0  0  0
  5  7  1  0  0  0
  6 32  1  0  0  0
  9 10  1  0  0  0
  9 33  1  0  0  0
  9 34  1  0  0  0
 10 11  1  0  0  0
 10 12  2  0  0  0
 11 13  1  0  0  0
 11 35  1  0  0  0
 13 14  1  0  0  0
 13 36  1  0  0  0
 13 37  1  0  0  0
 14 15  1  0  0  0
 14 38  1  0  0  0
 14 39  1  0  0  0
 15 16  1  0  0  0
 16 17  1  0  0  0
 16 40  1  0  0  0
 17 18  1  0  0  0
 17 19  2  0  0  0
 18 41  1  0  0  0
 18 42  1  0  0  0
 19 43  1  0  0  0
 20 21  1  0  0  0
 20 44  1  0  0  0
 21 22  1  0  0  0
 21 45  1  0  0  0
 21 46  1  0  0  0
 22 23  1  0  0  0
 22 24  1  0  0  0
 22 25  1  0  0  0
 23 26  2  0  0  0
 23 30  1  0  0  0
 26 27  1  0  0  0
 26 47  1  0  0  0
 27 28  2  0  0  0
 27 48  1  0  0  0
 28 29  1  0  0  0
 28 49  1  0  0  0
 29 30  2  0  0  0
 30 50  1  0  0  0
M  END
> <s_m_entry_id>
35404

> <s_m_entry_name>
dock_pv.254

> <s_m_Source_Path>
/home/csk/Desktop/cluster/DUD-E-result/thrb

> <s_m_Source_File>
dock_pv.maegz

> <i_m_Source_File_Index>
254

> <chembl_id>
CHEMBL250271

> <chembl_pref_name>
None

> <i_lp_mmshare_version>
53161

> <r_lp_tautomer_probability>
1

> <s_lp_Force_Field>
OPLS_2005

> <r_lp_Energy>
3.299427

> <b_lp_Chiralities_Consistent>
1

> <s_lp_Variant>
CHEMBL204_lig4519-1

> <s_i_glide_gridfile>
glide-grid_1ype

> <i_i_glide_lignum>
6186

> <i_i_glide_rotatable_bonds>
12

> <r_i_docking_score>
-7.18869861868369

> <r_i_glide_ligand_efficiency>
-0.239623287289456

> <r_i_glide_ligand_efficiency_sa>
-0.744565266605181

> <r_i_glide_ligand_efficiency_ln>
-1.6333506533099

> <r_i_glide_gscore>
-7.18869861868369

> <r_i_glide_lipo>
-2.83310333489802

> <r_i_glide_hbond>
-0.39804508254928

> <r_i_glide_metal>
0

> <r_i_glide_rewards>
-1.1508621116999

> <r_i_glide_evdw>
-46.3415298461914

> <r_i_glide_ecoul>
-10.1967973709106

> <r_i_glide_erotb>
1.1119594550122

> <r_i_glide_esite>
-0.0720514466025162

> <r_i_glide_emodel>
-76.1155656205117

> <r_i_glide_energy>
-56.5383272171021

> <r_i_glide_einternal>
11.5148248672485

> <i_i_glide_confnum>
172

> <i_i_glide_posenum>
281

> <r_i_glide_eff_state_penalty>
0

> <s_user_duplicate_titles>
CHEMBL204_lig4519,416150

> <i_f3d_flags>
0

> <s_m_subgroup_title>
dock_pv

> <s_m_subgroupid>
dock_pv

> <b_m_subgroup_collapsed>
1

$$$$
CHEMBL204_lig4710
                    3D
 Schrodinger Suite 2021-1.
 55 56  0  0  1  0            999 V2000
   21.5143  -13.6349   24.1697 C   0  0  0  0  0  0
   20.3051  -14.5233   24.5585 C   0  0  0  0  0  0
   20.8755  -15.7380   25.3354 C   0  0  0  0  0  0
   19.4209  -13.6977   25.5270 C   0  0  0  0  0  0
   19.5180  -14.9989   23.2725 C   0  0  1  0  0  0
   18.4732  -16.0101   23.5554 N   0  0  0  0  0  0
   18.8401  -13.8630   22.4326 C   0  0  0  0  0  0
   17.7275  -13.4530   22.7738 O   0  0  0  0  0  0
   19.4915  -13.3575   21.3549 N   0  0  0  0  0  0
   20.7527  -13.8401   20.7848 C   0  0  0  0  0  0
   20.8708  -13.1526   19.4354 C   0  0  0  0  0  0
   20.1187  -11.8517   19.6338 C   0  0  0  0  0  0
   18.9757  -12.1921   20.6035 C   0  0  1  0  0  0
   17.6550  -12.4744   19.8627 C   0  0  0  0  0  0
   17.5892  -13.4237   19.0844 O   0  0  0  0  0  0
   16.6381  -11.6377   20.1190 N   0  0  0  0  0  0
   15.2987  -11.7681   19.5447 C   0  0  0  0  0  0
   14.2039  -11.5016   20.5691 C   0  0  0  0  0  0
   14.0471  -10.2299   21.1208 C   0  0  0  0  0  0
   13.0763  -10.0088   22.0951 C   0  0  0  0  0  0
   12.2336  -11.0442   22.5412 C   0  0  0  0  0  0
   12.3763  -12.3011   21.9244 C   0  0  0  0  0  0
   13.3489  -12.5305   20.9571 C   0  0  0  0  0  0
   11.2499  -10.8002   23.6404 C   0  0  0  0  0  0
   11.2160   -9.7004   24.2522 N   0  0  0  0  0  0
   10.4162  -11.8530   23.9210 N   0  0  0  0  0  0
   22.0566  -13.2929   25.0528 H   0  0  0  0  0  0
   21.2099  -12.7375   23.6317 H   0  0  0  0  0  0
   22.2321  -14.1780   23.5543 H   0  0  0  0  0  0
   20.0849  -16.3908   25.7066 H   0  0  0  0  0  0
   21.5377  -16.3383   24.7109 H   0  0  0  0  0  0
   21.4541  -15.4243   26.2056 H   0  0  0  0  0  0
   18.4702  -14.1877   25.7363 H   0  0  0  0  0  0
   19.9159  -13.5333   26.4857 H   0  0  0  0  0  0
   19.2160  -12.7069   25.1251 H   0  0  0  0  0  0
   20.2366  -15.5218   22.6454 H   0  0  0  0  0  0
   17.9106  -15.7158   24.3415 H   0  0  0  0  0  0
   17.8397  -16.0979   22.7732 H   0  0  0  0  0  0
   21.5819  -13.5384   21.4204 H   0  0  0  0  0  0
   20.7873  -14.9211   20.6544 H   0  0  0  0  0  0
   21.9011  -13.0022   19.1198 H   0  0  0  0  0  0
   20.3695  -13.7578   18.6805 H   0  0  0  0  0  0
   20.7756  -11.1103   20.0916 H   0  0  0  0  0  0
   19.7767  -11.4530   18.6799 H   0  0  0  0  0  0
   18.8158  -11.3558   21.2867 H   0  0  0  0  0  0
   16.7920  -10.8520   20.7351 H   0  0  0  0  0  0
   15.2041  -11.0530   18.7304 H   0  0  0  0  0  0
   15.1426  -12.7418   19.0746 H   0  0  0  0  0  0
   14.6962   -9.4184   20.8247 H   0  0  0  0  0  0
   13.0026   -9.0195   22.5259 H   0  0  0  0  0  0
   11.7543  -13.1363   22.2064 H   0  0  0  0  0  0
   13.4475  -13.5192   20.5322 H   0  0  0  0  0  0
   10.4671   -9.7062   24.9348 H   0  0  0  0  0  0
    9.6464  -11.7268   24.5801 H   0  0  0  0  0  0
   10.5411  -12.7751   23.5213 H   0  0  0  0  0  0
  1  2  1  0  0  0
  1 27  1  0  0  0
  1 28  1  0  0  0
  1 29  1  0  0  0
  2  3  1  0  0  0
  2  4  1  0  0  0
  2  5  1  0  0  0
  3 30  1  0  0  0
  3 31  1  0  0  0
  3 32  1  0  0  0
  4 33  1  0  0  0
  4 34  1  0  0  0
  4 35  1  0  0  0
  5  6  1  0  0  0
  5  7  1  0  0  0
  5 36  1  0  0  0
  6 37  1  0  0  0
  6 38  1  0  0  0
  7  8  2  0  0  0
  7  9  1  0  0  0
  9 10  1  0  0  0
  9 13  1  0  0  0
 10 11  1  0  0  0
 10 39  1  0  0  0
 10 40  1  0  0  0
 11 12  1  0  0  0
 11 41  1  0  0  0
 11 42  1  0  0  0
 12 13  1  0  0  0
 12 43  1  0  0  0
 12 44  1  0  0  0
 13 14  1  0  0  0
 13 45  1  0  0  0
 14 15  2  0  0  0
 14 16  1  0  0  0
 16 17  1  0  0  0
 16 46  1  0  0  0
 17 18  1  0  0  0
 17 47  1  0  0  0
 17 48  1  0  0  0
 18 19  2  0  0  0
 18 23  1  0  0  0
 19 20  1  0  0  0
 19 49  1  0  0  0
 20 21  2  0  0  0
 20 50  1  0  0  0
 21 22  1  0  0  0
 21 24  1  0  0  0
 22 23  2  0  0  0
 22 51  1  0  0  0
 23 52  1  0  0  0
 24 25  2  0  0  0
 24 26  1  0  0  0
 25 53  1  0  0  0
 26 54  1  0  0  0
 26 55  1  0  0  0
M  END
> <s_m_entry_id>
35405

> <s_m_entry_name>
dock_pv.255

> <s_m_Source_Path>
/home/csk/Desktop/cluster/DUD-E-result/thrb

> <s_m_Source_File>
dock_pv.maegz

> <i_m_Source_File_Index>
255

> <chembl_id>
CHEMBL601043

> <chembl_pref_name>
None

> <i_lp_mmshare_version>
53161

> <r_lp_tautomer_probability>
1

> <s_lp_Force_Field>
OPLS_2005

> <r_lp_Energy>
16.482117

> <b_lp_Chiralities_Consistent>
1

> <s_lp_Variant>
CHEMBL204_lig4710-1

> <s_i_glide_gridfile>
glide-grid_1ype

> <i_i_glide_lignum>
6451

> <i_i_glide_rotatable_bonds>
8

> <r_i_docking_score>
-7.18676828698124

> <r_i_glide_ligand_efficiency>
-0.276414164883894

> <r_i_glide_ligand_efficiency_sa>
-0.818875875831317

> <r_i_glide_ligand_efficiency_ln>
-1.68778895048738

> <r_i_glide_gscore>
-7.18676828698124

> <r_i_glide_lipo>
-2.86608884043184

> <r_i_glide_hbond>
-0.206649951911963

> <r_i_glide_metal>
0

> <r_i_glide_rewards>
-1.59734193179946

> <r_i_glide_evdw>
-37.737232208252

> <r_i_glide_ecoul>
-9.23809719085693

> <r_i_glide_erotb>
0.890033672638303

> <r_i_glide_esite>
-0.134145046435154

> <r_i_glide_emodel>
-65.5579728929308

> <r_i_glide_energy>
-46.9753293991089

> <r_i_glide_einternal>
4.92131328582764

> <i_i_glide_confnum>
99

> <i_i_glide_posenum>
170

> <r_i_glide_eff_state_penalty>
0

> <s_user_duplicate_titles>
CHEMBL204_lig4710

> <i_f3d_flags>
0

> <s_m_subgroup_title>
dock_pv

> <s_m_subgroupid>
dock_pv

> <b_m_subgroup_collapsed>
1

$$$$
CHEMBL204_lig930
                    3D
 Schrodinger Suite 2021-1.
 51 54  0  0  1  0            999 V2000
   18.6645  -12.7195   20.5040 C   0  0  0  0  0  0
   16.5284  -11.7489   17.5843 C   0  0  0  0  0  0
   17.8502  -12.0122   19.4463 C   0  0  1  0  0  0
   17.8376  -11.8526   17.2018 O   0  0  0  0  0  0
   18.5337  -12.5385   18.2212 C   0  0  1  0  0  0
   19.9699  -12.8412   20.0045 C   0  0  0  0  0  0
   16.3884  -12.1909   19.0688 C   0  0  1  0  0  0
   18.3624  -13.1233   21.8030 C   0  0  0  0  0  0
   20.0173  -12.4023   18.5483 C   0  0  0  0  0  0
   19.3735  -13.6553   22.6202 C   0  0  0  0  0  0
   12.1806  -12.0036   22.2689 C   0  0  0  0  0  0
   15.6789  -11.3043   16.8150 O   0  0  0  0  0  0
   19.0644  -14.2362   23.9531 C   0  0  0  0  0  0
   12.4937  -13.1010   21.7467 N   0  0  0  0  0  0
   20.9944  -13.2502   20.8465 C   0  0  0  0  0  0
   20.6908  -13.6753   22.1379 C   0  0  0  0  0  0
   19.9368  -14.0597   25.0347 C   0  0  0  0  0  0
   17.9241  -15.0319   24.1232 C   0  0  0  0  0  0
   11.2161  -11.8502   23.2229 N   0  0  0  0  0  0
   18.5953  -15.5438   26.3707 C   0  0  0  0  0  0
   17.6885  -15.6880   25.3256 C   0  0  0  0  0  0
   19.7022  -14.7097   26.2413 C   0  0  0  0  0  0
   18.4050  -16.2519   27.5213 O   0  0  0  0  0  0
   15.4259  -11.3147   19.9148 C   0  0  0  0  0  0
   12.9237  -10.7249   21.8753 C   0  0  0  0  0  0
   13.9373  -11.3651   19.5064 C   0  0  0  0  0  0
   13.0183  -10.4527   20.3493 C   0  0  0  0  0  0
   18.0387  -10.9416   19.5911 H   0  0  0  0  0  0
   18.3144  -13.6010   18.1151 H   0  0  0  0  0  0
   16.0871  -13.2382   19.1042 H   0  0  0  0  0  0
   17.3537  -13.0389   22.1802 H   0  0  0  0  0  0
   20.6202  -13.0556   17.9194 H   0  0  0  0  0  0
   20.3960  -11.3889   18.4312 H   0  0  0  0  0  0
   11.9222  -13.8435   22.1258 H   0  0  0  0  0  0
   22.0150  -13.2964   20.4967 H   0  0  0  0  0  0
   21.4920  -14.0654   22.7525 H   0  0  0  0  0  0
   20.8129  -13.4359   24.9369 H   0  0  0  0  0  0
   17.2324  -15.1815   23.3077 H   0  0  0  0  0  0
   10.7069  -12.6737   23.5236 H   0  0  0  0  0  0
   10.8214  -10.9452   23.4380 H   0  0  0  0  0  0
   16.8226  -16.3221   25.4380 H   0  0  0  0  0  0
   20.3970  -14.5826   27.0578 H   0  0  0  0  0  0
   19.0534  -16.0455   28.1955 H   0  0  0  0  0  0
   15.7635  -10.2767   19.9224 H   0  0  0  0  0  0
   15.5118  -11.6436   20.9499 H   0  0  0  0  0  0
   13.9167  -10.7324   22.3210 H   0  0  0  0  0  0
   12.4294   -9.8652   22.3292 H   0  0  0  0  0  0
   13.5847  -12.3957   19.5257 H   0  0  0  0  0  0
   13.8279  -11.0530   18.4694 H   0  0  0  0  0  0
   13.3305   -9.4179   20.2139 H   0  0  0  0  0  0
   12.0169  -10.4947   19.9219 H   0  0  0  0  0  0
  1  3  1  0  0  0
  1  6  2  0  0  0
  1  8  1  0  0  0
  2  7  1  0  0  0
  2 12  2  0  0  0
  2  4  1  0  0  0
  3  5  1  0  0  0
  3  7  1  0  0  0
  3 28  1  0  0  0
  4  5  1  0  0  0
  5 29  1  0  0  0
  5  9  1  0  0  0
  6  9  1  0  0  0
  6 15  1  0  0  0
  7 24  1  0  0  0
  7 30  1  0  0  0
  8 10  2  0  0  0
  8 31  1  0  0  0
  9 32  1  0  0  0
  9 33  1  0  0  0
 10 13  1  0  0  0
 10 16  1  0  0  0
 11 25  1  0  0  0
 11 14  2  0  0  0
 11 19  1  0  0  0
 13 17  2  0  0  0
 13 18  1  0  0  0
 14 34  1  0  0  0
 15 16  2  0  0  0
 15 35  1  0  0  0
 16 36  1  0  0  0
 17 22  1  0  0  0
 17 37  1  0  0  0
 18 21  2  0  0  0
 18 38  1  0  0  0
 19 39  1  0  0  0
 19 40  1  0  0  0
 20 21  1  0  0  0
 20 23  1  0  0  0
 20 22  2  0  0  0
 21 41  1  0  0  0
 22 42  1  0  0  0
 23 43  1  0  0  0
 24 26  1  0  0  0
 24 44  1  0  0  0
 24 45  1  0  0  0
 25 27  1  0  0  0
 25 46  1  0  0  0
 25 47  1  0  0  0
 26 27  1  0  0  0
 26 48  1  0  0  0
 26 49  1  0  0  0
 27 50  1  0  0  0
 27 51  1  0  0  0
M  END
> <s_m_entry_id>
35406

> <s_m_entry_name>
dock_pv.256

> <s_m_Source_Path>
/home/csk/Desktop/cluster/DUD-E-result/thrb

> <s_m_Source_File>
dock_pv.maegz

> <i_m_Source_File_Index>
256

> <chembl_id>
CHEMBL140247

> <chembl_pref_name>
None

> <i_lp_mmshare_version>
53161

> <r_lp_tautomer_probability>
0.999999999997365

> <s_lp_Force_Field>
OPLS_2005

> <r_lp_Energy>
49.236508

> <b_lp_Chiralities_Consistent>
1

> <s_lp_Variant>
CHEMBL204_lig930-1

> <s_i_glide_gridfile>
glide-grid_1ype

> <i_i_glide_lignum>
1433

> <i_i_glide_rotatable_bonds>
7

> <r_i_docking_score>
-7.18511228876042

> <r_i_glide_ligand_efficiency>
-0.26611526995409

> <r_i_glide_ligand_efficiency_sa>
-0.798345808985197

> <r_i_glide_ligand_efficiency_ln>
-1.67257568498952

> <r_i_glide_gscore>
-7.18511228876042

> <r_i_glide_lipo>
-3.12978787865171

> <r_i_glide_hbond>
-0.562656335463983

> <r_i_glide_metal>
0

> <r_i_glide_rewards>
-1.49999264772063

> <r_i_glide_evdw>
-39.2218551635742

> <r_i_glide_ecoul>
-5.72843647003174

> <r_i_glide_erotb>
0.868494094511886

> <r_i_glide_esite>
-0.0408112927525137

> <r_i_glide_emodel>
-63.9898128573326

> <r_i_glide_energy>
-44.950291633606

> <r_i_glide_einternal>
4.0124397277832

> <i_i_glide_confnum>
135

> <i_i_glide_posenum>
61

> <r_i_glide_eff_state_penalty>
0

> <s_user_duplicate_titles>
CHEMBL204_lig930

> <i_f3d_flags>
0

> <s_m_subgroup_title>
dock_pv

> <s_m_subgroupid>
dock_pv

> <b_m_subgroup_collapsed>
1

$$$$
CHEMBL204_lig184
                    3D
 Schrodinger Suite 2021-1.
 41 43  0  0  1  0            999 V2000
   16.4626  -11.4534   17.6840 S   0  0  0  0  0  0
   11.8290  -15.4576   20.2186 O   0  0  0  0  0  0
   13.4621  -14.8634   18.7185 O   0  0  0  0  0  0
   12.0157  -13.1170   21.5011 N   0  0  0  0  0  0
   14.2668  -11.8752   19.0003 N   0  0  0  0  0  0
   16.2722  -12.2010   20.2908 N   0  0  0  0  0  0
   13.4456  -12.1119   20.0653 C   0  0  0  0  0  0
   13.1147  -11.1920   21.1319 C   0  0  0  0  0  0
   12.7617  -13.2922   20.3557 C   0  0  0  0  0  0
   12.1837  -11.8465   21.9960 C   0  0  0  0  0  0
   12.7337  -14.5959   19.6745 C   0  0  0  0  0  0
   13.4961   -9.8751   21.4420 C   0  0  0  0  0  0
   11.6160  -11.2186   23.1091 C   0  0  0  0  0  0
   15.5329  -11.9191   19.1429 C   0  0  0  0  0  0
   12.9421   -9.2550   22.5611 C   0  0  0  0  0  0
   12.0160   -9.9089   23.3673 C   0  0  0  0  0  0
   17.5877  -12.6221   20.5660 C   0  0  0  0  0  0
   11.5872  -16.7411   19.6488 C   0  0  0  0  0  0
   17.9459  -12.6520   21.9160 C   0  0  0  0  0  0
   18.5183  -13.0473   19.6059 C   0  0  0  0  0  0
   19.2157  -13.0672   22.3058 C   0  0  0  0  0  0
   19.7945  -13.4521   19.9905 C   0  0  0  0  0  0
   20.1398  -13.4547   21.3389 C   0  0  0  0  0  0
   10.6403  -16.6538   18.4405 C   0  0  0  0  0  0
   15.3758  -11.1909   16.9576 H   0  0  0  0  0  0
   11.4333  -13.8515   21.8897 H   0  0  0  0  0  0
   15.6873  -12.3133   21.1036 H   0  0  0  0  0  0
   14.2100   -9.3511   20.8229 H   0  0  0  0  0  0
   10.8945  -11.7167   23.7436 H   0  0  0  0  0  0
   13.2402   -8.2497   22.8159 H   0  0  0  0  0  0
   11.5985   -9.3951   24.2225 H   0  0  0  0  0  0
   12.5242  -17.2276   19.3712 H   0  0  0  0  0  0
   11.1297  -17.3664   20.4163 H   0  0  0  0  0  0
   17.2352  -12.3577   22.6729 H   0  0  0  0  0  0
   18.2736  -13.1048   18.5603 H   0  0  0  0  0  0
   19.4844  -13.0823   23.3528 H   0  0  0  0  0  0
   20.5086  -13.7794   19.2475 H   0  0  0  0  0  0
   21.1286  -13.7745   21.6356 H   0  0  0  0  0  0
   10.4258  -17.6464   18.0439 H   0  0  0  0  0  0
    9.6886  -16.1994   18.7164 H   0  0  0  0  0  0
   11.0755  -16.0636   17.6331 H   0  0  0  0  0  0
  1 14  1  0  0  0
  1 25  1  0  0  0
  2 11  1  0  0  0
  2 18  1  0  0  0
  3 11  2  0  0  0
  4  9  1  0  0  0
  4 10  1  0  0  0
  4 26  1  0  0  0
  5  7  1  0  0  0
  5 14  2  3  0  0
  6 14  1  0  0  0
  6 17  1  0  0  0
  6 27  1  0  0  0
  7  8  1  0  0  0
  7  9  2  0  0  0
  8 10  1  0  0  0
  8 12  2  0  0  0
  9 11  1  0  0  0
 10 13  2  0  0  0
 12 15  1  0  0  0
 12 28  1  0  0  0
 13 16  1  0  0  0
 13 29  1  0  0  0
 15 16  2  0  0  0
 15 30  1  0  0  0
 16 31  1  0  0  0
 17 19  2  0  0  0
 17 20  1  0  0  0
 18 24  1  0  0  0
 18 32  1  0  0  0
 18 33  1  0  0  0
 19 21  1  0  0  0
 19 34  1  0  0  0
 20 22  2  0  0  0
 20 35  1  0  0  0
 21 23  2  0  0  0
 21 36  1  0  0  0
 22 23  1  0  0  0
 22 37  1  0  0  0
 23 38  1  0  0  0
 24 39  1  0  0  0
 24 40  1  0  0  0
 24 41  1  0  0  0
M  END
> <s_m_entry_id>
35407

> <s_m_entry_name>
dock_pv.257

> <s_m_Source_Path>
/home/csk/Desktop/cluster/DUD-E-result/thrb

> <s_m_Source_File>
dock_pv.maegz

> <i_m_Source_File_Index>
257

> <chembl_id>
CHEMBL1365565

> <chembl_pref_name>
None

> <i_lp_mmshare_version>
53161

> <r_lp_tautomer_probability>
1

> <s_lp_Force_Field>
OPLS_2005

> <r_lp_Energy>
17.771461

> <b_lp_Chiralities_Consistent>
1

> <s_lp_Variant>
CHEMBL204_lig184-2

> <s_i_glide_gridfile>
glide-grid_1ype

> <i_i_glide_lignum>
216

> <i_i_glide_rotatable_bonds>
7

> <r_i_docking_score>
-7.18259532267408

> <r_i_glide_ligand_efficiency>
-0.29927480511142

> <r_i_glide_ligand_efficiency_sa>
-0.863257917237064

> <r_i_glide_ligand_efficiency_ln>
-1.71912464853903

> <r_i_glide_gscore>
-7.18259532267408

> <r_i_glide_lipo>
-3.26208318240324

> <r_i_glide_hbond>
-0.301132537448571

> <r_i_glide_metal>
0

> <r_i_glide_rewards>
-1.63245741911362

> <r_i_glide_evdw>
-43.8815383911133

> <r_i_glide_ecoul>
-4.09473133087158

> <r_i_glide_erotb>
0.821364435477754

> <r_i_glide_esite>
0

> <r_i_glide_emodel>
-66.5615122603668

> <r_i_glide_energy>
-47.9762697219849

> <r_i_glide_einternal>
6.33450746536255

> <i_i_glide_confnum>
17

> <i_i_glide_posenum>
47

> <r_i_glide_eff_state_penalty>
0

> <s_user_duplicate_titles>
CHEMBL204_lig184

> <i_f3d_flags>
0

> <s_m_subgroup_title>
dock_pv

> <s_m_subgroupid>
dock_pv

> <b_m_subgroup_collapsed>
1

$$$$
CHEMBL204_lig4453
                    3D
 Schrodinger Suite 2021-1.
 52 54  0  0  1  0            999 V2000
   13.0163   -9.4427   22.5131 C   0  0  0  0  0  0
   12.0916   -9.2232   23.5303 C   0  0  0  0  0  0
   11.2166  -10.2320   23.9200 C   0  0  0  0  0  0
   11.2806  -11.4792   23.3066 C   0  0  0  0  0  0
   12.2645  -11.7349   22.3495 C   0  0  0  0  0  0
   13.1085  -10.6992   21.9206 C   0  0  0  0  0  0
   12.0261   -7.6922   24.3220 Cl  0  0  0  0  0  0
   12.3501  -13.0529   21.8777 N   0  0  0  0  0  0
   13.4362  -13.6942   21.3937 C   0  0  0  0  0  0
   13.1965  -15.1173   20.9254 C   0  0  0  0  0  0
   14.5633  -13.2012   21.3380 O   0  0  0  0  0  0
   12.0178  -15.3862   20.2060 C   0  0  0  0  0  0
   11.7359  -16.6581   19.7220 C   0  0  0  0  0  0
   12.6315  -17.6937   19.9512 C   0  0  0  0  0  0
   13.8061  -17.4572   20.6600 C   0  0  0  0  0  0
   14.1180  -16.1762   21.1570 C   0  0  0  0  0  0
   10.2869  -16.9428   18.8334 Cl  0  0  0  0  0  0
   15.2934  -15.9307   21.9210 N   0  0  0  0  0  0
   16.3174  -16.7538   22.2570 C   0  0  0  0  0  0
   17.2126  -16.2111   23.2567 C   0  0  0  0  0  0
   16.4797  -17.9002   21.8319 O   0  0  0  0  0  0
   17.7741  -14.9265   23.3802 C   0  0  0  0  0  0
   17.7976  -17.2682   24.5064 S   0  0  0  0  0  0
   17.4988  -13.6298   22.2787 Cl  0  0  0  0  0  0
   18.6798  -15.9694   25.2260 C   0  0  0  0  0  0
   18.5868  -14.7703   24.5259 C   0  0  0  0  0  0
   19.2159  -13.4599   24.9786 C   0  0  0  0  0  0
   20.5471  -13.5889   25.5775 N   0  0  2  0  0  0
   20.7990  -12.4466   26.4593 C   0  0  0  0  0  0
   21.5771  -13.7793   24.5433 C   0  0  0  0  0  0
   23.0383  -13.8365   25.0469 C   0  0  0  0  0  0
   23.2377  -14.9298   25.9210 O   0  0  0  0  0  0
   13.6857   -8.6530   22.2071 H   0  0  0  0  0  0
   10.4807  -10.0555   24.6931 H   0  0  0  0  0  0
   10.5971  -12.2529   23.6278 H   0  0  0  0  0  0
   13.8508  -10.8596   21.1532 H   0  0  0  0  0  0
   11.5301  -13.6204   22.0507 H   0  0  0  0  0  0
   11.3040  -14.6012   19.9954 H   0  0  0  0  0  0
   12.4155  -18.6841   19.5784 H   0  0  0  0  0  0
   14.4475  -18.3086   20.8121 H   0  0  0  0  0  0
   15.3323  -14.9994   22.3158 H   0  0  0  0  0  0
   19.2370  -16.1359   26.1365 H   0  0  0  0  0  0
   18.5373  -13.0530   25.7239 H   0  0  0  0  0  0
   19.2538  -12.7254   24.1722 H   0  0  0  0  0  0
   20.0173  -12.3687   27.2157 H   0  0  0  0  0  0
   21.7301  -12.5607   27.0105 H   0  0  0  0  0  0
   20.8293  -11.5038   25.9109 H   0  0  0  0  0  0
   21.5180  -12.9236   23.8683 H   0  0  0  0  0  0
   21.3742  -14.6291   23.8879 H   0  0  0  0  0  0
   23.3370  -12.9033   25.5217 H   0  0  0  0  0  0
   23.7109  -13.9528   24.1970 H   0  0  0  0  0  0
   23.9974  -14.7438   26.4876 H   0  0  0  0  0  0
  1  6  1  0  0  0
  1  2  2  0  0  0
  1 33  1  0  0  0
  2  3  1  0  0  0
  2  7  1  0  0  0
  3  4  2  0  0  0
  3 34  1  0  0  0
  4  5  1  0  0  0
  4 35  1  0  0  0
  5  8  1  0  0  0
  5  6  2  0  0  0
  6 36  1  0  0  0
  8  9  1  0  0  0
  8 37  1  0  0  0
  9 10  1  0  0  0
  9 11  2  0  0  0
 10 16  1  0  0  0
 10 12  2  0  0  0
 12 13  1  0  0  0
 12 38  1  0  0  0
 13 17  1  0  0  0
 13 14  2  0  0  0
 14 15  1  0  0  0
 14 39  1  0  0  0
 15 16  2  0  0  0
 15 40  1  0  0  0
 16 18  1  0  0  0
 18 19  1  0  0  0
 18 41  1  0  0  0
 19 20  1  0  0  0
 19 21  2  0  0  0
 20 22  2  0  0  0
 20 23  1  0  0  0
 22 26  1  0  0  0
 22 24  1  0  0  0
 23 25  1  0  0  0
 25 26  2  0  0  0
 25 42  1  0  0  0
 26 27  1  0  0  0
 27 28  1  0  0  0
 27 43  1  0  0  0
 27 44  1  0  0  0
 28 29  1  0  0  0
 28 30  1  0  0  0
 29 45  1  0  0  0
 29 46  1  0  0  0
 29 47  1  0  0  0
 30 31  1  0  0  0
 30 48  1  0  0  0
 30 49  1  0  0  0
 31 32  1  0  0  0
 31 50  1  0  0  0
 31 51  1  0  0  0
 32 52  1  0  0  0
M  END
> <s_m_entry_id>
35408

> <s_m_entry_name>
dock_pv.258

> <s_m_Source_Path>
/home/csk/Desktop/cluster/DUD-E-result/thrb

> <s_m_Source_File>
dock_pv.maegz

> <i_m_Source_File_Index>
258

> <chembl_id>
CHEMBL396782

> <chembl_pref_name>
None

> <i_lp_mmshare_version>
53161

> <r_lp_tautomer_probability>
1

> <s_lp_Force_Field>
OPLS_2005

> <r_lp_Energy>
43.746703

> <b_lp_Chiralities_Consistent>
1

> <s_lp_Variant>
CHEMBL204_lig4453-1

> <s_i_glide_gridfile>
glide-grid_1ype

> <i_i_glide_lignum>
6119

> <i_i_glide_rotatable_bonds>
11

> <r_i_docking_score>
-7.17314269221281

> <r_i_glide_ligand_efficiency>
-0.22416070913165

> <r_i_glide_ligand_efficiency_sa>
-0.71166589014889

> <r_i_glide_ligand_efficiency_ln>
-1.60626218127134

> <r_i_glide_gscore>
-7.17314269221281

> <r_i_glide_lipo>
-3.40491375248938

> <r_i_glide_hbond>
-0.621098472930967

> <r_i_glide_metal>
0

> <r_i_glide_rewards>
-0.143732412242069

> <r_i_glide_evdw>
-50.4721488952637

> <r_i_glide_ecoul>
-8.19576644897461

> <r_i_glide_erotb>
0.779547131246123

> <r_i_glide_esite>
-0.0299727736871462

> <r_i_glide_emodel>
-81.5758837406333

> <r_i_glide_energy>
-58.6679153442383

> <r_i_glide_einternal>
4.36609172821045

> <i_i_glide_confnum>
75

> <i_i_glide_posenum>
224

> <r_i_glide_eff_state_penalty>
0

> <s_user_duplicate_titles>
CHEMBL204_lig4453

> <i_f3d_flags>
0

> <s_m_subgroup_title>
dock_pv

> <s_m_subgroupid>
dock_pv

> <b_m_subgroup_collapsed>
1

$$$$
CHEMBL204_lig5174
                    3D
 Schrodinger Suite 2021-1.
 51 52  0  0  1  0            999 V2000
   19.0029  -15.6622   21.1435 O   0  0  0  0  0  0
   18.9220  -14.5691   22.1179 S   0  0  0  0  0  0
   17.6277  -14.1662   22.6791 O   0  0  0  0  0  0
   19.6564  -13.1348   21.3635 N   0  0  2  0  0  0
   18.9460  -12.2296   20.3898 C   0  0  1  0  0  0
   19.8814  -12.3044   19.1828 C   0  0  0  0  0  0
   21.2476  -12.2900   19.8225 C   0  0  0  0  0  0
   21.1257  -13.1447   21.0866 C   0  0  0  0  0  0
   17.4980  -12.6042   19.9965 C   0  0  0  0  0  0
   16.5995  -11.6068   20.0163 N   0  0  0  0  0  0
   17.2326  -13.7240   19.5608 O   0  0  0  0  0  0
   15.2021  -11.7196   19.5919 C   0  0  0  0  0  0
   14.2436  -11.2164   20.6577 C   0  0  0  0  0  0
   14.3618   -9.9095   21.1207 C   0  0  0  0  0  0
   13.5164   -9.4467   22.1103 C   0  0  0  0  0  0
   12.5539  -10.2777   22.7009 C   0  0  0  0  0  0
   12.4210  -11.5866   22.1952 C   0  0  0  0  0  0
   13.2572  -12.0518   21.1831 C   0  0  0  0  0  0
   11.7695   -9.7599   23.8498 C   0  0  0  0  0  0
   10.8161  -10.6198   24.3214 N   0  0  0  0  0  0
   12.0122   -8.6158   24.3234 N   0  0  0  0  0  0
   20.1050  -14.9951   23.5395 C   0  0  0  0  0  0
   19.9623  -14.0273   24.7376 C   0  0  0  0  0  0
   21.3039  -13.8381   25.4688 C   0  0  0  0  0  0
   18.8702  -14.5014   25.7148 C   0  0  0  0  0  0
   18.9399  -11.2110   20.7871 H   0  0  0  0  0  0
   19.7596  -11.4553   18.5113 H   0  0  0  0  0  0
   19.7304  -13.2192   18.6010 H   0  0  0  0  0  0
   21.5253  -11.2698   20.0929 H   0  0  0  0  0  0
   22.0154  -12.6565   19.1430 H   0  0  0  0  0  0
   21.7116  -12.6688   21.8737 H   0  0  0  0  0  0
   21.4738  -14.1427   20.8115 H   0  0  0  0  0  0
   16.8962  -10.6991   20.3409 H   0  0  0  0  0  0
   15.0778  -11.1044   18.6992 H   0  0  0  0  0  0
   14.9331  -12.7364   19.2911 H   0  0  0  0  0  0
   15.1183   -9.2500   20.7220 H   0  0  0  0  0  0
   13.6678   -8.4337   22.4568 H   0  0  0  0  0  0
   11.6972  -12.2790   22.6033 H   0  0  0  0  0  0
   13.1510  -13.0695   20.8345 H   0  0  0  0  0  0
   10.1296  -10.2941   24.9969 H   0  0  0  0  0  0
   10.5477  -11.4314   23.7855 H   0  0  0  0  0  0
   11.4004   -8.4097   25.0996 H   0  0  0  0  0  0
   21.1090  -14.9726   23.1186 H   0  0  0  0  0  0
   19.9108  -16.0286   23.8240 H   0  0  0  0  0  0
   19.6778  -13.0432   24.3589 H   0  0  0  0  0  0
   21.6698  -14.7766   25.8872 H   0  0  0  0  0  0
   21.2107  -13.1263   26.2914 H   0  0  0  0  0  0
   22.0717  -13.4521   24.7971 H   0  0  0  0  0  0
   19.0695  -15.5104   26.0758 H   0  0  0  0  0  0
   18.8160  -13.8599   26.5918 H   0  0  0  0  0  0
   17.8833  -14.5058   25.2519 H   0  0  0  0  0  0
  1  2  2  0  0  0
  2  3  2  0  0  0
  2  4  1  0  0  0
  2 22  1  0  0  0
  4  5  1  0  0  0
  4  8  1  0  0  0
  5  6  1  0  0  0
  5  9  1  0  0  0
  5 26  1  0  0  0
  6  7  1  0  0  0
  6 27  1  0  0  0
  6 28  1  0  0  0
  7  8  1  0  0  0
  7 29  1  0  0  0
  7 30  1  0  0  0
  8 31  1  0  0  0
  8 32  1  0  0  0
  9 10  1  0  0  0
  9 11  2  0  0  0
 10 12  1  0  0  0
 10 33  1  0  0  0
 12 13  1  0  0  0
 12 34  1  0  0  0
 12 35  1  0  0  0
 13 14  2  0  0  0
 13 18  1  0  0  0
 14 15  1  0  0  0
 14 36  1  0  0  0
 15 16  2  0  0  0
 15 37  1  0  0  0
 16 17  1  0  0  0
 16 19  1  0  0  0
 17 18  2  0  0  0
 17 38  1  0  0  0
 18 39  1  0  0  0
 19 20  1  0  0  0
 19 21  2  0  0  0
 20 40  1  0  0  0
 20 41  1  0  0  0
 21 42  1  0  0  0
 22 23  1  0  0  0
 22 43  1  0  0  0
 22 44  1  0  0  0
 23 24  1  0  0  0
 23 25  1  0  0  0
 23 45  1  0  0  0
 24 46  1  0  0  0
 24 47  1  0  0  0
 24 48  1  0  0  0
 25 49  1  0  0  0
 25 50  1  0  0  0
 25 51  1  0  0  0
M  END
> <s_m_entry_id>
35409

> <s_m_entry_name>
dock_pv.259

> <s_m_Source_Path>
/home/csk/Desktop/cluster/DUD-E-result/thrb

> <s_m_Source_File>
dock_pv.maegz

> <i_m_Source_File_Index>
259

> <chembl_id>
CHEMBL4547401

> <chembl_pref_name>
None

> <i_lp_mmshare_version>
53161

> <r_lp_tautomer_probability>
1

> <s_lp_Force_Field>
OPLS_2005

> <r_lp_Energy>
3.908234

> <b_lp_Chiralities_Consistent>
1

> <s_lp_Variant>
CHEMBL204_lig5174-1

> <s_i_glide_gridfile>
glide-grid_1ype

> <i_i_glide_lignum>
7066

> <i_i_glide_rotatable_bonds>
8

> <r_i_docking_score>
-7.17224172824901

> <r_i_glide_ligand_efficiency>
-0.28688966912996

> <r_i_glide_ligand_efficiency_sa>
-0.838870480545951

> <r_i_glide_ligand_efficiency_ln>
-1.70003622433544

> <r_i_glide_gscore>
-7.17224172824901

> <r_i_glide_lipo>
-3.29544550208689

> <r_i_glide_hbond>
-0.16

> <r_i_glide_metal>
0

> <r_i_glide_rewards>
-1.65321277048512

> <r_i_glide_evdw>
-40.8282737731934

> <r_i_glide_ecoul>
-5.32595205307007

> <r_i_glide_erotb>
0.859875201361727

> <r_i_glide_esite>
-0.083152160418542

> <r_i_glide_emodel>
-65.1223737873494

> <r_i_glide_energy>
-46.1542258262634

> <r_i_glide_einternal>
4.28934478759766

> <i_i_glide_confnum>
106

> <i_i_glide_posenum>
217

> <r_i_glide_eff_state_penalty>
0

> <s_user_duplicate_titles>
CHEMBL204_lig5174

> <i_f3d_flags>
0

> <s_m_subgroup_title>
dock_pv

> <s_m_subgroupid>
dock_pv

> <b_m_subgroup_collapsed>
1

$$$$
CHEMBL204_lig4344
                    3D
 Schrodinger Suite 2021-1.
 65 67  0  0  1  0            999 V2000
   15.7740  -11.6968   20.2998 C   0  0  1  0  0  0
   16.2413  -11.9628   18.8354 C   0  0  0  0  0  0
   14.6255  -10.7613   20.2927 N   0  0  1  0  0  0
   17.1988  -13.1525   18.5854 C   0  0  0  0  0  0
   18.6268  -12.8943   19.0542 C   0  0  0  0  0  0
   19.0407  -13.3067   20.3260 C   0  0  0  0  0  0
   20.3412  -13.0308   20.7443 C   0  0  0  0  0  0
   21.2160  -12.3538   19.8982 C   0  0  0  0  0  0
   20.7813  -11.9844   18.6272 C   0  0  0  0  0  0
   19.5154  -12.2530   18.2446 N   0  3  0  0  0  0
   19.1661  -11.8530   17.0949 O   0  5  0  0  0  0
   14.1602  -10.2099   21.5633 C   0  0  0  0  0  0
   12.7578   -9.6310   21.3629 C   0  0  0  0  0  0
   14.5533  -13.8814   20.6614 N   0  0  0  0  0  0
   14.2962  -15.1698   21.3367 C   0  0  1  0  0  0
   13.1829  -15.8260   20.4944 C   0  0  0  0  0  0
   12.5067  -14.6705   19.7809 C   0  0  0  0  0  0
   13.6730  -13.7361   19.4980 C   0  0  0  0  0  0
   18.3749  -16.7918   22.8958 C   0  0  0  0  0  0
   19.2341  -17.4359   21.9936 C   0  0  0  0  0  0
   20.5600  -17.0281   21.8513 C   0  0  0  0  0  0
   21.0380  -15.9648   22.6111 C   0  0  0  0  0  0
   20.1973  -15.3125   23.5107 C   0  0  0  0  0  0
   18.8660  -15.7138   23.6645 C   0  0  0  0  0  0
   18.0095  -14.9650   24.6812 C   0  0  0  0  0  0
   18.1281  -15.5564   26.0015 N   0  0  0  0  0  0
   21.6158  -17.8487   20.7539 Cl  0  0  0  0  0  0
   16.9579  -17.3475   23.0687 C   0  0  0  0  0  0
   15.8643  -16.4477   22.7072 N   0  0  0  0  0  0
   15.5370  -16.0790   21.4605 C   0  0  0  0  0  0
   16.1430  -16.4348   20.4496 O   0  0  0  0  0  0
   15.4407  -12.9664   21.1374 C   0  0  0  0  0  0
   16.0171  -13.0793   22.2221 O   0  0  0  0  0  0
   12.3980   -9.0531   20.3384 O   0  0  0  0  0  0
   12.0170   -9.7292   22.5004 O   0  0  0  0  0  0
   16.6213  -11.2097   20.7902 H   0  0  0  0  0  0
   16.7429  -11.0586   18.4856 H   0  0  0  0  0  0
   15.3895  -12.0494   18.1596 H   0  0  0  0  0  0
   14.9280   -9.9654   19.7417 H   0  0  0  0  0  0
   17.2031  -13.3951   17.5220 H   0  0  0  0  0  0
   16.8248  -14.0633   19.0533 H   0  0  0  0  0  0
   18.3628  -13.8282   20.9889 H   0  0  0  0  0  0
   20.6694  -13.3227   21.7294 H   0  0  0  0  0  0
   22.2202  -12.1286   20.2233 H   0  0  0  0  0  0
   21.4012  -11.4729   17.9061 H   0  0  0  0  0  0
   14.0961  -10.9920   22.3213 H   0  0  0  0  0  0
   14.8185   -9.4228   21.9213 H   0  0  0  0  0  0
   13.8912  -14.9372   22.3211 H   0  0  0  0  0  0
   12.4811  -16.3980   21.1022 H   0  0  0  0  0  0
   13.6002  -16.5074   19.7507 H   0  0  0  0  0  0
   11.8038  -14.1832   20.4593 H   0  0  0  0  0  0
   11.9593  -14.9699   18.8867 H   0  0  0  0  0  0
   13.3070  -12.7251   19.3287 H   0  0  0  0  0  0
   14.2092  -14.0639   18.6067 H   0  0  0  0  0  0
   18.8774  -18.2672   21.4024 H   0  0  0  0  0  0
   22.0614  -15.6430   22.5011 H   0  0  0  0  0  0
   20.5868  -14.4909   24.0953 H   0  0  0  0  0  0
   18.3231  -13.9208   24.7302 H   0  0  0  0  0  0
   16.9654  -14.9483   24.3823 H   0  0  0  0  0  0
   17.8883  -16.5368   25.9843 H   0  0  0  0  0  0
   19.0732  -15.4721   26.3491 H   0  0  0  0  0  0
   16.8358  -17.6224   24.1169 H   0  0  0  0  0  0
   16.8425  -18.2801   22.5110 H   0  0  0  0  0  0
   15.3768  -15.9868   23.4690 H   0  0  0  0  0  0
   11.1259   -9.3966   22.3757 H   0  0  0  0  0  0
  1  3  1  0  0  0
  1  2  1  0  0  0
  1 32  1  0  0  0
  1 36  1  0  0  0
  2  4  1  0  0  0
  2 37  1  0  0  0
  2 38  1  0  0  0
  3 12  1  0  0  0
  3 39  1  0  0  0
  4  5  1  0  0  0
  4 40  1  0  0  0
  4 41  1  0  0  0
  5 10  1  0  0  0
  5  6  2  0  0  0
  6  7  1  0  0  0
  6 42  1  0  0  0
  7  8  2  0  0  0
  7 43  1  0  0  0
  8  9  1  0  0  0
  8 44  1  0  0  0
  9 10  2  0  0  0
  9 45  1  0  0  0
 10 11  1  0  0  0
 12 13  1  0  0  0
 12 46  1  0  0  0
 12 47  1  0  0  0
 13 34  2  0  0  0
 13 35  1  0  0  0
 14 18  1  0  0  0
 14 15  1  0  0  0
 14 32  1  0  0  0
 15 30  1  0  0  0
 15 16  1  0  0  0
 15 48  1  0  0  0
 16 17  1  0  0  0
 16 49  1  0  0  0
 16 50  1  0  0  0
 17 18  1  0  0  0
 17 51  1  0  0  0
 17 52  1  0  0  0
 18 53  1  0  0  0
 18 54  1  0  0  0
 19 20  2  0  0  0
 19 24  1  0  0  0
 19 28  1  0  0  0
 20 21  1  0  0  0
 20 55  1  0  0  0
 21 22  2  0  0  0
 21 27  1  0  0  0
 22 23  1  0  0  0
 22 56  1  0  0  0
 23 24  2  0  0  0
 23 57  1  0  0  0
 24 25  1  0  0  0
 25 26  1  0  0  0
 25 58  1  0  0  0
 25 59  1  0  0  0
 26 60  1  0  0  0
 26 61  1  0  0  0
 28 29  1  0  0  0
 28 62  1  0  0  0
 28 63  1  0  0  0
 29 30  1  0  0  0
 29 64  1  0  0  0
 30 31  2  0  0  0
 32 33  2  0  0  0
 35 65  1  0  0  0
M  CHG  2  10   1  11  -1
M  END
> <s_m_entry_id>
35410

> <s_m_entry_name>
dock_pv.260

> <s_m_Source_Path>
/home/csk/Desktop/cluster/DUD-E-result/thrb

> <s_m_Source_File>
dock_pv.maegz

> <i_m_Source_File_Index>
260

> <chembl_id>
CHEMBL390402

> <chembl_pref_name>
None

> <i_lp_mmshare_version>
53161

> <r_lp_tautomer_probability>
1

> <s_lp_Force_Field>
OPLS_2005

> <r_lp_Energy>
27.348099

> <b_lp_Chiralities_Consistent>
1

> <s_lp_Variant>
CHEMBL204_lig4344-1

> <s_i_glide_gridfile>
glide-grid_1ype

> <i_i_glide_lignum>
5993

> <i_i_glide_rotatable_bonds>
14

> <r_i_docking_score>
-7.17130500037238

> <r_i_glide_ligand_efficiency>
-0.204894428582068

> <r_i_glide_ligand_efficiency_sa>
-0.670223261685853

> <r_i_glide_ligand_efficiency_ln>
-1.57426060612099

> <r_i_glide_gscore>
-7.17130500037238

> <r_i_glide_lipo>
-2.29780572909888

> <r_i_glide_hbond>
-0.797582652084212

> <r_i_glide_metal>
0

> <r_i_glide_rewards>
-1.07190811953537

> <r_i_glide_evdw>
-40.9405136108398

> <r_i_glide_ecoul>
-12.0088930130005

> <r_i_glide_erotb>
0.885371942365974

> <r_i_glide_esite>
-0.0410208095278275

> <r_i_glide_emodel>
-72.5502625706805

> <r_i_glide_energy>
-52.9494066238403

> <r_i_glide_einternal>
7.78001642227173

> <i_i_glide_confnum>
183

> <i_i_glide_posenum>
164

> <r_i_glide_eff_state_penalty>
0

> <s_user_duplicate_titles>
CHEMBL204_lig4344,384885

> <i_f3d_flags>
0

> <s_m_subgroup_title>
dock_pv

> <s_m_subgroupid>
dock_pv

> <b_m_subgroup_collapsed>
1

$$$$
CHEMBL204_lig130
                    3D
 Schrodinger Suite 2021-1.
 57 60  0  0  1  0            999 V2000
   12.0164   -7.8541   24.7141 Cl  0  0  0  0  0  0
   20.8530  -14.2083   25.4365 S   0  0  0  0  0  0
   22.2572  -14.6335   25.4377 O   0  0  0  0  0  0
   20.4158  -13.0209   26.1779 O   0  0  0  0  0  0
   16.4161  -13.0528   22.7208 O   0  0  0  0  0  0
   15.3986  -11.8972   18.7775 O   0  0  0  0  0  0
   17.7882  -17.3435   25.1235 O   0  0  0  0  0  0
   19.2505  -13.1823   19.7379 N   0  0  0  0  0  0
   19.8511  -15.5897   25.9335 N   0  0  0  0  0  0
   14.5744  -12.5515   20.7654 N   0  0  0  0  0  0
   18.6823  -13.3716   22.0945 C   0  0  0  0  0  0
   19.6414  -13.4752   21.0683 C   0  0  0  0  0  0
   20.4009  -13.9316   23.7298 C   0  0  0  0  0  0
   17.2393  -13.0560   21.8062 C   0  0  0  0  0  0
   16.9242  -12.7514   20.3794 C   0  0  0  0  0  0
   19.0907  -13.5824   23.4188 C   0  0  0  0  0  0
   20.9511  -13.8521   21.3901 C   0  0  0  0  0  0
   21.3334  -14.0784   22.7086 C   0  0  0  0  0  0
   17.9352  -12.8236   19.4717 C   0  0  0  0  0  0
   15.5897  -12.3694   19.9002 C   0  0  0  0  0  0
   20.2272  -13.0844   18.6496 C   0  0  0  0  0  0
   18.4528  -15.3738   26.3962 C   0  0  0  0  0  0
   20.1585  -16.9349   25.3909 C   0  0  0  0  0  0
   17.4131  -16.0053   25.4419 C   0  0  0  0  0  0
   19.0446  -17.4342   24.4515 C   0  0  0  0  0  0
   13.1792  -12.1331   20.6206 C   0  0  0  0  0  0
   21.1254  -11.8521   18.7488 C   0  0  0  0  0  0
   12.8338  -11.0470   21.6336 C   0  0  0  0  0  0
   13.6160   -9.8897   21.6823 C   0  0  0  0  0  0
   11.7858  -11.2219   22.5452 C   0  0  0  0  0  0
   12.3177   -9.0926   23.5453 C   0  0  0  0  0  0
   13.3682   -8.9283   22.6509 C   0  0  0  0  0  0
   11.5275  -10.2408   23.5025 C   0  0  0  0  0  0
   14.8148  -12.9613   21.6590 H   0  0  0  0  0  0
   18.3912  -13.4710   24.2338 H   0  0  0  0  0  0
   21.6920  -13.9702   20.6176 H   0  0  0  0  0  0
   22.3527  -14.3622   22.9267 H   0  0  0  0  0  0
   17.7451  -12.6129   18.4259 H   0  0  0  0  0  0
   20.8283  -13.9950   18.6120 H   0  0  0  0  0  0
   19.7164  -13.0526   17.6901 H   0  0  0  0  0  0
   18.3750  -15.7787   27.4024 H   0  0  0  0  0  0
   18.2771  -14.3034   26.4897 H   0  0  0  0  0  0
   21.1035  -16.8911   24.8495 H   0  0  0  0  0  0
   20.3169  -17.6103   26.2318 H   0  0  0  0  0  0
   17.3114  -15.4326   24.5197 H   0  0  0  0  0  0
   16.4272  -16.0155   25.9048 H   0  0  0  0  0  0
   19.0165  -16.8466   23.5323 H   0  0  0  0  0  0
   19.2236  -18.4692   24.1608 H   0  0  0  0  0  0
   12.5350  -13.0056   20.7467 H   0  0  0  0  0  0
   12.9804  -11.7408   19.6200 H   0  0  0  0  0  0
   21.6715  -11.6886   17.8199 H   0  0  0  0  0  0
   20.5140  -10.9753   18.9439 H   0  0  0  0  0  0
   21.8576  -11.9300   19.5526 H   0  0  0  0  0  0
   14.4414   -9.7547   20.9963 H   0  0  0  0  0  0
   11.1732  -12.1150   22.5272 H   0  0  0  0  0  0
   13.9975   -8.0535   22.7128 H   0  0  0  0  0  0
   10.7117  -10.3685   24.2021 H   0  0  0  0  0  0
  1 31  1  0  0  0
  2  3  2  0  0  0
  2  4  2  0  0  0
  2  9  1  0  0  0
  2 13  1  0  0  0
  5 14  2  0  0  0
  6 20  2  0  0  0
  7 24  1  0  0  0
  7 25  1  0  0  0
  8 12  1  0  0  0
  8 19  1  0  0  0
  8 21  1  0  0  0
  9 22  1  0  0  0
  9 23  1  0  0  0
 10 20  1  0  0  0
 10 26  1  0  0  0
 10 34  1  0  0  0
 11 12  1  0  0  0
 11 14  1  0  0  0
 11 16  2  0  0  0
 12 17  2  0  0  0
 13 16  1  0  0  0
 13 18  2  0  0  0
 14 15  1  0  0  0
 15 19  2  0  0  0
 15 20  1  0  0  0
 16 35  1  0  0  0
 17 18  1  0  0  0
 17 36  1  0  0  0
 18 37  1  0  0  0
 19 38  1  0  0  0
 21 27  1  0  0  0
 21 39  1  0  0  0
 21 40  1  0  0  0
 22 24  1  0  0  0
 22 41  1  0  0  0
 22 42  1  0  0  0
 23 25  1  0  0  0
 23 43  1  0  0  0
 23 44  1  0  0  0
 24 45  1  0  0  0
 24 46  1  0  0  0
 25 47  1  0  0  0
 25 48  1  0  0  0
 26 28  1  0  0  0
 26 49  1  0  0  0
 26 50  1  0  0  0
 27 51  1  0  0  0
 27 52  1  0  0  0
 27 53  1  0  0  0
 28 29  2  0  0  0
 28 30  1  0  0  0
 29 32  1  0  0  0
 29 54  1  0  0  0
 30 33  2  0  0  0
 30 55  1  0  0  0
 31 32  2  0  0  0
 31 33  1  0  0  0
 32 56  1  0  0  0
 33 57  1  0  0  0
M  END
> <s_m_entry_id>
35411

> <s_m_entry_name>
dock_pv.261

> <s_m_Source_Path>
/home/csk/Desktop/cluster/DUD-E-result/thrb

> <s_m_Source_File>
dock_pv.maegz

> <i_m_Source_File_Index>
261

> <chembl_id>
CHEMBL1442073

> <chembl_pref_name>
None

> <i_lp_mmshare_version>
53161

> <r_lp_tautomer_probability>
1

> <s_lp_Force_Field>
OPLS_2005

> <r_lp_Energy>
16.238117

> <b_lp_Chiralities_Consistent>
1

> <s_lp_Variant>
CHEMBL204_lig130-1

> <s_i_glide_gridfile>
glide-grid_1ype

> <i_i_glide_lignum>
152

> <i_i_glide_rotatable_bonds>
7

> <r_i_docking_score>
-7.16751836929683

> <r_i_glide_ligand_efficiency>
-0.217197526342328

> <r_i_glide_ligand_efficiency_sa>
-0.696668521321221

> <r_i_glide_ligand_efficiency_ln>
-1.59401897390766

> <r_i_glide_gscore>
-7.16751836929683

> <r_i_glide_lipo>
-4.25941287015016

> <r_i_glide_hbond>
-0.32

> <r_i_glide_metal>
0

> <r_i_glide_rewards>
-0.246919713289213

> <r_i_glide_evdw>
-50.1358489990234

> <r_i_glide_ecoul>
-1.72110497951508

> <r_i_glide_erotb>
0.423772411020977

> <r_i_glide_esite>
0

> <r_i_glide_emodel>
-69.9891696728904

> <r_i_glide_energy>
-51.8569539785385

> <r_i_glide_einternal>
4.15589570999146

> <i_i_glide_confnum>
6

> <i_i_glide_posenum>
215

> <r_i_glide_eff_state_penalty>
0

> <s_user_duplicate_titles>
CHEMBL204_lig130

> <i_f3d_flags>
0

> <s_m_subgroup_title>
dock_pv

> <s_m_subgroupid>
dock_pv

> <b_m_subgroup_collapsed>
1

$$$$
CHEMBL204_lig4667
                    3D
 Schrodinger Suite 2021-1.
 62 66  0  0  1  0            999 V2000
   21.8146  -13.4711   25.0055 C   0  0  0  0  0  0
   21.4889  -14.6750   24.1275 C   0  0  0  0  0  0
   22.6183  -13.7133   23.7685 C   0  0  0  0  0  0
   13.1464  -13.1270   20.8791 N   0  0  0  0  0  0
   12.6367  -14.8821   19.7821 C   0  0  0  0  0  0
   12.1444  -13.7484   20.2369 N   0  0  0  0  0  0
   13.9759  -15.0273   20.1710 C   0  0  0  0  0  0
   14.3114  -13.8724   20.8606 C   0  0  0  0  0  0
   15.5786  -13.6033   21.5210 C   0  0  0  0  0  0
   16.5156  -14.5830   21.2540 N   0  0  0  0  0  0
   16.4153  -15.4121   20.0200 C   0  0  0  0  0  0
   15.0232  -16.0896   19.9346 C   0  0  0  0  0  0
   11.7499  -15.8755   19.0508 C   0  0  0  0  0  0
   10.8151  -15.2714   18.3211 F   0  0  0  0  0  0
   12.4582  -16.6432   18.2233 F   0  0  0  0  0  0
   11.1363  -16.6805   19.9156 F   0  0  0  0  0  0
   15.8169  -12.6532   22.2690 O   0  0  0  0  0  0
   17.7586  -14.5946   21.9392 C   0  0  0  0  0  0
   18.9752  -14.6251   21.2430 C   0  0  0  0  0  0
   20.1792  -14.6386   21.9433 C   0  0  0  0  0  0
   20.1802  -14.6546   23.3422 C   0  0  0  0  0  0
   18.9706  -14.6388   24.0381 C   0  0  0  0  0  0
   17.7668  -14.6083   23.3408 C   0  0  0  0  0  0
   21.9300  -16.0373   24.7393 C   0  0  0  0  0  0
   22.9256  -16.7692   23.9436 N   0  0  0  0  0  0
   23.4800  -17.8698   24.7281 C   0  0  0  0  0  0
   12.9112  -11.8713   21.4812 C   0  0  0  0  0  0
   13.7316  -10.7851   21.1612 C   0  0  0  0  0  0
   13.5822   -9.5843   21.8439 C   0  0  0  0  0  0
   12.6210   -9.4547   22.8475 C   0  0  0  0  0  0
   11.7564  -10.5259   23.1217 C   0  0  0  0  0  0
   11.8985  -11.7312   22.4370 C   0  0  0  0  0  0
   12.6215   -8.2533   23.5210 O   0  0  0  0  0  0
   11.9028   -8.1090   24.7355 C   0  0  0  0  0  0
   22.3572  -17.3109   22.7107 C   0  0  0  0  0  0
   21.0940  -12.6530   25.0290 H   0  0  0  0  0  0
   22.2856  -13.6178   25.9775 H   0  0  0  0  0  0
   23.6524  -14.0498   23.8691 H   0  0  0  0  0  0
   22.4850  -13.0542   22.9106 H   0  0  0  0  0  0
   16.5700  -14.7706   19.1522 H   0  0  0  0  0  0
   17.1849  -16.1868   20.0058 H   0  0  0  0  0  0
   14.9044  -16.5704   18.9641 H   0  0  0  0  0  0
   14.9411  -16.8838   20.6780 H   0  0  0  0  0  0
   18.9975  -14.6096   20.1626 H   0  0  0  0  0  0
   21.1112  -14.6330   21.3967 H   0  0  0  0  0  0
   18.9628  -14.6462   25.1179 H   0  0  0  0  0  0
   16.8298  -14.6005   23.8848 H   0  0  0  0  0  0
   21.0564  -16.6676   24.9162 H   0  0  0  0  0  0
   22.3538  -15.8574   25.7292 H   0  0  0  0  0  0
   23.9696  -17.4934   25.6273 H   0  0  0  0  0  0
   24.2330  -18.4137   24.1569 H   0  0  0  0  0  0
   22.7067  -18.5790   25.0339 H   0  0  0  0  0  0
   14.5167  -10.8836   20.4259 H   0  0  0  0  0  0
   14.2449   -8.7615   21.6319 H   0  0  0  0  0  0
   10.9857  -10.4553   23.8743 H   0  0  0  0  0  0
   11.2515  -12.5613   22.6879 H   0  0  0  0  0  0
   11.9074   -7.0582   25.0250 H   0  0  0  0  0  0
   10.8610   -8.4311   24.7084 H   0  0  0  0  0  0
   12.4160   -8.6534   25.5206 H   0  0  0  0  0  0
   22.0164  -16.5161   22.0512 H   0  0  0  0  0  0
   23.1100  -17.8709   22.1535 H   0  0  0  0  0  0
   21.5137  -17.9737   22.9077 H   0  0  0  0  0  0
  1  3  1  0  0  0
  1  2  1  0  0  0
  1 36  1  0  0  0
  1 37  1  0  0  0
  2 21  1  0  0  0
  2 24  1  0  0  0
  2  3  1  0  0  0
  3 38  1  0  0  0
  3 39  1  0  0  0
  4  6  1  0  0  0
  4 27  1  0  0  0
  4  8  1  0  0  0
  5  7  1  0  0  0
  5  6  2  0  0  0
  5 13  1  0  0  0
  7 12  1  0  0  0
  7  8  2  0  0  0
  8  9  1  0  0  0
  9 17  2  0  0  0
  9 10  1  0  0  0
 10 18  1  0  0  0
 10 11  1  0  0  0
 11 12  1  0  0  0
 11 40  1  0  0  0
 11 41  1  0  0  0
 12 42  1  0  0  0
 12 43  1  0  0  0
 13 14  1  0  0  0
 13 15  1  0  0  0
 13 16  1  0  0  0
 18 19  2  0  0  0
 18 23  1  0  0  0
 19 20  1  0  0  0
 19 44  1  0  0  0
 20 21  2  0  0  0
 20 45  1  0  0  0
 21 22  1  0  0  0
 22 23  2  0  0  0
 22 46  1  0  0  0
 23 47  1  0  0  0
 24 25  1  0  0  0
 24 48  1  0  0  0
 24 49  1  0  0  0
 25 26  1  0  0  0
 25 35  1  0  0  0
 26 50  1  0  0  0
 26 51  1  0  0  0
 26 52  1  0  0  0
 27 28  2  0  0  0
 27 32  1  0  0  0
 28 29  1  0  0  0
 28 53  1  0  0  0
 29 30  2  0  0  0
 29 54  1  0  0  0
 30 31  1  0  0  0
 30 33  1  0  0  0
 31 32  2  0  0  0
 31 55  1  0  0  0
 32 56  1  0  0  0
 33 34  1  0  0  0
 34 57  1  0  0  0
 34 58  1  0  0  0
 34 59  1  0  0  0
 35 60  1  0  0  0
 35 61  1  0  0  0
 35 62  1  0  0  0
M  END
> <s_m_entry_id>
35412

> <s_m_entry_name>
dock_pv.262

> <s_m_Source_Path>
/home/csk/Desktop/cluster/DUD-E-result/thrb

> <s_m_Source_File>
dock_pv.maegz

> <i_m_Source_File_Index>
262

> <chembl_id>
CHEMBL461297

> <chembl_pref_name>
None

> <i_lp_mmshare_version>
53161

> <r_lp_tautomer_probability>
1

> <s_lp_Force_Field>
OPLS_2005

> <r_lp_Energy>
65.014763

> <b_lp_Chiralities_Consistent>
1

> <s_lp_Variant>
CHEMBL204_lig4667-1

> <s_i_glide_gridfile>
glide-grid_1ype

> <i_i_glide_lignum>
6394

> <i_i_glide_rotatable_bonds>
7

> <r_i_docking_score>
-7.16722017784934

> <r_i_glide_ligand_efficiency>
-0.204777719367124

> <r_i_glide_ligand_efficiency_sa>
-0.669841498105213

> <r_i_glide_ligand_efficiency_ln>
-1.57336389691943

> <r_i_glide_gscore>
-7.16722017784934

> <r_i_glide_lipo>
-3.27918181141162

> <r_i_glide_hbond>
-0.307846957760635

> <r_i_glide_metal>
0

> <r_i_glide_rewards>
-0.9442361666747

> <r_i_glide_evdw>
-44.6869926452637

> <r_i_glide_ecoul>
-4.87416934967041

> <r_i_glide_erotb>
0.346039622225251

> <r_i_glide_esite>
-0.0165198295138867

> <r_i_glide_emodel>
-69.2002100592711

> <r_i_glide_energy>
-49.5611619949341

> <r_i_glide_einternal>
1.41346836090088

> <i_i_glide_confnum>
3

> <i_i_glide_posenum>
61

> <r_i_glide_eff_state_penalty>
0

> <s_user_duplicate_titles>
CHEMBL204_lig4667,448569

> <i_f3d_flags>
0

> <s_m_subgroup_title>
dock_pv

> <s_m_subgroupid>
dock_pv

> <b_m_subgroup_collapsed>
1

$$$$
CHEMBL204_lig4588
                    3D
 Schrodinger Suite 2021-1.
 65 65  0  0  1  0            999 V2000
   18.6779  -12.8711   21.5638 C   0  0  1  0  0  0
   19.2205  -13.7706   20.4129 C   0  0  0  0  0  0
   20.6925  -13.5442   20.0316 C   0  0  0  0  0  0
   21.0877  -11.8543   19.4998 S   0  0  0  0  0  0
   14.4160   -9.9822   21.1211 C   0  0  0  0  0  0
   13.5386   -9.4804   22.0743 C   0  0  0  0  0  0
   12.5877  -10.3047   22.7053 C   0  0  0  0  0  0
   12.4886  -11.6376   22.2608 C   0  0  0  0  0  0
   13.3663  -12.1433   21.3057 C   0  0  0  0  0  0
   14.3624  -11.3278   20.7683 C   0  0  0  0  0  0
   11.7787   -9.7752   23.8418 C   0  0  0  0  0  0
   10.8161  -10.6299   24.3117 N   0  0  0  0  0  0
   12.0072   -8.6291   24.3205 N   0  0  0  0  0  0
   15.3882  -11.9042   19.7971 C   0  0  0  0  0  0
   16.7675  -12.0061   20.2924 N   0  0  0  0  0  0
   17.1603  -12.6419   21.4136 C   0  0  0  0  0  0
   16.3910  -13.0558   22.2815 O   0  0  0  0  0  0
   18.9356  -13.5013   22.8622 N   0  0  0  0  0  0
   20.0961  -13.5847   23.5412 C   0  0  0  0  0  0
   20.1267  -14.4818   24.8157 C   0  0  2  0  0  0
   21.1363  -13.0554   23.1586 O   0  0  0  0  0  0
   18.7427  -14.7692   25.2972 N   0  0  1  0  0  0
   21.0450  -13.9392   25.9609 C   0  0  1  0  0  0
   22.5542  -14.1135   25.7078 C   0  0  0  0  0  0
   18.4526  -16.2607   26.1821 S   0  0  0  0  0  0
   16.9709  -17.0399   25.2969 C   0  0  0  0  0  0
   17.3449  -17.7511   23.9803 C   0  0  0  0  0  0
   17.7813  -16.8115   22.8480 C   0  0  0  0  0  0
   18.0191  -15.8592   27.5215 O   0  0  0  0  0  0
   19.6140  -17.1395   26.0125 O   0  0  0  0  0  0
   20.8156  -12.5837   26.2951 O   0  0  0  0  0  0
   20.6469  -11.9817   17.7462 C   0  0  0  0  0  0
   19.1441  -11.8855   21.5433 H   0  0  0  0  0  0
   19.0782  -14.8201   20.6702 H   0  0  0  0  0  0
   18.6369  -13.6349   19.5024 H   0  0  0  0  0  0
   21.3546  -13.8105   20.8522 H   0  0  0  0  0  0
   20.9652  -14.2301   19.2288 H   0  0  0  0  0  0
   15.1836   -9.3367   20.7201 H   0  0  0  0  0  0
   13.6568   -8.4500   22.3736 H   0  0  0  0  0  0
   11.7761  -12.3275   22.6926 H   0  0  0  0  0  0
   13.3030  -13.1861   21.0318 H   0  0  0  0  0  0
   10.1303  -10.3026   24.9884 H   0  0  0  0  0  0
   10.5382  -11.4324   23.7674 H   0  0  0  0  0  0
   11.3804   -8.4225   25.0833 H   0  0  0  0  0  0
   15.4035  -11.2683   18.9114 H   0  0  0  0  0  0
   15.0650  -12.8840   19.4378 H   0  0  0  0  0  0
   17.4899  -11.7073   19.6547 H   0  0  0  0  0  0
   18.1206  -13.9465   23.2653 H   0  0  0  0  0  0
   20.5463  -15.4269   24.4696 H   0  0  0  0  0  0
   18.3267  -13.9615   25.7659 H   0  0  0  0  0  0
   20.8179  -14.5103   26.8608 H   0  0  0  0  0  0
   22.7955  -15.1463   25.4586 H   0  0  0  0  0  0
   22.9162  -13.4825   24.8969 H   0  0  0  0  0  0
   23.1304  -13.8541   26.5946 H   0  0  0  0  0  0
   16.2390  -16.2530   25.1325 H   0  0  0  0  0  0
   16.5402  -17.7524   25.9982 H   0  0  0  0  0  0
   16.4750  -18.3131   23.6367 H   0  0  0  0  0  0
   18.1223  -18.4947   24.1627 H   0  0  0  0  0  0
   17.8630  -17.3524   21.9051 H   0  0  0  0  0  0
   18.7591  -16.3774   23.0481 H   0  0  0  0  0  0
   17.0673  -15.9993   22.7013 H   0  0  0  0  0  0
   19.9579  -12.4942   26.7171 H   0  0  0  0  0  0
   20.8791  -11.0514   17.2301 H   0  0  0  0  0  0
   21.2161  -12.7814   17.2720 H   0  0  0  0  0  0
   19.5845  -12.1987   17.6329 H   0  0  0  0  0  0
  1 16  1  0  0  0
  1 18  1  0  0  0
  1  2  1  0  0  0
  1 33  1  0  0  0
  2  3  1  0  0  0
  2 34  1  0  0  0
  2 35  1  0  0  0
  3  4  1  0  0  0
  3 36  1  0  0  0
  3 37  1  0  0  0
  4 32  1  0  0  0
  5 10  1  0  0  0
  5  6  2  0  0  0
  5 38  1  0  0  0
  6  7  1  0  0  0
  6 39  1  0  0  0
  7 11  1  0  0  0
  7  8  2  0  0  0
  8  9  1  0  0  0
  8 40  1  0  0  0
  9 10  2  0  0  0
  9 41  1  0  0  0
 10 14  1  0  0  0
 11 12  1  0  0  0
 11 13  2  0  0  0
 12 42  1  0  0  0
 12 43  1  0  0  0
 13 44  1  0  0  0
 14 15  1  0  0  0
 14 45  1  0  0  0
 14 46  1  0  0  0
 15 16  1  0  0  0
 15 47  1  0  0  0
 16 17  2  0  0  0
 18 19  1  0  0  0
 18 48  1  0  0  0
 19 20  1  0  0  0
 19 21  2  0  0  0
 20 22  1  0  0  0
 20 23  1  0  0  0
 20 49  1  0  0  0
 22 25  1  0  0  0
 22 50  1  0  0  0
 23 24  1  0  0  0
 23 31  1  0  0  0
 23 51  1  0  0  0
 24 52  1  0  0  0
 24 53  1  0  0  0
 24 54  1  0  0  0
 25 26  1  0  0  0
 25 29  2  0  0  0
 25 30  2  0  0  0
 26 27  1  0  0  0
 26 55  1  0  0  0
 26 56  1  0  0  0
 27 28  1  0  0  0
 27 57  1  0  0  0
 27 58  1  0  0  0
 28 59  1  0  0  0
 28 60  1  0  0  0
 28 61  1  0  0  0
 31 62  1  0  0  0
 32 63  1  0  0  0
 32 64  1  0  0  0
 32 65  1  0  0  0
M  END
> <s_m_entry_id>
35413

> <s_m_entry_name>
dock_pv.263

> <s_m_Source_Path>
/home/csk/Desktop/cluster/DUD-E-result/thrb

> <s_m_Source_File>
dock_pv.maegz

> <i_m_Source_File_Index>
263

> <chembl_id>
CHEMBL524462

> <chembl_pref_name>
None

> <i_lp_mmshare_version>
53161

> <r_lp_tautomer_probability>
1

> <s_lp_Force_Field>
OPLS_2005

> <r_lp_Energy>
-13.540451

> <b_lp_Chiralities_Consistent>
1

> <s_lp_Variant>
CHEMBL204_lig4588-1

> <s_i_glide_gridfile>
glide-grid_1ype

> <i_i_glide_lignum>
6259

> <i_i_glide_rotatable_bonds>
17

> <r_i_docking_score>
-7.16586105122382

> <r_i_glide_ligand_efficiency>
-0.223933157850744

> <r_i_glide_ligand_efficiency_sa>
-0.710943459864351

> <r_i_glide_ligand_efficiency_ln>
-1.60463162336387

> <r_i_glide_gscore>
-7.16586105122382

> <r_i_glide_lipo>
-3.19966075210347

> <r_i_glide_hbond>
-0.314363744796732

> <r_i_glide_metal>
0

> <r_i_glide_rewards>
-1.24673035372

> <r_i_glide_evdw>
-54.02099609375

> <r_i_glide_ecoul>
-4.88551235198975

> <r_i_glide_erotb>
1.11147878050654

> <r_i_glide_esite>
-0.0827083236242016

> <r_i_glide_emodel>
-81.9220289708571

> <r_i_glide_energy>
-58.9065084457397

> <r_i_glide_einternal>
4.53571796417236

> <i_i_glide_confnum>
70

> <i_i_glide_posenum>
330

> <r_i_glide_eff_state_penalty>
0

> <s_user_duplicate_titles>
CHEMBL204_lig4588

> <i_f3d_flags>
0

> <s_m_subgroup_title>
dock_pv

> <s_m_subgroupid>
dock_pv

> <b_m_subgroup_collapsed>
1

$$$$
CHEMBL204_lig314
                    3D
 Schrodinger Suite 2021-1.
 64 67  0  0  1  0            999 V2000
   16.4921  -15.4071   21.2399 N   0  0  0  0  0  0
   16.8636  -14.3144   21.9626 C   0  0  0  0  0  0
   17.9724  -14.4070   23.0588 C   0  0  2  0  0  0
   15.6538  -15.3167   20.0138 C   0  0  2  0  0  0
   14.2629  -14.6571   20.1294 C   0  0  0  0  0  0
   19.4477  -14.5115   22.5272 C   0  0  0  0  0  0
   13.8023  -14.4334   21.3659 N   0  0  0  0  0  0
   16.3952  -13.1925   21.7536 O   0  0  0  0  0  0
   13.6534  -14.3618   19.1012 O   0  0  0  0  0  0
   20.4992  -14.2981   23.6307 C   0  0  0  0  0  0
   19.7478  -13.6600   21.2831 C   0  0  0  0  0  0
   17.6157  -15.4115   24.0836 N   0  0  0  0  0  0
   16.9193  -16.7919   21.4612 C   0  0  0  0  0  0
   12.5835  -13.7265   21.7190 C   0  0  0  0  0  0
   11.8715  -11.5754   22.8008 C   0  0  0  0  0  0
   12.6680  -12.2041   21.8391 C   0  0  0  0  0  0
   12.0068  -10.2125   23.0652 C   0  0  0  0  0  0
   15.5337  -16.7715   19.5296 C   0  0  0  0  0  0
   16.7432  -17.4755   20.1142 C   0  0  0  0  0  0
   13.6839  -10.0604   21.3297 C   0  0  0  0  0  0
   19.2158  -12.3753   21.1377 C   0  0  0  0  0  0
   20.4132  -13.2195   24.5233 C   0  0  0  0  0  0
   21.5575  -15.2074   23.7534 C   0  0  0  0  0  0
   20.5416  -14.1907   20.2639 C   0  0  0  0  0  0
   13.5723  -11.4322   21.0979 C   0  0  0  0  0  0
   12.9124   -9.4538   22.3197 C   0  0  0  0  0  0
   11.2162   -9.5891   24.2020 C   0  0  0  0  0  0
   22.5128  -15.0447   24.7538 C   0  0  0  0  0  0
   19.4697  -11.6355   19.9950 C   0  0  0  0  0  0
   20.8041  -13.4408   19.1211 C   0  0  0  0  0  0
   21.3579  -13.0664   25.5344 C   0  0  0  0  0  0
   20.2690  -12.1663   18.9882 C   0  0  0  0  0  0
   22.4088  -13.9753   25.6383 C   0  0  0  0  0  0
   17.8944  -13.4533   23.5762 H   0  0  0  0  0  0
   16.2341  -14.7474   19.2844 H   0  0  0  0  0  0
   19.5736  -15.5434   22.2035 H   0  0  0  0  0  0
   14.4146  -14.6460   22.1407 H   0  0  0  0  0  0
   16.6277  -15.3721   24.3210 H   0  0  0  0  0  0
   17.8511  -16.3590   23.8262 H   0  0  0  0  0  0
   17.9432  -16.9045   21.8093 H   0  0  0  0  0  0
   16.2595  -17.2387   22.2069 H   0  0  0  0  0  0
   11.7329  -14.0143   21.0972 H   0  0  0  0  0  0
   12.4161  -14.1054   22.7211 H   0  0  0  0  0  0
   11.1756  -12.1603   23.3887 H   0  0  0  0  0  0
   15.4947  -16.8488   18.4423 H   0  0  0  0  0  0
   14.6246  -17.2308   19.9201 H   0  0  0  0  0  0
   17.6151  -17.2753   19.4935 H   0  0  0  0  0  0
   16.6256  -18.5573   20.1853 H   0  0  0  0  0  0
   14.3967   -9.4750   20.7663 H   0  0  0  0  0  0
   18.6134  -11.9322   21.9169 H   0  0  0  0  0  0
   19.6181  -12.4930   24.4461 H   0  0  0  0  0  0
   21.6433  -16.0406   23.0715 H   0  0  0  0  0  0
   20.9621  -15.1829   20.3485 H   0  0  0  0  0  0
   14.2068  -11.8911   20.3553 H   0  0  0  0  0  0
   13.0379   -8.4023   22.5290 H   0  0  0  0  0  0
   11.6233   -8.6265   24.5088 H   0  0  0  0  0  0
   10.1706   -9.4704   23.9212 H   0  0  0  0  0  0
   11.2413  -10.2380   25.0767 H   0  0  0  0  0  0
   23.3294  -15.7455   24.8469 H   0  0  0  0  0  0
   19.0405  -10.6527   19.9211 H   0  0  0  0  0  0
   21.3902  -13.8546   18.3180 H   0  0  0  0  0  0
   21.2847  -12.2356   26.2227 H   0  0  0  0  0  0
   20.4744  -11.5924   18.0989 H   0  0  0  0  0  0
   23.1546  -13.8533   26.4096 H   0  0  0  0  0  0
  1  2  1  0  0  0
  1  4  1  0  0  0
  1 13  1  0  0  0
  2  3  1  0  0  0
  2  8  2  0  0  0
  3  6  1  0  0  0
  3 12  1  0  0  0
  3 34  1  0  0  0
  4  5  1  0  0  0
  4 18  1  0  0  0
  4 35  1  0  0  0
  5  7  1  0  0  0
  5  9  2  0  0  0
  6 10  1  0  0  0
  6 11  1  0  0  0
  6 36  1  0  0  0
  7 14  1  0  0  0
  7 37  1  0  0  0
 10 22  2  0  0  0
 10 23  1  0  0  0
 11 21  1  0  0  0
 11 24  2  0  0  0
 12 38  1  0  0  0
 12 39  1  0  0  0
 13 19  1  0  0  0
 13 40  1  0  0  0
 13 41  1  0  0  0
 14 16  1  0  0  0
 14 42  1  0  0  0
 14 43  1  0  0  0
 15 16  2  0  0  0
 15 17  1  0  0  0
 15 44  1  0  0  0
 16 25  1  0  0  0
 17 27  1  0  0  0
 17 26  2  0  0  0
 18 19  1  0  0  0
 18 45  1  0  0  0
 18 46  1  0  0  0
 19 47  1  0  0  0
 19 48  1  0  0  0
 20 25  2  0  0  0
 20 26  1  0  0  0
 20 49  1  0  0  0
 21 29  2  0  0  0
 21 50  1  0  0  0
 22 31  1  0  0  0
 22 51  1  0  0  0
 23 28  2  0  0  0
 23 52  1  0  0  0
 24 30  1  0  0  0
 24 53  1  0  0  0
 25 54  1  0  0  0
 26 55  1  0  0  0
 27 56  1  0  0  0
 27 57  1  0  0  0
 27 58  1  0  0  0
 28 33  1  0  0  0
 28 59  1  0  0  0
 29 32  1  0  0  0
 29 60  1  0  0  0
 30 32  2  0  0  0
 30 61  1  0  0  0
 31 33  2  0  0  0
 31 62  1  0  0  0
 32 63  1  0  0  0
 33 64  1  0  0  0
M  END
> <s_m_entry_id>
35414

> <s_m_entry_name>
dock_pv.264

> <s_m_Source_Path>
/home/csk/Desktop/cluster/DUD-E-result/thrb

> <s_m_Source_File>
dock_pv.maegz

> <i_m_Source_File_Index>
264

> <chembl_id>
CHEMBL3142752

> <chembl_pref_name>
None

> <i_lp_mmshare_version>
53161

> <r_lp_tautomer_probability>
1

> <s_lp_Force_Field>
OPLS_2005

> <r_lp_Energy>
29.31997

> <b_lp_Chiralities_Consistent>
1

> <s_lp_Variant>
CHEMBL204_lig314-1

> <s_i_glide_gridfile>
glide-grid_1ype

> <i_i_glide_lignum>
399

> <i_i_glide_rotatable_bonds>
9

> <r_i_docking_score>
-7.16490026789627

> <r_i_glide_ligand_efficiency>
-0.217118189936251

> <r_i_glide_ligand_efficiency_sa>
-0.696414047075406

> <r_i_glide_ligand_efficiency_ln>
-1.59343672171198

> <r_i_glide_gscore>
-7.16490026789627

> <r_i_glide_lipo>
-3.67494321767701

> <r_i_glide_hbond>
-0.405762191466594

> <r_i_glide_metal>
0

> <r_i_glide_rewards>
-0.684649182607975

> <r_i_glide_evdw>
-44.8257179260254

> <r_i_glide_ecoul>
-7.19319915771484

> <r_i_glide_erotb>
0.922070239317033

> <r_i_glide_esite>
-0.00135014550322983

> <r_i_glide_emodel>
-71.0795414403676

> <r_i_glide_energy>
-52.0189170837402

> <r_i_glide_einternal>
5.89659404754639

> <i_i_glide_confnum>
101

> <i_i_glide_posenum>
323

> <r_i_glide_eff_state_penalty>
0

> <s_user_duplicate_titles>
CHEMBL204_lig314

> <i_f3d_flags>
0

> <s_m_subgroup_title>
dock_pv

> <s_m_subgroupid>
dock_pv

> <b_m_subgroup_collapsed>
1

$$$$
CHEMBL204_lig3377
                    3D
 Schrodinger Suite 2021-1.
 53 57  0  0  1  0            999 V2000
   13.3855  -13.5906   19.3542 S   0  0  0  0  0  0
   13.0156  -12.3324   20.6048 C   0  0  0  0  0  0
   14.6255  -14.5479   20.1830 N   0  0  2  0  0  0
   19.9097  -15.5458   22.7967 N   0  0  0  0  0  0
   18.5912  -15.9024   23.0678 C   0  0  0  0  0  0
   13.8939  -10.8244   20.6611 S   0  0  0  0  0  0
   16.6194  -15.9353   21.5812 N   0  0  0  0  0  0
   15.3230  -16.2536   21.9215 C   0  0  0  0  0  0
   14.1740  -15.3827   21.3276 C   0  0  0  0  0  0
   18.2416  -15.3733   24.2967 C   0  0  0  0  0  0
   20.4230  -14.8258   23.8703 C   0  0  0  0  0  0
   12.0622  -12.4464   21.5969 C   0  0  0  0  0  0
   19.3780  -14.6963   24.8274 C   0  0  0  0  0  0
   12.9496  -10.3064   22.0399 C   0  0  0  0  0  0
   17.7363  -16.7322   22.1189 C   0  0  0  0  0  0
   12.0159  -11.3070   22.4417 C   0  0  0  0  0  0
   15.9103  -13.8831   20.4138 C   0  0  0  0  0  0
   20.6901  -15.9128   21.6027 C   0  0  0  0  0  0
   14.0159  -12.9005   18.2229 O   0  0  0  0  0  0
   12.1766  -14.4061   19.1959 O   0  0  0  0  0  0
   13.0659   -9.0876   22.7211 C   0  0  0  0  0  0
   21.2390  -17.3474   21.6092 C   0  0  0  0  0  0
   16.9696  -14.9778   20.5120 C   0  0  0  0  0  0
   15.0427  -17.1471   22.7251 O   0  0  0  0  0  0
   20.8749  -13.4393   26.2464 N   0  0  0  0  0  0
   20.6512  -18.2927   22.1288 O   0  0  0  0  0  0
   11.2160  -11.0536   23.5640 C   0  0  0  0  0  0
   12.2621   -8.8816   23.8393 C   0  0  0  0  0  0
   21.6924  -14.2660   24.1072 C   0  0  0  0  0  0
   19.6595  -13.9873   26.0011 C   0  0  0  0  0  0
   22.4139  -17.4530   20.9229 O   0  0  0  0  0  0
   11.3551   -9.8511   24.2549 C   0  0  0  0  0  0
   12.4035   -7.4035   24.7198 Cl  0  0  0  0  0  0
   21.8483  -13.5873   25.3170 C   0  0  0  0  0  0
   13.4059  -16.0690   20.9726 H   0  0  0  0  0  0
   13.7689  -14.7590   22.1253 H   0  0  0  0  0  0
   17.2657  -15.4772   24.7527 H   0  0  0  0  0  0
   11.4240  -13.3091   21.7334 H   0  0  0  0  0  0
   18.3119  -17.1194   21.2803 H   0  0  0  0  0  0
   17.3823  -17.6264   22.6340 H   0  0  0  0  0  0
   15.8558  -13.3415   21.3607 H   0  0  0  0  0  0
   16.1320  -13.1961   19.5960 H   0  0  0  0  0  0
   20.0607  -15.7760   20.7238 H   0  0  0  0  0  0
   21.5028  -15.1945   21.4944 H   0  0  0  0  0  0
   13.7847   -8.3403   22.4177 H   0  0  0  0  0  0
   17.9325  -14.5132   20.7255 H   0  0  0  0  0  0
   17.0389  -15.5496   19.5869 H   0  0  0  0  0  0
   10.4808  -11.7754   23.8957 H   0  0  0  0  0  0
   22.5064  -14.3460   23.4045 H   0  0  0  0  0  0
   18.9108  -13.8534   26.7654 H   0  0  0  0  0  0
   22.8337  -16.6023   20.7211 H   0  0  0  0  0  0
   10.7347   -9.6660   25.1202 H   0  0  0  0  0  0
   22.7958  -13.1317   25.5640 H   0  0  0  0  0  0
  1  2  1  0  0  0
  1  3  1  0  0  0
  1 19  2  0  0  0
  1 20  2  0  0  0
  2  6  1  0  0  0
  2 12  2  0  0  0
  3  9  1  0  0  0
  3 17  1  0  0  0
  4  5  1  0  0  0
  4 11  1  0  0  0
  4 18  1  0  0  0
  5 15  1  0  0  0
  5 10  2  0  0  0
  6 14  1  0  0  0
  7 23  1  0  0  0
  7 15  1  0  0  0
  7  8  1  0  0  0
  8  9  1  0  0  0
  8 24  2  0  0  0
  9 35  1  0  0  0
  9 36  1  0  0  0
 10 13  1  0  0  0
 10 37  1  0  0  0
 11 29  1  0  0  0
 11 13  2  0  0  0
 12 16  1  0  0  0
 12 38  1  0  0  0
 13 30  1  0  0  0
 14 21  1  0  0  0
 14 16  2  0  0  0
 15 39  1  0  0  0
 15 40  1  0  0  0
 16 27  1  0  0  0
 17 23  1  0  0  0
 17 41  1  0  0  0
 17 42  1  0  0  0
 18 22  1  0  0  0
 18 43  1  0  0  0
 18 44  1  0  0  0
 21 28  2  0  0  0
 21 45  1  0  0  0
 22 26  2  0  0  0
 22 31  1  0  0  0
 23 46  1  0  0  0
 23 47  1  0  0  0
 25 30  2  0  0  0
 25 34  1  0  0  0
 27 32  2  0  0  0
 27 48  1  0  0  0
 28 33  1  0  0  0
 28 32  1  0  0  0
 29 34  2  0  0  0
 29 49  1  0  0  0
 30 50  1  0  0  0
 31 51  1  0  0  0
 32 52  1  0  0  0
 34 53  1  0  0  0
M  END
> <s_m_entry_id>
35415

> <s_m_entry_name>
dock_pv.265

> <s_m_Source_Path>
/home/csk/Desktop/cluster/DUD-E-result/thrb

> <s_m_Source_File>
dock_pv.maegz

> <i_m_Source_File_Index>
265

> <chembl_id>
CHEMBL161158

> <chembl_pref_name>
None

> <i_lp_mmshare_version>
53161

> <r_lp_tautomer_probability>
1

> <s_lp_Force_Field>
OPLS_2005

> <r_lp_Energy>
11.447081

> <b_lp_Chiralities_Consistent>
1

> <s_lp_Variant>
CHEMBL204_lig3377-1

> <s_i_glide_gridfile>
glide-grid_1ype

> <i_i_glide_lignum>
4716

> <i_i_glide_rotatable_bonds>
7

> <r_i_docking_score>
-7.1631577005627

> <r_i_glide_ligand_efficiency>
-0.210681108840079

> <r_i_glide_ligand_efficiency_sa>
-0.68252500570227

> <r_i_glide_ligand_efficiency_ln>
-1.58254245582219

> <r_i_glide_gscore>
-7.1631577005627

> <r_i_glide_lipo>
-3.22126876215026

> <r_i_glide_hbond>
0

> <r_i_glide_metal>
0

> <r_i_glide_rewards>
-0.257808621879981

> <r_i_glide_evdw>
-50.0681266784668

> <r_i_glide_ecoul>
-10.7485322952271

> <r_i_glide_erotb>
0.457580374194555

> <r_i_glide_esite>
-0.0259745125196108

> <r_i_glide_emodel>
-84.2259565699855

> <r_i_glide_energy>
-60.8166589736938

> <r_i_glide_einternal>
4.20986700057983

> <i_i_glide_confnum>
122

> <i_i_glide_posenum>
269

> <r_i_glide_eff_state_penalty>
0

> <s_user_duplicate_titles>
CHEMBL204_lig3377

> <i_f3d_flags>
0

> <s_m_subgroup_title>
dock_pv

> <s_m_subgroupid>
dock_pv

> <b_m_subgroup_collapsed>
1

$$$$
CHEMBL204_lig5119
                    3D
 Schrodinger Suite 2021-1.
 54 57  0  0  1  0            999 V2000
   12.4316  -14.9634   21.0325 N   0  0  0  0  0  0
   12.2581  -13.8108   20.1682 C   0  0  0  0  0  0
   12.6242  -12.5210   20.8952 C   0  0  0  0  0  0
   11.7160  -12.0421   21.8496 C   0  0  0  0  0  0
   11.9462  -10.8465   22.5189 C   0  0  0  0  0  0
   13.0918  -10.1115   22.2408 C   0  0  0  0  0  0
   13.3845   -8.6451   23.0952 Cl  0  0  0  0  0  0
   14.0158  -10.5822   21.3078 C   0  0  0  0  0  0
   13.8102  -11.7974   20.6361 C   0  0  0  0  0  0
   14.9158  -12.3381   19.7152 C   0  0  0  0  0  0
   16.2548  -12.1832   20.2790 N   0  0  0  0  0  0
   17.4046  -11.9923   19.6177 C   0  0  0  0  0  0
   17.4790  -11.8569   18.3953 O   0  0  0  0  0  0
   18.6829  -11.9411   20.4959 C   0  0  2  0  0  0
   19.9803  -11.6487   19.7097 C   0  0  0  0  0  0
   20.5581  -13.0148   19.4221 C   0  0  0  0  0  0
   20.2459  -13.7849   20.6948 C   0  0  0  0  0  0
   18.9959  -13.2065   21.2107 N   0  0  0  0  0  0
   18.2835  -13.6538   22.2863 C   0  0  0  0  0  0
   17.2638  -13.0731   22.6593 O   0  0  0  0  0  0
   18.7275  -14.8701   23.1431 C   0  0  1  0  0  0
   18.9688  -16.0282   22.2720 N   0  0  2  0  0  0
   20.2080  -17.0699   22.9295 S   0  0  0  0  0  0
   19.6287  -18.0384   23.8649 O   0  0  0  0  0  0
   21.1106  -17.5282   21.8691 O   0  0  0  0  0  0
   20.9081  -15.6759   23.8489 C   0  0  0  0  0  0
   22.1408  -15.6586   24.5020 C   0  0  0  0  0  0
   22.4758  -14.5268   25.2498 C   0  0  0  0  0  0
   21.5883  -13.4529   25.3457 C   0  0  0  0  0  0
   20.3610  -13.4911   24.6807 C   0  0  0  0  0  0
   20.0091  -14.6089   23.9137 C   0  0  0  0  0  0
   11.8062  -14.8661   21.8268 H   0  0  0  0  0  0
   12.1304  -15.7947   20.5432 H   0  0  0  0  0  0
   11.2157  -13.7542   19.8636 H   0  0  0  0  0  0
   12.8152  -13.9419   19.2438 H   0  0  0  0  0  0
   10.8154  -12.5983   22.0719 H   0  0  0  0  0  0
   11.2325  -10.4966   23.2509 H   0  0  0  0  0  0
   14.9146  -10.0100   21.1246 H   0  0  0  0  0  0
   14.8029  -13.4103   19.5716 H   0  0  0  0  0  0
   14.8281  -11.8850   18.7254 H   0  0  0  0  0  0
   16.3426  -12.3965   21.2701 H   0  0  0  0  0  0
   18.5334  -11.1370   21.2189 H   0  0  0  0  0  0
   19.8497  -11.0743   18.7988 H   0  0  0  0  0  0
   20.6779  -11.0785   20.3212 H   0  0  0  0  0  0
   20.0238  -13.4541   18.5800 H   0  0  0  0  0  0
   21.6167  -12.9987   19.1739 H   0  0  0  0  0  0
   20.1889  -14.8452   20.4559 H   0  0  0  0  0  0
   21.0387  -13.6406   21.4315 H   0  0  0  0  0  0
   17.9133  -15.0999   23.8346 H   0  0  0  0  0  0
   18.9254  -15.7961   21.2775 H   0  0  0  0  0  0
   22.8238  -16.4949   24.4582 H   0  0  0  0  0  0
   23.4214  -14.4882   25.7740 H   0  0  0  0  0  0
   21.8504  -12.5870   25.9373 H   0  0  0  0  0  0
   19.6888  -12.6498   24.7761 H   0  0  0  0  0  0
  1  2  1  0  0  0
  1 32  1  0  0  0
  1 33  1  0  0  0
  2  3  1  0  0  0
  2 34  1  0  0  0
  2 35  1  0  0  0
  3  4  2  0  0  0
  3  9  1  0  0  0
  4  5  1  0  0  0
  4 36  1  0  0  0
  5  6  2  0  0  0
  5 37  1  0  0  0
  6  7  1  0  0  0
  6  8  1  0  0  0
  8  9  2  0  0  0
  8 38  1  0  0  0
  9 10  1  0  0  0
 10 11  1  0  0  0
 10 39  1  0  0  0
 10 40  1  0  0  0
 11 12  1  0  0  0
 11 41  1  0  0  0
 12 13  2  0  0  0
 12 14  1  0  0  0
 14 15  1  0  0  0
 14 18  1  0  0  0
 14 42  1  0  0  0
 15 16  1  0  0  0
 15 43  1  0  0  0
 15 44  1  0  0  0
 16 17  1  0  0  0
 16 45  1  0  0  0
 16 46  1  0  0  0
 17 18  1  0  0  0
 17 47  1  0  0  0
 17 48  1  0  0  0
 18 19  1  0  0  0
 19 20  2  0  0  0
 19 21  1  0  0  0
 21 22  1  0  0  0
 21 31  1  0  0  0
 21 49  1  0  0  0
 22 23  1  0  0  0
 22 50  1  0  0  0
 23 24  2  0  0  0
 23 25  2  0  0  0
 23 26  1  0  0  0
 26 27  2  0  0  0
 26 31  1  0  0  0
 27 28  1  0  0  0
 27 51  1  0  0  0
 28 29  2  0  0  0
 28 52  1  0  0  0
 29 30  1  0  0  0
 29 53  1  0  0  0
 30 31  2  0  0  0
 30 54  1  0  0  0
M  END
> <s_m_entry_id>
35416

> <s_m_entry_name>
dock_pv.266

> <s_m_Source_Path>
/home/csk/Desktop/cluster/DUD-E-result/thrb

> <s_m_Source_File>
dock_pv.maegz

> <i_m_Source_File_Index>
266

> <chembl_id>
CHEMBL3923623

> <chembl_pref_name>
None

> <i_lp_mmshare_version>
53161

> <r_lp_tautomer_probability>
1

> <s_lp_Force_Field>
OPLS_2005

> <r_lp_Energy>
32.744282

> <b_lp_Chiralities_Consistent>
1

> <s_lp_Variant>
CHEMBL204_lig5119-1

> <s_i_glide_gridfile>
glide-grid_1ype

> <i_i_glide_lignum>
7015

> <i_i_glide_rotatable_bonds>
7

> <r_i_docking_score>
-7.16067468963367

> <r_i_glide_ligand_efficiency>
-0.230989506117215

> <r_i_glide_ligand_efficiency_sa>
-0.725625964591466

> <r_i_glide_ligand_efficiency_ln>
-1.61495159083688

> <r_i_glide_gscore>
-7.16067468963367

> <r_i_glide_lipo>
-3.58093779556881

> <r_i_glide_hbond>
-0.274550069920149

> <r_i_glide_metal>
0

> <r_i_glide_rewards>
-0.937750406202721

> <r_i_glide_evdw>
-44.2284088134766

> <r_i_glide_ecoul>
-4.79417848587036

> <r_i_glide_erotb>
0.564043637695355

> <r_i_glide_esite>
-0.000932842082967564

> <r_i_glide_emodel>
-67.4965053633706

> <r_i_glide_energy>
-49.0225872993469

> <r_i_glide_einternal>
7.73278093338013

> <i_i_glide_confnum>
50

> <i_i_glide_posenum>
182

> <r_i_glide_eff_state_penalty>
0

> <s_user_duplicate_titles>
CHEMBL204_lig5119

> <i_f3d_flags>
0

> <s_m_subgroup_title>
dock_pv

> <s_m_subgroupid>
dock_pv

> <b_m_subgroup_collapsed>
1

$$$$
CHEMBL204_lig4959
                    3D
 Schrodinger Suite 2021-1.
 78 82  0  0  1  0            999 V2000
   11.4413   -9.7963   24.1681 N   0  0  0  0  0  0
   12.3439   -8.8620   23.7927 C   0  0  0  0  0  0
   13.2160   -9.0274   22.7209 C   0  0  0  0  0  0
   11.3862  -10.9527   23.4715 C   0  0  0  0  0  0
   12.2408  -11.2433   22.3659 C   0  0  0  0  0  0
   13.1816  -10.2351   21.9906 C   0  0  0  0  0  0
   14.0806  -10.4720   20.9261 C   0  0  0  0  0  0
   14.0649  -11.6837   20.2467 C   0  0  0  0  0  0
   13.1278  -12.6632   20.5934 C   0  0  0  0  0  0
   12.2279  -12.4612   21.6370 C   0  0  0  0  0  0
   10.4230  -11.8529   23.9226 N   0  0  0  0  0  0
   15.0153  -11.8912   19.2373 N   0  0  0  0  0  0
   15.6604  -13.1542   18.9514 C   0  0  1  0  0  0
   16.1085  -13.1105   17.4656 C   0  0  0  0  0  0
   15.4140  -13.9139   16.6393 N   0  0  0  0  0  0
   17.0108  -12.3563   17.0916 O   0  0  0  0  0  0
   16.7611  -13.4367   19.9656 C   0  0  0  0  0  0
   18.0356  -12.8595   19.8843 C   0  0  0  0  0  0
   19.0398  -13.1490   20.8185 C   0  0  0  0  0  0
   18.7400  -13.9695   21.9209 C   0  0  0  0  0  0
   17.4491  -14.5130   22.0308 C   0  0  0  0  0  0
   16.4811  -14.2566   21.0634 C   0  0  0  0  0  0
   20.3307  -12.6532   20.7225 O   0  0  0  0  0  0
   20.7080  -11.7437   19.6927 C   0  0  0  0  0  0
   20.8995  -12.4210   18.3267 C   0  0  0  0  0  0
   19.7627  -14.1662   22.8413 O   0  0  0  0  0  0
   19.6302  -14.9404   24.0407 C   0  0  0  0  0  0
   19.4414  -16.4512   23.7864 C   0  0  0  0  0  0
   18.6654  -14.3296   25.0801 C   0  0  0  0  0  0
   15.7168  -14.2444   15.2426 C   0  0  0  0  0  0
   16.0161  -13.1338   14.2231 C   0  0  0  0  0  0
   16.7144  -13.4027   13.0233 C   0  0  0  0  0  0
   17.0112  -12.3490   12.1503 C   0  0  0  0  0  0
   16.6106  -11.0489   12.4371 C   0  0  0  0  0  0
   15.9077  -10.7812   13.6055 C   0  0  0  0  0  0
   15.6160  -11.8150   14.4873 C   0  0  0  0  0  0
   17.2260  -15.0624   12.5102 S   0  0  0  0  0  0
   15.6174  -16.0682   12.3754 C   0  0  0  0  0  0
   18.0648  -15.6195   13.5759 O   0  0  0  0  0  0
   17.7840  -14.9440   11.1593 O   0  0  0  0  0  0
   15.7644  -17.5492   12.1279 C   0  0  0  0  0  0
   15.2922  -17.0495   13.4790 C   0  0  0  0  0  0
   12.3639   -7.9591   24.3865 H   0  0  0  0  0  0
   13.9314   -8.2575   22.4691 H   0  0  0  0  0  0
   14.8074   -9.7126   20.6819 H   0  0  0  0  0  0
   13.0842  -13.6027   20.0629 H   0  0  0  0  0  0
   11.5307  -13.2403   21.9144 H   0  0  0  0  0  0
   10.4241  -12.8189   23.6093 H   0  0  0  0  0  0
    9.7248  -11.5339   24.5962 H   0  0  0  0  0  0
   15.5823  -11.0943   18.9740 H   0  0  0  0  0  0
   14.9357  -13.9679   19.0301 H   0  0  0  0  0  0
   14.6769  -14.4675   17.0518 H   0  0  0  0  0  0
   18.2453  -12.1739   19.0851 H   0  0  0  0  0  0
   17.1600  -15.1422   22.8564 H   0  0  0  0  0  0
   15.4995  -14.6901   21.1879 H   0  0  0  0  0  0
   20.0079  -10.9144   19.6353 H   0  0  0  0  0  0
   21.6560  -11.3056   19.9959 H   0  0  0  0  0  0
   21.2834  -11.7140   17.5921 H   0  0  0  0  0  0
   21.6138  -13.2351   18.4117 H   0  0  0  0  0  0
   19.9810  -12.8449   17.9276 H   0  0  0  0  0  0
   20.6182  -14.8607   24.4981 H   0  0  0  0  0  0
   19.4350  -17.0076   24.7255 H   0  0  0  0  0  0
   18.5277  -16.7023   23.2555 H   0  0  0  0  0  0
   20.2692  -16.8369   23.1896 H   0  0  0  0  0  0
   18.6338  -14.9335   25.9880 H   0  0  0  0  0  0
   19.0065  -13.3358   25.3731 H   0  0  0  0  0  0
   17.6416  -14.2226   24.7275 H   0  0  0  0  0  0
   14.8518  -14.7883   14.8652 H   0  0  0  0  0  0
   16.5297  -14.9634   15.2840 H   0  0  0  0  0  0
   17.5444  -12.5277   11.2298 H   0  0  0  0  0  0
   16.8260  -10.2508   11.7432 H   0  0  0  0  0  0
   15.5805   -9.7763   13.8240 H   0  0  0  0  0  0
   15.0626  -11.5831   15.3845 H   0  0  0  0  0  0
   14.8198  -15.5068   11.8834 H   0  0  0  0  0  0
   16.7696  -17.9619   12.0319 H   0  0  0  0  0  0
   15.0493  -18.0364   11.4636 H   0  0  0  0  0  0
   14.2448  -17.1571   13.7639 H   0  0  0  0  0  0
   15.9630  -17.1391   14.3347 H   0  0  0  0  0  0
  1  2  2  0  0  0
  1  4  1  0  0  0
  2  3  1  0  0  0
  2 43  1  0  0  0
  3  6  2  0  0  0
  3 44  1  0  0  0
  4  5  2  0  0  0
  4 11  1  0  0  0
  5  6  1  0  0  0
  5 10  1  0  0  0
  6  7  1  0  0  0
  7  8  2  0  0  0
  7 45  1  0  0  0
  8  9  1  0  0  0
  8 12  1  0  0  0
  9 10  2  0  0  0
  9 46  1  0  0  0
 10 47  1  0  0  0
 11 48  1  0  0  0
 11 49  1  0  0  0
 12 13  1  0  0  0
 12 50  1  0  0  0
 13 14  1  0  0  0
 13 17  1  0  0  0
 13 51  1  0  0  0
 14 15  1  0  0  0
 14 16  2  0  0  0
 15 30  1  0  0  0
 15 52  1  0  0  0
 17 18  2  0  0  0
 17 22  1  0  0  0
 18 19  1  0  0  0
 18 53  1  0  0  0
 19 20  2  0  0  0
 19 23  1  0  0  0
 20 21  1  0  0  0
 20 26  1  0  0  0
 21 22  2  0  0  0
 21 54  1  0  0  0
 22 55  1  0  0  0
 23 24  1  0  0  0
 24 25  1  0  0  0
 24 56  1  0  0  0
 24 57  1  0  0  0
 25 58  1  0  0  0
 25 59  1  0  0  0
 25 60  1  0  0  0
 26 27  1  0  0  0
 27 28  1  0  0  0
 27 29  1  0  0  0
 27 61  1  0  0  0
 28 62  1  0  0  0
 28 63  1  0  0  0
 28 64  1  0  0  0
 29 65  1  0  0  0
 29 66  1  0  0  0
 29 67  1  0  0  0
 30 31  1  0  0  0
 30 68  1  0  0  0
 30 69  1  0  0  0
 31 32  2  0  0  0
 31 36  1  0  0  0
 32 33  1  0  0  0
 32 37  1  0  0  0
 33 34  2  0  0  0
 33 70  1  0  0  0
 34 35  1  0  0  0
 34 71  1  0  0  0
 35 36  2  0  0  0
 35 72  1  0  0  0
 36 73  1  0  0  0
 37 38  1  0  0  0
 37 39  2  0  0  0
 37 40  2  0  0  0
 38 41  1  0  0  0
 38 42  1  0  0  0
 38 74  1  0  0  0
 41 42  1  0  0  0
 41 75  1  0  0  0
 41 76  1  0  0  0
 42 77  1  0  0  0
 42 78  1  0  0  0
M  END
> <s_m_entry_id>
35417

> <s_m_entry_name>
dock_pv.267

> <s_m_Source_Path>
/home/csk/Desktop/cluster/DUD-E-result/thrb

> <s_m_Source_File>
dock_pv.maegz

> <i_m_Source_File_Index>
267

> <chembl_id>
CHEMBL3114840

> <chembl_pref_name>
None

> <i_lp_mmshare_version>
53161

> <r_lp_tautomer_probability>
1

> <s_lp_Force_Field>
OPLS_2005

> <r_lp_Energy>
25.76474

> <b_lp_Chiralities_Consistent>
1

> <s_lp_Variant>
CHEMBL204_lig4959-2

> <s_i_glide_gridfile>
glide-grid_1ype

> <i_i_glide_lignum>
6758

> <i_i_glide_rotatable_bonds>
13

> <r_i_docking_score>
-7.1581640525655

> <r_i_glide_ligand_efficiency>
-0.170432477442036

> <r_i_glide_ligand_efficiency_sa>
-0.592427832004425

> <r_i_glide_ligand_efficiency_ln>
-1.510904015962

> <r_i_glide_gscore>
-7.1581640525655

> <r_i_glide_lipo>
-3.21770228317152

> <r_i_glide_hbond>
-0.456

> <r_i_glide_metal>
0

> <r_i_glide_rewards>
0.0255330665445051

> <r_i_glide_evdw>
-51.6248931884766

> <r_i_glide_ecoul>
-9.14614105224609

> <r_i_glide_erotb>
0.557460047545743

> <r_i_glide_esite>
-0.114289066223482

> <r_i_glide_emodel>
-82.0995647637038

> <r_i_glide_energy>
-60.7710342407227

> <r_i_glide_einternal>
6.95337772369385

> <i_i_glide_confnum>
49

> <i_i_glide_posenum>
368

> <r_i_glide_eff_state_penalty>
0

> <s_user_duplicate_titles>
CHEMBL204_lig4959

> <i_f3d_flags>
0

> <s_m_subgroup_title>
dock_pv

> <s_m_subgroupid>
dock_pv

> <b_m_subgroup_collapsed>
1

$$$$
CHEMBL204_lig923
                    3D
 Schrodinger Suite 2021-1.
 62 64  0  0  1  0            999 V2000
   20.7353  -16.6043   23.4220 S   0  0  0  0  0  0
   19.8619  -15.8483   22.0733 N   0  0  2  0  0  0
   19.9457  -13.6789   20.7107 C   0  0  0  0  0  0
   20.6062  -15.0500   21.0586 C   0  0  0  0  0  0
   13.9858  -13.1701   20.9847 C   0  0  0  0  0  0
   18.8529  -13.2828   21.4451 N   0  0  0  0  0  0
   13.1499  -12.0706   21.5181 C   0  0  0  0  0  0
   12.1761  -12.2543   22.3813 N   0  0  0  0  0  0
   16.9547  -11.7839   20.7349 C   0  0  0  0  0  0
   16.2006  -10.0426   14.3980 C   0  0  0  0  0  0
   14.9623  -13.0889   19.7996 C   0  0  2  0  0  0
   16.3380  -12.9024   20.3013 N   0  0  0  0  0  0
   18.4289  -15.5769   22.2069 C   0  0  0  0  0  0
   13.3840  -10.3814   21.1331 S   0  0  0  0  0  0
   19.8397  -17.5769   24.0589 O   0  0  0  0  0  0
   22.0712  -16.9833   22.9481 O   0  0  0  0  0  0
   18.3760  -11.8871   21.3236 C   0  0  0  0  0  0
   20.9526  -15.2683   24.5949 C   0  0  0  0  0  0
   18.2648  -14.0937   22.5379 C   0  0  0  0  0  0
   17.2160   -9.4713   13.9210 N   0  0  0  0  0  0
   13.8883  -14.2767   21.5208 O   0  0  0  0  0  0
   11.6121  -11.1344   22.7815 C   0  0  0  0  0  0
   20.4289  -12.9762   19.8229 O   0  0  0  0  0  0
   12.1093   -9.9665   22.2272 C   0  0  0  0  0  0
   16.4355  -10.6751   20.6823 O   0  0  0  0  0  0
   16.2774  -10.9435   15.4462 N   0  0  0  0  0  0
   14.9122   -9.8530   13.9236 N   0  0  0  0  0  0
   14.5932  -12.1824   18.5991 C   0  0  0  0  0  0
   22.1346  -14.5239   24.5970 C   0  0  0  0  0  0
   19.9117  -14.9461   25.4694 C   0  0  0  0  0  0
   15.1722  -11.3257   16.3014 C   0  0  0  0  0  0
   15.6392  -12.1836   17.4729 C   0  0  0  0  0  0
   20.0394  -13.8537   26.3210 C   0  0  0  0  0  0
   22.2705  -13.4528   25.4745 C   0  0  0  0  0  0
   21.2167  -13.1103   26.3205 C   0  0  0  0  0  0
   20.7300  -15.6515   20.1590 H   0  0  0  0  0  0
   21.6159  -14.8525   21.4137 H   0  0  0  0  0  0
   14.9737  -14.0944   19.3726 H   0  0  0  0  0  0
   16.8870  -13.7506   20.3416 H   0  0  0  0  0  0
   17.9990  -16.2173   22.9773 H   0  0  0  0  0  0
   17.9528  -15.8344   21.2597 H   0  0  0  0  0  0
   19.0471  -11.2538   20.7425 H   0  0  0  0  0  0
   18.3592  -11.4536   22.3207 H   0  0  0  0  0  0
   18.7668  -13.8048   23.4603 H   0  0  0  0  0  0
   17.2013  -13.8788   22.6551 H   0  0  0  0  0  0
   16.9307   -8.8238   13.1890 H   0  0  0  0  0  0
   10.7952  -11.1877   23.4904 H   0  0  0  0  0  0
   11.8058   -8.9458   22.3976 H   0  0  0  0  0  0
   17.1788  -11.0098   15.8876 H   0  0  0  0  0  0
   14.8725   -9.2545   13.1073 H   0  0  0  0  0  0
   14.4270  -10.7164   13.7196 H   0  0  0  0  0  0
   14.4926  -11.1436   18.8930 H   0  0  0  0  0  0
   13.6238  -12.4918   18.2030 H   0  0  0  0  0  0
   22.9438  -14.7685   23.9244 H   0  0  0  0  0  0
   18.9966  -15.5209   25.4732 H   0  0  0  0  0  0
   14.7170  -10.4049   16.6675 H   0  0  0  0  0  0
   14.4160  -11.8502   15.7256 H   0  0  0  0  0  0
   15.8455  -13.2009   17.1345 H   0  0  0  0  0  0
   16.5787  -11.7830   17.8567 H   0  0  0  0  0  0
   19.2340  -13.5880   26.9888 H   0  0  0  0  0  0
   23.1823  -12.8735   25.4843 H   0  0  0  0  0  0
   21.3156  -12.2646   26.9877 H   0  0  0  0  0  0
  1  2  1  0  0  0
  1 15  2  0  0  0
  1 16  2  0  0  0
  1 18  1  0  0  0
  2  4  1  0  0  0
  2 13  1  0  0  0
  3  4  1  0  0  0
  3 23  2  0  0  0
  3  6  1  0  0  0
  4 36  1  0  0  0
  4 37  1  0  0  0
  5 11  1  0  0  0
  5  7  1  0  0  0
  5 21  2  0  0  0
  6 19  1  0  0  0
  6 17  1  0  0  0
  7  8  2  0  0  0
  7 14  1  0  0  0
  8 22  1  0  0  0
  9 17  1  0  0  0
  9 12  1  0  0  0
  9 25  2  0  0  0
 10 26  1  0  0  0
 10 20  2  0  0  0
 10 27  1  0  0  0
 11 12  1  0  0  0
 11 28  1  0  0  0
 11 38  1  0  0  0
 12 39  1  0  0  0
 13 19  1  0  0  0
 13 40  1  0  0  0
 13 41  1  0  0  0
 14 24  1  0  0  0
 17 42  1  0  0  0
 17 43  1  0  0  0
 18 29  2  0  0  0
 18 30  1  0  0  0
 19 44  1  0  0  0
 19 45  1  0  0  0
 20 46  1  0  0  0
 22 24  2  0  0  0
 22 47  1  0  0  0
 24 48  1  0  0  0
 26 31  1  0  0  0
 26 49  1  0  0  0
 27 50  1  0  0  0
 27 51  1  0  0  0
 28 32  1  0  0  0
 28 52  1  0  0  0
 28 53  1  0  0  0
 29 34  1  0  0  0
 29 54  1  0  0  0
 30 33  2  0  0  0
 30 55  1  0  0  0
 31 32  1  0  0  0
 31 56  1  0  0  0
 31 57  1  0  0  0
 32 58  1  0  0  0
 32 59  1  0  0  0
 33 35  1  0  0  0
 33 60  1  0  0  0
 34 35  2  0  0  0
 34 61  1  0  0  0
 35 62  1  0  0  0
M  END
> <s_m_entry_id>
35418

> <s_m_entry_name>
dock_pv.268

> <s_m_Source_Path>
/home/csk/Desktop/cluster/DUD-E-result/thrb

> <s_m_Source_File>
dock_pv.maegz

> <i_m_Source_File_Index>
268

> <chembl_id>
CHEMBL262186

> <chembl_pref_name>
None

> <i_lp_mmshare_version>
53161

> <r_lp_tautomer_probability>
0.99990000499975

> <s_lp_Force_Field>
OPLS_2005

> <r_lp_Energy>
9.848827

> <b_lp_Chiralities_Consistent>
1

> <s_lp_Variant>
CHEMBL204_lig923-1

> <s_i_glide_gridfile>
glide-grid_1ype

> <i_i_glide_lignum>
1418

> <i_i_glide_rotatable_bonds>
13

> <r_i_docking_score>
-7.15333569887509

> <r_i_glide_ligand_efficiency>
-0.20438101996786

> <r_i_glide_ligand_efficiency_sa>
-0.668543868066546

> <r_i_glide_ligand_efficiency_ln>
-1.57031594563517

> <r_i_glide_gscore>
-7.15333569887509

> <r_i_glide_lipo>
-3.05083007151356

> <r_i_glide_hbond>
-0.604442985556905

> <r_i_glide_metal>
0

> <r_i_glide_rewards>
-0.934056230960772

> <r_i_glide_evdw>
-52.6152992248535

> <r_i_glide_ecoul>
-5.37876415252686

> <r_i_glide_erotb>
0.906725445318129

> <r_i_glide_esite>
-0.0331522720402836

> <r_i_glide_emodel>
-75.3986845966113

> <r_i_glide_energy>
-57.9940633773804

> <r_i_glide_einternal>
20.9618682861328

> <i_i_glide_confnum>
192

> <i_i_glide_posenum>
376

> <r_i_glide_eff_state_penalty>
0

> <s_user_duplicate_titles>
CHEMBL204_lig923,270503

> <i_f3d_flags>
0

> <s_m_subgroup_title>
dock_pv

> <s_m_subgroupid>
dock_pv

> <b_m_subgroup_collapsed>
1

$$$$
CHEMBL204_lig1942
                    3D
 Schrodinger Suite 2021-1.
 47 48  0  0  1  0            999 V2000
   15.2450  -12.4016   19.9846 S   0  0  0  0  0  0
   13.9230  -11.7058   21.0085 C   0  0  0  0  0  0
   16.5152  -11.4476   20.4983 O   0  0  0  0  0  0
   24.3457  -15.0677   24.3224 C   0  0  0  0  0  0
   12.4170  -14.9449   20.7245 N   0  0  0  0  0  0
   17.7676  -12.0048   20.4902 C   0  0  0  0  0  0
   12.5885  -13.8440   21.0402 C   0  0  0  0  0  0
   15.4995  -13.7846   20.4087 O   0  0  0  0  0  0
   14.9499  -12.0617   18.5859 O   0  0  0  0  0  0
   12.8021  -12.4555   21.4320 C   0  0  0  0  0  0
   25.6158  -15.6540   24.4802 N   0  0  0  0  0  0
   18.2959  -12.5396   21.6638 C   0  0  0  0  0  0
   22.1129  -15.0883   24.6805 N   0  0  0  0  0  0
   23.3070  -15.5966   24.8634 N   0  0  0  0  0  0
   19.6023  -13.0542   21.6927 C   0  0  0  0  0  0
   19.8333  -12.5004   19.3343 C   0  0  0  0  0  0
   18.5303  -11.9990   19.3243 C   0  0  0  0  0  0
   24.4159  -13.9041   23.5223 N   0  0  0  0  0  0
   20.3559  -13.0262   20.5176 C   0  0  0  0  0  0
   21.7644  -14.0637   25.3725 C   0  0  0  0  0  0
   20.4025  -13.3821   25.2322 C   0  0  0  0  0  0
   20.2512  -13.5505   22.8076 O   0  0  0  0  0  0
   14.0147  -10.3571   21.3748 C   0  0  0  0  0  0
   11.8379  -11.8526   22.2504 C   0  0  0  0  0  0
   19.5610  -13.8649   24.0200 C   0  0  0  0  0  0
   20.6829  -12.4759   18.0769 C   0  0  0  0  0  0
   13.0398   -9.7660   22.1775 C   0  0  0  0  0  0
   11.9598  -10.5172   22.6263 C   0  0  0  0  0  0
   25.6787  -16.3934   25.1649 H   0  0  0  0  0  0
   26.4207  -15.0475   24.5558 H   0  0  0  0  0  0
   17.6701  -12.5079   22.5375 H   0  0  0  0  0  0
   18.1042  -11.5891   18.4210 H   0  0  0  0  0  0
   23.6011  -13.3062   23.5241 H   0  0  0  0  0  0
   25.2648  -13.3613   23.5660 H   0  0  0  0  0  0
   21.3661  -13.4136   20.5327 H   0  0  0  0  0  0
   22.4010  -13.5986   26.1256 H   0  0  0  0  0  0
   20.5512  -12.3040   25.1583 H   0  0  0  0  0  0
   19.8327  -13.5434   26.1470 H   0  0  0  0  0  0
   14.8514   -9.7556   21.0505 H   0  0  0  0  0  0
   10.9753  -12.4091   22.5946 H   0  0  0  0  0  0
   18.5611  -13.4530   24.1079 H   0  0  0  0  0  0
   19.4258  -14.9485   24.0534 H   0  0  0  0  0  0
   21.1516  -13.4488   17.9270 H   0  0  0  0  0  0
   20.0923  -12.2541   17.1864 H   0  0  0  0  0  0
   21.4782  -11.7370   18.1746 H   0  0  0  0  0  0
   13.1360   -8.7293   22.4658 H   0  0  0  0  0  0
   11.2040  -10.0681   23.2568 H   0  0  0  0  0  0
  1  2  1  0  0  0
  1  3  1  0  0  0
  1  8  2  0  0  0
  1  9  2  0  0  0
  2 10  2  0  0  0
  2 23  1  0  0  0
  3  6  1  0  0  0
  4 14  2  0  0  0
  4 11  1  0  0  0
  4 18  1  0  0  0
  5  7  3  0  0  0
  6 12  1  0  0  0
  6 17  2  0  0  0
  7 10  1  0  0  0
 10 24  1  0  0  0
 11 29  1  0  0  0
 11 30  1  0  0  0
 12 15  2  0  0  0
 12 31  1  0  0  0
 13 20  2  0  0  0
 13 14  1  0  0  0
 15 22  1  0  0  0
 15 19  1  0  0  0
 16 17  1  0  0  0
 16 19  2  0  0  0
 16 26  1  0  0  0
 17 32  1  0  0  0
 18 33  1  0  0  0
 18 34  1  0  0  0
 19 35  1  0  0  0
 20 21  1  0  0  0
 20 36  1  0  0  0
 21 25  1  0  0  0
 21 37  1  0  0  0
 21 38  1  0  0  0
 22 25  1  0  0  0
 23 27  2  0  0  0
 23 39  1  0  0  0
 24 28  2  0  0  0
 24 40  1  0  0  0
 25 41  1  0  0  0
 25 42  1  0  0  0
 26 43  1  0  0  0
 26 44  1  0  0  0
 26 45  1  0  0  0
 27 28  1  0  0  0
 27 46  1  0  0  0
 28 47  1  0  0  0
M  END
> <s_m_entry_id>
35419

> <s_m_entry_name>
dock_pv.269

> <s_m_Source_Path>
/home/csk/Desktop/cluster/DUD-E-result/thrb

> <s_m_Source_File>
dock_pv.maegz

> <i_m_Source_File_Index>
269

> <chembl_id>
CHEMBL129059

> <chembl_pref_name>
None

> <i_lp_mmshare_version>
53161

> <r_lp_tautomer_probability>
1

> <s_lp_Force_Field>
OPLS_2005

> <r_lp_Energy>
15.212945

> <b_lp_Chiralities_Consistent>
1

> <s_lp_Variant>
CHEMBL204_lig1942-1

> <s_i_glide_gridfile>
glide-grid_1ype

> <i_i_glide_lignum>
2890

> <i_i_glide_rotatable_bonds>
8

> <r_i_docking_score>
-7.15331052104741

> <r_i_glide_ligand_efficiency>
-0.255475375751693

> <r_i_glide_ligand_efficiency_sa>
-0.775773707731704

> <r_i_glide_ligand_efficiency_ln>
-1.65119409858103

> <r_i_glide_gscore>
-7.15331052104741

> <r_i_glide_lipo>
-3.12339494852566

> <r_i_glide_hbond>
-0.429668954205369

> <r_i_glide_metal>
0

> <r_i_glide_rewards>
-1.32160852202209

> <r_i_glide_evdw>
-49.2292442321777

> <r_i_glide_ecoul>
-5.02238082885742

> <r_i_glide_erotb>
0.973678009880516

> <r_i_glide_esite>
-0.0374967702373108

> <r_i_glide_emodel>
-74.0620632562475

> <r_i_glide_energy>
-54.2516250610352

> <r_i_glide_einternal>
7.67013359069824

> <i_i_glide_confnum>
118

> <i_i_glide_posenum>
381

> <r_i_glide_eff_state_penalty>
0

> <s_user_duplicate_titles>
CHEMBL204_lig1942,213526

> <i_f3d_flags>
0

> <s_m_subgroup_title>
dock_pv

> <s_m_subgroupid>
dock_pv

> <b_m_subgroup_collapsed>
1

$$$$
CHEMBL204_lig53
                    3D
 Schrodinger Suite 2021-1.
 49 53  0  0  1  0            999 V2000
   10.8162  -10.0025   24.3212 Cl  0  0  0  0  0  0
   16.3908  -14.1390   20.1973 O   0  0  0  0  0  0
   18.2817  -12.6932   14.2342 O   0  0  0  0  0  0
   14.4160  -10.2662   14.3246 O   0  0  0  0  0  0
   16.5674  -11.8230   18.0499 N   0  0  0  0  0  0
   17.1302  -11.6492   16.8463 N   0  0  0  0  0  0
   16.2146  -11.7022   14.6280 N   0  0  0  0  0  0
   14.9657  -12.2016   16.5955 N   0  0  0  0  0  0
   14.3480  -12.0111   18.9156 N   0  0  0  0  0  0
   15.2392  -12.1332   17.8656 C   0  0  0  0  0  0
   17.2215  -11.5350   19.3360 C   0  0  2  0  0  0
   16.1188  -11.8658   16.0166 C   0  0  0  0  0  0
   14.7953  -11.4513   20.1043 C   0  0  0  0  0  0
   18.1961  -12.6160   19.8216 C   0  0  0  0  0  0
   16.1058  -11.1809   20.3207 C   0  0  0  0  0  0
   17.2152  -12.2087   13.8583 C   0  0  0  0  0  0
   15.3005  -11.0068   13.8967 C   0  0  0  0  0  0
   13.7651  -11.0859   21.0960 C   0  0  0  0  0  0
   17.7473  -13.8779   20.2567 C   0  0  0  0  0  0
   19.5678  -12.3229   19.8511 C   0  0  0  0  0  0
   16.8638  -11.9994   12.3983 C   0  0  0  0  0  0
   15.5846  -11.2207   12.4241 C   0  0  0  0  0  0
   18.6902  -14.8123   20.7214 C   0  0  0  0  0  0
   12.8144  -12.0227   21.5195 C   0  0  0  0  0  0
   13.7449   -9.7933   21.6333 C   0  0  0  0  0  0
   20.4884  -13.2628   20.3041 C   0  0  0  0  0  0
   20.0497  -14.5074   20.7414 C   0  0  0  0  0  0
   11.8840  -11.6827   22.4977 C   0  0  0  0  0  0
   12.8161   -9.4527   22.6106 C   0  0  0  0  0  0
   11.9044  -10.4054   23.0518 C   0  0  0  0  0  0
   15.8814  -15.3717   20.6919 C   0  0  0  0  0  0
   13.3716  -11.8773   18.7007 H   0  0  0  0  0  0
   17.8280  -10.6530   19.1795 H   0  0  0  0  0  0
   16.4016  -10.7610   21.2665 H   0  0  0  0  0  0
   19.9340  -11.3615   19.5245 H   0  0  0  0  0  0
   17.6739  -11.4471   11.9201 H   0  0  0  0  0  0
   16.7428  -12.9786   11.9320 H   0  0  0  0  0  0
   15.6758  -10.2532   11.9333 H   0  0  0  0  0  0
   14.7486  -11.7804   12.0007 H   0  0  0  0  0  0
   18.3874  -15.7891   21.0644 H   0  0  0  0  0  0
   12.8134  -13.0241   21.1135 H   0  0  0  0  0  0
   14.4678   -9.0560   21.3130 H   0  0  0  0  0  0
   21.5432  -13.0282   20.3181 H   0  0  0  0  0  0
   20.7652  -15.2372   21.0922 H   0  0  0  0  0  0
   11.1640  -12.4121   22.8420 H   0  0  0  0  0  0
   12.8244   -8.4663   23.0499 H   0  0  0  0  0  0
   14.7966  -15.3766   20.5858 H   0  0  0  0  0  0
   16.2726  -16.2212   20.1308 H   0  0  0  0  0  0
   16.1081  -15.5019   21.7512 H   0  0  0  0  0  0
  1 30  1  0  0  0
  2 19  1  0  0  0
  2 31  1  0  0  0
  3 16  2  0  0  0
  4 17  2  0  0  0
  5  6  1  0  0  0
  5 10  1  0  0  0
  5 11  1  0  0  0
  6 12  2  0  0  0
  7 12  1  0  0  0
  7 16  1  0  0  0
  7 17  1  0  0  0
  8 10  2  0  0  0
  8 12  1  0  0  0
  9 10  1  0  0  0
  9 13  1  0  0  0
  9 32  1  0  0  0
 11 14  1  0  0  0
 11 15  1  0  0  0
 11 33  1  0  0  0
 13 15  2  0  0  0
 13 18  1  0  0  0
 14 19  1  0  0  0
 14 20  2  0  0  0
 15 34  1  0  0  0
 16 21  1  0  0  0
 17 22  1  0  0  0
 18 24  2  0  0  0
 18 25  1  0  0  0
 19 23  2  0  0  0
 20 26  1  0  0  0
 20 35  1  0  0  0
 21 22  1  0  0  0
 21 36  1  0  0  0
 21 37  1  0  0  0
 22 38  1  0  0  0
 22 39  1  0  0  0
 23 27  1  0  0  0
 23 40  1  0  0  0
 24 28  1  0  0  0
 24 41  1  0  0  0
 25 29  2  0  0  0
 25 42  1  0  0  0
 26 27  2  0  0  0
 26 43  1  0  0  0
 27 44  1  0  0  0
 28 30  2  0  0  0
 28 45  1  0  0  0
 29 30  1  0  0  0
 29 46  1  0  0  0
 31 47  1  0  0  0
 31 48  1  0  0  0
 31 49  1  0  0  0
M  END
> <s_m_entry_id>
35420

> <s_m_entry_name>
dock_pv.270

> <s_m_Source_Path>
/home/csk/Desktop/cluster/DUD-E-result/thrb

> <s_m_Source_File>
dock_pv.maegz

> <i_m_Source_File_Index>
270

> <chembl_id>
CHEMBL1419428

> <chembl_pref_name>
None

> <i_lp_mmshare_version>
53161

> <r_lp_tautomer_probability>
1

> <s_lp_Force_Field>
OPLS_2005

> <r_lp_Energy>
38.346126

> <b_lp_Chiralities_Consistent>
1

> <s_lp_Variant>
CHEMBL204_lig53-1

> <s_i_glide_gridfile>
glide-grid_1ype

> <i_i_glide_lignum>
57

> <i_i_glide_rotatable_bonds>
4

> <r_i_docking_score>
-7.1522920583961

> <r_i_glide_ligand_efficiency>
-0.230719098657939

> <r_i_glide_ligand_efficiency_sa>
-0.724776511831605

> <r_i_glide_ligand_efficiency_ln>
-1.61306105059602

> <r_i_glide_gscore>
-7.1522920583961

> <r_i_glide_lipo>
-2.81696711435748

> <r_i_glide_hbond>
-0.24230050719546

> <r_i_glide_metal>
0

> <r_i_glide_rewards>
-0.951074105750868

> <r_i_glide_evdw>
-46.4499244689941

> <r_i_glide_ecoul>
-6.96083974838257

> <r_i_glide_erotb>
0.314690817145468

> <r_i_glide_esite>
-0.0900189625306669

> <r_i_glide_emodel>
-70.6811984948348

> <r_i_glide_energy>
-53.4107642173767

> <r_i_glide_einternal>
5.40043067932129

> <i_i_glide_confnum>
9

> <i_i_glide_posenum>
130

> <r_i_glide_eff_state_penalty>
0

> <s_user_duplicate_titles>
CHEMBL204_lig53

> <i_f3d_flags>
0

> <s_m_subgroup_title>
dock_pv

> <s_m_subgroupid>
dock_pv

> <b_m_subgroup_collapsed>
1

$$$$
CHEMBL204_lig2413
                    3D
 Schrodinger Suite 2021-1.
 54 55  0  0  1  0            999 V2000
   20.0149  -14.6247   22.8444 C   0  0  0  0  0  0
   18.6562  -12.6833   21.2894 N   0  0  0  0  0  0
   17.9518  -13.3106   22.3110 C   0  0  0  0  0  0
   18.7198  -14.2924   23.1108 C   0  0  0  0  0  0
   20.6390  -13.9790   21.6965 C   0  0  0  0  0  0
   19.9651  -13.0531   20.9847 C   0  0  0  0  0  0
   20.8026  -15.6270   23.7019 C   0  0  0  0  0  0
   14.0119  -12.9346   18.9444 C   0  0  0  0  0  0
   17.9124  -11.6111   20.5675 C   0  0  0  0  0  0
   17.0510  -12.2001   19.4363 C   0  0  0  0  0  0
   16.7593  -13.0551   22.5464 O   0  0  0  0  0  0
   13.1575  -12.4686   19.9586 C   0  0  0  0  0  0
   12.5278   -9.8991   22.2237 C   0  0  0  0  0  0
   15.9954  -11.4628   19.0616 N   0  0  0  0  0  0
   14.9283  -11.9677   18.1970 C   0  0  0  0  0  0
   14.0246  -14.2936   18.6066 C   0  0  0  0  0  0
   13.1301  -11.1017   20.1875 O   0  0  0  0  0  0
   18.0128  -14.8418   24.1652 N   0  0  0  0  0  0
   17.3068  -13.2992   18.9401 O   0  0  0  0  0  0
   13.6681   -9.4535   22.3212 O   0  0  0  0  0  0
   22.0960  -15.6366   23.3721 F   0  0  0  0  0  0
   20.3092  -16.8530   23.5209 F   0  0  0  0  0  0
   20.7145  -15.3093   24.9956 F   0  0  0  0  0  0
   12.3931  -13.4066   20.6794 C   0  0  0  0  0  0
   12.0441  -10.5146   20.9159 C   0  0  0  0  0  0
   11.6159   -9.8528   23.2076 N   0  0  0  0  0  0
   13.2281  -15.2009   19.3021 C   0  0  0  0  0  0
   12.4211  -14.7588   20.3464 C   0  0  0  0  0  0
   20.6215  -12.3869   19.7774 C   0  0  0  0  0  0
   13.2626  -16.8757   18.8880 Cl  0  0  0  0  0  0
   11.7822   -9.2686   24.5325 C   0  0  0  0  0  0
   12.2830   -7.8110   24.5463 C   0  0  0  0  0  0
   21.6435  -14.2538   21.4070 H   0  0  0  0  0  0
   17.2694  -11.0553   21.2524 H   0  0  0  0  0  0
   18.5940  -10.8735   20.1510 H   0  0  0  0  0  0
   15.7900  -10.6141   19.5714 H   0  0  0  0  0  0
   14.3368  -11.1020   17.8934 H   0  0  0  0  0  0
   15.3185  -12.4099   17.2764 H   0  0  0  0  0  0
   14.6682  -14.6556   17.8166 H   0  0  0  0  0  0
   17.0188  -14.6518   24.2705 H   0  0  0  0  0  0
   18.4381  -15.4851   24.8181 H   0  0  0  0  0  0
   11.7730  -13.1232   21.5159 H   0  0  0  0  0  0
   11.6370   -9.6985   20.3205 H   0  0  0  0  0  0
   11.2165  -11.1782   21.1215 H   0  0  0  0  0  0
   10.7019  -10.2537   23.0338 H   0  0  0  0  0  0
   11.8184  -15.4594   20.9039 H   0  0  0  0  0  0
   21.6122  -12.7994   19.5812 H   0  0  0  0  0  0
   20.0279  -12.5401   18.8759 H   0  0  0  0  0  0
   20.7477  -11.3174   19.9436 H   0  0  0  0  0  0
   10.8122   -9.3117   25.0241 H   0  0  0  0  0  0
   12.4159   -9.9239   25.1204 H   0  0  0  0  0  0
   12.3270   -7.4170   25.5558 H   0  0  0  0  0  0
   13.2872   -7.7148   24.1352 H   0  0  0  0  0  0
   11.6163   -7.1574   23.9899 H   0  0  0  0  0  0
  1  4  2  0  0  0
  1  5  1  0  0  0
  1  7  1  0  0  0
  2  6  1  0  0  0
  2  9  1  0  0  0
  2  3  1  0  0  0
  3  4  1  0  0  0
  3 11  2  0  0  0
  4 18  1  0  0  0
  5  6  2  0  0  0
  5 33  1  0  0  0
  6 29  1  0  0  0
  7 21  1  0  0  0
  7 22  1  0  0  0
  7 23  1  0  0  0
  8 15  1  0  0  0
  8 12  1  0  0  0
  8 16  2  0  0  0
  9 10  1  0  0  0
  9 34  1  0  0  0
  9 35  1  0  0  0
 10 14  1  0  0  0
 10 19  2  0  0  0
 12 17  1  0  0  0
 12 24  2  0  0  0
 13 25  1  0  0  0
 13 20  2  0  0  0
 13 26  1  0  0  0
 14 15  1  0  0  0
 14 36  1  0  0  0
 15 37  1  0  0  0
 15 38  1  0  0  0
 16 27  1  0  0  0
 16 39  1  0  0  0
 17 25  1  0  0  0
 18 40  1  0  0  0
 18 41  1  0  0  0
 24 28  1  0  0  0
 24 42  1  0  0  0
 25 43  1  0  0  0
 25 44  1  0  0  0
 26 31  1  0  0  0
 26 45  1  0  0  0
 27 28  2  0  0  0
 27 30  1  0  0  0
 28 46  1  0  0  0
 29 47  1  0  0  0
 29 48  1  0  0  0
 29 49  1  0  0  0
 31 32  1  0  0  0
 31 50  1  0  0  0
 31 51  1  0  0  0
 32 52  1  0  0  0
 32 53  1  0  0  0
 32 54  1  0  0  0
M  END
> <s_m_entry_id>
35421

> <s_m_entry_name>
dock_pv.271

> <s_m_Source_Path>
/home/csk/Desktop/cluster/DUD-E-result/thrb

> <s_m_Source_File>
dock_pv.maegz

> <i_m_Source_File_Index>
271

> <chembl_id>
CHEMBL45062

> <chembl_pref_name>
None

> <i_lp_mmshare_version>
53161

> <r_lp_tautomer_probability>
1

> <s_lp_Force_Field>
OPLS_2005

> <r_lp_Energy>
28.099191

> <b_lp_Chiralities_Consistent>
1

> <s_lp_Variant>
CHEMBL204_lig2413-1

> <s_i_glide_gridfile>
glide-grid_1ype

> <i_i_glide_lignum>
3543

> <i_i_glide_rotatable_bonds>
11

> <r_i_docking_score>
-7.15165431871387

> <r_i_glide_ligand_efficiency>
-0.223489197459808

> <r_i_glide_ligand_efficiency_sa>
-0.709533973482771

> <r_i_glide_ligand_efficiency_ln>
-1.60145034869398

> <r_i_glide_gscore>
-7.15165431871387

> <r_i_glide_lipo>
-2.85904211463277

> <r_i_glide_hbond>
-0.47683373671968

> <r_i_glide_metal>
0

> <r_i_glide_rewards>
-1.32871922529963

> <r_i_glide_evdw>
-46.9186744689941

> <r_i_glide_ecoul>
-6.32586526870728

> <r_i_glide_erotb>
0.807754271694004

> <r_i_glide_esite>
0

> <r_i_glide_emodel>
-76.2415349016091

> <r_i_glide_energy>
-53.2445397377014

> <r_i_glide_einternal>
3.17180395126343

> <i_i_glide_confnum>
17

> <i_i_glide_posenum>
325

> <r_i_glide_eff_state_penalty>
0

> <s_user_duplicate_titles>
CHEMBL204_lig2413

> <i_f3d_flags>
0

> <s_m_subgroup_title>
dock_pv

> <s_m_subgroupid>
dock_pv

> <b_m_subgroup_collapsed>
1

$$$$
CHEMBL204_lig535
                    3D
 Schrodinger Suite 2021-1.
 67 70  0  0  1  0            999 V2000
   18.8626  -12.3876   18.6941 N   0  0  0  0  0  0
   17.5799  -12.0911   18.2900 C   0  0  0  0  0  0
   16.8187  -12.6997   20.5648 N   0  0  0  0  0  0
   16.5717  -12.2939   19.3684 C   0  0  0  0  0  0
   21.0487  -15.5184   23.9879 C   0  0  0  0  0  0
   18.1486  -12.9944   20.9231 C   0  0  0  0  0  0
   22.4022  -15.3557   24.1520 N   0  0  0  0  0  0
   19.2016  -12.8651   19.9966 C   0  0  0  0  0  0
   19.9775  -14.3498   24.0679 C   0  0  0  0  0  0
   19.6910  -13.8374   22.6182 C   0  0  0  0  0  0
   18.3967  -13.4546   22.2187 C   0  0  0  0  0  0
   11.6058  -10.6455   23.4445 C   0  0  0  0  0  0
   20.4955  -13.2107   20.3899 C   0  0  0  0  0  0
   15.1047  -12.0238   18.9764 C   0  0  0  0  0  0
   23.2746  -16.5632   24.1242 C   0  0  0  0  0  0
   17.2976  -11.6799   17.1592 O   0  0  0  0  0  0
   12.4679  -11.0116   22.2844 C   0  0  0  0  0  0
   11.6158   -9.4826   23.9266 N   0  0  0  0  0  0
   20.5942  -16.6553   23.8043 O   0  0  0  0  0  0
   20.7265  -13.6901   21.6733 C   0  0  0  0  0  0
   12.3692  -12.2549   21.6285 C   0  0  0  0  0  0
   13.4257  -10.0998   21.8043 C   0  0  0  0  0  0
   10.8158  -11.6598   23.9214 N   0  0  0  0  0  0
   14.1595  -11.6647   20.1220 C   0  0  0  0  0  0
   19.9609  -12.2483   17.7191 C   0  0  0  0  0  0
   23.1376  -14.0818   23.9716 C   0  0  0  0  0  0
   14.2676  -10.4249   20.7487 C   0  0  0  0  0  0
   13.1987  -12.5762   20.5575 C   0  0  0  0  0  0
   18.6959  -14.9459   24.7482 C   0  0  0  0  0  0
   20.3844  -13.1386   24.9673 C   0  0  0  0  0  0
   24.3278  -16.4438   25.2523 C   0  0  2  0  0  0
   24.1460  -13.9383   25.1216 C   0  0  0  0  0  0
   25.1147  -15.1304   25.1212 C   0  0  0  0  0  0
   25.2649  -17.6639   25.2723 C   0  0  0  0  0  0
   17.5611  -13.5301   22.8977 H   0  0  0  0  0  0
   21.3361  -13.1287   19.7173 H   0  0  0  0  0  0
   15.0389  -11.2094   18.2531 H   0  0  0  0  0  0
   14.7168  -12.8977   18.4509 H   0  0  0  0  0  0
   23.7675  -16.6356   23.1539 H   0  0  0  0  0  0
   22.7243  -17.4874   24.3049 H   0  0  0  0  0  0
   10.9587   -9.4121   24.6923 H   0  0  0  0  0  0
   21.7419  -13.9609   21.8973 H   0  0  0  0  0  0
   11.6450  -12.9973   21.9337 H   0  0  0  0  0  0
   13.5483   -9.1317   22.2702 H   0  0  0  0  0  0
   10.0795  -11.4531   24.5903 H   0  0  0  0  0  0
   10.8275  -12.5867   23.5204 H   0  0  0  0  0  0
   19.6236  -12.0212   16.7079 H   0  0  0  0  0  0
   20.6378  -11.4526   18.0298 H   0  0  0  0  0  0
   20.5448  -13.1657   17.6591 H   0  0  0  0  0  0
   22.5322  -13.1910   23.8675 H   0  0  0  0  0  0
   23.6988  -14.1621   23.0440 H   0  0  0  0  0  0
   15.0212   -9.7190   20.4345 H   0  0  0  0  0  0
   13.1001  -13.5408   20.0808 H   0  0  0  0  0  0
   18.2223  -15.7136   24.1337 H   0  0  0  0  0  0
   18.9273  -15.4030   25.7124 H   0  0  0  0  0  0
   17.9303  -14.1955   24.9463 H   0  0  0  0  0  0
   20.8159  -12.3181   24.4003 H   0  0  0  0  0  0
   19.5286  -12.6786   25.4617 H   0  0  0  0  0  0
   21.0705  -13.4183   25.7667 H   0  0  0  0  0  0
   23.7868  -16.4141   26.2007 H   0  0  0  0  0  0
   23.6176  -13.8532   26.0721 H   0  0  0  0  0  0
   24.7065  -13.0109   25.0032 H   0  0  0  0  0  0
   25.8543  -15.0595   25.9156 H   0  0  0  0  0  0
   25.7075  -15.1372   24.2041 H   0  0  0  0  0  0
   25.8362  -17.7474   24.3462 H   0  0  0  0  0  0
   24.7031  -18.5898   25.4014 H   0  0  0  0  0  0
   25.9790  -17.5990   26.0944 H   0  0  0  0  0  0
  1  2  1  0  0  0
  1  8  1  0  0  0
  1 25  1  0  0  0
  2  4  1  0  0  0
  2 16  2  0  0  0
  3  6  1  0  0  0
  3  4  2  0  0  0
  4 14  1  0  0  0
  5  9  1  0  0  0
  5  7  1  0  0  0
  5 19  2  0  0  0
  6  8  1  0  0  0
  6 11  2  0  0  0
  7 15  1  0  0  0
  7 26  1  0  0  0
  8 13  2  0  0  0
  9 10  1  0  0  0
  9 29  1  0  0  0
  9 30  1  0  0  0
 10 20  2  0  0  0
 10 11  1  0  0  0
 11 35  1  0  0  0
 12 17  1  0  0  0
 12 18  2  0  0  0
 12 23  1  0  0  0
 13 20  1  0  0  0
 13 36  1  0  0  0
 14 24  1  0  0  0
 14 37  1  0  0  0
 14 38  1  0  0  0
 15 31  1  0  0  0
 15 39  1  0  0  0
 15 40  1  0  0  0
 17 21  2  0  0  0
 17 22  1  0  0  0
 18 41  1  0  0  0
 20 42  1  0  0  0
 21 28  1  0  0  0
 21 43  1  0  0  0
 22 27  2  0  0  0
 22 44  1  0  0  0
 23 45  1  0  0  0
 23 46  1  0  0  0
 24 27  1  0  0  0
 24 28  2  0  0  0
 25 47  1  0  0  0
 25 48  1  0  0  0
 25 49  1  0  0  0
 26 32  1  0  0  0
 26 50  1  0  0  0
 26 51  1  0  0  0
 27 52  1  0  0  0
 28 53  1  0  0  0
 29 54  1  0  0  0
 29 55  1  0  0  0
 29 56  1  0  0  0
 30 57  1  0  0  0
 30 58  1  0  0  0
 30 59  1  0  0  0
 31 34  1  0  0  0
 31 33  1  0  0  0
 31 60  1  0  0  0
 32 33  1  0  0  0
 32 61  1  0  0  0
 32 62  1  0  0  0
 33 63  1  0  0  0
 33 64  1  0  0  0
 34 65  1  0  0  0
 34 66  1  0  0  0
 34 67  1  0  0  0
M  END
> <s_m_entry_id>
35422

> <s_m_entry_name>
dock_pv.272

> <s_m_Source_Path>
/home/csk/Desktop/cluster/DUD-E-result/thrb

> <s_m_Source_File>
dock_pv.maegz

> <i_m_Source_File_Index>
272

> <chembl_id>
CHEMBL73313

> <chembl_pref_name>
None

> <i_lp_mmshare_version>
53161

> <r_lp_tautomer_probability>
1

> <s_lp_Force_Field>
OPLS_2005

> <r_lp_Energy>
57.887603

> <b_lp_Chiralities_Consistent>
1

> <s_lp_Variant>
CHEMBL204_lig535-2

> <s_i_glide_gridfile>
glide-grid_1ype

> <i_i_glide_lignum>
739

> <i_i_glide_rotatable_bonds>
6

> <r_i_docking_score>
-7.15131654054509

> <r_i_glide_ligand_efficiency>
-0.210332839427797

> <r_i_glide_ligand_efficiency_sa>
-0.681396748005542

> <r_i_glide_ligand_efficiency_ln>
-1.57992641144102

> <r_i_glide_gscore>
-7.15131654054509

> <r_i_glide_lipo>
-3.49652164305615

> <r_i_glide_hbond>
-0.0999167632260233

> <r_i_glide_metal>
0

> <r_i_glide_rewards>
-0.617803651760589

> <r_i_glide_evdw>
-50.1913414001465

> <r_i_glide_ecoul>
-5.5317440032959

> <r_i_glide_erotb>
0.476329240099616

> <r_i_glide_esite>
-0.0740750521002306

> <r_i_glide_emodel>
-76.7460729139894

> <r_i_glide_energy>
-55.7230854034424

> <r_i_glide_einternal>
9.50940322875977

> <i_i_glide_confnum>
1

> <i_i_glide_posenum>
189

> <r_i_glide_eff_state_penalty>
0

> <s_user_duplicate_titles>
CHEMBL204_lig535

> <i_f3d_flags>
0

> <s_m_subgroup_title>
dock_pv

> <s_m_subgroupid>
dock_pv

> <b_m_subgroup_collapsed>
1

$$$$
CHEMBL204_lig1746
                    3D
 Schrodinger Suite 2021-1.
 72 77  0  0  1  0            999 V2000
   11.5814  -10.9207   23.2627 C   0  0  0  0  0  0
   12.3633  -11.4530   22.1181 C   0  0  0  0  0  0
   12.6961  -10.6122   21.0429 C   0  0  0  0  0  0
   13.4047  -11.0952   19.9478 C   0  0  0  0  0  0
   13.8383  -12.4193   19.9168 C   0  0  0  0  0  0
   13.5224  -13.2698   20.9755 C   0  0  0  0  0  0
   12.7864  -12.7924   22.0567 C   0  0  0  0  0  0
   11.6160   -9.6986   23.5541 N   0  0  0  0  0  0
   10.8160  -11.8530   23.9202 N   0  0  0  0  0  0
   14.6548  -12.9293   18.7325 C   0  0  0  0  0  0
   17.0648  -12.5121   19.6007 C   0  0  0  0  0  0
   16.0057  -12.1966   18.5294 C   0  0  1  0  0  0
   18.4106  -12.4549   19.2842 N   0  0  0  0  0  0
   16.5767  -12.4603   17.1993 N   0  0  2  0  0  0
   17.8140  -11.7035   17.0037 C   0  0  0  0  0  0
   18.9503  -12.1670   17.9588 C   0  0  0  0  0  0
   16.8558  -12.8111   20.8630 N   0  0  0  0  0  0
   18.1006  -13.0458   21.3778 C   0  0  0  0  0  0
   19.1033  -12.8453   20.4064 C   0  0  0  0  0  0
   20.4564  -13.0481   20.6754 C   0  0  0  0  0  0
   20.7797  -13.4544   21.9691 C   0  0  0  0  0  0
   19.8154  -13.6897   22.9652 C   0  0  0  0  0  0
   18.4592  -13.4526   22.6668 C   0  0  0  0  0  0
   20.2291  -14.1134   24.4063 C   0  0  0  0  0  0
   20.2940  -12.8342   25.3116 C   0  0  0  0  0  0
   21.5221  -12.9607   26.2297 C   0  0  0  0  0  0
   22.0437  -14.3801   26.0424 C   0  0  0  0  0  0
   21.6610  -14.7131   24.6028 C   0  0  0  0  0  0
   19.2065  -15.1795   24.9859 C   0  0  0  0  0  0
   18.6931  -14.9606   26.0886 O   0  0  0  0  0  0
   18.8276  -16.2751   24.2616 N   0  0  0  0  0  0
   19.5326  -16.7795   23.0615 C   0  0  0  0  0  0
   18.4961  -16.9179   21.9205 C   0  0  0  0  0  0
   17.2639  -17.7462   22.3248 C   0  0  0  0  0  0
   16.6798  -17.2388   23.6540 C   0  0  0  0  0  0
   17.7531  -17.1622   24.7606 C   0  0  0  0  0  0
   12.3765   -9.5793   21.0366 H   0  0  0  0  0  0
   13.6162  -10.4353   19.1232 H   0  0  0  0  0  0
   13.8509  -14.2993   20.9727 H   0  0  0  0  0  0
   12.5690  -13.4755   22.8643 H   0  0  0  0  0  0
   11.0000   -9.5039   24.3305 H   0  0  0  0  0  0
   10.1074  -11.5537   24.5831 H   0  0  0  0  0  0
   10.7894  -12.8195   23.6085 H   0  0  0  0  0  0
   14.0296  -12.8119   17.8466 H   0  0  0  0  0  0
   14.8323  -14.0033   18.8234 H   0  0  0  0  0  0
   15.8043  -11.1244   18.5671 H   0  0  0  0  0  0
   15.8944  -12.2203   16.4910 H   0  0  0  0  0  0
   18.1247  -11.7760   15.9609 H   0  0  0  0  0  0
   17.5742  -10.6530   17.1723 H   0  0  0  0  0  0
   19.7631  -11.4531   18.0527 H   0  0  0  0  0  0
   19.4478  -13.0530   17.5986 H   0  0  0  0  0  0
   21.2222  -12.8951   19.9292 H   0  0  0  0  0  0
   21.8304  -13.5899   22.1601 H   0  0  0  0  0  0
   17.6896  -13.6014   23.4096 H   0  0  0  0  0  0
   20.4132  -11.9308   24.7120 H   0  0  0  0  0  0
   19.3930  -12.6570   25.8997 H   0  0  0  0  0  0
   22.2908  -12.2530   25.9211 H   0  0  0  0  0  0
   21.2825  -12.7442   27.2704 H   0  0  0  0  0  0
   23.1155  -14.4611   26.2316 H   0  0  0  0  0  0
   21.5301  -15.0603   26.7207 H   0  0  0  0  0  0
   21.7478  -15.7818   24.4019 H   0  0  0  0  0  0
   22.4109  -14.2252   23.9854 H   0  0  0  0  0  0
   19.9321  -17.7637   23.3088 H   0  0  0  0  0  0
   20.3715  -16.1650   22.7423 H   0  0  0  0  0  0
   18.9741  -17.3726   21.0527 H   0  0  0  0  0  0
   18.1782  -15.9312   21.5854 H   0  0  0  0  0  0
   16.5071  -17.7064   21.5399 H   0  0  0  0  0  0
   17.5478  -18.7952   22.4287 H   0  0  0  0  0  0
   16.2243  -16.2543   23.5183 H   0  0  0  0  0  0
   15.8734  -17.8983   23.9769 H   0  0  0  0  0  0
   18.1859  -18.1485   24.9326 H   0  0  0  0  0  0
   17.3160  -16.8407   25.7079 H   0  0  0  0  0  0
  1  2  1  0  0  0
  1  8  2  0  0  0
  1  9  1  0  0  0
  2  3  1  0  0  0
  2  7  2  0  0  0
  3  4  2  0  0  0
  3 37  1  0  0  0
  4  5  1  0  0  0
  4 38  1  0  0  0
  5  6  2  0  0  0
  5 10  1  0  0  0
  6  7  1  0  0  0
  6 39  1  0  0  0
  7 40  1  0  0  0
  8 41  1  0  0  0
  9 42  1  0  0  0
  9 43  1  0  0  0
 10 12  1  0  0  0
 10 44  1  0  0  0
 10 45  1  0  0  0
 11 12  1  0  0  0
 11 13  1  0  0  0
 11 17  2  0  0  0
 12 14  1  0  0  0
 12 46  1  0  0  0
 13 16  1  0  0  0
 13 19  1  0  0  0
 14 15  1  0  0  0
 14 47  1  0  0  0
 15 16  1  0  0  0
 15 48  1  0  0  0
 15 49  1  0  0  0
 16 50  1  0  0  0
 16 51  1  0  0  0
 17 18  1  0  0  0
 18 19  1  0  0  0
 18 23  2  0  0  0
 19 20  2  0  0  0
 20 21  1  0  0  0
 20 52  1  0  0  0
 21 22  2  0  0  0
 21 53  1  0  0  0
 22 23  1  0  0  0
 22 24  1  0  0  0
 23 54  1  0  0  0
 24 25  1  0  0  0
 24 28  1  0  0  0
 24 29  1  0  0  0
 25 26  1  0  0  0
 25 55  1  0  0  0
 25 56  1  0  0  0
 26 27  1  0  0  0
 26 57  1  0  0  0
 26 58  1  0  0  0
 27 28  1  0  0  0
 27 59  1  0  0  0
 27 60  1  0  0  0
 28 61  1  0  0  0
 28 62  1  0  0  0
 29 30  2  0  0  0
 29 31  1  0  0  0
 31 32  1  0  0  0
 31 36  1  0  0  0
 32 33  1  0  0  0
 32 63  1  0  0  0
 32 64  1  0  0  0
 33 34  1  0  0  0
 33 65  1  0  0  0
 33 66  1  0  0  0
 34 35  1  0  0  0
 34 67  1  0  0  0
 34 68  1  0  0  0
 35 36  1  0  0  0
 35 69  1  0  0  0
 35 70  1  0  0  0
 36 71  1  0  0  0
 36 72  1  0  0  0
M  END
> <s_m_entry_id>
35423

> <s_m_entry_name>
dock_pv.273

> <s_m_Source_Path>
/home/csk/Desktop/cluster/DUD-E-result/thrb

> <s_m_Source_File>
dock_pv.maegz

> <i_m_Source_File_Index>
273

> <chembl_id>
CHEMBL3977163

> <chembl_pref_name>
None

> <i_lp_mmshare_version>
53161

> <r_lp_tautomer_probability>
1

> <s_lp_Force_Field>
OPLS_2005

> <r_lp_Energy>
66.805338

> <b_lp_Chiralities_Consistent>
1

> <s_lp_Variant>
CHEMBL204_lig1746-2

> <s_i_glide_gridfile>
glide-grid_1ype

> <i_i_glide_lignum>
2530

> <i_i_glide_rotatable_bonds>
6

> <r_i_docking_score>
-7.15104784177113

> <r_i_glide_ligand_efficiency>
-0.198640217826976

> <r_i_glide_ligand_efficiency_sa>
-0.655895547185784

> <r_i_glide_ligand_efficiency_ln>
-1.56016544008867

> <r_i_glide_gscore>
-7.15104784177113

> <r_i_glide_lipo>
-3.50922144191351

> <r_i_glide_hbond>
-0.413499509501921

> <r_i_glide_metal>
0

> <r_i_glide_rewards>
-0.753857126426404

> <r_i_glide_evdw>
-46.7136001586914

> <r_i_glide_ecoul>
-3.09860301017761

> <r_i_glide_erotb>
0.432349826499814

> <r_i_glide_esite>
-0.106349130967896

> <r_i_glide_emodel>
-60.7901463613653

> <r_i_glide_energy>
-49.812203168869

> <r_i_glide_einternal>
14.1333589553833

> <i_i_glide_confnum>
3

> <i_i_glide_posenum>
95

> <r_i_glide_eff_state_penalty>
0

> <s_user_duplicate_titles>
CHEMBL204_lig1746

> <i_f3d_flags>
0

> <s_m_subgroup_title>
dock_pv

> <s_m_subgroupid>
dock_pv

> <b_m_subgroup_collapsed>
1

$$$$
CHEMBL204_lig2173
                    3D
 Schrodinger Suite 2021-1.
 48 49  0  0  1  0            999 V2000
   11.3722  -10.7186   23.6866 C   0  0  0  0  0  0
   12.3941  -10.8416   22.6058 C   0  0  0  0  0  0
   12.7970  -12.0792   22.0560 C   0  0  0  0  0  0
   13.7985  -12.1668   21.0766 C   0  0  0  0  0  0
   12.3236  -15.1176   19.7454 C   0  0  0  0  0  0
   14.2679  -13.5478   20.5792 C   0  0  1  0  0  0
   11.2161   -9.6406   24.3199 N   0  0  0  0  0  0
   13.3788  -14.0557   19.4024 C   0  0  0  0  0  0
   12.3034  -15.7138   20.8245 O   0  0  0  0  0  0
   15.7704  -13.6003   20.1786 C   0  0  0  0  0  0
   10.6391  -11.8529   23.9211 N   0  0  0  0  0  0
   16.7526  -13.2596   21.3213 C   0  0  0  0  0  0
   11.4611  -15.3111   18.7217 O   0  0  0  0  0  0
   18.1935  -13.1611   20.8392 C   0  0  0  0  0  0
   13.0222   -9.6853   22.1087 C   0  0  0  0  0  0
   14.3758  -10.9843   20.6037 C   0  0  0  0  0  0
   13.9969   -9.7534   21.1208 C   0  0  0  0  0  0
   10.4421  -16.3055   18.7802 C   0  0  0  0  0  0
   18.6859  -11.9396   20.3760 C   0  0  0  0  0  0
   19.0173  -14.2894   20.8519 C   0  0  0  0  0  0
   10.9686  -17.6730   18.3237 C   0  0  0  0  0  0
   19.9983  -11.8495   19.9210 C   0  0  0  0  0  0
   20.3310  -14.1960   20.3990 C   0  0  0  0  0  0
   20.8142  -12.9756   19.9327 C   0  0  0  0  0  0
   12.3638  -13.0035   22.4139 H   0  0  0  0  0  0
   14.1982  -14.2272   21.4330 H   0  0  0  0  0  0
   10.4523   -9.7289   24.9823 H   0  0  0  0  0  0
   12.8935  -13.2187   18.9013 H   0  0  0  0  0  0
   14.0091  -14.5235   18.6459 H   0  0  0  0  0  0
   16.0060  -14.6064   19.8276 H   0  0  0  0  0  0
   15.9555  -12.9542   19.3195 H   0  0  0  0  0  0
    9.8269  -11.8002   24.5367 H   0  0  0  0  0  0
   10.8170  -12.7423   23.4670 H   0  0  0  0  0  0
   16.4859  -12.3180   21.8023 H   0  0  0  0  0  0
   16.6812  -14.0074   22.1124 H   0  0  0  0  0  0
   12.7558   -8.7089   22.4918 H   0  0  0  0  0  0
   15.1395  -11.0022   19.8410 H   0  0  0  0  0  0
   14.4662   -8.8486   20.7638 H   0  0  0  0  0  0
   10.0161  -16.3769   19.7829 H   0  0  0  0  0  0
    9.6323  -15.9976   18.1199 H   0  0  0  0  0  0
   18.0553  -11.0611   20.3730 H   0  0  0  0  0  0
   18.6407  -15.2381   21.2091 H   0  0  0  0  0  0
   10.1642  -18.4090   18.3071 H   0  0  0  0  0  0
   11.3817  -17.6158   17.3158 H   0  0  0  0  0  0
   11.7472  -18.0409   18.9923 H   0  0  0  0  0  0
   20.3907  -10.9080   19.5724 H   0  0  0  0  0  0
   20.9770  -15.0634   20.4078 H   0  0  0  0  0  0
   21.8327  -12.8985   19.5809 H   0  0  0  0  0  0
  1  2  1  0  0  0
  1  7  2  0  0  0
  1 11  1  0  0  0
  2  3  2  0  0  0
  2 15  1  0  0  0
  3  4  1  0  0  0
  3 25  1  0  0  0
  4  6  1  0  0  0
  4 16  2  0  0  0
  5  8  1  0  0  0
  5  9  2  0  0  0
  5 13  1  0  0  0
  6  8  1  0  0  0
  6 10  1  0  0  0
  6 26  1  0  0  0
  7 27  1  0  0  0
  8 28  1  0  0  0
  8 29  1  0  0  0
 10 12  1  0  0  0
 10 30  1  0  0  0
 10 31  1  0  0  0
 11 32  1  0  0  0
 11 33  1  0  0  0
 12 14  1  0  0  0
 12 34  1  0  0  0
 12 35  1  0  0  0
 13 18  1  0  0  0
 14 19  1  0  0  0
 14 20  2  0  0  0
 15 17  2  0  0  0
 15 36  1  0  0  0
 16 17  1  0  0  0
 16 37  1  0  0  0
 17 38  1  0  0  0
 18 21  1  0  0  0
 18 39  1  0  0  0
 18 40  1  0  0  0
 19 22  2  0  0  0
 19 41  1  0  0  0
 20 23  1  0  0  0
 20 42  1  0  0  0
 21 43  1  0  0  0
 21 44  1  0  0  0
 21 45  1  0  0  0
 22 24  1  0  0  0
 22 46  1  0  0  0
 23 24  2  0  0  0
 23 47  1  0  0  0
 24 48  1  0  0  0
M  END
> <s_m_entry_id>
35424

> <s_m_entry_name>
dock_pv.274

> <s_m_Source_Path>
/home/csk/Desktop/cluster/DUD-E-result/thrb

> <s_m_Source_File>
dock_pv.maegz

> <i_m_Source_File_Index>
274

> <chembl_id>
CHEMBL435638

> <chembl_pref_name>
None

> <i_lp_mmshare_version>
53161

> <r_lp_tautomer_probability>
1

> <s_lp_Force_Field>
OPLS_2005

> <r_lp_Energy>
7.048026

> <b_lp_Chiralities_Consistent>
1

> <s_lp_Variant>
CHEMBL204_lig2173-2

> <s_i_glide_gridfile>
glide-grid_1ype

> <i_i_glide_lignum>
3188

> <i_i_glide_rotatable_bonds>
9

> <r_i_docking_score>
-7.1480156647934

> <r_i_glide_ligand_efficiency>
-0.297833986033058

> <r_i_glide_ligand_efficiency_sa>
-0.859101875848151

> <r_i_glide_ligand_efficiency_ln>
-1.71084814965108

> <r_i_glide_gscore>
-7.1480156647934

> <r_i_glide_lipo>
-3.09378149775013

> <r_i_glide_hbond>
-0.50744018646509

> <r_i_glide_metal>
0

> <r_i_glide_rewards>
-1.58268231202282

> <r_i_glide_evdw>
-38.4155502319336

> <r_i_glide_ecoul>
-6.67688274383545

> <r_i_glide_erotb>
1.06763186266448

> <r_i_glide_esite>
-0.10943360804784

> <r_i_glide_emodel>
-63.0043342171595

> <r_i_glide_energy>
-45.092432975769

> <r_i_glide_einternal>
5.26968431472778

> <i_i_glide_confnum>
63

> <i_i_glide_posenum>
80

> <r_i_glide_eff_state_penalty>
0

> <s_user_duplicate_titles>
CHEMBL204_lig2173

> <i_f3d_flags>
0

> <s_m_subgroup_title>
dock_pv

> <s_m_subgroupid>
dock_pv

> <b_m_subgroup_collapsed>
1

$$$$
CHEMBL204_lig4541
                    3D
 Schrodinger Suite 2021-1.
 77 81  0  0  1  0            999 V2000
   16.4776  -15.0189   21.0059 C   0  0  1  0  0  0
   15.4961  -15.9967   21.6849 C   0  0  0  0  0  0
   16.3529  -16.8402   22.6183 C   0  0  0  0  0  0
   15.9265  -13.5794   20.9261 C   0  0  0  0  0  0
   15.6839  -13.1121   19.6908 N   0  0  0  0  0  0
   15.7085  -12.9167   21.9393 O   0  0  0  0  0  0
   15.0234  -11.8454   19.3315 C   0  0  2  0  0  0
   13.5462  -11.9880   19.7236 C   0  0  0  0  0  0
   15.2794  -11.5031   17.8229 C   0  0  2  0  0  0
   12.8232  -12.7843   19.1209 O   0  0  0  0  0  0
   13.0085  -11.3069   20.9056 C   0  0  0  0  0  0
   13.6166   -9.7791   21.4864 S   0  0  0  0  0  0
   12.0313  -11.7792   21.6317 N   0  0  0  0  0  0
   17.7240  -15.1216   21.7861 N   0  0  0  0  0  0
   17.4768  -15.8925   23.0279 C   0  0  2  0  0  0
   18.7539  -16.5552   23.5627 C   0  0  0  0  0  0
   19.8448  -15.5696   23.5490 N   0  0  1  0  0  0
   20.2019  -15.1734   22.1578 C   0  0  0  0  0  0
   18.9559  -14.6832   21.3625 C   0  0  0  0  0  0
   19.0856  -14.0385   20.3206 O   0  0  0  0  0  0
   17.0839  -15.2022   23.7745 H   0  0  0  0  0  0
   15.1152  -12.6678   16.8089 C   0  0  0  0  0  0
   16.7402  -11.0232   17.6617 C   0  0  0  0  0  0
   16.9849  -10.4303   16.2663 C   0  0  0  0  0  0
   16.6997  -11.4850   15.1719 C   0  0  1  0  0  0
   15.3131  -12.1512   15.3626 C   0  0  0  0  0  0
   16.9306  -10.9889   13.8280 N   0  0  0  0  0  0
   19.7354  -14.2690   24.7669 S   0  0  0  0  0  0
   21.1799  -14.6814   25.9081 C   0  0  0  0  0  0
   20.0171  -12.9860   24.1152 O   0  0  0  0  0  0
   18.5151  -14.4578   25.5586 O   0  0  0  0  0  0
   22.5253  -14.6808   25.2023 C   0  0  0  0  0  0
   23.2384  -13.4884   25.0691 C   0  0  0  0  0  0
   24.4715  -13.4859   24.4196 C   0  0  0  0  0  0
   24.9957  -14.6797   23.9280 C   0  0  0  0  0  0
   24.2854  -15.8726   24.0526 C   0  0  0  0  0  0
   23.0451  -15.8709   24.6879 C   0  0  0  0  0  0
   15.4833  -11.0524   19.9225 H   0  0  0  0  0  0
   14.5985  -10.6930   17.5431 H   0  0  0  0  0  0
   12.4563   -9.8322   22.8012 C   0  0  0  0  0  0
   11.7278  -11.0313   22.6694 C   0  0  0  0  0  0
   10.6412  -11.6264   23.5257 C   0  0  0  0  0  0
   12.4145   -8.7950   23.8233 C   0  0  0  0  0  0
   11.4130   -8.9847   24.7207 O   0  0  0  0  0  0
   13.2151   -7.8650   23.9196 O   0  0  0  0  0  0
   16.6790  -15.3173   19.9748 H   0  0  0  0  0  0
   14.7630  -15.4734   22.3028 H   0  0  0  0  0  0
   14.9497  -16.6062   20.9652 H   0  0  0  0  0  0
   15.8061  -17.2228   23.4813 H   0  0  0  0  0  0
   16.7622  -17.7037   22.0922 H   0  0  0  0  0  0
   15.9283  -13.6963   18.9020 H   0  0  0  0  0  0
   18.6762  -17.0120   24.5495 H   0  0  0  0  0  0
   19.0459  -17.3692   22.8961 H   0  0  0  0  0  0
   20.6140  -16.0257   21.6182 H   0  0  0  0  0  0
   20.9561  -14.3856   22.1846 H   0  0  0  0  0  0
   15.7951  -13.4915   17.0316 H   0  0  0  0  0  0
   14.1272  -13.1206   16.9052 H   0  0  0  0  0  0
   16.9187  -10.2539   18.4060 H   0  0  0  0  0  0
   17.4558  -11.8110   17.9121 H   0  0  0  0  0  0
   16.3457   -9.5591   16.1307 H   0  0  0  0  0  0
   18.0137  -10.0824   16.2003 H   0  0  0  0  0  0
   17.4250  -12.2830   15.3414 H   0  0  0  0  0  0
   14.5213  -11.4339   15.1386 H   0  0  0  0  0  0
   15.2160  -12.9854   14.6668 H   0  0  0  0  0  0
   16.6187  -11.6795   13.1570 H   0  0  0  0  0  0
   16.3607  -10.1698   13.6550 H   0  0  0  0  0  0
   21.1605  -13.9589   26.7220 H   0  0  0  0  0  0
   20.9706  -15.6681   26.3193 H   0  0  0  0  0  0
   22.8405  -12.5771   25.4828 H   0  0  0  0  0  0
   25.0324  -12.5686   24.3213 H   0  0  0  0  0  0
   25.9683  -14.6785   23.4562 H   0  0  0  0  0  0
   24.6963  -16.7971   23.6699 H   0  0  0  0  0  0
   22.4934  -16.7947   24.7872 H   0  0  0  0  0  0
   11.0280  -12.2454   24.3290 H   0  0  0  0  0  0
    9.9675  -12.2621   22.9535 H   0  0  0  0  0  0
   10.0059  -10.8610   23.9424 H   0  0  0  0  0  0
   10.8682   -9.7529   24.5281 H   0  0  0  0  0  0
  1 14  1  0  0  0
  1  4  1  0  0  0
  1  2  1  0  0  0
  1 46  1  0  0  0
  2  3  1  0  0  0
  2 47  1  0  0  0
  2 48  1  0  0  0
  3 15  1  0  0  0
  3 49  1  0  0  0
  3 50  1  0  0  0
  4  5  1  0  0  0
  4  6  2  0  0  0
  5  7  1  0  0  0
  5 51  1  0  0  0
  7  9  1  0  0  0
  7 38  1  0  0  0
  7  8  1  0  0  0
  8 11  1  0  0  0
  8 10  2  0  0  0
  9 22  1  0  0  0
  9 23  1  0  0  0
  9 39  1  0  0  0
 11 12  1  0  0  0
 11 13  2  0  0  0
 12 40  1  0  0  0
 13 41  1  0  0  0
 14 15  1  0  0  0
 14 19  1  0  0  0
 15 21  1  0  0  0
 15 16  1  0  0  0
 16 17  1  0  0  0
 16 52  1  0  0  0
 16 53  1  0  0  0
 17 28  1  0  0  0
 17 18  1  0  0  0
 18 19  1  0  0  0
 18 54  1  0  0  0
 18 55  1  0  0  0
 19 20  2  0  0  0
 22 26  1  0  0  0
 22 56  1  0  0  0
 22 57  1  0  0  0
 23 24  1  0  0  0
 23 58  1  0  0  0
 23 59  1  0  0  0
 24 25  1  0  0  0
 24 60  1  0  0  0
 24 61  1  0  0  0
 25 26  1  0  0  0
 25 27  1  0  0  0
 25 62  1  0  0  0
 26 63  1  0  0  0
 26 64  1  0  0  0
 27 65  1  0  0  0
 27 66  1  0  0  0
 28 29  1  0  0  0
 28 30  2  0  0  0
 28 31  2  0  0  0
 29 32  1  0  0  0
 29 67  1  0  0  0
 29 68  1  0  0  0
 32 33  2  0  0  0
 32 37  1  0  0  0
 33 34  1  0  0  0
 33 69  1  0  0  0
 34 35  2  0  0  0
 34 70  1  0  0  0
 35 36  1  0  0  0
 35 71  1  0  0  0
 36 37  2  0  0  0
 36 72  1  0  0  0
 37 73  1  0  0  0
 40 41  2  0  0  0
 40 43  1  0  0  0
 41 42  1  0  0  0
 42 74  1  0  0  0
 42 75  1  0  0  0
 42 76  1  0  0  0
 43 44  1  0  0  0
 43 45  2  0  0  0
 44 77  1  0  0  0
M  END
> <s_m_entry_id>
35425

> <s_m_entry_name>
dock_pv.275

> <s_m_Source_Path>
/home/csk/Desktop/cluster/DUD-E-result/thrb

> <s_m_Source_File>
dock_pv.maegz

> <i_m_Source_File_Index>
275

> <chembl_id>
CHEMBL271046

> <chembl_pref_name>
None

> <i_lp_mmshare_version>
53161

> <r_lp_tautomer_probability>
0.99990000499975

> <s_lp_Force_Field>
OPLS_2005

> <r_lp_Energy>
20.534725

> <b_lp_Chiralities_Consistent>
1

> <s_lp_Variant>
CHEMBL204_lig4541-1

> <s_i_glide_gridfile>
glide-grid_1ype

> <i_i_glide_lignum>
6209

> <i_i_glide_rotatable_bonds>
11

> <r_i_docking_score>
-7.14789489338857

> <r_i_glide_ligand_efficiency>
-0.170187973652109

> <r_i_glide_ligand_efficiency_sa>
-0.591577930316922

> <r_i_glide_ligand_efficiency_ln>
-1.50873646102375

> <r_i_glide_gscore>
-7.14789489338857

> <r_i_glide_lipo>
-2.2711346304339

> <r_i_glide_hbond>
-0.116701691188326

> <r_i_glide_metal>
0

> <r_i_glide_rewards>
-1.23983293217349

> <r_i_glide_evdw>
-59.464527130127

> <r_i_glide_ecoul>
-6.46305799484253

> <r_i_glide_erotb>
0.422459416139869

> <r_i_glide_esite>
0

> <r_i_glide_emodel>
-83.6838197550126

> <r_i_glide_energy>
-65.9275851249695

> <r_i_glide_einternal>
15.7390241622925

> <i_i_glide_confnum>
43

> <i_i_glide_posenum>
210

> <r_i_glide_eff_state_penalty>
0

> <s_user_duplicate_titles>
CHEMBL204_lig4541

> <i_f3d_flags>
0

> <s_m_subgroup_title>
dock_pv

> <s_m_subgroupid>
dock_pv

> <b_m_subgroup_collapsed>
1

$$$$
CHEMBL204_lig1987
                    3D
 Schrodinger Suite 2021-1.
 85 90  0  0  1  0            999 V2000
   19.5233  -14.1595   20.8874 C   0  0  1  0  0  0
   17.8061  -15.0489   22.0599 B   0  0  0  0  0  0
   13.6403  -12.7984   19.0668 N   0  0  0  0  0  0
   13.5831  -14.8129   19.9012 N   0  0  0  0  0  0
   18.5439  -15.1837   20.9131 O   0  0  0  0  0  0
   14.3819  -14.8995   18.8340 N   0  0  0  0  0  0
   14.3704  -13.6656   18.3723 C   0  0  0  0  0  0
   19.5301  -13.5529   19.4403 C   0  0  2  0  0  0
   13.1674  -13.5140   20.0564 C   0  0  0  0  0  0
   18.9964  -13.1350   21.9453 C   0  0  2  0  0  0
   17.9940  -13.8323   22.6608 O   0  0  0  0  0  0
   20.0746  -12.1050   19.2970 C   0  0  0  0  0  0
   18.6583  -11.6726   19.8031 C   0  0  1  0  0  0
   13.2815  -16.0061   20.7000 C   0  0  0  0  0  0
   18.1339  -12.9459   19.1138 C   0  0  0  0  0  0
   16.7104  -16.0878   22.5013 C   0  0  1  0  0  0
   15.5826  -15.9089   21.5891 N   0  0  0  0  0  0
   14.3392  -16.3895   21.7461 C   0  0  0  0  0  0
   18.4222  -11.8079   21.3403 C   0  0  0  0  0  0
   15.0874  -13.2759   17.1151 C   0  0  0  0  0  0
   12.1926  -13.0482   21.1297 C   0  0  0  0  0  0
   15.4340  -11.9390   16.8696 C   0  0  0  0  0  0
   14.0165  -17.1186   22.6842 O   0  0  0  0  0  0
   20.8190  -14.9024   21.2857 C   0  0  0  0  0  0
   16.0589  -11.5742   15.6771 C   0  0  0  0  0  0
   12.3666  -11.6899   21.8185 C   0  0  0  0  0  0
   16.3800  -10.2426   15.4389 N   0  0  0  0  0  0
   21.3010  -11.7246   20.1520 C   0  0  0  0  0  0
   20.4199  -11.7685   17.8128 C   0  0  0  0  0  0
   20.5445  -16.7917   25.5198 N   0  0  0  0  0  0
   17.2520  -17.5390   22.5368 C   0  0  0  0  0  0
   15.3972  -14.2398   16.1457 C   0  0  0  0  0  0
   16.0164  -13.8754   14.9509 C   0  0  0  0  0  0
   16.3469  -12.5414   14.7161 C   0  0  0  0  0  0
   19.4502  -17.6894   25.8492 C   0  0  0  0  0  0
   13.2336  -10.6839   21.3662 C   0  0  0  0  0  0
   11.5670  -11.4434   22.9383 C   0  0  0  0  0  0
   18.4770  -17.7607   23.4507 C   0  0  0  0  0  0
   18.2351  -17.4271   24.9407 C   0  0  0  0  0  0
   13.2772   -9.4530   22.0154 C   0  0  0  0  0  0
   11.6154  -10.2186   23.5914 C   0  0  0  0  0  0
   12.4648   -9.2230   23.1203 C   0  0  0  0  0  0
   19.7598  -12.8896   22.6839 H   0  0  0  0  0  0
   18.2567  -10.7073   19.4741 H   0  0  0  0  0  0
   19.9764  -14.2524   18.7376 H   0  0  0  0  0  0
   13.1640  -16.8431   20.0118 H   0  0  0  0  0  0
   12.3162  -15.8696   21.1888 H   0  0  0  0  0  0
   17.2478  -13.4232   19.5354 H   0  0  0  0  0  0
   17.8937  -12.8569   18.0549 H   0  0  0  0  0  0
   16.4111  -15.7763   23.5022 H   0  0  0  0  0  0
   15.7359  -15.2707   20.8213 H   0  0  0  0  0  0
   17.3478  -11.7499   21.5272 H   0  0  0  0  0  0
   18.8145  -10.9417   21.8724 H   0  0  0  0  0  0
   12.1403  -13.7847   21.9294 H   0  0  0  0  0  0
   11.1939  -13.0562   20.7061 H   0  0  0  0  0  0
   15.2110  -11.1824   17.6078 H   0  0  0  0  0  0
   21.6840  -14.2497   21.3188 H   0  0  0  0  0  0
   20.7376  -15.3586   22.2723 H   0  0  0  0  0  0
   21.0566  -15.7000   20.5797 H   0  0  0  0  0  0
   16.4172   -9.9656   14.4680 H   0  0  0  0  0  0
   16.0155   -9.5815   16.1066 H   0  0  0  0  0  0
   21.3445  -10.6523   20.3209 H   0  0  0  0  0  0
   21.3153  -12.1999   21.1213 H   0  0  0  0  0  0
   22.2251  -12.0201   19.6596 H   0  0  0  0  0  0
   20.8161  -10.7624   17.6993 H   0  0  0  0  0  0
   21.1839  -12.4506   17.4377 H   0  0  0  0  0  0
   19.5713  -11.8526   17.1343 H   0  0  0  0  0  0
   21.3373  -16.9685   26.1213 H   0  0  0  0  0  0
   20.8554  -16.9604   24.5729 H   0  0  0  0  0  0
   17.5147  -17.8482   21.5223 H   0  0  0  0  0  0
   16.4575  -18.2181   22.8512 H   0  0  0  0  0  0
   15.1287  -15.2748   16.3007 H   0  0  0  0  0  0
   16.2251  -14.6253   14.2019 H   0  0  0  0  0  0
   16.8133  -12.2668   13.7801 H   0  0  0  0  0  0
   19.1727  -17.5348   26.8941 H   0  0  0  0  0  0
   19.7826  -18.7254   25.7591 H   0  0  0  0  0  0
   13.8760  -10.8272   20.5160 H   0  0  0  0  0  0
   10.8847  -12.2007   23.3025 H   0  0  0  0  0  0
   19.3147  -17.1750   23.0714 H   0  0  0  0  0  0
   18.7884  -18.8041   23.3687 H   0  0  0  0  0  0
   17.9389  -16.3844   25.0555 H   0  0  0  0  0  0
   17.3939  -18.0182   25.3058 H   0  0  0  0  0  0
   13.9375   -8.6689   21.6702 H   0  0  0  0  0  0
   10.9804  -10.0402   24.4490 H   0  0  0  0  0  0
   12.5015   -8.2690   23.6261 H   0  0  0  0  0  0
  1  5  1  0  0  0
  1  8  1  0  0  0
  1 10  1  0  0  0
  1 24  1  0  0  0
  2  5  1  0  0  0
  2 16  1  0  0  0
  2 11  1  0  0  0
  3  9  2  0  0  0
  3  7  1  0  0  0
  4 14  1  0  0  0
  4  6  1  0  0  0
  4  9  1  0  0  0
  6  7  2  0  0  0
  7 20  1  0  0  0
  8 12  1  0  0  0
  8 15  1  0  0  0
  8 45  1  0  0  0
  9 21  1  0  0  0
 10 11  1  0  0  0
 10 19  1  0  0  0
 10 43  1  0  0  0
 12 28  1  0  0  0
 12 29  1  0  0  0
 12 13  1  0  0  0
 13 19  1  0  0  0
 13 15  1  0  0  0
 13 44  1  0  0  0
 14 18  1  0  0  0
 14 46  1  0  0  0
 14 47  1  0  0  0
 15 48  1  0  0  0
 15 49  1  0  0  0
 16 17  1  0  0  0
 16 31  1  0  0  0
 16 50  1  0  0  0
 17 18  1  0  0  0
 17 51  1  0  0  0
 18 23  2  0  0  0
 19 52  1  0  0  0
 19 53  1  0  0  0
 20 22  1  0  0  0
 20 32  2  0  0  0
 21 26  1  0  0  0
 21 54  1  0  0  0
 21 55  1  0  0  0
 22 25  2  0  0  0
 22 56  1  0  0  0
 24 57  1  0  0  0
 24 58  1  0  0  0
 24 59  1  0  0  0
 25 27  1  0  0  0
 25 34  1  0  0  0
 26 36  2  0  0  0
 26 37  1  0  0  0
 27 60  1  0  0  0
 27 61  1  0  0  0
 28 62  1  0  0  0
 28 63  1  0  0  0
 28 64  1  0  0  0
 29 65  1  0  0  0
 29 66  1  0  0  0
 29 67  1  0  0  0
 30 35  1  0  0  0
 30 68  1  0  0  0
 30 69  1  0  0  0
 31 38  1  0  0  0
 31 70  1  0  0  0
 31 71  1  0  0  0
 32 33  1  0  0  0
 32 72  1  0  0  0
 33 34  2  0  0  0
 33 73  1  0  0  0
 34 74  1  0  0  0
 35 39  1  0  0  0
 35 75  1  0  0  0
 35 76  1  0  0  0
 36 40  1  0  0  0
 36 77  1  0  0  0
 37 41  2  0  0  0
 37 78  1  0  0  0
 38 39  1  0  0  0
 38 79  1  0  0  0
 38 80  1  0  0  0
 39 81  1  0  0  0
 39 82  1  0  0  0
 40 42  2  0  0  0
 40 83  1  0  0  0
 41 42  1  0  0  0
 41 84  1  0  0  0
 42 85  1  0  0  0
M  END
> <s_m_entry_id>
35426

> <s_m_entry_name>
dock_pv.276

> <s_m_Source_Path>
/home/csk/Desktop/cluster/DUD-E-result/thrb

> <s_m_Source_File>
dock_pv.maegz

> <i_m_Source_File_Index>
276

> <chembl_id>
CHEMBL2373348

> <chembl_pref_name>
None

> <i_lp_mmshare_version>
53161

> <r_lp_tautomer_probability>
1

> <s_lp_Force_Field>
OPLS_2005

> <r_lp_Energy>
63.254365

> <b_lp_Chiralities_Consistent>
1

> <s_lp_Variant>
CHEMBL204_lig1987-1

> <s_i_glide_gridfile>
glide-grid_1ype

> <i_i_glide_lignum>
2961

> <i_i_glide_rotatable_bonds>
12

> <r_i_docking_score>
-7.14779581345328

> <r_i_glide_ligand_efficiency>
-0.170185614606031

> <r_i_glide_ligand_efficiency_sa>
-0.591569730209908

> <r_i_glide_ligand_efficiency_ln>
-1.508715547802

> <r_i_glide_gscore>
-7.14779581345328

> <r_i_glide_lipo>
-3.14437332059255

> <r_i_glide_hbond>
-0.32

> <r_i_glide_metal>
0

> <r_i_glide_rewards>
-0.642226405074908

> <r_i_glide_evdw>
-51.3560104370117

> <r_i_glide_ecoul>
-7.19964694976807

> <r_i_glide_erotb>
0.614120177406453

> <r_i_glide_esite>
-0.00756870087648424

> <r_i_glide_emodel>
-70.5099360327431

> <r_i_glide_energy>
-58.5556573867798

> <r_i_glide_einternal>
11.33362865448

> <i_i_glide_confnum>
16

> <i_i_glide_posenum>
157

> <r_i_glide_eff_state_penalty>
0

> <s_user_duplicate_titles>
CHEMBL204_lig1987

> <i_f3d_flags>
0

> <s_m_subgroup_title>
dock_pv

> <s_m_subgroupid>
dock_pv

> <b_m_subgroup_collapsed>
1

$$$$
CHEMBL204_lig146
                    3D
 Schrodinger Suite 2021-1.
 39 41  0  0  1  0            999 V2000
   14.8783  -12.2047   19.1027 S   0  0  0  0  0  0
   16.2553  -11.4455   19.7020 O   0  0  0  0  0  0
   15.1131  -13.6526   19.0244 O   0  0  0  0  0  0
   14.4162  -11.4531   17.9322 O   0  0  0  0  0  0
   18.7569  -12.2527   18.6244 O   0  0  0  0  0  0
   16.0204  -12.6531   22.3125 O   0  0  0  0  0  0
   17.1687  -12.3136   20.3182 N   0  0  0  0  0  0
   19.0378  -13.4745   20.7272 C   0  0  0  0  0  0
   18.2227  -13.5885   21.8251 C   0  0  0  0  0  0
   18.3502  -12.6125   19.7307 C   0  0  0  0  0  0
   16.9865  -12.8099   21.5675 C   0  0  0  0  0  0
   13.7317  -11.8206   20.4466 C   0  0  0  0  0  0
   12.7298  -12.7157   20.8658 C   0  0  0  0  0  0
   20.2795  -14.1092   20.6836 C   0  0  0  0  0  0
   18.6068  -14.3407   22.9371 C   0  0  0  0  0  0
   13.8418  -10.5726   21.0751 C   0  0  0  0  0  0
   12.9932  -10.2175   22.1310 C   0  0  0  0  0  0
   12.0151  -11.1225   22.5663 C   0  0  0  0  0  0
   11.8914  -12.3518   21.9204 C   0  0  0  0  0  0
   20.6733  -14.8819   21.7837 C   0  0  0  0  0  0
   19.8438  -14.9929   22.9087 C   0  0  0  0  0  0
   12.5089  -14.0705   20.2057 C   0  0  0  0  0  0
   13.1536   -8.8665   22.8099 C   0  0  0  0  0  0
   11.0777  -10.7888   23.7199 C   0  0  0  0  0  0
   20.9278  -14.0264   19.8233 H   0  0  0  0  0  0
   17.9665  -14.4328   23.8029 H   0  0  0  0  0  0
   14.6000   -9.8754   20.7479 H   0  0  0  0  0  0
   11.1269  -13.0401   22.2484 H   0  0  0  0  0  0
   21.6162  -15.4030   21.7596 H   0  0  0  0  0  0
   20.1599  -15.5894   23.7505 H   0  0  0  0  0  0
   11.5961  -14.5544   20.5451 H   0  0  0  0  0  0
   12.4383  -13.9590   19.1226 H   0  0  0  0  0  0
   13.3411  -14.7389   20.4278 H   0  0  0  0  0  0
   14.0455   -8.3278   22.4805 H   0  0  0  0  0  0
   12.2720   -8.2567   22.6202 H   0  0  0  0  0  0
   13.2163   -8.9847   23.8916 H   0  0  0  0  0  0
   10.3294  -11.5658   23.8968 H   0  0  0  0  0  0
   10.5435   -9.8573   23.5217 H   0  0  0  0  0  0
   11.6402  -10.6519   24.6447 H   0  0  0  0  0  0
  1  2  1  0  0  0
  1  3  2  0  0  0
  1  4  2  0  0  0
  1 12  1  0  0  0
  2  7  1  0  0  0
  5 10  2  0  0  0
  6 11  2  0  0  0
  7 10  1  0  0  0
  7 11  1  0  0  0
  8  9  1  0  0  0
  8 10  1  0  0  0
  8 14  2  0  0  0
  9 11  1  0  0  0
  9 15  2  0  0  0
 12 13  2  0  0  0
 12 16  1  0  0  0
 13 19  1  0  0  0
 13 22  1  0  0  0
 14 20  1  0  0  0
 14 25  1  0  0  0
 15 21  1  0  0  0
 15 26  1  0  0  0
 16 17  2  0  0  0
 16 27  1  0  0  0
 17 18  1  0  0  0
 17 23  1  0  0  0
 18 19  2  0  0  0
 18 24  1  0  0  0
 19 28  1  0  0  0
 20 21  2  0  0  0
 20 29  1  0  0  0
 21 30  1  0  0  0
 22 31  1  0  0  0
 22 32  1  0  0  0
 22 33  1  0  0  0
 23 34  1  0  0  0
 23 35  1  0  0  0
 23 36  1  0  0  0
 24 37  1  0  0  0
 24 38  1  0  0  0
 24 39  1  0  0  0
M  END
> <s_m_entry_id>
35427

> <s_m_entry_name>
dock_pv.277

> <s_m_Source_Path>
/home/csk/Desktop/cluster/DUD-E-result/thrb

> <s_m_Source_File>
dock_pv.maegz

> <i_m_Source_File_Index>
277

> <chembl_id>
CHEMBL1411089

> <chembl_pref_name>
None

> <i_lp_mmshare_version>
53161

> <r_lp_tautomer_probability>
1

> <s_lp_Force_Field>
OPLS_2005

> <r_lp_Energy>
38.042142

> <b_lp_Chiralities_Consistent>
1

> <s_lp_Variant>
CHEMBL204_lig146-1

> <s_i_glide_gridfile>
glide-grid_1ype

> <i_i_glide_lignum>
169

> <i_i_glide_rotatable_bonds>
3

> <r_i_docking_score>
-7.14595876779073

> <r_i_glide_ligand_efficiency>
-0.29774828199128

> <r_i_glide_ligand_efficiency_sa>
-0.858854662613557

> <r_i_glide_ligand_efficiency_ln>
-1.71035583981349

> <r_i_glide_gscore>
-7.14595876779073

> <r_i_glide_lipo>
-2.38038734536252

> <r_i_glide_hbond>
-0.32

> <r_i_glide_metal>
0

> <r_i_glide_rewards>
-1.98110892466564

> <r_i_glide_evdw>
-38.3474922180176

> <r_i_glide_ecoul>
-6.81679964065552

> <r_i_glide_erotb>
0.477837474017374

> <r_i_glide_esite>
-0.00240541478073658

> <r_i_glide_emodel>
-63.0500661381824

> <r_i_glide_energy>
-45.1642918586731

> <r_i_glide_einternal>
4.22286462783813

> <i_i_glide_confnum>
4

> <i_i_glide_posenum>
265

> <r_i_glide_eff_state_penalty>
0

> <s_user_duplicate_titles>
CHEMBL204_lig146

> <i_f3d_flags>
0

> <s_m_subgroup_title>
dock_pv

> <s_m_subgroupid>
dock_pv

> <b_m_subgroup_collapsed>
1

$$$$
CHEMBL204_lig4129
                    3D
 Schrodinger Suite 2021-1.
 59 63  0  0  1  0            999 V2000
   16.6101  -16.5322   21.8488 C   0  0  0  0  0  0
   18.0486  -16.1356   22.1420 C   0  0  0  0  0  0
   15.9916  -16.0290   20.7366 N   0  0  0  0  0  0
   10.6171  -17.5402   18.9655 N   0  0  0  0  0  0
   11.2165  -10.7127   23.7168 C   0  0  0  0  0  0
   18.4767  -15.6574   23.4334 C   0  0  0  0  0  0
   12.3102  -10.8288   22.7166 C   0  0  0  0  0  0
   13.9923  -12.1606   21.5135 C   0  0  0  0  0  0
   12.0649  -16.6546   17.5212 N   0  0  0  0  0  0
   12.7238  -16.7391   18.7221 C   0  0  0  0  0  0
   12.8335  -12.0715   22.3208 C   0  0  0  0  0  0
   10.8085  -17.1529   17.7312 C   0  0  0  0  0  0
   16.4388  -14.7855   20.0628 C   0  0  0  0  0  0
   11.0307   -9.6273   24.3211 N   0  0  0  0  0  0
   11.7663  -17.2956   19.5694 C   0  0  0  0  0  0
   16.0648  -17.3543   22.5905 O   0  0  0  0  0  0
   14.6731  -16.5873   20.3470 C   0  0  0  0  0  0
   14.5934  -13.4051   21.2123 C   0  0  0  0  0  0
   15.7484  -13.4718   20.4261 C   0  0  0  0  0  0
   14.5941  -10.9660   21.0271 C   0  0  0  0  0  0
   14.1487  -16.2664   18.9256 C   0  0  0  0  0  0
   12.9007   -9.6709   22.1834 C   0  0  0  0  0  0
   14.0129   -9.7234   21.3516 C   0  0  0  0  0  0
   19.8438  -15.2544   23.6035 C   0  0  0  0  0  0
   15.7784  -11.0536   20.2624 C   0  0  0  0  0  0
   10.4806  -11.8529   23.9210 N   0  0  0  0  0  0
   16.3318  -12.2930   19.9646 C   0  0  0  0  0  0
   19.0016  -16.2575   21.1242 C   0  0  0  0  0  0
   17.6160  -15.5503   24.5665 C   0  0  0  0  0  0
   20.3228  -15.8724   21.3019 C   0  0  0  0  0  0
   20.7463  -15.3644   22.5206 C   0  0  0  0  0  0
   20.2814  -14.7489   24.8538 C   0  0  0  0  0  0
   18.0812  -15.0628   25.7832 C   0  0  0  0  0  0
   19.4004  -14.6564   25.9237 C   0  0  0  0  0  0
   12.4170  -16.2926   16.6401 H   0  0  0  0  0  0
   12.4188  -12.9942   22.7029 H   0  0  0  0  0  0
   10.0961  -17.1932   16.9198 H   0  0  0  0  0  0
   16.3639  -14.9219   18.9845 H   0  0  0  0  0  0
   17.4949  -14.5983   20.2348 H   0  0  0  0  0  0
   10.2239   -9.6950   24.9382 H   0  0  0  0  0  0
   11.8988  -17.5176   20.6179 H   0  0  0  0  0  0
   14.6973  -17.6729   20.4631 H   0  0  0  0  0  0
   13.9351  -16.2502   21.0738 H   0  0  0  0  0  0
   14.1428  -14.2914   21.6260 H   0  0  0  0  0  0
   14.1630  -15.1914   18.7474 H   0  0  0  0  0  0
   14.8067  -16.7233   18.1854 H   0  0  0  0  0  0
   12.5184   -8.6953   22.4498 H   0  0  0  0  0  0
   14.4669   -8.8117   20.9907 H   0  0  0  0  0  0
   16.2588  -10.1496   19.9212 H   0  0  0  0  0  0
    9.6700  -11.8125   24.5393 H   0  0  0  0  0  0
   10.7147  -12.7518   23.5156 H   0  0  0  0  0  0
   17.2367  -12.3326   19.3757 H   0  0  0  0  0  0
   18.7002  -16.6465   20.1647 H   0  0  0  0  0  0
   16.5825  -15.8530   24.4961 H   0  0  0  0  0  0
   21.0260  -15.9645   20.4861 H   0  0  0  0  0  0
   21.7757  -15.0621   22.6485 H   0  0  0  0  0  0
   21.3095  -14.4380   24.9750 H   0  0  0  0  0  0
   17.4087  -14.9975   26.6256 H   0  0  0  0  0  0
   19.7446  -14.2698   26.8718 H   0  0  0  0  0  0
  1  2  1  0  0  0
  1  3  1  0  0  0
  1 16  2  0  0  0
  2  6  1  0  0  0
  2 28  2  0  0  0
  3 13  1  0  0  0
  3 17  1  0  0  0
  4 12  2  0  0  0
  4 15  1  0  0  0
  5  7  1  0  0  0
  5 14  2  0  0  0
  5 26  1  0  0  0
  6 24  1  0  0  0
  6 29  2  0  0  0
  7 11  2  0  0  0
  7 22  1  0  0  0
  8 18  2  0  0  0
  8 11  1  0  0  0
  8 20  1  0  0  0
  9 10  1  0  0  0
  9 35  1  0  0  0
  9 12  1  0  0  0
 10 15  2  0  0  0
 10 21  1  0  0  0
 11 36  1  0  0  0
 12 37  1  0  0  0
 13 19  1  0  0  0
 13 38  1  0  0  0
 13 39  1  0  0  0
 14 40  1  0  0  0
 15 41  1  0  0  0
 17 21  1  0  0  0
 17 42  1  0  0  0
 17 43  1  0  0  0
 18 19  1  0  0  0
 18 44  1  0  0  0
 19 27  2  0  0  0
 20 25  2  0  0  0
 20 23  1  0  0  0
 21 45  1  0  0  0
 21 46  1  0  0  0
 22 23  2  0  0  0
 22 47  1  0  0  0
 23 48  1  0  0  0
 24 32  2  0  0  0
 24 31  1  0  0  0
 25 27  1  0  0  0
 25 49  1  0  0  0
 26 50  1  0  0  0
 26 51  1  0  0  0
 27 52  1  0  0  0
 28 30  1  0  0  0
 28 53  1  0  0  0
 29 33  1  0  0  0
 29 54  1  0  0  0
 30 31  2  0  0  0
 30 55  1  0  0  0
 31 56  1  0  0  0
 32 34  1  0  0  0
 32 57  1  0  0  0
 33 34  2  0  0  0
 33 58  1  0  0  0
 34 59  1  0  0  0
M  END
> <s_m_entry_id>
35428

> <s_m_entry_name>
dock_pv.278

> <s_m_Source_Path>
/home/csk/Desktop/cluster/DUD-E-result/thrb

> <s_m_Source_File>
dock_pv.maegz

> <i_m_Source_File_Index>
278

> <chembl_id>
CHEMBL195314

> <chembl_pref_name>
None

> <i_lp_mmshare_version>
53161

> <r_lp_tautomer_probability>
0.499999999999999

> <s_lp_Force_Field>
OPLS_2005

> <r_lp_Energy>
33.178156

> <b_lp_Chiralities_Consistent>
1

> <s_lp_Variant>
CHEMBL204_lig4129-2

> <s_i_glide_gridfile>
glide-grid_1ype

> <i_i_glide_lignum>
5743

> <i_i_glide_rotatable_bonds>
8

> <r_i_docking_score>
-7.14502987973675

> <r_i_glide_ligand_efficiency>
-0.210147937639316

> <r_i_glide_ligand_efficiency_sa>
-0.680797737990207

> <r_i_glide_ligand_efficiency_ln>
-1.57853751173359

> <r_i_glide_gscore>
-7.14502987973675

> <r_i_glide_lipo>
-2.93518154644491

> <r_i_glide_hbond>
-0.734758530334095

> <r_i_glide_metal>
0

> <r_i_glide_rewards>
-0.339677320439416

> <r_i_glide_evdw>
-39.5844421386719

> <r_i_glide_ecoul>
-9.75686454772949

> <r_i_glide_erotb>
0.499924305418217

> <r_i_glide_esite>
-0.192584998843529

> <r_i_glide_emodel>
-70.0555263217094

> <r_i_glide_energy>
-49.3413066864014

> <r_i_glide_einternal>
3.24395608901978

> <i_i_glide_confnum>
7

> <i_i_glide_posenum>
228

> <r_i_glide_eff_state_penalty>
0

> <s_user_duplicate_titles>
CHEMBL204_lig4129,CHEMBL204_lig4129

> <i_f3d_flags>
0

> <s_m_subgroup_title>
dock_pv

> <s_m_subgroupid>
dock_pv

> <b_m_subgroup_collapsed>
1

$$$$
CHEMBL204_lig2211
                    3D
 Schrodinger Suite 2021-1.
 47 48  0  0  1  0            999 V2000
   11.4659  -10.6533   23.7105 C   0  0  0  0  0  0
   22.4324  -13.8832   24.2015 C   0  0  0  0  0  0
   12.5253  -10.7140   22.6715 C   0  0  0  0  0  0
   13.1296  -11.9247   22.2835 C   0  0  0  0  0  0
   14.1721  -11.9600   21.3433 C   0  0  0  0  0  0
   12.7771  -14.6129   20.3647 C   0  0  0  0  0  0
   21.0877  -13.9773   23.5473 C   0  0  0  0  0  0
   14.9349  -13.2516   21.0138 C   0  0  2  0  0  0
   11.2155   -9.5812   24.3210 N   0  0  0  0  0  0
   23.4941  -13.8530   23.5214 N   0  0  0  0  0  0
   14.1075  -14.5738   21.1366 C   0  0  0  0  0  0
   12.4383  -13.7861   19.5210 O   0  0  0  0  0  0
   16.2574  -13.2612   21.8300 C   0  0  0  0  0  0
   20.9761  -13.9475   22.1444 C   0  0  0  0  0  0
   19.8915  -14.1202   24.2800 C   0  0  0  0  0  0
   10.8148  -11.8428   23.9219 N   0  0  0  0  0  0
   22.4124  -13.8510   25.5745 N   0  0  0  0  0  0
   18.5809  -14.2423   22.2509 C   0  0  0  0  0  0
   12.0218  -15.6859   20.7216 O   0  0  0  0  0  0
   17.2339  -14.4211   21.5520 C   0  0  0  0  0  0
   19.7461  -14.0753   21.5025 C   0  0  0  0  0  0
   18.6599  -14.2576   23.6433 C   0  0  0  0  0  0
   12.9931   -9.5366   22.0698 C   0  0  0  0  0  0
   14.5890  -10.7678   20.7507 C   0  0  0  0  0  0
   14.0104   -9.5610   21.1212 C   0  0  0  0  0  0
   12.8346  -12.8488   22.7568 H   0  0  0  0  0  0
   15.2123  -13.1826   19.9584 H   0  0  0  0  0  0
   10.4441   -9.7003   24.9679 H   0  0  0  0  0  0
   24.3094  -13.7958   24.1119 H   0  0  0  0  0  0
   14.7004  -15.4070   20.7619 H   0  0  0  0  0  0
   13.9117  -14.7886   22.1879 H   0  0  0  0  0  0
   16.7922  -12.3281   21.6370 H   0  0  0  0  0  0
   16.0179  -13.2453   22.8921 H   0  0  0  0  0  0
   21.8581  -13.8376   21.5270 H   0  0  0  0  0  0
   19.8924  -14.1499   25.3586 H   0  0  0  0  0  0
    9.9721  -11.8426   24.4911 H   0  0  0  0  0  0
   11.0232  -12.6883   23.4068 H   0  0  0  0  0  0
   23.2765  -13.8509   26.0963 H   0  0  0  0  0  0
   21.5406  -13.8182   26.0785 H   0  0  0  0  0  0
   11.1929  -15.6687   20.2390 H   0  0  0  0  0  0
   16.8006  -15.3643   21.8876 H   0  0  0  0  0  0
   17.3895  -14.5218   20.4766 H   0  0  0  0  0  0
   19.7098  -14.0604   20.4226 H   0  0  0  0  0  0
   17.7635  -14.3834   24.2347 H   0  0  0  0  0  0
   12.5723   -8.5842   22.3497 H   0  0  0  0  0  0
   15.4003  -10.7653   20.0358 H   0  0  0  0  0  0
   14.3790   -8.6428   20.7010 H   0  0  0  0  0  0
  1  3  1  0  0  0
  1  9  2  0  0  0
  1 16  1  0  0  0
  2  7  1  0  0  0
  2 10  2  0  0  0
  2 17  1  0  0  0
  3  4  2  0  0  0
  3 23  1  0  0  0
  4  5  1  0  0  0
  4 26  1  0  0  0
  5  8  1  0  0  0
  5 24  2  0  0  0
  6 11  1  0  0  0
  6 12  2  0  0  0
  6 19  1  0  0  0
  7 15  2  0  0  0
  7 14  1  0  0  0
  8 11  1  0  0  0
  8 13  1  0  0  0
  8 27  1  0  0  0
  9 28  1  0  0  0
 10 29  1  0  0  0
 11 30  1  0  0  0
 11 31  1  0  0  0
 13 20  1  0  0  0
 13 32  1  0  0  0
 13 33  1  0  0  0
 14 21  2  0  0  0
 14 34  1  0  0  0
 15 22  1  0  0  0
 15 35  1  0  0  0
 16 36  1  0  0  0
 16 37  1  0  0  0
 17 38  1  0  0  0
 17 39  1  0  0  0
 18 20  1  0  0  0
 18 21  1  0  0  0
 18 22  2  0  0  0
 19 40  1  0  0  0
 20 41  1  0  0  0
 20 42  1  0  0  0
 21 43  1  0  0  0
 22 44  1  0  0  0
 23 25  2  0  0  0
 23 45  1  0  0  0
 24 25  1  0  0  0
 24 46  1  0  0  0
 25 47  1  0  0  0
M  END
> <s_m_entry_id>
35429

> <s_m_entry_name>
dock_pv.279

> <s_m_Source_Path>
/home/csk/Desktop/cluster/DUD-E-result/thrb

> <s_m_Source_File>
dock_pv.maegz

> <i_m_Source_File_Index>
279

> <chembl_id>
CHEMBL347586

> <chembl_pref_name>
None

> <i_lp_mmshare_version>
53161

> <r_lp_tautomer_probability>
1

> <s_lp_Force_Field>
OPLS_2005

> <r_lp_Energy>
4.342976

> <b_lp_Chiralities_Consistent>
1

> <s_lp_Variant>
CHEMBL204_lig2211-1

> <s_i_glide_gridfile>
glide-grid_1ype

> <i_i_glide_lignum>
3247

> <i_i_glide_rotatable_bonds>
9

> <r_i_docking_score>
-7.14288412511315

> <r_i_glide_ligand_efficiency>
-0.285715365004526

> <r_i_glide_ligand_efficiency_sa>
-0.835436794456809

> <r_i_glide_ligand_efficiency_ln>
-1.69307759261587

> <r_i_glide_gscore>
-7.14288412511315

> <r_i_glide_lipo>
-2.52936704621542

> <r_i_glide_hbond>
-0.481437711616156

> <r_i_glide_metal>
0

> <r_i_glide_rewards>
-1.67473868033787

> <r_i_glide_evdw>
-40.4202842712402

> <r_i_glide_ecoul>
-8.91514778137207

> <r_i_glide_erotb>
0.990850867587256

> <r_i_glide_esite>
-0.0899051737631418

> <r_i_glide_emodel>
-68.669795516875

> <r_i_glide_energy>
-49.3354320526123

> <r_i_glide_einternal>
5.11730861663818

> <i_i_glide_confnum>
32

> <i_i_glide_posenum>
279

> <r_i_glide_eff_state_penalty>
0

> <s_user_duplicate_titles>
CHEMBL204_lig2211

> <i_f3d_flags>
0

> <s_m_subgroup_title>
dock_pv

> <s_m_subgroupid>
dock_pv

> <b_m_subgroup_collapsed>
1

$$$$
CHEMBL204_lig2998
                    3D
 Schrodinger Suite 2021-1.
 73 77  0  0  1  0            999 V2000
   15.6192  -12.9071   16.0561 C   0  0  0  0  0  0
   19.8445  -16.3515   22.5653 S   0  0  0  0  0  0
   20.0778  -14.5824   22.8093 N   0  0  2  0  0  0
   14.8244  -13.0799   17.2883 C   0  0  0  0  0  0
   19.0272  -12.8532   20.8259 N   0  0  0  0  0  0
   18.3176  -12.9050   21.9858 C   0  0  0  0  0  0
   15.8620  -13.9445   15.1697 N   0  0  0  0  0  0
   16.8881  -12.1724   14.4725 N   0  0  0  0  0  0
   16.2167  -11.8153   15.6373 N   0  0  0  0  0  0
   16.6640  -13.5050   14.1902 N   0  0  0  0  0  0
   18.9213  -13.7043   23.1698 C   0  0  0  0  0  0
   17.2363  -12.6382   19.0963 C   0  0  0  0  0  0
   16.2820  -11.7301   18.7915 N   0  0  0  0  0  0
   20.2466  -13.6417   20.5646 C   0  0  2  0  0  0
   14.8880  -11.9456   18.3226 C   0  0  2  0  0  0
   18.5884  -12.1078   19.6304 C   0  0  2  0  0  0
   21.0133  -13.9232   21.8676 C   0  0  0  0  0  0
   18.2384  -16.8837   23.4312 C   0  0  0  0  0  0
   19.6338  -16.5961   21.1319 O   0  0  0  0  0  0
   20.9821  -17.0027   23.2353 O   0  0  0  0  0  0
   19.7531  -12.3257   18.6402 C   0  0  0  0  0  0
   14.1797  -14.1037   17.5207 O   0  0  0  0  0  0
   17.2648  -12.2780   22.1139 O   0  0  0  0  0  0
   20.9249  -12.8163   19.4831 C   0  0  0  0  0  0
   13.8175  -12.0134   19.4665 C   0  0  1  0  0  0
   17.0563  -13.8528   19.0013 O   0  0  0  0  0  0
   14.0401  -13.0945   20.5508 C   0  0  0  0  0  0
   13.7290  -10.6782   20.2367 C   0  0  0  0  0  0
   15.4915  -15.3555   15.2026 C   0  0  0  0  0  0
   18.3586  -17.0794   24.9374 C   0  0  0  0  0  0
   11.2824  -11.8534   22.9778 N   0  0  0  0  0  0
   12.4541  -11.8473   22.1247 C   0  0  1  0  0  0
   12.7795  -13.2046   21.4401 C   0  0  0  0  0  0
   12.4911  -10.6440   21.1539 C   0  0  0  0  0  0
   18.4518  -18.3764   25.4492 C   0  0  0  0  0  0
   18.3507  -15.9897   25.8131 C   0  0  0  0  0  0
   18.4800  -18.5863   26.8288 C   0  0  0  0  0  0
   18.4107  -16.2003   27.1820 C   0  0  0  0  0  0
   18.4269  -17.4973   27.6894 C   0  0  0  0  0  0
   19.9510  -14.5780   20.0970 H   0  0  0  0  0  0
   19.2286  -13.0191   23.9643 H   0  0  0  0  0  0
   18.0898  -14.2810   23.5505 H   0  0  0  0  0  0
   16.4575  -10.7830   19.0947 H   0  0  0  0  0  0
   14.6478  -11.0526   17.7454 H   0  0  0  0  0  0
   18.4426  -11.0560   19.8639 H   0  0  0  0  0  0
   21.9348  -14.5108   21.7747 H   0  0  0  0  0  0
   21.3293  -12.9827   22.3131 H   0  0  0  0  0  0
   17.4189  -16.2173   23.1555 H   0  0  0  0  0  0
   17.9889  -17.8428   22.9698 H   0  0  0  0  0  0
   19.5200  -13.1054   17.9203 H   0  0  0  0  0  0
   20.0107  -11.4530   18.0521 H   0  0  0  0  0  0
   21.6160  -13.4163   18.9056 H   0  0  0  0  0  0
   21.4801  -11.9806   19.9138 H   0  0  0  0  0  0
   12.8576  -12.1997   18.9774 H   0  0  0  0  0  0
   14.2192  -14.0614   20.0857 H   0  0  0  0  0  0
   14.9383  -12.9046   21.1360 H   0  0  0  0  0  0
   14.6557  -10.4624   20.7701 H   0  0  0  0  0  0
   13.6154   -9.8622   19.5274 H   0  0  0  0  0  0
   16.0137  -15.8353   16.0324 H   0  0  0  0  0  0
   15.7608  -15.8513   14.2631 H   0  0  0  0  0  0
   14.4162  -15.4475   15.3481 H   0  0  0  0  0  0
   10.4450  -11.5815   22.4725 H   0  0  0  0  0  0
   11.0997  -12.7866   23.3481 H   0  0  0  0  0  0
   13.3035  -11.6840   22.7803 H   0  0  0  0  0  0
   11.9327  -13.5136   20.8251 H   0  0  0  0  0  0
   12.9334  -13.9764   22.1929 H   0  0  0  0  0  0
   11.6067  -10.6586   20.5217 H   0  0  0  0  0  0
   12.4837   -9.7034   21.7118 H   0  0  0  0  0  0
   18.4750  -19.2226   24.7834 H   0  0  0  0  0  0
   18.2691  -14.9779   25.4618 H   0  0  0  0  0  0
   18.5440  -19.5855   27.2284 H   0  0  0  0  0  0
   18.3901  -15.3593   27.8600 H   0  0  0  0  0  0
   18.4409  -17.6517   28.7579 H   0  0  0  0  0  0
  1  4  1  0  0  0
  1  7  1  0  0  0
  1  9  2  0  0  0
  2  3  1  0  0  0
  2 18  1  0  0  0
  2 19  2  0  0  0
  2 20  2  0  0  0
  3 17  1  0  0  0
  3 11  1  0  0  0
  4 15  1  0  0  0
  4 22  2  0  0  0
  5 16  1  0  0  0
  5  6  1  0  0  0
  5 14  1  0  0  0
  6 11  1  0  0  0
  6 23  2  0  0  0
  7 10  1  0  0  0
  7 29  1  0  0  0
  8  9  1  0  0  0
  8 10  2  0  0  0
 11 41  1  0  0  0
 11 42  1  0  0  0
 12 13  1  0  0  0
 12 16  1  0  0  0
 12 26  2  0  0  0
 13 15  1  0  0  0
 13 43  1  0  0  0
 14 17  1  0  0  0
 14 40  1  0  0  0
 14 24  1  0  0  0
 15 25  1  0  0  0
 15 44  1  0  0  0
 16 21  1  0  0  0
 16 45  1  0  0  0
 17 46  1  0  0  0
 17 47  1  0  0  0
 18 30  1  0  0  0
 18 48  1  0  0  0
 18 49  1  0  0  0
 21 24  1  0  0  0
 21 50  1  0  0  0
 21 51  1  0  0  0
 24 52  1  0  0  0
 24 53  1  0  0  0
 25 27  1  0  0  0
 25 28  1  0  0  0
 25 54  1  0  0  0
 27 33  1  0  0  0
 27 55  1  0  0  0
 27 56  1  0  0  0
 28 34  1  0  0  0
 28 57  1  0  0  0
 28 58  1  0  0  0
 29 59  1  0  0  0
 29 60  1  0  0  0
 29 61  1  0  0  0
 30 35  1  0  0  0
 30 36  2  0  0  0
 31 32  1  0  0  0
 31 62  1  0  0  0
 31 63  1  0  0  0
 32 34  1  0  0  0
 32 33  1  0  0  0
 32 64  1  0  0  0
 33 65  1  0  0  0
 33 66  1  0  0  0
 34 67  1  0  0  0
 34 68  1  0  0  0
 35 37  2  0  0  0
 35 69  1  0  0  0
 36 38  1  0  0  0
 36 70  1  0  0  0
 37 39  1  0  0  0
 37 71  1  0  0  0
 38 39  2  0  0  0
 38 72  1  0  0  0
 39 73  1  0  0  0
M  END
> <s_m_entry_id>
35430

> <s_m_entry_name>
dock_pv.280

> <s_m_Source_Path>
/home/csk/Desktop/cluster/DUD-E-result/thrb

> <s_m_Source_File>
dock_pv.maegz

> <i_m_Source_File_Index>
280

> <chembl_id>
CHEMBL3084836

> <chembl_pref_name>
None

> <i_lp_mmshare_version>
53161

> <r_lp_tautomer_probability>
0.99990000499975

> <s_lp_Force_Field>
OPLS_2005

> <r_lp_Energy>
23.174488

> <b_lp_Chiralities_Consistent>
1

> <s_lp_Variant>
CHEMBL204_lig2998-2

> <s_i_glide_gridfile>
glide-grid_1ype

> <i_i_glide_lignum>
4271

> <i_i_glide_rotatable_bonds>
9

> <r_i_docking_score>
-7.14224112587101

> <r_i_glide_ligand_efficiency>
-0.183134387842846

> <r_i_glide_ligand_efficiency_sa>
-0.62104743090364

> <r_i_glide_ligand_efficiency_ln>
-1.5314992419578

> <r_i_glide_gscore>
-7.14224112587101

> <r_i_glide_lipo>
-2.92180225155666

> <r_i_glide_hbond>
-0.526378563670831

> <r_i_glide_metal>
0

> <r_i_glide_rewards>
-0.952662461345917

> <r_i_glide_evdw>
-43.3019981384277

> <r_i_glide_ecoul>
-6.44499444961548

> <r_i_glide_erotb>
0.521142605708396

> <r_i_glide_esite>
-0.130691380642286

> <r_i_glide_emodel>
-58.3311701306009

> <r_i_glide_energy>
-49.7469925880432

> <r_i_glide_einternal>
19.9516468048096

> <i_i_glide_confnum>
97

> <i_i_glide_posenum>
49

> <r_i_glide_eff_state_penalty>
0

> <s_user_duplicate_titles>
CHEMBL204_lig2998

> <i_f3d_flags>
0

> <s_m_subgroup_title>
dock_pv

> <s_m_subgroupid>
dock_pv

> <b_m_subgroup_collapsed>
1

$$$$
CHEMBL204_lig2221
                    3D
 Schrodinger Suite 2021-1.
 54 56  0  0  1  0            999 V2000
   12.9381  -16.0493   21.2500 C   0  0  0  0  0  0
   12.1707  -16.7562   20.2721 N   0  0  0  0  0  0
   11.5928  -10.0360   23.8311 C   0  0  0  0  0  0
   20.2312  -12.5243   18.7767 C   0  0  0  0  0  0
   12.6526  -14.5517   21.4812 C   0  0  0  0  0  0
   12.4394  -10.3995   22.6621 C   0  0  0  0  0  0
   12.4587  -11.6932   22.1048 C   0  0  0  0  0  0
   13.3949  -12.0793   21.1302 C   0  0  0  0  0  0
   13.5673  -13.5566   20.6999 C   0  0  2  0  0  0
   18.7532  -12.7199   18.6578 C   0  0  0  0  0  0
   11.6163   -8.8791   24.3214 N   0  0  0  0  0  0
   20.8651  -11.8558   17.9163 N   0  0  0  0  0  0
   11.2102  -16.2555   19.4140 C   0  0  0  0  0  0
   12.2728  -18.1044   19.9889 C   0  0  0  0  0  0
   13.8042  -16.6217   21.9165 O   0  0  0  0  0  0
   11.3941  -18.4348   18.9707 C   0  0  0  0  0  0
   10.7255  -17.2699   18.6073 C   0  0  0  0  0  0
   13.5474  -13.8513   19.1537 C   0  0  0  0  0  0
   17.9954  -13.4537   19.5853 C   0  0  0  0  0  0
   18.0654  -12.2175   17.5401 C   0  0  0  0  0  0
   10.8175  -11.0502   24.3266 N   0  0  0  0  0  0
   20.8149  -13.1198   19.8680 N   0  0  0  0  0  0
   15.9541  -13.0521   18.3392 C   0  0  0  0  0  0
   14.4323  -13.0674   18.1585 C   0  0  0  0  0  0
   16.6902  -12.3418   17.3995 C   0  0  0  0  0  0
   16.6302  -13.6658   19.3993 C   0  0  0  0  0  0
   13.3181   -9.4528   22.1105 C   0  0  0  0  0  0
   14.2897  -11.1076   20.6696 C   0  0  0  0  0  0
   14.2295   -9.7985   21.1227 C   0  0  0  0  0  0
   11.5980  -14.3456   21.3062 H   0  0  0  0  0  0
   12.8171  -14.4062   22.5532 H   0  0  0  0  0  0
   11.7833  -12.4341   22.4979 H   0  0  0  0  0  0
   14.5494  -13.7726   21.1048 H   0  0  0  0  0  0
   10.9748   -8.8112   25.0999 H   0  0  0  0  0  0
   21.8519  -11.8426   18.1336 H   0  0  0  0  0  0
   10.9317  -15.2152   19.4305 H   0  0  0  0  0  0
   12.9717  -18.7221   20.5342 H   0  0  0  0  0  0
   11.2499  -19.4093   18.5290 H   0  0  0  0  0  0
    9.9704  -17.1788   17.8394 H   0  0  0  0  0  0
   13.8028  -14.9006   18.9897 H   0  0  0  0  0  0
   12.5235  -13.7426   18.7808 H   0  0  0  0  0  0
   18.4563  -13.9204   20.4422 H   0  0  0  0  0  0
   18.5956  -11.6821   16.7657 H   0  0  0  0  0  0
   10.0918  -10.8331   25.0056 H   0  0  0  0  0  0
   10.6846  -11.9010   23.8035 H   0  0  0  0  0  0
   21.8160  -13.0902   19.9882 H   0  0  0  0  0  0
   20.2788  -13.7185   20.4740 H   0  0  0  0  0  0
   14.2420  -13.4749   17.1632 H   0  0  0  0  0  0
   14.0799  -12.0363   18.1014 H   0  0  0  0  0  0
   16.1968  -11.8846   16.5535 H   0  0  0  0  0  0
   16.1347  -14.3269   20.0842 H   0  0  0  0  0  0
   13.3465   -8.4412   22.4914 H   0  0  0  0  0  0
   15.0780  -11.3498   19.9815 H   0  0  0  0  0  0
   14.9334   -9.0663   20.7583 H   0  0  0  0  0  0
  1  2  1  0  0  0
  1  5  1  0  0  0
  1 15  2  0  0  0
  2 13  1  0  0  0
  2 14  1  0  0  0
  3  6  1  0  0  0
  3 11  2  0  0  0
  3 21  1  0  0  0
  4 10  1  0  0  0
  4 12  2  0  0  0
  4 22  1  0  0  0
  5  9  1  0  0  0
  5 30  1  0  0  0
  5 31  1  0  0  0
  6  7  2  0  0  0
  6 27  1  0  0  0
  7  8  1  0  0  0
  7 32  1  0  0  0
  8  9  1  0  0  0
  8 28  2  0  0  0
  9 18  1  0  0  0
  9 33  1  0  0  0
 10 19  2  0  0  0
 10 20  1  0  0  0
 11 34  1  0  0  0
 12 35  1  0  0  0
 13 17  2  0  0  0
 13 36  1  0  0  0
 14 16  2  0  0  0
 14 37  1  0  0  0
 16 17  1  0  0  0
 16 38  1  0  0  0
 17 39  1  0  0  0
 18 24  1  0  0  0
 18 40  1  0  0  0
 18 41  1  0  0  0
 19 26  1  0  0  0
 19 42  1  0  0  0
 20 25  2  0  0  0
 20 43  1  0  0  0
 21 44  1  0  0  0
 21 45  1  0  0  0
 22 46  1  0  0  0
 22 47  1  0  0  0
 23 24  1  0  0  0
 23 25  1  0  0  0
 23 26  2  0  0  0
 24 48  1  0  0  0
 24 49  1  0  0  0
 25 50  1  0  0  0
 26 51  1  0  0  0
 27 29  2  0  0  0
 27 52  1  0  0  0
 28 29  1  0  0  0
 28 53  1  0  0  0
 29 54  1  0  0  0
M  END
> <s_m_entry_id>
35431

> <s_m_entry_name>
dock_pv.281

> <s_m_Source_Path>
/home/csk/Desktop/cluster/DUD-E-result/thrb

> <s_m_Source_File>
dock_pv.maegz

> <i_m_Source_File_Index>
281

> <chembl_id>
CHEMBL158063

> <chembl_pref_name>
None

> <i_lp_mmshare_version>
53161

> <r_lp_tautomer_probability>
1

> <s_lp_Force_Field>
OPLS_2005

> <r_lp_Energy>
5.821748

> <b_lp_Chiralities_Consistent>
1

> <s_lp_Variant>
CHEMBL204_lig2221-2

> <s_i_glide_gridfile>
glide-grid_1ype

> <i_i_glide_lignum>
3265

> <i_i_glide_rotatable_bonds>
9

> <r_i_docking_score>
-7.13486142565769

> <r_i_glide_ligand_efficiency>
-0.246029704333024

> <r_i_glide_ligand_efficiency_sa>
-0.755881199392438

> <r_i_glide_ligand_efficiency_ln>
-1.63370234200045

> <r_i_glide_gscore>
-7.13486142565769

> <r_i_glide_lipo>
-2.62105248135346

> <r_i_glide_hbond>
-0.319217854456688

> <r_i_glide_metal>
0

> <r_i_glide_rewards>
-1.56301188295546

> <r_i_glide_evdw>
-45.0666046142578

> <r_i_glide_ecoul>
-7.0801796913147

> <r_i_glide_erotb>
0.778244877033079

> <r_i_glide_esite>
-0.0944668995150701

> <r_i_glide_emodel>
-72.7367141195147

> <r_i_glide_energy>
-52.1467843055725

> <r_i_glide_einternal>
8.48842716217041

> <i_i_glide_confnum>
15

> <i_i_glide_posenum>
347

> <r_i_glide_eff_state_penalty>
0

> <s_user_duplicate_titles>
CHEMBL204_lig2221

> <i_f3d_flags>
0

> <s_m_subgroup_title>
dock_pv

> <s_m_subgroupid>
dock_pv

> <b_m_subgroup_collapsed>
1

$$$$
CHEMBL204_lig4368
                    3D
 Schrodinger Suite 2021-1.
 61 64  0  0  1  0            999 V2000
   19.2912  -14.4502   24.5728 C   0  0  0  0  0  0
   18.3488  -15.5325   24.0656 C   0  0  0  0  0  0
   18.4783  -16.8787   24.3815 C   0  0  0  0  0  0
   17.2097  -17.8648   23.7534 S   0  0  0  0  0  0
   16.4716  -16.4835   22.9896 C   0  0  0  0  0  0
   17.2167  -15.3154   23.2497 C   0  0  0  0  0  0
   16.7960  -13.7235   22.7208 Cl  0  0  0  0  0  0
   15.1938  -16.6582   22.3208 C   0  0  0  0  0  0
   14.9111  -15.7457   21.3652 N   0  0  0  0  0  0
   14.4394  -17.5884   22.6211 O   0  0  0  0  0  0
   13.7896  -15.7740   20.5046 C   0  0  0  0  0  0
   12.9655  -14.6294   20.3674 C   0  0  0  0  0  0
   11.8569  -14.6981   19.5144 C   0  0  0  0  0  0
   11.5530  -15.8549   18.8057 C   0  0  0  0  0  0
   12.3754  -16.9665   18.9187 C   0  0  0  0  0  0
   13.4980  -16.9327   19.7462 C   0  0  0  0  0  0
   13.2370  -13.3198   21.0739 C   0  0  0  0  0  0
   14.3668  -12.8286   21.0498 O   0  0  0  0  0  0
   12.1649  -12.7589   21.6784 N   0  0  0  0  0  0
   10.1661  -15.8977   17.7790 Cl  0  0  0  0  0  0
   12.1207  -11.5363   22.3622 C   0  0  0  0  0  0
   12.9241  -10.4954   21.9960 N   0  0  0  0  0  0
   12.8590   -9.3494   22.7196 C   0  0  0  0  0  0
   12.0164   -9.1917   23.8183 C   0  0  0  0  0  0
   11.1862  -10.2544   24.1702 C   0  0  0  0  0  0
   11.2160  -11.4346   23.4237 C   0  0  0  0  0  0
   12.0155   -7.7197   24.7206 Cl  0  0  0  0  0  0
   14.3099  -18.0402   19.7779 O   0  0  0  0  0  0
   15.2579  -18.0991   18.7211 C   0  0  0  0  0  0
   20.3255  -14.0837   23.6073 N   0  0  0  0  0  0
   20.1415  -13.7564   22.2838 C   0  0  0  0  0  0
   21.3874  -13.4531   21.7901 C   0  0  0  0  0  0
   22.3102  -13.5705   22.7210 N   0  0  0  0  0  0
   21.6896  -13.9655   23.8048 C   0  0  0  0  0  0
   22.3061  -14.2495   25.0039 N   0  0  0  0  0  0
   23.7435  -14.3839   25.2363 C   0  0  0  0  0  0
   24.5915  -13.2020   24.7212 C   0  0  0  0  0  0
   24.2800  -15.7291   24.7200 C   0  0  0  0  0  0
   19.7707  -14.7662   25.4990 H   0  0  0  0  0  0
   18.7556  -13.5361   24.8276 H   0  0  0  0  0  0
   19.2496  -17.3335   24.9853 H   0  0  0  0  0  0
   15.4839  -14.9160   21.3257 H   0  0  0  0  0  0
   11.2137  -13.8395   19.3840 H   0  0  0  0  0  0
   12.1531  -17.8599   18.3534 H   0  0  0  0  0  0
   11.3507  -13.3469   21.7964 H   0  0  0  0  0  0
   13.5247   -8.5549   22.4196 H   0  0  0  0  0  0
   10.5048  -10.1707   25.0052 H   0  0  0  0  0  0
   10.5634  -12.2527   23.6960 H   0  0  0  0  0  0
   15.8632  -18.9978   18.8307 H   0  0  0  0  0  0
   14.7738  -18.1402   17.7436 H   0  0  0  0  0  0
   15.9320  -17.2415   18.7420 H   0  0  0  0  0  0
   19.1777  -13.7688   21.8062 H   0  0  0  0  0  0
   21.6232  -13.1548   20.7792 H   0  0  0  0  0  0
   21.8260  -14.9167   25.5907 H   0  0  0  0  0  0
   23.8448  -14.3908   26.3209 H   0  0  0  0  0  0
   25.6155  -13.2776   25.0827 H   0  0  0  0  0  0
   24.1866  -12.2529   25.0698 H   0  0  0  0  0  0
   24.6555  -13.1646   23.6339 H   0  0  0  0  0  0
   25.3377  -15.8475   24.9581 H   0  0  0  0  0  0
   23.7477  -16.5678   25.1740 H   0  0  0  0  0  0
   24.1699  -15.8181   23.6381 H   0  0  0  0  0  0
  1 30  1  0  0  0
  1  2  1  0  0  0
  1 39  1  0  0  0
  1 40  1  0  0  0
  2  3  2  0  0  0
  2  6  1  0  0  0
  3  4  1  0  0  0
  3 41  1  0  0  0
  4  5  1  0  0  0
  5  6  2  0  0  0
  5  8  1  0  0  0
  6  7  1  0  0  0
  8  9  1  0  0  0
  8 10  2  0  0  0
  9 11  1  0  0  0
  9 42  1  0  0  0
 11 12  2  0  0  0
 11 16  1  0  0  0
 12 13  1  0  0  0
 12 17  1  0  0  0
 13 14  2  0  0  0
 13 43  1  0  0  0
 14 15  1  0  0  0
 14 20  1  0  0  0
 15 16  2  0  0  0
 15 44  1  0  0  0
 16 28  1  0  0  0
 17 18  2  0  0  0
 17 19  1  0  0  0
 19 21  1  0  0  0
 19 45  1  0  0  0
 21 22  2  0  0  0
 21 26  1  0  0  0
 22 23  1  0  0  0
 23 24  2  0  0  0
 23 46  1  0  0  0
 24 25  1  0  0  0
 24 27  1  0  0  0
 25 26  2  0  0  0
 25 47  1  0  0  0
 26 48  1  0  0  0
 28 29  1  0  0  0
 29 49  1  0  0  0
 29 50  1  0  0  0
 29 51  1  0  0  0
 30 31  1  0  0  0
 30 34  1  0  0  0
 31 32  2  0  0  0
 31 52  1  0  0  0
 32 33  1  0  0  0
 32 53  1  0  0  0
 33 34  2  0  0  0
 34 35  1  0  0  0
 35 36  1  0  0  0
 35 54  1  0  0  0
 36 37  1  0  0  0
 36 38  1  0  0  0
 36 55  1  0  0  0
 37 56  1  0  0  0
 37 57  1  0  0  0
 37 58  1  0  0  0
 38 59  1  0  0  0
 38 60  1  0  0  0
 38 61  1  0  0  0
M  END
> <s_m_entry_id>
35432

> <s_m_entry_name>
dock_pv.282

> <s_m_Source_Path>
/home/csk/Desktop/cluster/DUD-E-result/thrb

> <s_m_Source_File>
dock_pv.maegz

> <i_m_Source_File_Index>
282

> <chembl_id>
CHEMBL387656

> <chembl_pref_name>
None

> <i_lp_mmshare_version>
53161

> <r_lp_tautomer_probability>
0.999996246217491

> <s_lp_Force_Field>
OPLS_2005

> <r_lp_Energy>
34.260568

> <b_lp_Chiralities_Consistent>
1

> <s_lp_Variant>
CHEMBL204_lig4368-1

> <s_i_glide_gridfile>
glide-grid_1ype

> <i_i_glide_lignum>
6026

> <i_i_glide_rotatable_bonds>
11

> <r_i_docking_score>
-7.12868460241738

> <r_i_glide_ligand_efficiency>
-0.18759696322151

> <r_i_glide_ligand_efficiency_sa>
-0.630696375976149

> <r_i_glide_ligand_efficiency_ln>
-1.53715410493591

> <r_i_glide_gscore>
-7.12868460241738

> <r_i_glide_lipo>
-2.97550411498369

> <r_i_glide_hbond>
-0.285287109228577

> <r_i_glide_metal>
0

> <r_i_glide_rewards>
-0.644967225161111

> <r_i_glide_evdw>
-54.5629539489746

> <r_i_glide_ecoul>
-5.94012784957886

> <r_i_glide_erotb>
0.423375110144373

> <r_i_glide_esite>
-0.0271343883028173

> <r_i_glide_emodel>
-79.2163551121649

> <r_i_glide_energy>
-60.5030817985535

> <r_i_glide_einternal>
13.0645208358765

> <i_i_glide_confnum>
25

> <i_i_glide_posenum>
268

> <r_i_glide_eff_state_penalty>
0

> <s_user_duplicate_titles>
CHEMBL204_lig4368

> <i_f3d_flags>
0

> <s_m_subgroup_title>
dock_pv

> <s_m_subgroupid>
dock_pv

> <b_m_subgroup_collapsed>
1

$$$$
CHEMBL204_lig5026
                    3D
 Schrodinger Suite 2021-1.
 60 62  0  0  1  0            999 V2000
   18.9678  -13.3849   20.9452 N   0  0  1  0  0  0
   18.6551  -12.2746   20.0335 C   0  0  1  0  0  0
   19.6337  -12.4202   18.8444 C   0  0  0  0  0  0
   20.7572  -13.3187   19.3592 C   0  0  0  0  0  0
   20.4105  -13.5809   20.8206 C   0  0  0  0  0  0
   17.1883  -12.2529   19.5235 C   0  0  0  0  0  0
   16.3062  -13.1366   20.0252 N   0  0  0  0  0  0
   16.8594  -11.4093   18.6857 O   0  0  0  0  0  0
   14.8689  -13.1810   19.7388 C   0  0  0  0  0  0
   14.0373  -12.2946   20.6633 C   0  0  0  0  0  0
   14.3356  -10.9408   20.8121 C   0  0  0  0  0  0
   13.6155  -10.1554   21.7028 C   0  0  0  0  0  0
   12.5789  -10.6955   22.4883 C   0  0  0  0  0  0
   12.2559  -12.0517   22.2852 C   0  0  0  0  0  0
   12.9793  -12.8391   21.3910 C   0  0  0  0  0  0
   18.5364  -13.1664   22.3407 C   0  0  0  0  0  0
   18.6016  -14.4625   23.2011 C   0  0  2  0  0  0
   17.4530  -15.3004   22.8670 N   0  0  0  0  0  0
   18.6429  -14.2467   24.7516 C   0  0  0  0  0  0
   18.8543  -15.5537   25.5649 C   0  0  0  0  0  0
   20.2579  -16.1537   25.3348 C   0  0  0  0  0  0
   21.3728  -15.1306   25.6442 C   0  0  0  0  0  0
   21.1450  -13.7653   24.9599 C   0  0  0  0  0  0
   19.7232  -13.2380   25.2416 C   0  0  0  0  0  0
   11.9042   -9.8522   23.5206 C   0  0  0  0  0  0
   12.3397   -8.6995   23.8010 N   0  0  0  0  0  0
   10.8163  -10.4341   24.1268 N   0  0  0  0  0  0
   18.8128  -11.3138   20.5331 H   0  0  0  0  0  0
   19.1830  -12.8614   17.9513 H   0  0  0  0  0  0
   20.0557  -11.4531   18.5729 H   0  0  0  0  0  0
   20.8139  -14.2524   18.7963 H   0  0  0  0  0  0
   21.7275  -12.8295   19.2720 H   0  0  0  0  0  0
   20.6621  -14.6047   21.1027 H   0  0  0  0  0  0
   20.9900  -12.9385   21.4876 H   0  0  0  0  0  0
   16.6697  -13.7860   20.7117 H   0  0  0  0  0  0
   14.5419  -14.2204   19.8183 H   0  0  0  0  0  0
   14.6736  -12.8713   18.7097 H   0  0  0  0  0  0
   15.1485  -10.4915   20.2586 H   0  0  0  0  0  0
   13.9035   -9.1195   21.8114 H   0  0  0  0  0  0
   11.4749  -12.5349   22.8540 H   0  0  0  0  0  0
   12.7244  -13.8864   21.2926 H   0  0  0  0  0  0
   19.1648  -12.3817   22.7564 H   0  0  0  0  0  0
   17.5237  -12.7648   22.3693 H   0  0  0  0  0  0
   19.4938  -15.0154   22.9169 H   0  0  0  0  0  0
   17.5578  -16.1954   23.3254 H   0  0  0  0  0  0
   16.6062  -14.8959   23.2544 H   0  0  0  0  0  0
   17.6745  -13.8521   25.0654 H   0  0  0  0  0  0
   18.7148  -15.3586   26.6307 H   0  0  0  0  0  0
   18.1029  -16.2951   25.2943 H   0  0  0  0  0  0
   20.3898  -17.0398   25.9580 H   0  0  0  0  0  0
   20.3566  -16.4988   24.3038 H   0  0  0  0  0  0
   21.4154  -14.9692   26.7208 H   0  0  0  0  0  0
   22.3470  -15.5322   25.3590 H   0  0  0  0  0  0
   21.8859  -13.0515   25.3203 H   0  0  0  0  0  0
   21.3073  -13.8563   23.8862 H   0  0  0  0  0  0
   19.6162  -12.2645   24.7678 H   0  0  0  0  0  0
   19.6120  -13.0566   26.3130 H   0  0  0  0  0  0
   11.7912   -8.2712   24.5311 H   0  0  0  0  0  0
   10.2391   -9.9180   24.7820 H   0  0  0  0  0  0
   10.3779  -11.2507   23.7264 H   0  0  0  0  0  0
  1  2  1  0  0  0
  1  5  1  0  0  0
  1 16  1  0  0  0
  2  3  1  0  0  0
  2  6  1  0  0  0
  2 28  1  0  0  0
  3  4  1  0  0  0
  3 29  1  0  0  0
  3 30  1  0  0  0
  4  5  1  0  0  0
  4 31  1  0  0  0
  4 32  1  0  0  0
  5 33  1  0  0  0
  5 34  1  0  0  0
  6  7  1  0  0  0
  6  8  2  0  0  0
  7  9  1  0  0  0
  7 35  1  0  0  0
  9 10  1  0  0  0
  9 36  1  0  0  0
  9 37  1  0  0  0
 10 11  2  0  0  0
 10 15  1  0  0  0
 11 12  1  0  0  0
 11 38  1  0  0  0
 12 13  2  0  0  0
 12 39  1  0  0  0
 13 14  1  0  0  0
 13 25  1  0  0  0
 14 15  2  0  0  0
 14 40  1  0  0  0
 15 41  1  0  0  0
 16 17  1  0  0  0
 16 42  1  0  0  0
 16 43  1  0  0  0
 17 18  1  0  0  0
 17 19  1  0  0  0
 17 44  1  0  0  0
 18 45  1  0  0  0
 18 46  1  0  0  0
 19 20  1  0  0  0
 19 24  1  0  0  0
 19 47  1  0  0  0
 20 21  1  0  0  0
 20 48  1  0  0  0
 20 49  1  0  0  0
 21 22  1  0  0  0
 21 50  1  0  0  0
 21 51  1  0  0  0
 22 23  1  0  0  0
 22 52  1  0  0  0
 22 53  1  0  0  0
 23 24  1  0  0  0
 23 54  1  0  0  0
 23 55  1  0  0  0
 24 56  1  0  0  0
 24 57  1  0  0  0
 25 26  2  0  0  0
 25 27  1  0  0  0
 26 58  1  0  0  0
 27 59  1  0  0  0
 27 60  1  0  0  0
M  END
> <s_m_entry_id>
35433

> <s_m_entry_name>
dock_pv.283

> <s_m_Source_Path>
/home/csk/Desktop/cluster/DUD-E-result/thrb

> <s_m_Source_File>
dock_pv.maegz

> <i_m_Source_File_Index>
283

> <chembl_id>
CHEMBL3423215

> <chembl_pref_name>
None

> <i_lp_mmshare_version>
53161

> <r_lp_tautomer_probability>
1

> <s_lp_Force_Field>
OPLS_2005

> <r_lp_Energy>
51.010601

> <b_lp_Chiralities_Consistent>
1

> <s_lp_Variant>
CHEMBL204_lig5026-1

> <s_i_glide_gridfile>
glide-grid_1ype

> <i_i_glide_lignum>
6873

> <i_i_glide_rotatable_bonds>
8

> <r_i_docking_score>
-7.1215480151881

> <r_i_glide_ligand_efficiency>
-0.263761037599559

> <r_i_glide_ligand_efficiency_sa>
-0.791283111929365

> <r_i_glide_ligand_efficiency_ln>
-1.65777897004083

> <r_i_glide_gscore>
-7.1215480151881

> <r_i_glide_lipo>
-3.32860096995718

> <r_i_glide_hbond>
-0.330742416814876

> <r_i_glide_metal>
0

> <r_i_glide_rewards>
-1.47300801858513

> <r_i_glide_evdw>
-40.7664642333984

> <r_i_glide_ecoul>
-5.79456996917725

> <r_i_glide_erotb>
0.97899979761248

> <r_i_glide_esite>
-0.0606877003968838

> <r_i_glide_emodel>
-63.0078739230468

> <r_i_glide_energy>
-46.5610342025757

> <r_i_glide_einternal>
9.57735919952393

> <i_i_glide_confnum>
110

> <i_i_glide_posenum>
342

> <r_i_glide_eff_state_penalty>
0

> <s_user_duplicate_titles>
CHEMBL204_lig5026

> <i_f3d_flags>
0

> <s_m_subgroup_title>
dock_pv

> <s_m_subgroupid>
dock_pv

> <b_m_subgroup_collapsed>
1

$$$$
CHEMBL204_lig3028
                    3D
 Schrodinger Suite 2021-1.
 60 64  0  0  1  0            999 V2000
   18.3991  -15.8164   24.8981 S   0  0  0  0  0  0
   18.2211  -14.3568   22.4827 C   0  0  0  0  0  0
   18.3018  -12.6282   20.7782 N   0  0  0  0  0  0
   17.6220  -13.1534   21.8738 C   0  0  0  0  0  0
   17.6163  -14.7763   23.6985 N   0  0  0  0  0  0
   16.4004  -12.3083   14.1491 C   0  0  0  0  0  0
   17.0955  -11.5729   12.1193 N   0  0  0  0  0  0
   17.1796  -12.5588   12.9753 C   0  0  0  0  0  0
   16.2833  -10.6533   12.6722 N   0  0  0  0  0  0
   19.4896  -13.2115   20.3086 C   0  0  0  0  0  0
   19.9713  -15.0255   25.2279 C   0  0  0  0  0  0
   19.3202  -14.9421   21.9563 C   0  0  0  0  0  0
   20.0007  -14.3391   20.8394 C   0  0  0  0  0  0
   15.8410  -11.0292   13.9224 C   0  0  0  0  0  0
   17.6763  -11.4236   20.1670 C   0  0  0  0  0  0
   17.6162  -15.7248   26.1324 O   0  0  0  0  0  0
   18.6706  -17.1167   24.2725 O   0  0  0  0  0  0
   17.0289  -11.7825   18.8218 C   0  0  0  0  0  0
   21.1438  -15.5477   24.6667 C   0  0  0  0  0  0
   22.3338  -14.8383   24.7971 C   0  0  0  0  0  0
   16.1189  -12.9742   15.3521 C   0  0  0  0  0  0
   22.3571  -13.6622   25.5184 C   0  0  0  0  0  0
   16.5757  -12.6611   22.3207 O   0  0  0  0  0  0
   15.8364  -12.4053   18.8370 N   0  0  0  0  0  0
   23.5819  -13.0533   25.5190 O   0  0  0  0  0  0
   20.0151  -13.8400   25.9720 C   0  0  0  0  0  0
   17.6159  -11.4644   17.7907 O   0  0  0  0  0  0
   21.2171  -13.1451   26.1275 C   0  0  0  0  0  0
   15.0319  -10.3843   14.8601 C   0  0  0  0  0  0
   17.9357  -13.6725   12.7512 N   0  0  0  0  0  0
   15.3478  -12.3204   16.3203 C   0  0  0  0  0  0
   15.1294  -12.9887   17.6808 C   0  0  0  0  0  0
   14.8160  -11.0533   16.0663 C   0  0  0  0  0  0
   24.4938  -13.9031   24.8162 C   0  0  0  0  0  0
   20.2624  -12.4976   19.2026 C   0  0  0  0  0  0
   23.6828  -15.0504   24.2035 C   0  0  0  0  0  0
   16.6647  -14.4607   23.9215 H   0  0  0  0  0  0
   16.0750   -9.7777   12.1993 H   0  0  0  0  0  0
   19.7276  -15.8467   22.3762 H   0  0  0  0  0  0
   20.9312  -14.7573   20.4806 H   0  0  0  0  0  0
   18.4243  -10.6486   20.0182 H   0  0  0  0  0  0
   16.9421  -10.9293   20.8066 H   0  0  0  0  0  0
   21.1122  -16.4587   24.0866 H   0  0  0  0  0  0
   16.5392  -13.9499   15.5457 H   0  0  0  0  0  0
   15.4504  -12.6283   19.7439 H   0  0  0  0  0  0
   19.1103  -13.4441   26.4050 H   0  0  0  0  0  0
   21.2426  -12.2160   26.6791 H   0  0  0  0  0  0
   14.6235   -9.4033   14.6737 H   0  0  0  0  0  0
   17.5927  -14.5677   13.0718 H   0  0  0  0  0  0
   18.4896  -13.7213   11.9086 H   0  0  0  0  0  0
   14.0592  -12.9966   17.8976 H   0  0  0  0  0  0
   15.4136  -14.0417   17.6220 H   0  0  0  0  0  0
   14.2391  -10.5692   16.8398 H   0  0  0  0  0  0
   25.0580  -13.3470   24.0644 H   0  0  0  0  0  0
   25.2036  -14.3332   25.5204 H   0  0  0  0  0  0
   21.2645  -12.9150   19.0882 H   0  0  0  0  0  0
   19.7712  -12.6179   18.2395 H   0  0  0  0  0  0
   20.3900  -11.4376   19.4200 H   0  0  0  0  0  0
   24.1252  -16.0225   24.4358 H   0  0  0  0  0  0
   23.6510  -14.9353   23.1213 H   0  0  0  0  0  0
  1  5  1  0  0  0
  1 11  1  0  0  0
  1 16  2  0  0  0
  1 17  2  0  0  0
  2  5  1  0  0  0
  2  4  1  0  0  0
  2 12  2  0  0  0
  3  4  1  0  0  0
  3 15  1  0  0  0
  3 10  1  0  0  0
  4 23  2  0  0  0
  5 37  1  0  0  0
  6 21  2  0  0  0
  6  8  1  0  0  0
  6 14  1  0  0  0
  7  8  2  0  0  0
  7  9  1  0  0  0
  8 30  1  0  0  0
  9 14  1  0  0  0
  9 38  1  0  0  0
 10 13  2  0  0  0
 10 35  1  0  0  0
 11 19  2  0  0  0
 11 26  1  0  0  0
 12 13  1  0  0  0
 12 39  1  0  0  0
 13 40  1  0  0  0
 14 29  2  0  0  0
 15 18  1  0  0  0
 15 41  1  0  0  0
 15 42  1  0  0  0
 18 24  1  0  0  0
 18 27  2  0  0  0
 19 20  1  0  0  0
 19 43  1  0  0  0
 20 36  1  0  0  0
 20 22  2  0  0  0
 21 31  1  0  0  0
 21 44  1  0  0  0
 22 28  1  0  0  0
 22 25  1  0  0  0
 24 32  1  0  0  0
 24 45  1  0  0  0
 25 34  1  0  0  0
 26 28  2  0  0  0
 26 46  1  0  0  0
 28 47  1  0  0  0
 29 33  1  0  0  0
 29 48  1  0  0  0
 30 49  1  0  0  0
 30 50  1  0  0  0
 31 32  1  0  0  0
 31 33  2  0  0  0
 32 51  1  0  0  0
 32 52  1  0  0  0
 33 53  1  0  0  0
 34 36  1  0  0  0
 34 54  1  0  0  0
 34 55  1  0  0  0
 35 56  1  0  0  0
 35 57  1  0  0  0
 35 58  1  0  0  0
 36 59  1  0  0  0
 36 60  1  0  0  0
M  END
> <s_m_entry_id>
35434

> <s_m_entry_name>
dock_pv.284

> <s_m_Source_Path>
/home/csk/Desktop/cluster/DUD-E-result/thrb

> <s_m_Source_File>
dock_pv.maegz

> <i_m_Source_File_Index>
284

> <chembl_id>
CHEMBL102193

> <chembl_pref_name>
None

> <i_lp_mmshare_version>
53161

> <r_lp_tautomer_probability>
1

> <s_lp_Force_Field>
OPLS_2005

> <r_lp_Energy>
41.852251

> <b_lp_Chiralities_Consistent>
1

> <s_lp_Variant>
CHEMBL204_lig3028-1

> <s_i_glide_gridfile>
glide-grid_1ype

> <i_i_glide_lignum>
4301

> <i_i_glide_rotatable_bonds>
8

> <r_i_docking_score>
-7.12137716335133

> <r_i_glide_ligand_efficiency>
-0.197816032315315

> <r_i_glide_ligand_efficiency_sa>
-0.653174146589938

> <r_i_glide_ligand_efficiency_ln>
-1.55369209966656

> <r_i_glide_gscore>
-7.12137716335133

> <r_i_glide_lipo>
-2.99430051838305

> <r_i_glide_hbond>
-0.76025533247236

> <r_i_glide_metal>
0

> <r_i_glide_rewards>
0.0457880742372536

> <r_i_glide_evdw>
-47.6219482421875

> <r_i_glide_ecoul>
-10.4042701721191

> <r_i_glide_erotb>
0.633323011304573

> <r_i_glide_esite>
-0.104194460110506

> <r_i_glide_emodel>
-76.7356233673686

> <r_i_glide_energy>
-58.0262184143066

> <r_i_glide_einternal>
10.290584564209

> <i_i_glide_confnum>
46

> <i_i_glide_posenum>
191

> <r_i_glide_eff_state_penalty>
0

> <s_user_duplicate_titles>
CHEMBL204_lig3028

> <i_f3d_flags>
0

> <s_m_subgroup_title>
dock_pv

> <s_m_subgroupid>
dock_pv

> <b_m_subgroup_collapsed>
1

$$$$
CHEMBL204_lig4402
                    3D
 Schrodinger Suite 2021-1.
 59 61  0  0  1  0            999 V2000
   15.8741  -11.7626   18.5913 C   0  0  0  0  0  0
   17.1250  -12.3300   19.2790 C   0  0  0  0  0  0
   18.3908  -12.4594   18.7091 C   0  0  0  0  0  0
   19.6002  -13.0525   19.7749 S   0  0  0  0  0  0
   18.4102  -13.2806   21.0209 C   0  0  0  0  0  0
   17.1558  -12.7770   20.6207 C   0  0  0  0  0  0
   15.7567  -12.6944   21.6358 Cl  0  0  0  0  0  0
   18.8385  -13.8820   22.2655 C   0  0  0  0  0  0
   17.8496  -14.4807   22.9626 N   0  0  0  0  0  0
   20.0264  -13.8873   22.6006 O   0  0  0  0  0  0
   18.0039  -15.2834   24.1159 C   0  0  0  0  0  0
   17.4067  -16.5731   24.1527 C   0  0  0  0  0  0
   17.6427  -17.3964   25.2625 C   0  0  0  0  0  0
   18.4163  -16.9548   26.3281 C   0  0  0  0  0  0
   18.9602  -15.6788   26.3062 C   0  0  0  0  0  0
   18.7517  -14.8168   25.2228 C   0  0  0  0  0  0
   16.5251  -17.1235   23.0536 C   0  0  0  0  0  0
   16.7500  -18.2350   22.5731 O   0  0  0  0  0  0
   15.4892  -16.3284   22.7167 N   0  0  0  0  0  0
   18.6822  -17.9819   27.6896 Cl  0  0  0  0  0  0
   14.4680  -16.5367   21.7724 C   0  0  0  0  0  0
   14.4216  -17.6504   20.9849 N   0  0  0  0  0  0
   13.3776  -17.7934   20.1262 C   0  0  0  0  0  0
   12.3547  -16.8493   20.0165 C   0  0  0  0  0  0
   12.4167  -15.7048   20.8116 C   0  0  0  0  0  0
   13.4846  -15.5432   21.6973 C   0  0  0  0  0  0
   11.0356  -17.0899   18.9312 Cl  0  0  0  0  0  0
   19.2165  -13.5120   25.2165 O   0  0  0  0  0  0
   20.0991  -13.0570   26.2395 C   0  0  0  0  0  0
   15.8220  -11.8433   17.1221 N   0  0  1  0  0  0
   16.6212  -10.7983   16.4546 C   0  0  0  0  0  0
   15.8423  -13.2199   16.6231 C   0  0  0  0  0  0
   16.7500  -10.8006   14.9104 C   0  0  1  0  0  0
   17.5318  -11.8962   14.4716 O   0  0  0  0  0  0
   15.4085  -10.7220   14.1498 C   0  0  0  0  0  0
   14.8158   -9.4529   14.3210 O   0  0  0  0  0  0
   15.7418  -10.7263   18.9023 H   0  0  0  0  0  0
   14.9915  -12.2883   18.9630 H   0  0  0  0  0  0
   18.6855  -12.2407   17.6967 H   0  0  0  0  0  0
   16.9446  -14.5020   22.5188 H   0  0  0  0  0  0
   17.2147  -18.3882   25.3090 H   0  0  0  0  0  0
   19.5520  -15.3632   27.1454 H   0  0  0  0  0  0
   15.3582  -15.5015   23.2941 H   0  0  0  0  0  0
   13.3641  -18.6900   19.5237 H   0  0  0  0  0  0
   11.6388  -14.9571   20.7571 H   0  0  0  0  0  0
   13.5220  -14.6614   22.3207 H   0  0  0  0  0  0
   20.4125  -12.0360   26.0165 H   0  0  0  0  0  0
   19.6169  -13.0528   27.2181 H   0  0  0  0  0  0
   21.0012  -13.6674   26.2950 H   0  0  0  0  0  0
   17.6159  -10.7226   16.8785 H   0  0  0  0  0  0
   16.1521   -9.8530   16.7206 H   0  0  0  0  0  0
   15.1176  -13.8324   17.1644 H   0  0  0  0  0  0
   15.5628  -13.2728   15.5711 H   0  0  0  0  0  0
   16.8167  -13.6871   16.7439 H   0  0  0  0  0  0
   17.3284   -9.9147   14.6434 H   0  0  0  0  0  0
   17.0063  -12.6959   14.5800 H   0  0  0  0  0  0
   14.7141  -11.4868   14.4910 H   0  0  0  0  0  0
   15.5555  -10.8946   13.0817 H   0  0  0  0  0  0
   15.1522   -8.8641   13.6272 H   0  0  0  0  0  0
  1 30  1  0  0  0
  1  2  1  0  0  0
  1 37  1  0  0  0
  1 38  1  0  0  0
  2  3  2  0  0  0
  2  6  1  0  0  0
  3  4  1  0  0  0
  3 39  1  0  0  0
  4  5  1  0  0  0
  5  8  1  0  0  0
  5  6  2  0  0  0
  6  7  1  0  0  0
  8  9  1  0  0  0
  8 10  2  0  0  0
  9 11  1  0  0  0
  9 40  1  0  0  0
 11 12  2  0  0  0
 11 16  1  0  0  0
 12 13  1  0  0  0
 12 17  1  0  0  0
 13 14  2  0  0  0
 13 41  1  0  0  0
 14 15  1  0  0  0
 14 20  1  0  0  0
 15 16  2  0  0  0
 15 42  1  0  0  0
 16 28  1  0  0  0
 17 18  2  0  0  0
 17 19  1  0  0  0
 19 21  1  0  0  0
 19 43  1  0  0  0
 21 22  2  0  0  0
 21 26  1  0  0  0
 22 23  1  0  0  0
 23 24  2  0  0  0
 23 44  1  0  0  0
 24 25  1  0  0  0
 24 27  1  0  0  0
 25 26  2  0  0  0
 25 45  1  0  0  0
 26 46  1  0  0  0
 28 29  1  0  0  0
 29 47  1  0  0  0
 29 48  1  0  0  0
 29 49  1  0  0  0
 30 31  1  0  0  0
 30 32  1  0  0  0
 31 33  1  0  0  0
 31 50  1  0  0  0
 31 51  1  0  0  0
 32 52  1  0  0  0
 32 53  1  0  0  0
 32 54  1  0  0  0
 33 34  1  0  0  0
 33 35  1  0  0  0
 33 55  1  0  0  0
 34 56  1  0  0  0
 35 36  1  0  0  0
 35 57  1  0  0  0
 35 58  1  0  0  0
 36 59  1  0  0  0
M  END
> <s_m_entry_id>
35435

> <s_m_entry_name>
dock_pv.285

> <s_m_Source_Path>
/home/csk/Desktop/cluster/DUD-E-result/thrb

> <s_m_Source_File>
dock_pv.maegz

> <i_m_Source_File_Index>
285

> <chembl_id>
CHEMBL227250

> <chembl_pref_name>
None

> <i_lp_mmshare_version>
53161

> <r_lp_tautomer_probability>
1

> <s_lp_Force_Field>
OPLS_2005

> <r_lp_Energy>
53.394963

> <b_lp_Chiralities_Consistent>
1

> <s_lp_Variant>
CHEMBL204_lig4402-2

> <s_i_glide_gridfile>
glide-grid_1ype

> <i_i_glide_lignum>
6063

> <i_i_glide_rotatable_bonds>
14

> <r_i_docking_score>
-7.11496119831776

> <r_i_glide_ligand_efficiency>
-0.197637811064382

> <r_i_glide_ligand_efficiency_sa>
-0.652585672985853

> <r_i_glide_ligand_efficiency_ln>
-1.55229230943558

> <r_i_glide_gscore>
-7.11496119831776

> <r_i_glide_lipo>
-2.50557034468911

> <r_i_glide_hbond>
-0.75088322099068

> <r_i_glide_metal>
0

> <r_i_glide_rewards>
-0.180191445951791

> <r_i_glide_evdw>
-41.4722442626953

> <r_i_glide_ecoul>
-14.438759803772

> <r_i_glide_erotb>
0.603276860093914

> <r_i_glide_esite>
-0.0421668630795259

> <r_i_glide_emodel>
-75.820954216639

> <r_i_glide_energy>
-55.9110040664673

> <r_i_glide_einternal>
9.31924343109131

> <i_i_glide_confnum>
226

> <i_i_glide_posenum>
196

> <r_i_glide_eff_state_penalty>
0

> <s_user_duplicate_titles>
CHEMBL204_lig4402

> <i_f3d_flags>
0

> <s_m_subgroup_title>
dock_pv

> <s_m_subgroupid>
dock_pv

> <b_m_subgroup_collapsed>
1

$$$$
CHEMBL204_lig5022
                    3D
 Schrodinger Suite 2021-1.
 55 56  0  0  1  0            999 V2000
   18.7070  -13.7878   21.1543 N   0  0  0  0  0  0
   18.6464  -12.6641   20.1901 C   0  0  1  0  0  0
   19.7852  -12.9551   19.2008 C   0  0  0  0  0  0
   20.7137  -13.9255   19.8957 C   0  0  0  0  0  0
   19.8021  -14.7037   20.8252 C   0  0  0  0  0  0
   17.3285  -12.4451   19.4136 C   0  0  0  0  0  0
   16.3661  -13.3791   19.4894 N   0  0  0  0  0  0
   17.2175  -11.4229   18.7369 O   0  0  0  0  0  0
   15.0133  -13.2116   18.9573 C   0  0  0  0  0  0
   14.0728  -12.5945   19.9855 C   0  0  0  0  0  0
   14.2463  -11.2739   20.4017 C   0  0  0  0  0  0
   13.4346  -10.7434   21.3982 C   0  0  0  0  0  0
   12.4257  -11.5125   22.0032 C   0  0  0  0  0  0
   12.2325  -12.8202   21.5213 C   0  0  0  0  0  0
   13.0419  -13.3578   20.5280 C   0  0  0  0  0  0
   17.8910  -13.8832   22.2354 C   0  0  0  0  0  0
   18.0606  -15.0985   23.1946 C   0  0  2  0  0  0
   17.0106  -13.0535   22.4826 O   0  0  0  0  0  0
   16.8160  -15.8720   23.1122 N   0  0  0  0  0  0
   18.3418  -14.6817   24.6597 C   0  0  0  0  0  0
   19.8247  -14.3832   24.9748 C   0  0  0  0  0  0
   20.0386  -14.2850   26.4903 C   0  0  0  0  0  0
   20.3873  -13.1330   24.2806 C   0  0  0  0  0  0
   11.6163  -10.9484   23.1202 C   0  0  0  0  0  0
   11.6946   -9.7364   23.4422 N   0  0  0  0  0  0
   10.8160  -11.8528   23.7676 N   0  0  0  0  0  0
   18.8728  -11.7504   20.7453 H   0  0  0  0  0  0
   20.2969  -12.0550   18.8624 H   0  0  0  0  0  0
   19.3867  -13.4518   18.3204 H   0  0  0  0  0  0
   21.4614  -13.3790   20.4718 H   0  0  0  0  0  0
   21.2167  -14.5817   19.1897 H   0  0  0  0  0  0
   20.3843  -15.0391   21.6833 H   0  0  0  0  0  0
   19.3902  -15.5801   20.3224 H   0  0  0  0  0  0
   16.5150  -14.1730   20.0960 H   0  0  0  0  0  0
   15.0110  -12.5727   18.0721 H   0  0  0  0  0  0
   14.6391  -14.1831   18.6287 H   0  0  0  0  0  0
   15.0329  -10.6632   19.9816 H   0  0  0  0  0  0
   13.6231   -9.7283   21.7191 H   0  0  0  0  0  0
   11.4550  -13.4518   21.9206 H   0  0  0  0  0  0
   12.8818  -14.3778   20.2082 H   0  0  0  0  0  0
   18.8447  -15.7881   22.8945 H   0  0  0  0  0  0
   16.8823  -16.7444   23.6162 H   0  0  0  0  0  0
   16.0489  -15.3440   23.5263 H   0  0  0  0  0  0
   18.0512  -15.5127   25.3055 H   0  0  0  0  0  0
   17.7037  -13.8539   24.9730 H   0  0  0  0  0  0
   20.4112  -15.2384   24.6366 H   0  0  0  0  0  0
   19.6505  -13.3444   26.8861 H   0  0  0  0  0  0
   21.1015  -14.3432   26.7234 H   0  0  0  0  0  0
   19.5400  -15.0967   27.0206 H   0  0  0  0  0  0
   19.6165  -12.3961   24.0543 H   0  0  0  0  0  0
   21.1281  -12.6512   24.9134 H   0  0  0  0  0  0
   20.8921  -13.3893   23.3500 H   0  0  0  0  0  0
   11.0769   -9.5407   24.2169 H   0  0  0  0  0  0
   10.1239  -11.5365   24.4398 H   0  0  0  0  0  0
   10.8163  -12.8373   23.5212 H   0  0  0  0  0  0
  1  2  1  0  0  0
  1  5  1  0  0  0
  1 16  1  0  0  0
  2  3  1  0  0  0
  2  6  1  0  0  0
  2 27  1  0  0  0
  3  4  1  0  0  0
  3 28  1  0  0  0
  3 29  1  0  0  0
  4  5  1  0  0  0
  4 30  1  0  0  0
  4 31  1  0  0  0
  5 32  1  0  0  0
  5 33  1  0  0  0
  6  7  1  0  0  0
  6  8  2  0  0  0
  7  9  1  0  0  0
  7 34  1  0  0  0
  9 10  1  0  0  0
  9 35  1  0  0  0
  9 36  1  0  0  0
 10 11  2  0  0  0
 10 15  1  0  0  0
 11 12  1  0  0  0
 11 37  1  0  0  0
 12 13  2  0  0  0
 12 38  1  0  0  0
 13 14  1  0  0  0
 13 24  1  0  0  0
 14 15  2  0  0  0
 14 39  1  0  0  0
 15 40  1  0  0  0
 16 17  1  0  0  0
 16 18  2  0  0  0
 17 19  1  0  0  0
 17 20  1  0  0  0
 17 41  1  0  0  0
 19 42  1  0  0  0
 19 43  1  0  0  0
 20 21  1  0  0  0
 20 44  1  0  0  0
 20 45  1  0  0  0
 21 22  1  0  0  0
 21 23  1  0  0  0
 21 46  1  0  0  0
 22 47  1  0  0  0
 22 48  1  0  0  0
 22 49  1  0  0  0
 23 50  1  0  0  0
 23 51  1  0  0  0
 23 52  1  0  0  0
 24 25  2  0  0  0
 24 26  1  0  0  0
 25 53  1  0  0  0
 26 54  1  0  0  0
 26 55  1  0  0  0
M  END
> <s_m_entry_id>
35436

> <s_m_entry_name>
dock_pv.286

> <s_m_Source_Path>
/home/csk/Desktop/cluster/DUD-E-result/thrb

> <s_m_Source_File>
dock_pv.maegz

> <i_m_Source_File_Index>
286

> <chembl_id>
CHEMBL3423208

> <chembl_pref_name>
None

> <i_lp_mmshare_version>
53161

> <r_lp_tautomer_probability>
1

> <s_lp_Force_Field>
OPLS_2005

> <r_lp_Energy>
18.837242

> <b_lp_Chiralities_Consistent>
1

> <s_lp_Variant>
CHEMBL204_lig5022-1

> <s_i_glide_gridfile>
glide-grid_1ype

> <i_i_glide_lignum>
6869

> <i_i_glide_rotatable_bonds>
9

> <r_i_docking_score>
-7.11455100648975

> <r_i_glide_ligand_efficiency>
-0.273636577172683

> <r_i_glide_ligand_efficiency_sa>
-0.810647283166133

> <r_i_glide_ligand_efficiency_ln>
-1.67082895912818

> <r_i_glide_gscore>
-7.11455100648975

> <r_i_glide_lipo>
-2.69171246200818

> <r_i_glide_hbond>
-0.344106477282117

> <r_i_glide_metal>
0

> <r_i_glide_rewards>
-1.47619472559516

> <r_i_glide_evdw>
-38.7196388244629

> <r_i_glide_ecoul>
-10.6716966629028

> <r_i_glide_erotb>
1.03837261807802

> <r_i_glide_esite>
-0.104173519023745

> <r_i_glide_emodel>
-69.8851875125283

> <r_i_glide_energy>
-49.3913354873657

> <r_i_glide_einternal>
2.62566184997559

> <i_i_glide_confnum>
105

> <i_i_glide_posenum>
373

> <r_i_glide_eff_state_penalty>
0

> <s_user_duplicate_titles>
CHEMBL204_lig5022

> <i_f3d_flags>
0

> <s_m_subgroup_title>
dock_pv

> <s_m_subgroupid>
dock_pv

> <b_m_subgroup_collapsed>
1

$$$$
CHEMBL204_lig49
                    3D
 Schrodinger Suite 2021-1.
 36 38  0  0  1  0            999 V2000
   14.8661  -12.1386   19.2426 S   0  0  0  0  0  0
   16.3055  -11.4199   19.7369 O   0  0  0  0  0  0
   18.7780  -12.2528   18.6131 O   0  0  0  0  0  0
   16.0841  -12.6538   22.3210 O   0  0  0  0  0  0
   15.0116  -13.6008   19.2694 O   0  0  0  0  0  0
   14.4161  -11.4531   18.0285 O   0  0  0  0  0  0
   17.2195  -12.3005   20.3316 N   0  0  0  0  0  0
   19.0691  -13.5073   20.6988 C   0  0  0  0  0  0
   18.2657  -13.6165   21.8082 C   0  0  0  0  0  0
   18.3842  -12.6205   19.7205 C   0  0  0  0  0  0
   17.0436  -12.8113   21.5713 C   0  0  0  0  0  0
   13.7944  -11.5819   20.5929 C   0  0  0  0  0  0
   12.7756  -12.3856   21.1456 C   0  0  0  0  0  0
   20.2961  -14.1703   20.6315 C   0  0  0  0  0  0
   18.6450  -14.3941   22.9050 C   0  0  0  0  0  0
   13.9949  -10.2930   21.1064 C   0  0  0  0  0  0
   20.6844  -14.9630   21.7161 C   0  0  0  0  0  0
   19.8668  -15.0731   22.8485 C   0  0  0  0  0  0
   12.0087  -11.8953   22.2080 C   0  0  0  0  0  0
   12.2337  -10.6205   22.7286 C   0  0  0  0  0  0
   13.2160   -9.8116   22.1583 C   0  0  0  0  0  0
   12.4648  -13.7849   20.6347 C   0  0  0  0  0  0
   11.4244  -10.1345   23.9193 C   0  0  0  0  0  0
   20.9377  -14.0934   19.7627 H   0  0  0  0  0  0
   18.0142  -14.4831   23.7775 H   0  0  0  0  0  0
   14.7713   -9.6581   20.7060 H   0  0  0  0  0  0
   21.6161  -15.5049   21.6804 H   0  0  0  0  0  0
   20.1818  -15.6872   23.6816 H   0  0  0  0  0  0
   11.2417  -12.5174   22.6478 H   0  0  0  0  0  0
   13.3970   -8.8223   22.5489 H   0  0  0  0  0  0
   13.2884  -14.4645   20.8631 H   0  0  0  0  0  0
   11.5633  -14.1981   21.0862 H   0  0  0  0  0  0
   12.3162  -13.7738   19.5543 H   0  0  0  0  0  0
   11.3111   -9.0523   23.9174 H   0  0  0  0  0  0
   11.9085  -10.4175   24.8523 H   0  0  0  0  0  0
   10.4166  -10.5548   23.9128 H   0  0  0  0  0  0
  1  2  1  0  0  0
  1  5  2  0  0  0
  1  6  2  0  0  0
  1 12  1  0  0  0
  2  7  1  0  0  0
  3 10  2  0  0  0
  4 11  2  0  0  0
  7 10  1  0  0  0
  7 11  1  0  0  0
  8  9  1  0  0  0
  8 10  1  0  0  0
  8 14  2  0  0  0
  9 11  1  0  0  0
  9 15  2  0  0  0
 12 13  1  0  0  0
 12 16  2  0  0  0
 13 19  2  0  0  0
 13 22  1  0  0  0
 14 17  1  0  0  0
 14 24  1  0  0  0
 15 18  1  0  0  0
 15 25  1  0  0  0
 16 21  1  0  0  0
 16 26  1  0  0  0
 17 18  2  0  0  0
 17 27  1  0  0  0
 18 28  1  0  0  0
 19 20  1  0  0  0
 19 29  1  0  0  0
 20 21  2  0  0  0
 20 23  1  0  0  0
 21 30  1  0  0  0
 22 31  1  0  0  0
 22 32  1  0  0  0
 22 33  1  0  0  0
 23 34  1  0  0  0
 23 35  1  0  0  0
 23 36  1  0  0  0
M  END
> <s_m_entry_id>
35437

> <s_m_entry_name>
dock_pv.287

> <s_m_Source_Path>
/home/csk/Desktop/cluster/DUD-E-result/thrb

> <s_m_Source_File>
dock_pv.maegz

> <i_m_Source_File_Index>
287

> <chembl_id>
CHEMBL1566197

> <chembl_pref_name>
None

> <i_lp_mmshare_version>
53161

> <r_lp_tautomer_probability>
1

> <s_lp_Force_Field>
OPLS_2005

> <r_lp_Energy>
36.640888

> <b_lp_Chiralities_Consistent>
1

> <s_lp_Variant>
CHEMBL204_lig49-1

> <s_i_glide_gridfile>
glide-grid_1ype

> <i_i_glide_lignum>
53

> <i_i_glide_rotatable_bonds>
3

> <r_i_docking_score>
-7.11340777738315

> <r_i_glide_ligand_efficiency>
-0.309278599016659

> <r_i_glide_ligand_efficiency_sa>
-0.879547194398956

> <r_i_glide_ligand_efficiency_ln>
-1.72008650138686

> <r_i_glide_gscore>
-7.11340777738315

> <r_i_glide_lipo>
-2.32544960109846

> <r_i_glide_hbond>
-0.32

> <r_i_glide_metal>
0

> <r_i_glide_rewards>
-2.10523146620322

> <r_i_glide_evdw>
-37.7093353271484

> <r_i_glide_ecoul>
-6.60329484939575

> <r_i_glide_erotb>
0.514261709118001

> <r_i_glide_esite>
-0.00102742543268292

> <r_i_glide_emodel>
-61.4928859726101

> <r_i_glide_energy>
-44.3126301765442

> <r_i_glide_einternal>
4.8275933265686

> <i_i_glide_confnum>
7

> <i_i_glide_posenum>
300

> <r_i_glide_eff_state_penalty>
0

> <s_user_duplicate_titles>
CHEMBL204_lig49

> <i_f3d_flags>
0

> <s_m_subgroup_title>
dock_pv

> <s_m_subgroupid>
dock_pv

> <b_m_subgroup_collapsed>
1

$$$$
CHEMBL204_lig3536
                    3D
 Schrodinger Suite 2021-1.
 54 56  0  0  1  0            999 V2000
   18.6392  -15.3082   23.3927 S   0  0  0  0  0  0
   20.1849  -14.7057   24.0965 C   0  0  0  0  0  0
   11.6162  -11.0185   23.0654 C   0  0  0  0  0  0
   12.2518  -11.6428   21.9370 N   0  0  0  0  0  0
   19.0338  -15.3882   21.7658 O   0  0  0  0  0  0
   18.7080  -14.3351   20.9509 C   0  0  0  0  0  0
   17.6191  -14.2717   23.5987 O   0  0  0  0  0  0
   18.4535  -16.6785   23.8820 O   0  0  0  0  0  0
   11.7386   -9.8081   23.3750 N   0  0  0  0  0  0
   20.2325  -14.3190   25.4454 C   0  0  0  0  0  0
   17.3834  -14.1154   20.5754 C   0  0  0  0  0  0
   19.7129  -13.5206   20.4384 C   0  0  0  0  0  0
   17.0573  -13.0657   19.7025 C   0  0  0  0  0  0
   18.0777  -12.2604   19.2034 C   0  0  0  0  0  0
   19.4077  -12.4779   19.5518 C   0  0  0  0  0  0
   12.0725  -13.0728   21.6020 C   0  0  0  0  0  0
   13.3553  -10.9667   21.2292 C   0  0  0  0  0  0
   10.8156  -11.8528   23.8646 N   0  0  0  0  0  0
   15.7826  -12.7684   19.2759 O   0  0  0  0  0  0
   18.8720  -14.5155   26.4937 Cl  0  0  0  0  0  0
   14.6803  -13.4470   19.8647 C   0  0  0  0  0  0
   12.1353  -13.3746   20.0878 C   0  0  0  0  0  0
   13.3271  -11.2507   19.7133 C   0  0  0  0  0  0
   21.3530  -14.6370   23.3262 C   0  0  0  0  0  0
   13.3723  -12.7622   19.4177 C   0  0  0  0  0  0
   20.3440  -11.6485   18.9727 O   0  0  0  0  0  0
   21.4126  -13.8018   25.9804 C   0  0  0  0  0  0
   21.7103  -11.8560   19.2872 C   0  0  0  0  0  0
   22.5319  -14.1292   23.8709 C   0  0  0  0  0  0
   22.5607  -13.7033   25.1971 C   0  0  0  0  0  0
   11.1857   -9.5977   24.1932 H   0  0  0  0  0  0
   16.6239  -14.7731   20.9696 H   0  0  0  0  0  0
   20.7312  -13.7235   20.7199 H   0  0  0  0  0  0
   17.8296  -11.4570   18.5264 H   0  0  0  0  0  0
   12.7951  -13.6705   22.1599 H   0  0  0  0  0  0
   11.0835  -13.3942   21.9204 H   0  0  0  0  0  0
   14.2959  -11.3001   21.6659 H   0  0  0  0  0  0
   13.3149   -9.8871   21.3817 H   0  0  0  0  0  0
   10.2158  -11.4904   24.5968 H   0  0  0  0  0  0
   10.6524  -12.8263   23.6327 H   0  0  0  0  0  0
   14.7637  -13.4322   20.9534 H   0  0  0  0  0  0
   14.6825  -14.4910   19.5479 H   0  0  0  0  0  0
   12.1492  -14.4576   19.9557 H   0  0  0  0  0  0
   11.2147  -13.0539   19.6041 H   0  0  0  0  0  0
   12.4530  -10.7762   19.2686 H   0  0  0  0  0  0
   14.1943  -10.7669   19.2654 H   0  0  0  0  0  0
   21.3676  -14.9904   22.3066 H   0  0  0  0  0  0
   13.2697  -12.8943   18.3387 H   0  0  0  0  0  0
   21.4410  -13.4876   27.0143 H   0  0  0  0  0  0
   22.3379  -11.2520   18.6357 H   0  0  0  0  0  0
   21.9274  -11.5830   20.3208 H   0  0  0  0  0  0
   22.0042  -12.8899   19.1209 H   0  0  0  0  0  0
   23.4259  -14.0699   23.2690 H   0  0  0  0  0  0
   23.4746  -13.3128   25.6218 H   0  0  0  0  0  0
  1  2  1  0  0  0
  1  5  1  0  0  0
  1  7  2  0  0  0
  1  8  2  0  0  0
  2 10  1  0  0  0
  2 24  2  0  0  0
  3  4  1  0  0  0
  3  9  2  0  0  0
  3 18  1  0  0  0
  4 17  1  0  0  0
  4 16  1  0  0  0
  5  6  1  0  0  0
  6 11  2  0  0  0
  6 12  1  0  0  0
  9 31  1  0  0  0
 10 20  1  0  0  0
 10 27  2  0  0  0
 11 13  1  0  0  0
 11 32  1  0  0  0
 12 15  2  0  0  0
 12 33  1  0  0  0
 13 19  1  0  0  0
 13 14  2  0  0  0
 14 15  1  0  0  0
 14 34  1  0  0  0
 15 26  1  0  0  0
 16 22  1  0  0  0
 16 35  1  0  0  0
 16 36  1  0  0  0
 17 23  1  0  0  0
 17 37  1  0  0  0
 17 38  1  0  0  0
 18 39  1  0  0  0
 18 40  1  0  0  0
 19 21  1  0  0  0
 21 25  1  0  0  0
 21 41  1  0  0  0
 21 42  1  0  0  0
 22 25  1  0  0  0
 22 43  1  0  0  0
 22 44  1  0  0  0
 23 25  1  0  0  0
 23 45  1  0  0  0
 23 46  1  0  0  0
 24 29  1  0  0  0
 24 47  1  0  0  0
 25 48  1  0  0  0
 26 28  1  0  0  0
 27 30  1  0  0  0
 27 49  1  0  0  0
 28 50  1  0  0  0
 28 51  1  0  0  0
 28 52  1  0  0  0
 29 30  2  0  0  0
 29 53  1  0  0  0
 30 54  1  0  0  0
M  END
> <s_m_entry_id>
35438

> <s_m_entry_name>
dock_pv.288

> <s_m_Source_Path>
/home/csk/Desktop/cluster/DUD-E-result/thrb

> <s_m_Source_File>
dock_pv.maegz

> <i_m_Source_File_Index>
288

> <chembl_id>
CHEMBL166779

> <chembl_pref_name>
None

> <i_lp_mmshare_version>
53161

> <r_lp_tautomer_probability>
1

> <s_lp_Force_Field>
OPLS_2005

> <r_lp_Energy>
27.495913

> <b_lp_Chiralities_Consistent>
1

> <s_lp_Variant>
CHEMBL204_lig3536-1

> <s_i_glide_gridfile>
glide-grid_1ype

> <i_i_glide_lignum>
4928

> <i_i_glide_rotatable_bonds>
8

> <r_i_docking_score>
-7.1064956367331

> <r_i_glide_ligand_efficiency>
-0.236883187891103

> <r_i_glide_ligand_efficiency_sa>
-0.736051140694727

> <r_i_glide_ligand_efficiency_ln>
-1.6146732401375

> <r_i_glide_gscore>
-7.1064956367331

> <r_i_glide_lipo>
-3.31978910980936

> <r_i_glide_hbond>
-0.376131800218404

> <r_i_glide_metal>
0

> <r_i_glide_rewards>
-0.811639242007597

> <r_i_glide_evdw>
-42.8165740966797

> <r_i_glide_ecoul>
-6.4192795753479

> <r_i_glide_erotb>
0.584595580890768

> <r_i_glide_esite>
-0.0798104244523357

> <r_i_glide_emodel>
-70.9857180348998

> <r_i_glide_energy>
-49.2358536720276

> <r_i_glide_einternal>
2.60283017158508

> <i_i_glide_confnum>
34

> <i_i_glide_posenum>
75

> <r_i_glide_eff_state_penalty>
0

> <s_user_duplicate_titles>
CHEMBL204_lig3536,278938

> <i_f3d_flags>
0

> <s_m_subgroup_title>
dock_pv

> <s_m_subgroupid>
dock_pv

> <b_m_subgroup_collapsed>
1

$$$$
CHEMBL204_lig1909
                    3D
 Schrodinger Suite 2021-1.
 59 59  0  0  1  0            999 V2000
   18.5768  -12.8678   20.6342 N   0  0  0  0  0  0
   14.2334  -13.4633   20.9601 C   0  0  0  0  0  0
   20.5956  -12.4024   19.2803 B   0  0  0  0  0  0
   19.7864  -13.4948   20.0975 C   0  0  1  0  0  0
   23.5445  -13.9806   24.5080 C   0  0  0  0  0  0
   12.8512  -13.9634   21.4004 C   0  0  2  0  0  0
   12.4751  -15.1639   20.6566 N   0  0  0  0  0  0
   17.4836  -13.5320   21.0413 C   0  0  0  0  0  0
   15.1631  -13.3758   21.9199 N   0  0  0  0  0  0
   12.8966  -16.4017   20.9559 C   0  0  0  0  0  0
   24.8158  -13.4238   24.3211 N   0  0  0  0  0  0
   11.7712  -12.8801   21.1857 C   0  0  0  0  0  0
   14.3998  -13.0949   19.7955 O   0  0  0  0  0  0
   17.3512  -14.7504   20.9229 O   0  0  0  0  0  0
   13.6159  -16.6602   21.9209 O   0  0  0  0  0  0
   22.8406  -14.3407   23.5210 N   0  0  0  0  0  0
   16.4298  -12.6705   21.7425 C   0  0  0  0  0  0
   23.2158  -14.1100   25.8726 N   0  0  0  0  0  0
   20.3631  -12.2530   17.9478 O   0  0  0  0  0  0
   21.3353  -11.4663   19.9211 O   0  0  0  0  0  0
   11.9671  -11.5626   21.9181 C   0  0  0  0  0  0
   20.6184  -14.2582   21.1698 C   0  0  0  0  0  0
   12.4217  -17.5262   20.0439 C   0  0  0  0  0  0
   21.3986  -14.4784   23.6472 C   0  0  0  0  0  0
   12.8340  -10.5697   21.4142 C   0  0  0  0  0  0
   11.3609  -11.3677   23.1755 C   0  0  0  0  0  0
   20.7022  -13.6141   22.5778 C   0  0  0  0  0  0
   11.5747  -10.1888   23.8760 C   0  0  0  0  0  0
   13.0539   -9.4094   22.1410 C   0  0  0  0  0  0
   12.4160   -9.2118   23.3592 C   0  0  0  0  0  0
   18.5908  -11.8617   20.7190 H   0  0  0  0  0  0
   19.4841  -14.2253   19.3463 H   0  0  0  0  0  0
   12.8731  -14.2022   22.4667 H   0  0  0  0  0  0
   11.8913  -15.0173   19.8470 H   0  0  0  0  0  0
   14.9823  -13.8122   22.8213 H   0  0  0  0  0  0
   25.1883  -13.4517   23.3843 H   0  0  0  0  0  0
   25.5332  -13.6787   24.9810 H   0  0  0  0  0  0
   11.6585  -12.6679   20.1215 H   0  0  0  0  0  0
   10.8161  -13.2753   21.5209 H   0  0  0  0  0  0
   16.8159  -12.3956   22.7209 H   0  0  0  0  0  0
   16.2730  -11.7433   21.1872 H   0  0  0  0  0  0
   22.4372  -14.7102   26.0929 H   0  0  0  0  0  0
   23.9765  -14.2531   26.5257 H   0  0  0  0  0  0
   19.8094  -12.9630   17.6158 H   0  0  0  0  0  0
   21.4245  -11.6725   20.8540 H   0  0  0  0  0  0
   21.6159  -14.4540   20.7847 H   0  0  0  0  0  0
   20.1681  -15.2452   21.2900 H   0  0  0  0  0  0
   13.2522  -17.8874   19.4354 H   0  0  0  0  0  0
   12.0436  -18.3584   20.6400 H   0  0  0  0  0  0
   11.6242  -17.1958   19.3757 H   0  0  0  0  0  0
   21.1145  -15.5258   23.5353 H   0  0  0  0  0  0
   21.0160  -14.1709   24.6247 H   0  0  0  0  0  0
   13.3332  -10.7112   20.4672 H   0  0  0  0  0  0
   10.7077  -12.1226   23.5924 H   0  0  0  0  0  0
   19.6964  -13.4033   22.9411 H   0  0  0  0  0  0
   21.2065  -12.6534   22.5184 H   0  0  0  0  0  0
   11.0769  -10.0351   24.8230 H   0  0  0  0  0  0
   13.7242   -8.6542   21.7588 H   0  0  0  0  0  0
   12.5855   -8.3028   23.9177 H   0  0  0  0  0  0
  1  4  1  0  0  0
  1  8  1  0  0  0
  1 31  1  0  0  0
  2  9  1  0  0  0
  2  6  1  0  0  0
  2 13  2  0  0  0
  3  4  1  0  0  0
  3 19  1  0  0  0
  3 20  1  0  0  0
  4 22  1  0  0  0
  4 32  1  0  0  0
  5 16  2  0  0  0
  5 11  1  0  0  0
  5 18  1  0  0  0
  6  7  1  0  0  0
  6 12  1  0  0  0
  6 33  1  0  0  0
  7 10  1  0  0  0
  7 34  1  0  0  0
  8 14  2  0  0  0
  8 17  1  0  0  0
  9 17  1  0  0  0
  9 35  1  0  0  0
 10 15  2  0  0  0
 10 23  1  0  0  0
 11 36  1  0  0  0
 11 37  1  0  0  0
 12 21  1  0  0  0
 12 38  1  0  0  0
 12 39  1  0  0  0
 16 24  1  0  0  0
 17 40  1  0  0  0
 17 41  1  0  0  0
 18 42  1  0  0  0
 18 43  1  0  0  0
 19 44  1  0  0  0
 20 45  1  0  0  0
 21 25  2  0  0  0
 21 26  1  0  0  0
 22 27  1  0  0  0
 22 46  1  0  0  0
 22 47  1  0  0  0
 23 48  1  0  0  0
 23 49  1  0  0  0
 23 50  1  0  0  0
 24 27  1  0  0  0
 24 51  1  0  0  0
 24 52  1  0  0  0
 25 29  1  0  0  0
 25 53  1  0  0  0
 26 28  2  0  0  0
 26 54  1  0  0  0
 27 55  1  0  0  0
 27 56  1  0  0  0
 28 30  1  0  0  0
 28 57  1  0  0  0
 29 30  2  0  0  0
 29 58  1  0  0  0
 30 59  1  0  0  0
M  END
> <s_m_entry_id>
35439

> <s_m_entry_name>
dock_pv.289

> <s_m_Source_Path>
/home/csk/Desktop/cluster/DUD-E-result/thrb

> <s_m_Source_File>
dock_pv.maegz

> <i_m_Source_File_Index>
289

> <chembl_id>
CHEMBL2028995

> <chembl_pref_name>
None

> <i_lp_mmshare_version>
53161

> <r_lp_tautomer_probability>
1

> <s_lp_Force_Field>
OPLS_2005

> <r_lp_Energy>
-7.753655

> <b_lp_Chiralities_Consistent>
1

> <s_lp_Variant>
CHEMBL204_lig1909-1

> <s_i_glide_gridfile>
glide-grid_1ype

> <i_i_glide_lignum>
2852

> <i_i_glide_rotatable_bonds>
17

> <r_i_docking_score>
-7.10408555755587

> <r_i_glide_ligand_efficiency>
-0.236802851918529

> <r_i_glide_ligand_efficiency_sa>
-0.735801518149629

> <r_i_glide_ligand_efficiency_ln>
-1.61412564388851

> <r_i_glide_gscore>
-7.10408555755587

> <r_i_glide_lipo>
-2.32105918298509

> <r_i_glide_hbond>
-0.899090127309024

> <r_i_glide_metal>
0

> <r_i_glide_rewards>
-1.23673256803897

> <r_i_glide_evdw>
-49.1820259094238

> <r_i_glide_ecoul>
-10.9569854736328

> <r_i_glide_erotb>
1.45663346160197

> <r_i_glide_esite>
-0.00118802430864202

> <r_i_glide_emodel>
-81.5816423518473

> <r_i_glide_energy>
-60.1390113830566

> <r_i_glide_einternal>
10.3498220443726

> <i_i_glide_confnum>
237

> <i_i_glide_posenum>
358

> <r_i_glide_eff_state_penalty>
0

> <s_user_duplicate_titles>
CHEMBL204_lig1909

> <i_f3d_flags>
0

> <s_m_subgroup_title>
dock_pv

> <s_m_subgroupid>
dock_pv

> <b_m_subgroup_collapsed>
1

$$$$
CHEMBL204_lig4712
                    3D
 Schrodinger Suite 2021-1.
 58 59  0  0  1  0            999 V2000
   21.3792  -13.1864   25.9744 C   0  0  0  0  0  0
   20.5221  -14.2124   25.1887 C   0  0  0  0  0  0
   21.4559  -15.2980   24.6090 C   0  0  0  0  0  0
   19.5305  -14.8535   26.1877 C   0  0  0  0  0  0
   19.7834  -13.4535   24.0444 C   0  0  0  0  0  0
   18.8442  -14.2388   23.0747 C   0  0  1  0  0  0
   17.6881  -14.8901   23.7250 N   0  0  0  0  0  0
   18.3007  -13.2930   21.9563 C   0  0  0  0  0  0
   17.2664  -12.6529   22.1672 O   0  0  0  0  0  0
   19.0049  -13.1831   20.7997 N   0  0  0  0  0  0
   20.2592  -13.8809   20.5034 C   0  0  0  0  0  0
   20.9628  -13.0045   19.4842 C   0  0  0  0  0  0
   19.8291  -12.3750   18.7149 C   0  0  0  0  0  0
   18.6964  -12.1920   19.7362 C   0  0  1  0  0  0
   17.3312  -12.2539   19.0145 C   0  0  0  0  0  0
   17.1289  -11.4529   18.1016 O   0  0  0  0  0  0
   16.4298  -13.1672   19.4032 N   0  0  0  0  0  0
   15.0371  -13.2080   18.9570 C   0  0  0  0  0  0
   14.0950  -12.5938   19.9869 C   0  0  0  0  0  0
   14.2786  -11.2793   20.4211 C   0  0  0  0  0  0
   13.4633  -10.7491   21.4164 C   0  0  0  0  0  0
   12.4443  -11.5157   22.0100 C   0  0  0  0  0  0
   12.2514  -12.8218   21.5227 C   0  0  0  0  0  0
   13.0602  -13.3554   20.5260 C   0  0  0  0  0  0
   11.6240  -10.9508   23.1209 C   0  0  0  0  0  0
   11.7026   -9.7371   23.4401 N   0  0  0  0  0  0
   10.8160  -11.8530   23.7615 N   0  0  0  0  0  0
   21.9616  -13.6717   26.7592 H   0  0  0  0  0  0
   20.7584  -12.4270   26.4549 H   0  0  0  0  0  0
   22.0874  -12.6580   25.3351 H   0  0  0  0  0  0
   20.8949  -16.0787   24.0948 H   0  0  0  0  0  0
   22.1648  -14.8780   23.8930 H   0  0  0  0  0  0
   22.0359  -15.7856   25.3942 H   0  0  0  0  0  0
   19.0747  -15.7608   25.7908 H   0  0  0  0  0  0
   20.0159  -15.1321   27.1210 H   0  0  0  0  0  0
   18.7261  -14.1669   26.4490 H   0  0  0  0  0  0
   19.2160  -12.6521   24.5094 H   0  0  0  0  0  0
   20.5455  -12.9486   23.4482 H   0  0  0  0  0  0
   19.4106  -15.0431   22.6086 H   0  0  0  0  0  0
   17.2732  -14.2917   24.4260 H   0  0  0  0  0  0
   16.9496  -15.1044   23.0678 H   0  0  0  0  0  0
   20.9127  -14.0318   21.3615 H   0  0  0  0  0  0
   20.0229  -14.8562   20.0769 H   0  0  0  0  0  0
   21.5454  -12.2359   19.9925 H   0  0  0  0  0  0
   21.6160  -13.5649   18.8277 H   0  0  0  0  0  0
   20.1370  -11.4531   18.2328 H   0  0  0  0  0  0
   19.5190  -13.0532   17.9217 H   0  0  0  0  0  0
   18.7882  -11.2055   20.1951 H   0  0  0  0  0  0
   16.6619  -13.7619   20.1868 H   0  0  0  0  0  0
   14.8954  -12.6732   18.0149 H   0  0  0  0  0  0
   14.7710  -14.2487   18.7616 H   0  0  0  0  0  0
   15.0721  -10.6730   20.0101 H   0  0  0  0  0  0
   13.6527   -9.7370   21.7459 H   0  0  0  0  0  0
   11.4719  -13.4529   21.9185 H   0  0  0  0  0  0
   12.8914  -14.3705   20.1970 H   0  0  0  0  0  0
   11.0801   -9.5326   24.2090 H   0  0  0  0  0  0
   10.1171  -11.5324   24.4235 H   0  0  0  0  0  0
   10.8157  -12.8392   23.5211 H   0  0  0  0  0  0
  1  2  1  0  0  0
  1 28  1  0  0  0
  1 29  1  0  0  0
  1 30  1  0  0  0
  2  3  1  0  0  0
  2  4  1  0  0  0
  2  5  1  0  0  0
  3 31  1  0  0  0
  3 32  1  0  0  0
  3 33  1  0  0  0
  4 34  1  0  0  0
  4 35  1  0  0  0
  4 36  1  0  0  0
  5  6  1  0  0  0
  5 37  1  0  0  0
  5 38  1  0  0  0
  6  7  1  0  0  0
  6  8  1  0  0  0
  6 39  1  0  0  0
  7 40  1  0  0  0
  7 41  1  0  0  0
  8  9  2  0  0  0
  8 10  1  0  0  0
 10 11  1  0  0  0
 10 14  1  0  0  0
 11 12  1  0  0  0
 11 42  1  0  0  0
 11 43  1  0  0  0
 12 13  1  0  0  0
 12 44  1  0  0  0
 12 45  1  0  0  0
 13 14  1  0  0  0
 13 46  1  0  0  0
 13 47  1  0  0  0
 14 15  1  0  0  0
 14 48  1  0  0  0
 15 16  2  0  0  0
 15 17  1  0  0  0
 17 18  1  0  0  0
 17 49  1  0  0  0
 18 19  1  0  0  0
 18 50  1  0  0  0
 18 51  1  0  0  0
 19 20  2  0  0  0
 19 24  1  0  0  0
 20 21  1  0  0  0
 20 52  1  0  0  0
 21 22  2  0  0  0
 21 53  1  0  0  0
 22 23  1  0  0  0
 22 25  1  0  0  0
 23 24  2  0  0  0
 23 54  1  0  0  0
 24 55  1  0  0  0
 25 26  2  0  0  0
 25 27  1  0  0  0
 26 56  1  0  0  0
 27 57  1  0  0  0
 27 58  1  0  0  0
M  END
> <s_m_entry_id>
35440

> <s_m_entry_name>
dock_pv.290

> <s_m_Source_Path>
/home/csk/Desktop/cluster/DUD-E-result/thrb

> <s_m_Source_File>
dock_pv.maegz

> <i_m_Source_File_Index>
290

> <chembl_id>
CHEMBL603267

> <chembl_pref_name>
None

> <i_lp_mmshare_version>
53161

> <r_lp_tautomer_probability>
1

> <s_lp_Force_Field>
OPLS_2005

> <r_lp_Energy>
20.052062

> <b_lp_Chiralities_Consistent>
1

> <s_lp_Variant>
CHEMBL204_lig4712-1

> <s_i_glide_gridfile>
glide-grid_1ype

> <i_i_glide_lignum>
6453

> <i_i_glide_rotatable_bonds>
9

> <r_i_docking_score>
-7.10391018666487

> <r_i_glide_ligand_efficiency>
-0.263107784691292

> <r_i_glide_ligand_efficiency_sa>
-0.789323353206714

> <r_i_glide_ligand_efficiency_ln>
-1.65367317434296

> <r_i_glide_gscore>
-7.10391018666487

> <r_i_glide_lipo>
-3.06394611325516

> <r_i_glide_hbond>
-0.0766707415305442

> <r_i_glide_metal>
0

> <r_i_glide_rewards>
-1.48599178595745

> <r_i_glide_evdw>
-41.025146484375

> <r_i_glide_ecoul>
-8.61359310150146

> <r_i_glide_erotb>
0.969771149078218

> <r_i_glide_esite>
-0.103776405555965

> <r_i_glide_emodel>
-68.1527515090057

> <r_i_glide_energy>
-49.6387395858765

> <r_i_glide_einternal>
6.27503538131714

> <i_i_glide_confnum>
28

> <i_i_glide_posenum>
201

> <r_i_glide_eff_state_penalty>
0

> <s_user_duplicate_titles>
CHEMBL204_lig4712

> <i_f3d_flags>
0

> <s_m_subgroup_title>
dock_pv

> <s_m_subgroupid>
dock_pv

> <b_m_subgroup_collapsed>
1

$$$$
CHEMBL204_lig5047
                    3D
 Schrodinger Suite 2021-1.
 67 71  0  0  1  0            999 V2000
   15.7185  -10.9508   20.0328 C   0  0  1  0  0  0
   17.0788  -11.5142   20.5013 C   0  0  2  0  0  0
   17.8072  -11.7338   19.1842 C   0  0  1  0  0  0
   18.3643  -13.1613   19.2387 C   0  0  2  0  0  0
   17.7563  -13.7291   20.4518 N   0  0  0  0  0  0
   17.0656  -12.8579   21.2261 C   0  0  0  0  0  0
   18.6421  -11.0530   19.1212 H   0  0  0  0  0  0
   17.6164  -10.7951   21.1221 H   0  0  0  0  0  0
   16.7810  -11.3616   18.0580 C   0  0  2  0  0  0
   15.4724  -11.4535   18.6797 N   0  0  1  0  0  0
   15.0284  -12.8254   18.4377 C   0  0  0  0  0  0
   15.5531  -13.2009   17.0499 C   0  0  0  0  0  0
   16.6705  -12.1918   16.7796 C   0  0  0  0  0  0
   14.4811  -10.9499   20.9391 C   0  0  0  0  0  0
   13.8141  -12.1169   21.3213 C   0  0  0  0  0  0
   12.7329  -12.0506   22.1941 C   0  0  0  0  0  0
   12.3019  -10.8191   22.7210 C   0  0  0  0  0  0
   12.9550   -9.6553   22.2858 C   0  0  0  0  0  0
   14.0215   -9.7187   21.4064 C   0  0  0  0  0  0
   17.9411  -15.1296   20.8599 C   0  0  0  0  0  0
   16.6486  -15.9310   20.9957 C   0  0  0  0  0  0
   15.8312  -16.1514   19.8860 C   0  0  0  0  0  0
   14.6347  -16.8497   20.0275 C   0  0  0  0  0  0
   14.2527  -17.3496   21.2821 C   0  0  0  0  0  0
   15.0892  -17.1461   22.3791 C   0  0  0  0  0  0
   16.2803  -16.4398   22.2416 C   0  0  0  0  0  0
   19.9330  -13.2281   19.2304 C   0  0  0  0  0  0
   16.5658  -13.0538   22.3320 O   0  0  0  0  0  0
   11.2160  -10.7108   23.7261 C   0  0  0  0  0  0
   11.0047   -9.6253   24.3210 N   0  0  0  0  0  0
   10.4860  -11.8530   23.9210 N   0  0  0  0  0  0
   20.5917  -12.7516   20.5398 C   0  0  0  0  0  0
   20.5818  -12.4939   18.0327 C   0  0  0  0  0  0
   13.0841  -18.0456   21.5221 O   0  0  0  0  0  0
   12.1575  -18.2380   20.4573 C   0  0  0  0  0  0
   15.9708   -9.8947   19.9211 H   0  0  0  0  0  0
   17.9988  -13.7320   18.3888 H   0  0  0  0  0  0
   16.9254  -10.3018   17.8449 H   0  0  0  0  0  0
   13.9382  -12.8524   18.4627 H   0  0  0  0  0  0
   15.3713  -13.5299   19.1912 H   0  0  0  0  0  0
   14.7635  -13.1198   16.3029 H   0  0  0  0  0  0
   15.9234  -14.2260   17.0310 H   0  0  0  0  0  0
   16.4431  -11.5429   15.9329 H   0  0  0  0  0  0
   17.6165  -12.6534   16.5280 H   0  0  0  0  0  0
   14.1457  -13.0856   20.9818 H   0  0  0  0  0  0
   12.2711  -12.9819   22.4892 H   0  0  0  0  0  0
   12.6573   -8.6811   22.6478 H   0  0  0  0  0  0
   14.5152   -8.8008   21.1217 H   0  0  0  0  0  0
   18.4753  -15.1437   21.8116 H   0  0  0  0  0  0
   18.5902  -15.6412   20.1504 H   0  0  0  0  0  0
   16.1114  -15.7692   18.9166 H   0  0  0  0  0  0
   14.0163  -16.9918   19.1545 H   0  0  0  0  0  0
   14.8087  -17.5280   23.3488 H   0  0  0  0  0  0
   16.9006  -16.2699   23.1098 H   0  0  0  0  0  0
   20.2024  -14.2772   19.1227 H   0  0  0  0  0  0
   10.1930   -9.7007   24.9307 H   0  0  0  0  0  0
    9.6727  -11.8194   24.5352 H   0  0  0  0  0  0
   10.7352  -12.7498   23.5211 H   0  0  0  0  0  0
   20.3583  -11.7046   20.7209 H   0  0  0  0  0  0
   20.2548  -13.3248   21.4036 H   0  0  0  0  0  0
   21.6770  -12.8475   20.4978 H   0  0  0  0  0  0
   20.6269  -11.4181   18.1915 H   0  0  0  0  0  0
   21.6119  -12.8210   17.8849 H   0  0  0  0  0  0
   20.0427  -12.6530   17.1011 H   0  0  0  0  0  0
   11.2918  -18.7887   20.8251 H   0  0  0  0  0  0
   11.7975  -17.2863   20.0633 H   0  0  0  0  0  0
   12.5952  -18.8198   19.6449 H   0  0  0  0  0  0
  1  2  1  0  0  0
  1 10  1  0  0  0
  1 14  1  0  0  0
  1 36  1  0  0  0
  2  3  1  0  0  0
  2  6  1  0  0  0
  2  8  1  0  0  0
  3  9  1  0  0  0
  3  4  1  0  0  0
  3  7  1  0  0  0
  4  5  1  0  0  0
  4 27  1  0  0  0
  4 37  1  0  0  0
  5  6  1  0  0  0
  5 20  1  0  0  0
  6 28  2  0  0  0
  9 10  1  0  0  0
  9 13  1  0  0  0
  9 38  1  0  0  0
 10 11  1  0  0  0
 11 12  1  0  0  0
 11 39  1  0  0  0
 11 40  1  0  0  0
 12 13  1  0  0  0
 12 41  1  0  0  0
 12 42  1  0  0  0
 13 43  1  0  0  0
 13 44  1  0  0  0
 14 15  2  0  0  0
 14 19  1  0  0  0
 15 16  1  0  0  0
 15 45  1  0  0  0
 16 17  2  0  0  0
 16 46  1  0  0  0
 17 18  1  0  0  0
 17 29  1  0  0  0
 18 19  2  0  0  0
 18 47  1  0  0  0
 19 48  1  0  0  0
 20 21  1  0  0  0
 20 49  1  0  0  0
 20 50  1  0  0  0
 21 22  2  0  0  0
 21 26  1  0  0  0
 22 23  1  0  0  0
 22 51  1  0  0  0
 23 24  2  0  0  0
 23 52  1  0  0  0
 24 25  1  0  0  0
 24 34  1  0  0  0
 25 26  2  0  0  0
 25 53  1  0  0  0
 26 54  1  0  0  0
 27 32  1  0  0  0
 27 33  1  0  0  0
 27 55  1  0  0  0
 29 30  2  0  0  0
 29 31  1  0  0  0
 30 56  1  0  0  0
 31 57  1  0  0  0
 31 58  1  0  0  0
 32 59  1  0  0  0
 32 60  1  0  0  0
 32 61  1  0  0  0
 33 62  1  0  0  0
 33 63  1  0  0  0
 33 64  1  0  0  0
 34 35  1  0  0  0
 35 65  1  0  0  0
 35 66  1  0  0  0
 35 67  1  0  0  0
M  END
> <s_m_entry_id>
35441

> <s_m_entry_name>
dock_pv.291

> <s_m_Source_Path>
/home/csk/Desktop/cluster/DUD-E-result/thrb

> <s_m_Source_File>
dock_pv.maegz

> <i_m_Source_File_Index>
291

> <chembl_id>
CHEMBL3632876

> <chembl_pref_name>
None

> <i_lp_mmshare_version>
53161

> <r_lp_tautomer_probability>
1

> <s_lp_Force_Field>
OPLS_2005

> <r_lp_Energy>
75.219985

> <b_lp_Chiralities_Consistent>
1

> <s_lp_Variant>
CHEMBL204_lig5047-1

> <s_i_glide_gridfile>
glide-grid_1ype

> <i_i_glide_lignum>
6914

> <i_i_glide_rotatable_bonds>
6

> <r_i_docking_score>
-7.10348673826623

> <r_i_glide_ligand_efficiency>
-0.215257173886855

> <r_i_glide_ligand_efficiency_sa>
-0.690444774215255

> <r_i_glide_ligand_efficiency_ln>
-1.5797786707045

> <r_i_glide_gscore>
-7.10348673826623

> <r_i_glide_lipo>
-2.82632376513493

> <r_i_glide_hbond>
-0.664347832782669

> <r_i_glide_metal>
0

> <r_i_glide_rewards>
-0.755490086690513

> <r_i_glide_evdw>
-37.1756935119629

> <r_i_glide_ecoul>
-7.82322311401367

> <r_i_glide_erotb>
0.301110882956203

> <r_i_glide_esite>
-0.126167793914125

> <r_i_glide_emodel>
-60.665669939633

> <r_i_glide_energy>
-44.9989166259766

> <r_i_glide_einternal>
3.38754868507385

> <i_i_glide_confnum>
7

> <i_i_glide_posenum>
278

> <r_i_glide_eff_state_penalty>
0

> <s_user_duplicate_titles>
CHEMBL204_lig5047

> <i_f3d_flags>
0

> <s_m_subgroup_title>
dock_pv

> <s_m_subgroupid>
dock_pv

> <b_m_subgroup_collapsed>
1

$$$$
CHEMBL204_lig4609
                    3D
 Schrodinger Suite 2021-1.
 73 76  0  0  1  0            999 V2000
   20.5753  -18.6010   23.5129 N   0  0  0  0  0  0
   20.7447  -17.4494   22.6473 C   0  0  0  0  0  0
   19.8771  -17.5707   21.3780 C   0  0  0  0  0  0
   18.3418  -17.6045   21.5953 C   0  0  0  0  0  0
   17.7972  -16.3204   22.2567 C   0  0  0  0  0  0
   16.2624  -16.3291   22.4258 C   0  0  0  0  0  0
   15.6796  -16.5284   21.0854 N   0  0  0  0  0  0
   16.0508  -17.8138   20.4575 C   0  0  0  0  0  0
   17.5842  -17.8237   20.2661 C   0  0  0  0  0  0
   15.1854  -15.5027   20.3323 C   0  0  0  0  0  0
   15.0298  -15.6277   19.1119 O   0  0  0  0  0  0
   14.5501  -14.2598   21.0308 C   0  0  2  0  0  0
   13.3933  -13.5883   20.2174 C   0  0  0  0  0  0
   12.9726  -12.2086   20.7195 C   0  0  0  0  0  0
   13.2402  -11.0718   19.9553 C   0  0  0  0  0  0
   12.9191   -9.8079   20.4444 C   0  0  0  0  0  0
   12.3270   -9.6772   21.6943 C   0  0  0  0  0  0
   12.0158  -10.7997   22.4810 C   0  0  0  0  0  0
   12.3532  -12.0670   21.9632 C   0  0  0  0  0  0
   11.3285  -10.6182   23.7867 C   0  0  0  0  0  0
   11.2161   -9.4864   24.3210 N   0  0  0  0  0  0
   10.8160  -11.7719   24.3123 N   0  0  0  0  0  0
   15.6083  -13.2809   21.4238 N   0  0  2  0  0  0
   16.5083  -12.2998   20.2595 S   0  0  0  0  0  0
   16.0800  -12.6389   18.8991 O   0  0  0  0  0  0
   16.4668  -10.9098   20.7207 O   0  0  0  0  0  0
   18.2010  -12.8187   20.4401 C   0  0  0  0  0  0
   18.9704  -13.0498   19.3028 C   0  0  0  0  0  0
   20.2891  -13.4558   19.4375 C   0  0  0  0  0  0
   20.8159  -13.6894   20.7016 C   0  0  0  0  0  0
   20.0774  -13.4502   21.8701 C   0  0  0  0  0  0
   18.7632  -12.9783   21.7130 C   0  0  0  0  0  0
   20.7000  -13.6368   23.2239 C   0  0  0  0  0  0
   19.9264  -13.8172   24.3839 C   0  0  0  0  0  0
   20.5271  -13.9557   25.6371 C   0  0  0  0  0  0
   21.9161  -13.9243   25.7533 C   0  0  0  0  0  0
   22.7017  -13.7564   24.6162 C   0  0  0  0  0  0
   24.4217  -13.6895   24.7238 Cl  0  0  0  0  0  0
   22.0951  -13.6132   23.3737 C   0  0  0  0  0  0
   21.1605  -18.5040   24.3308 H   0  0  0  0  0  0
   19.6231  -18.6397   23.8458 H   0  0  0  0  0  0
   20.5109  -16.5366   23.1965 H   0  0  0  0  0  0
   21.7963  -17.3774   22.3656 H   0  0  0  0  0  0
   20.1213  -16.7338   20.7216 H   0  0  0  0  0  0
   20.1856  -18.4654   20.8356 H   0  0  0  0  0  0
   18.0855  -18.4419   22.2476 H   0  0  0  0  0  0
   18.2791  -16.1515   23.2191 H   0  0  0  0  0  0
   18.0809  -15.4670   21.6465 H   0  0  0  0  0  0
   15.9526  -17.1747   23.0423 H   0  0  0  0  0  0
   15.8947  -15.4531   22.9451 H   0  0  0  0  0  0
   15.7606  -18.6028   21.1529 H   0  0  0  0  0  0
   15.4790  -18.0303   19.5535 H   0  0  0  0  0  0
   17.8510  -17.0531   19.5437 H   0  0  0  0  0  0
   17.9045  -18.7572   19.8023 H   0  0  0  0  0  0
   14.0949  -14.6021   21.9615 H   0  0  0  0  0  0
   13.6711  -13.4877   19.1667 H   0  0  0  0  0  0
   12.5161  -14.2379   20.2122 H   0  0  0  0  0  0
   13.7176  -11.1642   18.9903 H   0  0  0  0  0  0
   13.1279   -8.9197   19.8711 H   0  0  0  0  0  0
   12.0879   -8.6817   22.0384 H   0  0  0  0  0  0
   12.1533  -12.9660   22.5299 H   0  0  0  0  0  0
   10.6283   -9.5420   25.1432 H   0  0  0  0  0  0
   10.1049  -11.6887   25.0336 H   0  0  0  0  0  0
   10.7807  -12.6124   23.7529 H   0  0  0  0  0  0
   16.1104  -13.5081   22.2876 H   0  0  0  0  0  0
   18.5494  -12.9171   18.3169 H   0  0  0  0  0  0
   20.8890  -13.6501   18.5583 H   0  0  0  0  0  0
   21.8211  -14.0650   20.7527 H   0  0  0  0  0  0
   18.1651  -12.7387   22.5778 H   0  0  0  0  0  0
   18.8502  -13.8536   24.3314 H   0  0  0  0  0  0
   19.9145  -14.0834   26.5190 H   0  0  0  0  0  0
   22.3819  -14.0269   26.7207 H   0  0  0  0  0  0
   22.7446  -13.4531   22.5279 H   0  0  0  0  0  0
  1  2  1  0  0  0
  1 40  1  0  0  0
  1 41  1  0  0  0
  2  3  1  0  0  0
  2 42  1  0  0  0
  2 43  1  0  0  0
  3  4  1  0  0  0
  3 44  1  0  0  0
  3 45  1  0  0  0
  4  5  1  0  0  0
  4  9  1  0  0  0
  4 46  1  0  0  0
  5  6  1  0  0  0
  5 47  1  0  0  0
  5 48  1  0  0  0
  6  7  1  0  0  0
  6 49  1  0  0  0
  6 50  1  0  0  0
  7  8  1  0  0  0
  7 10  1  0  0  0
  8  9  1  0  0  0
  8 51  1  0  0  0
  8 52  1  0  0  0
  9 53  1  0  0  0
  9 54  1  0  0  0
 10 11  2  0  0  0
 10 12  1  0  0  0
 12 13  1  0  0  0
 12 23  1  0  0  0
 12 55  1  0  0  0
 13 14  1  0  0  0
 13 56  1  0  0  0
 13 57  1  0  0  0
 14 15  2  0  0  0
 14 19  1  0  0  0
 15 16  1  0  0  0
 15 58  1  0  0  0
 16 17  2  0  0  0
 16 59  1  0  0  0
 17 18  1  0  0  0
 17 60  1  0  0  0
 18 19  2  0  0  0
 18 20  1  0  0  0
 19 61  1  0  0  0
 20 21  2  0  0  0
 20 22  1  0  0  0
 21 62  1  0  0  0
 22 63  1  0  0  0
 22 64  1  0  0  0
 23 24  1  0  0  0
 23 65  1  0  0  0
 24 25  2  0  0  0
 24 26  2  0  0  0
 24 27  1  0  0  0
 27 28  2  0  0  0
 27 32  1  0  0  0
 28 29  1  0  0  0
 28 66  1  0  0  0
 29 30  2  0  0  0
 29 67  1  0  0  0
 30 31  1  0  0  0
 30 68  1  0  0  0
 31 32  2  0  0  0
 31 33  1  0  0  0
 32 69  1  0  0  0
 33 34  2  0  0  0
 33 39  1  0  0  0
 34 35  1  0  0  0
 34 70  1  0  0  0
 35 36  2  0  0  0
 35 71  1  0  0  0
 36 37  1  0  0  0
 36 72  1  0  0  0
 37 38  1  0  0  0
 37 39  2  0  0  0
 39 73  1  0  0  0
M  END
> <s_m_entry_id>
35442

> <s_m_entry_name>
dock_pv.292

> <s_m_Source_Path>
/home/csk/Desktop/cluster/DUD-E-result/thrb

> <s_m_Source_File>
dock_pv.maegz

> <i_m_Source_File_Index>
292

> <chembl_id>
CHEMBL466588

> <chembl_pref_name>
None

> <i_lp_mmshare_version>
53161

> <r_lp_tautomer_probability>
1

> <s_lp_Force_Field>
OPLS_2005

> <r_lp_Energy>
36.230781

> <b_lp_Chiralities_Consistent>
1

> <s_lp_Variant>
CHEMBL204_lig4609-1

> <s_i_glide_gridfile>
glide-grid_1ype

> <i_i_glide_lignum>
6282

> <i_i_glide_rotatable_bonds>
11

> <r_i_docking_score>
-7.09884119478778

> <r_i_glide_ligand_efficiency>
-0.182021569097123

> <r_i_glide_ligand_efficiency_sa>
-0.61727362724375

> <r_i_glide_ligand_efficiency_ln>
-1.52219306475325

> <r_i_glide_gscore>
-7.09884119478778

> <r_i_glide_lipo>
-4.09089351893647

> <r_i_glide_hbond>
-0.475480215287915

> <r_i_glide_metal>
0

> <r_i_glide_rewards>
0.441585902707648

> <r_i_glide_evdw>
-50.7476692199707

> <r_i_glide_ecoul>
-5.5590615272522

> <r_i_glide_erotb>
0.492948150744621

> <r_i_glide_esite>
-0.0957588239292996

> <r_i_glide_emodel>
-71.1233442072891

> <r_i_glide_energy>
-56.3067307472229

> <r_i_glide_einternal>
13.5967636108398

> <i_i_glide_confnum>
8

> <i_i_glide_posenum>
123

> <r_i_glide_eff_state_penalty>
0

> <s_user_duplicate_titles>
CHEMBL204_lig4609,472299

> <i_f3d_flags>
0

> <s_m_subgroup_title>
dock_pv

> <s_m_subgroupid>
dock_pv

> <b_m_subgroup_collapsed>
1

$$$$
CHEMBL204_lig4579
                    3D
 Schrodinger Suite 2021-1.
 54 56  0  0  1  0            999 V2000
   17.8333  -15.0593   23.4645 C   0  0  0  0  0  0
   18.7407  -15.0008   22.4130 C   0  0  0  0  0  0
   20.0485  -14.5539   22.6165 C   0  0  0  0  0  0
   18.2093  -14.6800   24.7487 C   0  0  0  0  0  0
   19.5323  -14.2476   25.0033 C   0  0  0  0  0  0
   20.4785  -14.1938   23.9306 C   0  0  0  0  0  0
   21.7719  -13.8063   24.1477 N   0  0  0  0  0  0
   22.1462  -13.4530   25.4001 C   0  0  0  0  0  0
   21.2765  -13.4438   26.4837 C   0  0  0  0  0  0
   19.9613  -13.8531   26.2943 C   0  0  0  0  0  0
   21.1209  -13.0530   20.9514 N   0  0  0  0  0  0
   20.0888  -12.6224   20.1051 C   0  0  0  0  0  0
   18.8771  -12.1340   20.6111 C   0  0  0  0  0  0
   17.8242  -11.7725   19.7554 C   0  0  0  0  0  0
   18.0160  -11.8734   18.3625 C   0  0  0  0  0  0
   19.2693  -12.2530   17.8706 C   0  0  0  0  0  0
   20.2943  -12.6364   18.7296 C   0  0  0  0  0  0
   16.5176  -11.2562   20.3775 C   0  0  0  0  0  0
   15.7431  -12.3828   21.0617 C   0  0  0  0  0  0
   14.8414  -13.0422   20.3177 N   0  0  0  0  0  0
   15.9761  -12.6530   22.2390 O   0  0  0  0  0  0
   14.0167  -14.1426   20.8198 C   0  0  0  0  0  0
   12.9784  -13.7085   21.8703 C   0  0  0  0  0  0
   18.7119  -12.0117   21.9453 F   0  0  0  0  0  0
   12.0335  -12.8160   21.2876 O   0  0  0  0  0  0
   11.2160  -12.2481   22.3210 N   0  0  0  0  0  0
   11.6160  -11.0529   22.9689 C   0  0  0  0  0  0
   10.8179  -10.7861   24.0939 N   0  0  0  0  0  0
   12.5467  -10.2894   22.6061 N   0  0  0  0  0  0
   16.9631  -11.5818   17.3920 C   0  0  0  0  0  0
   16.1327  -11.3497   16.6213 N   0  0  0  0  0  0
   21.0037  -14.4320   21.4309 C   0  0  0  0  0  0
   16.8167  -15.3762   23.2786 H   0  0  0  0  0  0
   18.4101  -15.2717   21.4209 H   0  0  0  0  0  0
   17.4900  -14.7117   25.5547 H   0  0  0  0  0  0
   23.1757  -13.1485   25.5210 H   0  0  0  0  0  0
   21.6160  -13.1291   27.4592 H   0  0  0  0  0  0
   19.2638  -13.8629   27.1198 H   0  0  0  0  0  0
   22.0456  -12.8591   20.5944 H   0  0  0  0  0  0
   19.4578  -12.2690   16.8065 H   0  0  0  0  0  0
   21.2376  -12.9706   18.3217 H   0  0  0  0  0  0
   15.8747  -10.7498   19.6590 H   0  0  0  0  0  0
   16.7564  -10.4948   21.1210 H   0  0  0  0  0  0
   14.6841  -12.7519   19.3645 H   0  0  0  0  0  0
   14.6541  -14.9292   21.2295 H   0  0  0  0  0  0
   13.5025  -14.5848   19.9651 H   0  0  0  0  0  0
   13.4858  -13.2504   22.7210 H   0  0  0  0  0  0
   12.4595  -14.5903   22.2473 H   0  0  0  0  0  0
   10.6115  -12.9555   22.7228 H   0  0  0  0  0  0
   10.8654   -9.8808   24.5326 H   0  0  0  0  0  0
    9.8817  -11.1712   24.1492 H   0  0  0  0  0  0
   12.6422   -9.5060   23.2322 H   0  0  0  0  0  0
   20.6790  -15.0871   20.6200 H   0  0  0  0  0  0
   21.9878  -14.7899   21.7314 H   0  0  0  0  0  0
  1  4  1  0  0  0
  1  2  2  0  0  0
  1 33  1  0  0  0
  2  3  1  0  0  0
  2 34  1  0  0  0
  3  6  2  0  0  0
  3 32  1  0  0  0
  4  5  2  0  0  0
  4 35  1  0  0  0
  5 10  1  0  0  0
  5  6  1  0  0  0
  6  7  1  0  0  0
  7  8  2  0  0  0
  8  9  1  0  0  0
  8 36  1  0  0  0
  9 10  2  0  0  0
  9 37  1  0  0  0
 10 38  1  0  0  0
 11 12  1  0  0  0
 11 32  1  0  0  0
 11 39  1  0  0  0
 12 17  1  0  0  0
 12 13  2  0  0  0
 13 24  1  0  0  0
 13 14  1  0  0  0
 14 18  1  0  0  0
 14 15  2  0  0  0
 15 16  1  0  0  0
 15 30  1  0  0  0
 16 17  2  0  0  0
 16 40  1  0  0  0
 17 41  1  0  0  0
 18 19  1  0  0  0
 18 42  1  0  0  0
 18 43  1  0  0  0
 19 20  1  0  0  0
 19 21  2  0  0  0
 20 22  1  0  0  0
 20 44  1  0  0  0
 22 23  1  0  0  0
 22 45  1  0  0  0
 22 46  1  0  0  0
 23 25  1  0  0  0
 23 47  1  0  0  0
 23 48  1  0  0  0
 25 26  1  0  0  0
 26 27  1  0  0  0
 26 49  1  0  0  0
 27 28  1  0  0  0
 27 29  2  0  0  0
 28 50  1  0  0  0
 28 51  1  0  0  0
 29 52  1  0  0  0
 30 31  3  0  0  0
 32 53  1  0  0  0
 32 54  1  0  0  0
M  END
> <s_m_entry_id>
35443

> <s_m_entry_name>
dock_pv.293

> <s_m_Source_Path>
/home/csk/Desktop/cluster/DUD-E-result/thrb

> <s_m_Source_File>
dock_pv.maegz

> <i_m_Source_File_Index>
293

> <chembl_id>
CHEMBL254353

> <chembl_pref_name>
None

> <i_lp_mmshare_version>
53161

> <r_lp_tautomer_probability>
1

> <s_lp_Force_Field>
OPLS_2005

> <r_lp_Energy>
11.763275

> <b_lp_Chiralities_Consistent>
1

> <s_lp_Variant>
CHEMBL204_lig4579-1

> <s_i_glide_gridfile>
glide-grid_1ype

> <i_i_glide_lignum>
6250

> <i_i_glide_rotatable_bonds>
11

> <r_i_docking_score>
-7.09197433205142

> <r_i_glide_ligand_efficiency>
-0.221624197876607

> <r_i_glide_ligand_efficiency_sa>
-0.703612968889023

> <r_i_glide_ligand_efficiency_ln>
-1.58808637286527

> <r_i_glide_gscore>
-7.09197433205142

> <r_i_glide_lipo>
-2.7792377099979

> <r_i_glide_hbond>
-0.647443112631462

> <r_i_glide_metal>
0

> <r_i_glide_rewards>
-0.846809159483256

> <r_i_glide_evdw>
-46.5159301757812

> <r_i_glide_ecoul>
-10.4924974441528

> <r_i_glide_erotb>
1.15583006534435

> <r_i_glide_esite>
-0.0746432898711605

> <r_i_glide_emodel>
-77.1893018945853

> <r_i_glide_energy>
-57.0084276199341

> <r_i_glide_einternal>
8.55244541168213

> <i_i_glide_confnum>
70

> <i_i_glide_posenum>
226

> <r_i_glide_eff_state_penalty>
0

> <s_user_duplicate_titles>
CHEMBL204_lig4579

> <i_f3d_flags>
0

> <s_m_subgroup_title>
dock_pv

> <s_m_subgroupid>
dock_pv

> <b_m_subgroup_collapsed>
1

$$$$
CHEMBL204_lig1962
                    3D
 Schrodinger Suite 2021-1.
 70 73  0  0  1  0            999 V2000
   18.9778  -13.6040   20.8894 N   0  0  0  0  0  0
   18.2514  -14.0152   21.9637 C   0  0  0  0  0  0
   12.3933  -10.4064   22.7168 C   0  0  0  0  0  0
   18.8257  -12.2742   20.2634 C   0  0  2  0  0  0
   10.9541  -11.8530   23.5215 N   0  0  0  0  0  0
   17.3860  -11.9486   19.8243 C   0  0  0  0  0  0
   11.9426  -11.7159   22.5903 C   0  0  0  0  0  0
   10.8160  -10.7718   24.2946 N   0  0  0  0  0  0
   18.5192  -15.4407   22.5371 C   0  0  2  0  0  0
   16.7500  -11.0530   20.5841 N   0  0  0  0  0  0
   11.6713   -9.9054   23.8079 C   0  0  0  0  0  0
   17.2229  -16.1204   22.8150 N   0  0  1  0  0  0
   15.0742  -17.0361   21.9897 C   0  0  0  0  0  0
   13.5151   -9.8505   21.8587 C   0  0  0  0  0  0
   17.4204  -13.2999   22.5292 O   0  0  0  0  0  0
   19.3936  -15.3954   23.8245 C   0  0  0  0  0  0
   16.9002  -12.4925   18.8333 O   0  0  0  0  0  0
   14.7379  -17.4527   23.0976 O   0  0  0  0  0  0
   12.4253  -12.7627   21.5988 C   0  0  0  0  0  0
   16.4791  -16.5293   21.6169 C   0  0  0  0  0  0
   19.9841  -14.3855   20.1715 C   0  0  0  0  0  0
   15.4199  -10.5241   20.3212 C   0  0  0  0  0  0
   14.3287  -11.0478   21.2848 C   0  0  2  0  0  0
   14.2671  -17.0591   20.8960 O   0  0  0  0  0  0
   13.3722  -12.0574   20.5953 C   0  0  0  0  0  0
   19.8057  -12.2823   19.0725 C   0  0  0  0  0  0
   20.7529  -14.6270   23.7387 C   0  0  0  0  0  0
   20.7987  -13.3846   19.3716 C   0  0  0  0  0  0
   20.6763  -13.1150   24.0725 C   0  0  0  0  0  0
   21.8717  -15.2575   24.5938 C   0  0  0  0  0  0
   21.5944  -15.0626   26.0904 C   0  0  0  0  0  0
   20.4173  -12.8468   25.5702 C   0  0  0  0  0  0
   21.4528  -13.5667   26.4537 C   0  0  0  0  0  0
   19.1687  -11.5395   20.9942 H   0  0  0  0  0  0
   10.4301  -12.7072   23.6818 H   0  0  0  0  0  0
   19.0628  -16.0670   21.8299 H   0  0  0  0  0  0
   17.2377  -10.6638   21.3809 H   0  0  0  0  0  0
   11.7827   -8.9277   24.2510 H   0  0  0  0  0  0
   17.3947  -16.9526   23.3621 H   0  0  0  0  0  0
   14.1516   -9.1827   22.4411 H   0  0  0  0  0  0
   13.0907   -9.2431   21.0579 H   0  0  0  0  0  0
   19.5967  -16.4273   24.1154 H   0  0  0  0  0  0
   18.7963  -15.0019   24.6485 H   0  0  0  0  0  0
   11.5971  -13.2441   21.0765 H   0  0  0  0  0  0
   12.9720  -13.5438   22.1304 H   0  0  0  0  0  0
   16.3514  -15.6697   20.9576 H   0  0  0  0  0  0
   17.0148  -17.3007   21.0629 H   0  0  0  0  0  0
   20.6420  -15.0082   20.7682 H   0  0  0  0  0  0
   19.4404  -15.0529   19.5210 H   0  0  0  0  0  0
   15.5629   -9.4534   20.4744 H   0  0  0  0  0  0
   15.1165  -10.6544   19.2817 H   0  0  0  0  0  0
   14.8161  -11.5540   22.1182 H   0  0  0  0  0  0
   13.3990  -17.3988   21.1204 H   0  0  0  0  0  0
   12.8183  -11.5659   19.7936 H   0  0  0  0  0  0
   13.9607  -12.8208   20.0846 H   0  0  0  0  0  0
   20.3057  -11.3240   18.9369 H   0  0  0  0  0  0
   19.3000  -12.5203   18.1349 H   0  0  0  0  0  0
   21.1451  -14.7009   22.7316 H   0  0  0  0  0  0
   21.6153  -12.9969   19.9834 H   0  0  0  0  0  0
   21.2166  -13.8225   18.4652 H   0  0  0  0  0  0
   19.9051  -12.6130   23.4956 H   0  0  0  0  0  0
   21.6154  -12.6530   23.7710 H   0  0  0  0  0  0
   22.8362  -14.8115   24.3445 H   0  0  0  0  0  0
   21.9646  -16.3223   24.3744 H   0  0  0  0  0  0
   20.6761  -15.5929   26.3408 H   0  0  0  0  0  0
   22.3974  -15.5189   26.6712 H   0  0  0  0  0  0
   19.4117  -13.1695   25.8417 H   0  0  0  0  0  0
   20.4428  -11.7737   25.7679 H   0  0  0  0  0  0
   21.1909  -13.4528   27.5075 H   0  0  0  0  0  0
   22.4173  -13.0766   26.3210 H   0  0  0  0  0  0
  1  2  1  0  0  0
  1  4  1  0  0  0
  1 21  1  0  0  0
  2  9  1  0  0  0
  2 15  2  0  0  0
  3  7  2  0  0  0
  3 11  1  0  0  0
  3 14  1  0  0  0
  4  6  1  0  0  0
  4 26  1  0  0  0
  4 34  1  0  0  0
  5  8  1  0  0  0
  5 35  1  0  0  0
  5  7  1  0  0  0
  6 10  1  0  0  0
  6 17  2  0  0  0
  7 19  1  0  0  0
  8 11  2  0  0  0
  9 12  1  0  0  0
  9 16  1  0  0  0
  9 36  1  0  0  0
 10 22  1  0  0  0
 10 37  1  0  0  0
 11 38  1  0  0  0
 12 20  1  0  0  0
 12 39  1  0  0  0
 13 20  1  0  0  0
 13 18  2  0  0  0
 13 24  1  0  0  0
 14 23  1  0  0  0
 14 40  1  0  0  0
 14 41  1  0  0  0
 16 27  1  0  0  0
 16 42  1  0  0  0
 16 43  1  0  0  0
 19 25  1  0  0  0
 19 44  1  0  0  0
 19 45  1  0  0  0
 20 46  1  0  0  0
 20 47  1  0  0  0
 21 28  1  0  0  0
 21 48  1  0  0  0
 21 49  1  0  0  0
 22 23  1  0  0  0
 22 50  1  0  0  0
 22 51  1  0  0  0
 23 25  1  0  0  0
 23 52  1  0  0  0
 24 53  1  0  0  0
 25 54  1  0  0  0
 25 55  1  0  0  0
 26 28  1  0  0  0
 26 56  1  0  0  0
 26 57  1  0  0  0
 27 29  1  0  0  0
 27 30  1  0  0  0
 27 58  1  0  0  0
 28 59  1  0  0  0
 28 60  1  0  0  0
 29 32  1  0  0  0
 29 61  1  0  0  0
 29 62  1  0  0  0
 30 31  1  0  0  0
 30 63  1  0  0  0
 30 64  1  0  0  0
 31 33  1  0  0  0
 31 65  1  0  0  0
 31 66  1  0  0  0
 32 33  1  0  0  0
 32 67  1  0  0  0
 32 68  1  0  0  0
 33 69  1  0  0  0
 33 70  1  0  0  0
M  END
> <s_m_entry_id>
35444

> <s_m_entry_name>
dock_pv.294

> <s_m_Source_Path>
/home/csk/Desktop/cluster/DUD-E-result/thrb

> <s_m_Source_File>
dock_pv.maegz

> <i_m_Source_File_Index>
294

> <chembl_id>
CHEMBL164985

> <chembl_pref_name>
None

> <i_lp_mmshare_version>
53161

> <r_lp_tautomer_probability>
0.5

> <s_lp_Force_Field>
OPLS_2005

> <r_lp_Energy>
38.536855

> <b_lp_Chiralities_Consistent>
1

> <s_lp_Variant>
CHEMBL204_lig1962-3

> <s_i_glide_gridfile>
glide-grid_1ype

> <i_i_glide_lignum>
2917

> <i_i_glide_rotatable_bonds>
12

> <r_i_docking_score>
-7.08957136164017

> <r_i_glide_ligand_efficiency>
-0.214835495807278

> <r_i_glide_ligand_efficiency_sa>
-0.689092227300379

> <r_i_glide_ligand_efficiency_ln>
-1.57668396299282

> <r_i_glide_gscore>
-7.08957136164017

> <r_i_glide_lipo>
-3.53817363126631

> <r_i_glide_hbond>
-0.514187698590221

> <r_i_glide_metal>
0

> <r_i_glide_rewards>
-0.966743419346649

> <r_i_glide_evdw>
-43.4599380493164

> <r_i_glide_ecoul>
-4.46812629699707

> <r_i_glide_erotb>
0.857397864793684

> <r_i_glide_esite>
-0.08464863021529

> <r_i_glide_emodel>
-61.7541242598837

> <r_i_glide_energy>
-47.9280643463135

> <r_i_glide_einternal>
8.98484325408936

> <i_i_glide_confnum>
84

> <i_i_glide_posenum>
174

> <r_i_glide_eff_state_penalty>
0

> <s_user_duplicate_titles>
CHEMBL204_lig1962

> <i_f3d_flags>
0

> <s_m_subgroup_title>
dock_pv

> <s_m_subgroupid>
dock_pv

> <b_m_subgroup_collapsed>
1

$$$$
CHEMBL204_lig3608
                    3D
 Schrodinger Suite 2021-1.
 59 62  0  0  1  0            999 V2000
   19.5864  -16.5792   22.0980 S   0  0  0  0  0  0
   19.7269  -15.5899   23.6049 C   0  0  0  0  0  0
   11.7040  -11.0162   23.0321 C   0  0  0  0  0  0
   12.5265  -11.6529   22.0437 N   0  0  0  0  0  0
   18.2589  -15.8055   21.4162 O   0  0  0  0  0  0
   20.9245  -14.9592   24.0959 C   0  0  0  0  0  0
   18.3470  -14.6166   20.7214 C   0  0  0  0  0  0
   19.1423  -17.9139   22.5138 O   0  0  0  0  0  0
   20.7414  -16.4110   21.2094 O   0  0  0  0  0  0
   11.7567   -9.7984   23.3303 N   0  0  0  0  0  0
   17.2231  -14.2528   19.9752 C   0  0  0  0  0  0
   12.4161  -13.0895   21.7005 C   0  0  0  0  0  0
   13.8080  -11.0287   21.6604 C   0  0  0  0  0  0
   17.2176  -13.0998   19.1772 C   0  0  0  0  0  0
   10.8126  -11.8530   23.7199 N   0  0  0  0  0  0
   19.4904  -12.6355   19.9037 C   0  0  0  0  0  0
   19.4703  -13.7774   20.7062 C   0  0  0  0  0  0
   20.8285  -14.1272   25.2609 C   0  0  0  0  0  0
   16.1536  -12.6926   18.3922 O   0  0  0  0  0  0
   18.3699  -12.3173   19.1340 C   0  0  0  0  0  0
   14.8440  -13.2320   18.6079 C   0  0  0  0  0  0
   14.1901  -11.3274   20.2010 C   0  0  0  0  0  0
   12.8540  -13.3819   20.2458 C   0  0  0  0  0  0
   14.2725  -12.8467   19.9942 C   0  0  0  0  0  0
   18.5302  -15.4240   24.3046 C   0  0  0  0  0  0
   22.2165  -15.1222   23.5206 C   0  0  0  0  0  0
   18.4622  -14.6528   25.4520 C   0  0  0  0  0  0
   19.5889  -13.9933   25.9234 C   0  0  0  0  0  0
   20.7283  -11.7586   19.8432 C   0  0  0  0  0  0
   21.9758  -13.4547   25.7494 C   0  0  0  0  0  0
   23.3269  -14.4504   24.0253 C   0  0  0  0  0  0
   23.2054  -13.6126   25.1222 C   0  0  0  0  0  0
   11.0842   -9.5842   24.0533 H   0  0  0  0  0  0
   16.3679  -14.9092   20.0032 H   0  0  0  0  0  0
   11.3846  -13.4262   21.8086 H   0  0  0  0  0  0
   13.0153  -13.6675   22.4063 H   0  0  0  0  0  0
   13.8045   -9.9489   21.8216 H   0  0  0  0  0  0
   14.5641  -11.4505   22.3208 H   0  0  0  0  0  0
   10.1377  -11.4989   24.3876 H   0  0  0  0  0  0
   10.7298  -12.8441   23.5212 H   0  0  0  0  0  0
   20.3442  -14.0104   21.2938 H   0  0  0  0  0  0
   18.3803  -11.4530   18.4937 H   0  0  0  0  0  0
   14.8520  -14.3139   18.4679 H   0  0  0  0  0  0
   14.1958  -12.8393   17.8232 H   0  0  0  0  0  0
   13.5179  -10.8489   19.4868 H   0  0  0  0  0  0
   15.1614  -10.8741   19.9958 H   0  0  0  0  0  0
   12.8414  -14.4605   20.0830 H   0  0  0  0  0  0
   12.1292  -13.0045   19.5223 H   0  0  0  0  0  0
   14.9175  -13.2620   20.7688 H   0  0  0  0  0  0
   17.6261  -15.9010   23.9514 H   0  0  0  0  0  0
   22.3718  -15.7842   22.6881 H   0  0  0  0  0  0
   17.5184  -14.5599   25.9672 H   0  0  0  0  0  0
   19.5254  -13.3802   26.8113 H   0  0  0  0  0  0
   21.5889  -12.2288   20.3216 H   0  0  0  0  0  0
   20.9997  -11.5655   18.8050 H   0  0  0  0  0  0
   20.5358  -10.7977   20.3206 H   0  0  0  0  0  0
   21.8912  -12.8184   26.6188 H   0  0  0  0  0  0
   24.2966  -14.5862   23.5704 H   0  0  0  0  0  0
   24.0753  -13.1005   25.5068 H   0  0  0  0  0  0
  1  2  1  0  0  0
  1  5  1  0  0  0
  1  8  2  0  0  0
  1  9  2  0  0  0
  2  6  1  0  0  0
  2 25  2  0  0  0
  3  4  1  0  0  0
  3 10  2  0  0  0
  3 15  1  0  0  0
  4 12  1  0  0  0
  4 13  1  0  0  0
  5  7  1  0  0  0
  6 18  2  0  0  0
  6 26  1  0  0  0
  7 11  2  0  0  0
  7 17  1  0  0  0
 10 33  1  0  0  0
 11 14  1  0  0  0
 11 34  1  0  0  0
 12 23  1  0  0  0
 12 35  1  0  0  0
 12 36  1  0  0  0
 13 22  1  0  0  0
 13 37  1  0  0  0
 13 38  1  0  0  0
 14 19  1  0  0  0
 14 20  2  0  0  0
 15 39  1  0  0  0
 15 40  1  0  0  0
 16 17  2  0  0  0
 16 20  1  0  0  0
 16 29  1  0  0  0
 17 41  1  0  0  0
 18 30  1  0  0  0
 18 28  1  0  0  0
 19 21  1  0  0  0
 20 42  1  0  0  0
 21 24  1  0  0  0
 21 43  1  0  0  0
 21 44  1  0  0  0
 22 24  1  0  0  0
 22 45  1  0  0  0
 22 46  1  0  0  0
 23 24  1  0  0  0
 23 47  1  0  0  0
 23 48  1  0  0  0
 24 49  1  0  0  0
 25 27  1  0  0  0
 25 50  1  0  0  0
 26 31  2  0  0  0
 26 51  1  0  0  0
 27 28  2  0  0  0
 27 52  1  0  0  0
 28 53  1  0  0  0
 29 54  1  0  0  0
 29 55  1  0  0  0
 29 56  1  0  0  0
 30 32  2  0  0  0
 30 57  1  0  0  0
 31 32  1  0  0  0
 31 58  1  0  0  0
 32 59  1  0  0  0
M  END
> <s_m_entry_id>
35445

> <s_m_entry_name>
dock_pv.295

> <s_m_Source_Path>
/home/csk/Desktop/cluster/DUD-E-result/thrb

> <s_m_Source_File>
dock_pv.maegz

> <i_m_Source_File_Index>
295

> <chembl_id>
CHEMBL423830

> <chembl_pref_name>
None

> <i_lp_mmshare_version>
53161

> <r_lp_tautomer_probability>
1

> <s_lp_Force_Field>
OPLS_2005

> <r_lp_Energy>
29.405162

> <b_lp_Chiralities_Consistent>
1

> <s_lp_Variant>
CHEMBL204_lig3608-1

> <s_i_glide_gridfile>
glide-grid_1ype

> <i_i_glide_lignum>
5032

> <i_i_glide_rotatable_bonds>
7

> <r_i_docking_score>
-7.0878314000417

> <r_i_glide_ligand_efficiency>
-0.221494731251303

> <r_i_glide_ligand_efficiency_sa>
-0.703201937975094

> <r_i_glide_ligand_efficiency_ln>
-1.58715865745623

> <r_i_glide_gscore>
-7.0878314000417

> <r_i_glide_lipo>
-3.38755677045551

> <r_i_glide_hbond>
-0.380514026908573

> <r_i_glide_metal>
0

> <r_i_glide_rewards>
-0.798938180071155

> <r_i_glide_evdw>
-44.6699752807617

> <r_i_glide_ecoul>
-5.2736382484436

> <r_i_glide_erotb>
0.585499875316019

> <r_i_glide_esite>
-0.0817777966178525

> <r_i_glide_emodel>
-66.2846553907039

> <r_i_glide_energy>
-49.9436135292053

> <r_i_glide_einternal>
8.90877819061279

> <i_i_glide_confnum>
34

> <i_i_glide_posenum>
209

> <r_i_glide_eff_state_penalty>
0

> <s_user_duplicate_titles>
CHEMBL204_lig3608,279059

> <i_f3d_flags>
0

> <s_m_subgroup_title>
dock_pv

> <s_m_subgroupid>
dock_pv

> <b_m_subgroup_collapsed>
1

$$$$
CHEMBL204_lig1771
                    3D
 Schrodinger Suite 2021-1.
 61 64  0  0  1  0            999 V2000
   12.6512  -11.8800   20.4722 C   0  0  0  0  0  0
   14.0293  -12.1159   20.7391 O   0  0  0  0  0  0
   14.9142  -12.1153   19.6798 C   0  0  0  0  0  0
   14.6252  -11.8530   18.3333 C   0  0  0  0  0  0
   15.6064  -11.8530   17.3235 C   0  0  0  0  0  0
   16.9447  -12.1215   17.6628 C   0  0  0  0  0  0
   17.2524  -12.4115   18.9950 C   0  0  0  0  0  0
   18.4425  -12.7263   19.5700 N   0  0  0  0  0  0
   18.1431  -12.8380   20.8455 C   0  0  0  0  0  0
   18.9695  -13.1206   21.8943 N   0  0  0  0  0  0
   20.3631  -13.5701   21.8658 C   0  0  1  0  0  0
   21.2160  -12.9909   20.6902 C   0  0  0  0  0  0
   21.0154  -11.7239   20.3210 F   0  0  0  0  0  0
   21.0185  -13.5326   23.2708 C   0  0  0  0  0  0
   20.2927  -13.2951   24.4551 C   0  0  0  0  0  0
   20.9041  -13.3963   25.7077 C   0  0  0  0  0  0
   22.2533  -13.7362   25.8016 C   0  0  0  0  0  0
   22.9956  -13.9425   24.6430 C   0  0  0  0  0  0
   24.6764  -14.3270   24.7214 Cl  0  0  0  0  0  0
   22.3755  -13.8530   23.4020 C   0  0  0  0  0  0
   16.8314  -12.6578   21.1711 O   0  0  0  0  0  0
   16.2490  -12.3890   19.9714 C   0  0  0  0  0  0
   15.2160  -11.4530   15.9100 C   0  0  0  0  0  0
   14.4160  -10.5219   15.7862 O   0  0  0  0  0  0
   15.7567  -12.0871   14.8238 N   0  0  0  0  0  0
   16.5742  -13.3200   14.9387 C   0  0  0  0  0  0
   16.2012  -14.3160   13.8163 C   0  0  2  0  0  0
   17.2130  -15.4674   13.7530 C   0  0  0  0  0  0
   16.2120  -13.6581   12.5591 O   0  0  0  0  0  0
   15.2159  -12.6501   12.4902 C   0  0  0  0  0  0
   15.5578  -11.5043   13.4655 C   0  0  2  0  0  0
   16.7404  -10.6698   12.9313 C   0  0  0  0  0  0
   17.1917   -9.5328   13.8568 C   0  0  0  0  0  0
   18.0160   -8.6530   13.1210 O   0  0  0  0  0  0
   12.0873  -11.9384   21.4035 H   0  0  0  0  0  0
   12.4885  -10.8870   20.0502 H   0  0  0  0  0  0
   12.2405  -12.6282   19.7922 H   0  0  0  0  0  0
   13.6160  -11.6106   18.0692 H   0  0  0  0  0  0
   17.7369  -12.0892   16.9325 H   0  0  0  0  0  0
   18.5280  -13.3242   22.7767 H   0  0  0  0  0  0
   20.2961  -14.6424   21.6728 H   0  0  0  0  0  0
   22.2781  -13.0517   20.8812 H   0  0  0  0  0  0
   21.0414  -13.5781   19.7879 H   0  0  0  0  0  0
   19.2417  -13.0530   24.4342 H   0  0  0  0  0  0
   20.3272  -13.2246   26.6055 H   0  0  0  0  0  0
   22.7252  -13.8501   26.7658 H   0  0  0  0  0  0
   22.9741  -14.0627   22.5390 H   0  0  0  0  0  0
   16.3882  -13.8665   15.8640 H   0  0  0  0  0  0
   17.6266  -13.0554   14.8500 H   0  0  0  0  0  0
   15.2160  -14.7504   13.9987 H   0  0  0  0  0  0
   17.2491  -16.0169   14.6943 H   0  0  0  0  0  0
   16.9410  -16.1760   12.9701 H   0  0  0  0  0  0
   18.2183  -15.1057   13.5354 H   0  0  0  0  0  0
   14.2325  -13.0530   12.7210 H   0  0  0  0  0  0
   15.1438  -12.2831   11.4662 H   0  0  0  0  0  0
   14.6897  -10.8417   13.4592 H   0  0  0  0  0  0
   16.4395  -10.2530   11.9680 H   0  0  0  0  0  0
   17.5885  -11.3218   12.7190 H   0  0  0  0  0  0
   17.6678   -9.9138   14.7594 H   0  0  0  0  0  0
   16.3207   -8.9867   14.2193 H   0  0  0  0  0  0
   17.4142   -8.1177   12.5863 H   0  0  0  0  0  0
  1  2  1  0  0  0
  1 35  1  0  0  0
  1 36  1  0  0  0
  1 37  1  0  0  0
  2  3  1  0  0  0
  3  4  2  0  0  0
  3 22  1  0  0  0
  4  5  1  0  0  0
  4 38  1  0  0  0
  5  6  2  0  0  0
  5 23  1  0  0  0
  6  7  1  0  0  0
  6 39  1  0  0  0
  7  8  1  0  0  0
  7 22  2  0  0  0
  8  9  2  0  0  0
  9 10  1  0  0  0
  9 21  1  0  0  0
 10 11  1  0  0  0
 10 40  1  0  0  0
 11 12  1  0  0  0
 11 14  1  0  0  0
 11 41  1  0  0  0
 12 13  1  0  0  0
 12 42  1  0  0  0
 12 43  1  0  0  0
 14 15  2  0  0  0
 14 20  1  0  0  0
 15 16  1  0  0  0
 15 44  1  0  0  0
 16 17  2  0  0  0
 16 45  1  0  0  0
 17 18  1  0  0  0
 17 46  1  0  0  0
 18 19  1  0  0  0
 18 20  2  0  0  0
 20 47  1  0  0  0
 21 22  1  0  0  0
 23 24  2  0  0  0
 23 25  1  0  0  0
 25 26  1  0  0  0
 25 31  1  0  0  0
 26 27  1  0  0  0
 26 48  1  0  0  0
 26 49  1  0  0  0
 27 28  1  0  0  0
 27 29  1  0  0  0
 27 50  1  0  0  0
 28 51  1  0  0  0
 28 52  1  0  0  0
 28 53  1  0  0  0
 29 30  1  0  0  0
 30 31  1  0  0  0
 30 54  1  0  0  0
 30 55  1  0  0  0
 31 32  1  0  0  0
 31 56  1  0  0  0
 32 33  1  0  0  0
 32 57  1  0  0  0
 32 58  1  0  0  0
 33 34  1  0  0  0
 33 59  1  0  0  0
 33 60  1  0  0  0
 34 61  1  0  0  0
M  END
> <s_m_entry_id>
35446

> <s_m_entry_name>
dock_pv.296

> <s_m_Source_Path>
/home/csk/Desktop/cluster/DUD-E-result/thrb

> <s_m_Source_File>
dock_pv.maegz

> <i_m_Source_File_Index>
296

> <chembl_id>
CHEMBL3941250

> <chembl_pref_name>
None

> <i_lp_mmshare_version>
53161

> <r_lp_tautomer_probability>
1

> <s_lp_Force_Field>
OPLS_2005

> <r_lp_Energy>
40.096662

> <b_lp_Chiralities_Consistent>
1

> <s_lp_Variant>
CHEMBL204_lig1771-6

> <s_i_glide_gridfile>
glide-grid_1ype

> <i_i_glide_lignum>
2602

> <i_i_glide_rotatable_bonds>
10

> <r_i_docking_score>
-7.0846761552056

> <r_i_glide_ligand_efficiency>
-0.208372828094282

> <r_i_glide_ligand_efficiency_sa>
-0.675047072166315

> <r_i_glide_ligand_efficiency_ln>
-1.56520368112003

> <r_i_glide_gscore>
-7.0846761552056

> <r_i_glide_lipo>
-3.1068479937547

> <r_i_glide_hbond>
-0.703459447480921

> <r_i_glide_metal>
0

> <r_i_glide_rewards>
-0.470013796499474

> <r_i_glide_evdw>
-38.9595603942871

> <r_i_glide_ecoul>
-9.47816467285156

> <r_i_glide_erotb>
0.588945756328861

> <r_i_glide_esite>
-0.0235979531572724

> <r_i_glide_emodel>
-62.767778721159

> <r_i_glide_energy>
-48.4377250671387

> <r_i_glide_einternal>
10.4953746795654

> <i_i_glide_confnum>
21

> <i_i_glide_posenum>
59

> <r_i_glide_eff_state_penalty>
0

> <s_user_duplicate_titles>
CHEMBL204_lig1771,CHEMBL204_lig1773

> <i_f3d_flags>
0

> <s_m_subgroup_title>
dock_pv

> <s_m_subgroupid>
dock_pv

> <b_m_subgroup_collapsed>
1

$$$$
CHEMBL204_lig1907
                    3D
 Schrodinger Suite 2021-1.
 60 63  0  0  1  0            999 V2000
   20.0705  -13.8844   21.6505 C   0  0  0  0  0  0
   20.3663  -15.0131   22.3648 N   0  0  0  0  0  0
   18.7400  -13.7653   21.3070 N   0  0  0  0  0  0
   21.2161  -14.8609   23.4915 C   0  0  0  0  0  0
   24.7883  -15.8518   24.3886 C   0  0  0  0  0  0
   25.2144  -16.2827   23.2836 N   0  0  0  0  0  0
   18.3492  -12.6162   20.4324 C   0  0  0  0  0  0
   15.3893  -12.2524   19.8162 N   0  0  2  0  0  0
   22.4692  -15.4847   23.5159 C   0  0  0  0  0  0
   23.4077  -15.2872   24.5374 C   0  0  0  0  0  0
   20.9374  -13.0541   21.3528 O   0  0  0  0  0  0
   17.6770  -13.0003   19.0990 C   0  0  0  0  0  0
   17.4539  -11.5686   21.1207 C   0  0  0  0  0  0
   13.0215  -10.4839   20.5556 N   0  0  0  0  0  0
   16.1684  -13.3154   19.1649 C   0  0  0  0  0  0
   15.9375  -11.8545   21.1210 C   0  0  0  0  0  0
   13.9726  -12.6673   19.8846 C   0  0  0  0  0  0
   25.5493  -15.8530   25.5212 N   0  0  0  0  0  0
   13.0662  -11.8260   20.7859 C   0  0  0  0  0  0
   20.2572  -16.3069   21.6573 C   0  0  0  0  0  0
   17.6832  -14.6752   21.8132 C   0  0  0  0  0  0
   20.8408  -14.0727   24.5857 C   0  0  0  0  0  0
   22.9760  -14.5167   25.6347 C   0  0  0  0  0  0
   21.7133  -13.9180   25.6606 C   0  0  0  0  0  0
   12.3089   -9.7207   21.4235 C   0  0  0  0  0  0
   12.3689  -12.4345   21.8369 C   0  0  0  0  0  0
   17.7177  -16.1101   21.2617 C   0  0  0  0  0  0
   18.8760  -16.9575   21.8051 C   0  0  0  0  0  0
   11.6160  -10.2523   22.5132 C   0  0  0  0  0  0
   11.6288  -11.6328   22.7052 C   0  0  0  0  0  0
   26.1621  -16.6205   23.3630 H   0  0  0  0  0  0
   19.2523  -12.0770   20.1441 H   0  0  0  0  0  0
   22.7535  -16.0942   22.6743 H   0  0  0  0  0  0
   17.8456  -12.2220   18.3540 H   0  0  0  0  0  0
   18.2101  -13.8527   18.6897 H   0  0  0  0  0  0
   17.7925  -11.4527   22.1486 H   0  0  0  0  0  0
   17.6339  -10.5801   20.6965 H   0  0  0  0  0  0
   15.7819  -13.4623   18.1551 H   0  0  0  0  0  0
   16.0101  -14.2630   19.6810 H   0  0  0  0  0  0
   15.4215  -10.9479   21.4308 H   0  0  0  0  0  0
   15.6820  -12.5842   21.8857 H   0  0  0  0  0  0
   13.5546  -12.6550   18.8763 H   0  0  0  0  0  0
   13.9111  -13.7038   20.2231 H   0  0  0  0  0  0
   26.5380  -16.0601   25.4563 H   0  0  0  0  0  0
   25.2206  -15.4095   26.3728 H   0  0  0  0  0  0
   20.4750  -16.1572   20.5975 H   0  0  0  0  0  0
   21.0021  -17.0152   22.0146 H   0  0  0  0  0  0
   17.8330  -14.7554   22.8926 H   0  0  0  0  0  0
   16.6924  -14.2461   21.7526 H   0  0  0  0  0  0
   19.8777  -13.5827   24.6052 H   0  0  0  0  0  0
   23.6161  -14.3386   26.4809 H   0  0  0  0  0  0
   21.4186  -13.3168   26.5084 H   0  0  0  0  0  0
   12.2939   -8.6585   21.2311 H   0  0  0  0  0  0
   12.4116  -13.5024   21.9980 H   0  0  0  0  0  0
   16.7838  -16.6060   21.5338 H   0  0  0  0  0  0
   17.7319  -16.0894   20.1721 H   0  0  0  0  0  0
   18.8802  -17.9188   21.2897 H   0  0  0  0  0  0
   18.7016  -17.1907   22.8578 H   0  0  0  0  0  0
   11.0596   -9.6213   23.1899 H   0  0  0  0  0  0
   11.0805  -12.0763   23.5256 H   0  0  0  0  0  0
  1  2  1  0  0  0
  1  3  1  0  0  0
  1 11  2  0  0  0
  2  4  1  0  0  0
  2 20  1  0  0  0
  3  7  1  0  0  0
  3 21  1  0  0  0
  4  9  2  0  0  0
  4 22  1  0  0  0
  5 10  1  0  0  0
  5  6  2  0  0  0
  5 18  1  0  0  0
  6 31  1  0  0  0
  7 12  1  0  0  0
  7 13  1  0  0  0
  7 32  1  0  0  0
  8 15  1  0  0  0
  8 17  1  0  0  0
  8 16  1  0  0  0
  9 10  1  0  0  0
  9 33  1  0  0  0
 10 23  2  0  0  0
 12 15  1  0  0  0
 12 34  1  0  0  0
 12 35  1  0  0  0
 13 16  1  0  0  0
 13 36  1  0  0  0
 13 37  1  0  0  0
 14 19  1  0  0  0
 14 25  2  0  0  0
 15 38  1  0  0  0
 15 39  1  0  0  0
 16 40  1  0  0  0
 16 41  1  0  0  0
 17 19  1  0  0  0
 17 42  1  0  0  0
 17 43  1  0  0  0
 18 44  1  0  0  0
 18 45  1  0  0  0
 19 26  2  0  0  0
 20 28  1  0  0  0
 20 46  1  0  0  0
 20 47  1  0  0  0
 21 27  1  0  0  0
 21 48  1  0  0  0
 21 49  1  0  0  0
 22 24  2  0  0  0
 22 50  1  0  0  0
 23 24  1  0  0  0
 23 51  1  0  0  0
 24 52  1  0  0  0
 25 29  1  0  0  0
 25 53  1  0  0  0
 26 30  1  0  0  0
 26 54  1  0  0  0
 27 28  1  0  0  0
 27 55  1  0  0  0
 27 56  1  0  0  0
 28 57  1  0  0  0
 28 58  1  0  0  0
 29 30  2  0  0  0
 29 59  1  0  0  0
 30 60  1  0  0  0
M  END
> <s_m_entry_id>
35448

> <s_m_entry_name>
dock_pv.298

> <s_m_Source_Path>
/home/csk/Desktop/cluster/DUD-E-result/thrb

> <s_m_Source_File>
dock_pv.maegz

> <i_m_Source_File_Index>
298

> <chembl_id>
CHEMBL1160810

> <chembl_pref_name>
None

> <i_lp_mmshare_version>
53161

> <r_lp_tautomer_probability>
1

> <s_lp_Force_Field>
OPLS_2005

> <r_lp_Energy>
71.666849

> <b_lp_Chiralities_Consistent>
1

> <s_lp_Variant>
CHEMBL204_lig1907-1

> <s_i_glide_gridfile>
glide-grid_1ype

> <i_i_glide_lignum>
2849

> <i_i_glide_rotatable_bonds>
5

> <r_i_docking_score>
-7.08373751900707

> <r_i_glide_ligand_efficiency>
-0.236124583966902

> <r_i_glide_ligand_efficiency_sa>
-0.733693981924977

> <r_i_glide_ligand_efficiency_ln>
-1.60950234782059

> <r_i_glide_gscore>
-7.08373751900707

> <r_i_glide_lipo>
-2.51982535624764

> <r_i_glide_hbond>
-0.637306110414756

> <r_i_glide_metal>
0

> <r_i_glide_rewards>
-1.11423449571202

> <r_i_glide_evdw>
-41.865291595459

> <r_i_glide_ecoul>
-7.79050064086914

> <r_i_glide_erotb>
0.475926678516903

> <r_i_glide_esite>
-0.026458559246236

> <r_i_glide_emodel>
-69.6368758749491

> <r_i_glide_energy>
-49.6557922363281

> <r_i_glide_einternal>
3.81802201271057

> <i_i_glide_confnum>
25

> <i_i_glide_posenum>
202

> <r_i_glide_eff_state_penalty>
0

> <s_user_duplicate_titles>
CHEMBL204_lig1907

> <i_f3d_flags>
0

> <s_m_subgroup_title>
dock_pv

> <s_m_subgroupid>
dock_pv

> <b_m_subgroup_collapsed>
1

$$$$
CHEMBL204_lig4740
                    3D
 Schrodinger Suite 2021-1.
 55 57  0  0  1  0            999 V2000
   21.2292  -15.3833   24.5403 C   0  0  0  0  0  0
   20.0846  -15.6396   25.2988 C   0  0  0  0  0  0
   19.6631  -14.7365   26.2660 C   0  0  0  0  0  0
   20.4167  -13.5912   26.5209 C   0  0  0  0  0  0
   21.5981  -13.3634   25.8123 C   0  0  0  0  0  0
   22.0182  -14.2559   24.8089 C   0  0  0  0  0  0
   21.5900  -16.3492   23.4165 C   0  0  0  0  0  0
   21.1369  -15.8735   22.1089 N   0  0  0  0  0  0
   18.1999  -15.0532   27.1210 Cl  0  0  0  0  0  0
   19.8411  -15.7311   21.7799 C   0  0  0  0  0  0
   19.5351  -15.1860   20.3865 C   0  0  0  0  0  0
   18.9080  -13.8411   20.4376 N   0  0  0  0  0  0
   18.9134  -16.0548   22.5191 O   0  0  0  0  0  0
   19.6384  -12.6495   20.3664 C   0  0  0  0  0  0
   18.9921  -11.4535   20.3365 C   0  0  0  0  0  0
   17.6323  -11.3387   20.3528 N   0  0  0  0  0  0
   16.9409  -12.4228   20.4536 C   0  0  0  0  0  0
   17.5166  -13.8078   20.5077 C   0  0  0  0  0  0
   15.5497  -12.3389   20.4481 N   0  0  0  0  0  0
   14.8047  -11.1607   20.0072 C   0  0  0  0  0  0
   13.2728  -11.2979   20.1205 C   0  0  0  0  0  0
   12.6823  -10.9710   21.4872 C   0  0  0  0  0  0
   11.8101  -11.8539   22.1320 C   0  0  0  0  0  0
   11.2160  -11.4525   23.3309 C   0  0  0  0  0  0
   11.5229  -10.2003   23.8665 C   0  0  0  0  0  0
   12.4119   -9.3806   23.1692 C   0  0  0  0  0  0
   12.9877   -9.7455   21.9948 N   0  0  0  0  0  0
   21.1624  -12.7313   20.3468 C   0  0  0  0  0  0
   16.8067  -14.8215   20.5602 O   0  0  0  0  0  0
   23.1559  -14.0725   24.0431 O   0  0  0  0  0  0
   24.2171  -13.2900   24.5720 C   0  0  0  0  0  0
   19.4807  -16.5123   25.0950 H   0  0  0  0  0  0
   20.0902  -12.8850   27.2705 H   0  0  0  0  0  0
   22.1559  -12.4680   26.0313 H   0  0  0  0  0  0
   22.6725  -16.4778   23.3870 H   0  0  0  0  0  0
   21.1972  -17.3470   23.6214 H   0  0  0  0  0  0
   21.8564  -15.5868   21.4590 H   0  0  0  0  0  0
   20.4227  -15.1789   19.7549 H   0  0  0  0  0  0
   18.8772  -15.9160   19.9211 H   0  0  0  0  0  0
   19.5519  -10.5297   20.3185 H   0  0  0  0  0  0
   15.0394  -13.2105   20.4908 H   0  0  0  0  0  0
   15.1609  -10.2525   20.4958 H   0  0  0  0  0  0
   15.0530  -11.0525   18.9506 H   0  0  0  0  0  0
   12.8159  -10.6004   19.4195 H   0  0  0  0  0  0
   12.9552  -12.2874   19.7886 H   0  0  0  0  0  0
   11.5685  -12.8176   21.7099 H   0  0  0  0  0  0
   10.5156  -12.1039   23.8392 H   0  0  0  0  0  0
   11.0601   -9.8739   24.7872 H   0  0  0  0  0  0
   12.6767   -8.4082   23.5547 H   0  0  0  0  0  0
   21.6161  -11.7395   20.3216 H   0  0  0  0  0  0
   21.5399  -13.2322   21.2390 H   0  0  0  0  0  0
   21.5122  -13.2646   19.4626 H   0  0  0  0  0  0
   25.0634  -13.3113   23.8864 H   0  0  0  0  0  0
   23.9369  -12.2521   24.7200 H   0  0  0  0  0  0
   24.5520  -13.7028   25.5210 H   0  0  0  0  0  0
  1  6  1  0  0  0
  1  2  2  0  0  0
  1  7  1  0  0  0
  2  3  1  0  0  0
  2 32  1  0  0  0
  3  9  1  0  0  0
  3  4  2  0  0  0
  4  5  1  0  0  0
  4 33  1  0  0  0
  5  6  2  0  0  0
  5 34  1  0  0  0
  6 30  1  0  0  0
  7  8  1  0  0  0
  7 35  1  0  0  0
  7 36  1  0  0  0
  8 10  1  0  0  0
  8 37  1  0  0  0
 10 11  1  0  0  0
 10 13  2  0  0  0
 11 12  1  0  0  0
 11 38  1  0  0  0
 11 39  1  0  0  0
 12 18  1  0  0  0
 12 14  1  0  0  0
 14 15  2  0  0  0
 14 28  1  0  0  0
 15 16  1  0  0  0
 15 40  1  0  0  0
 16 17  2  0  0  0
 17 18  1  0  0  0
 17 19  1  0  0  0
 18 29  2  0  0  0
 19 20  1  0  0  0
 19 41  1  0  0  0
 20 21  1  0  0  0
 20 42  1  0  0  0
 20 43  1  0  0  0
 21 22  1  0  0  0
 21 44  1  0  0  0
 21 45  1  0  0  0
 22 23  2  0  0  0
 22 27  1  0  0  0
 23 24  1  0  0  0
 23 46  1  0  0  0
 24 25  2  0  0  0
 24 47  1  0  0  0
 25 26  1  0  0  0
 25 48  1  0  0  0
 26 27  2  0  0  0
 26 49  1  0  0  0
 28 50  1  0  0  0
 28 51  1  0  0  0
 28 52  1  0  0  0
 30 31  1  0  0  0
 31 53  1  0  0  0
 31 54  1  0  0  0
 31 55  1  0  0  0
M  END
> <s_m_entry_id>
35449

> <s_m_entry_name>
dock_pv.299

> <s_m_Source_Path>
/home/csk/Desktop/cluster/DUD-E-result/thrb

> <s_m_Source_File>
dock_pv.maegz

> <i_m_Source_File_Index>
299

> <chembl_id>
CHEMBL1682695

> <chembl_pref_name>
None

> <i_lp_mmshare_version>
53161

> <r_lp_tautomer_probability>
1

> <s_lp_Force_Field>
OPLS_2005

> <r_lp_Energy>
21.33857

> <b_lp_Chiralities_Consistent>
1

> <s_lp_Variant>
CHEMBL204_lig4740-1

> <s_i_glide_gridfile>
glide-grid_1ype

> <i_i_glide_lignum>
6482

> <i_i_glide_rotatable_bonds>
10

> <r_i_docking_score>
-7.0832413373191

> <r_i_glide_ligand_efficiency>
-0.228491656042552

> <r_i_glide_ligand_efficiency_sa>
-0.717779266703326

> <r_i_glide_ligand_efficiency_ln>
-1.59748799684269

> <r_i_glide_gscore>
-7.0832413373191

> <r_i_glide_lipo>
-3.90232156344018

> <r_i_glide_hbond>
-0.280666067684503

> <r_i_glide_metal>
0

> <r_i_glide_rewards>
-0.734844952144187

> <r_i_glide_evdw>
-50.1993217468262

> <r_i_glide_ecoul>
-3.11505246162415

> <r_i_glide_erotb>
0.818454299506449

> <r_i_glide_esite>
-0.00663909697175101

> <r_i_glide_emodel>
-72.3393225818624

> <r_i_glide_energy>
-53.3143742084503

> <r_i_glide_einternal>
8.79824066162109

> <i_i_glide_confnum>
9

> <i_i_glide_posenum>
334

> <r_i_glide_eff_state_penalty>
0

> <s_user_duplicate_titles>
CHEMBL204_lig4740

> <i_f3d_flags>
0

> <s_m_subgroup_title>
dock_pv

> <s_m_subgroupid>
dock_pv

> <b_m_subgroup_collapsed>
1

$$$$
CHEMBL204_lig4640
                    3D
 Schrodinger Suite 2021-1.
 71 74  0  0  1  0            999 V2000
   17.9467  -13.6941   21.5680 C   0  0  0  0  0  0
   18.9355  -13.1209   20.7529 C   0  0  0  0  0  0
   18.6426  -12.6550   19.4685 C   0  0  0  0  0  0
   16.6369  -13.7683   21.0518 C   0  0  0  0  0  0
   16.3525  -13.2926   19.7706 C   0  0  0  0  0  0
   17.3361  -12.7308   18.9538 C   0  0  0  0  0  0
   16.9482  -12.3287   17.6454 N   0  0  0  0  0  0
   15.6594  -12.1232   17.2348 C   0  0  0  0  0  0
   14.6132  -12.4505   18.3502 C   0  0  1  0  0  0
   15.0764  -13.4568   19.2816 O   0  0  0  0  0  0
   17.9786  -11.9420   16.6636 C   0  0  0  0  0  0
   15.3282  -11.6271   16.1533 O   0  0  0  0  0  0
   14.2779  -11.0803   19.0135 C   0  0  0  0  0  0
   13.5324  -11.0873   20.3276 C   0  0  0  0  0  0
   12.7340  -12.1592   20.7179 C   0  0  0  0  0  0
   12.0166  -12.0808   21.9004 C   0  0  0  0  0  0
   12.0577  -10.9240   22.7020 C   0  0  0  0  0  0
   12.8961   -9.8717   22.3012 C   0  0  0  0  0  0
   13.6293   -9.9534   21.1309 C   0  0  0  0  0  0
   11.2157  -10.7695   23.9094 C   0  0  0  0  0  0
   11.2145   -9.6992   24.5649 N   0  0  0  0  0  0
   10.4170  -11.8528   24.1759 N   0  0  0  0  0  0
   18.2719  -14.1604   22.8854 N   0  0  0  0  0  0
   19.2542  -13.3696   23.6697 C   0  0  0  0  0  0
   20.6042  -14.0115   23.9902 C   0  0  0  0  0  0
   21.2638  -13.6182   25.1584 C   0  0  0  0  0  0
   22.4760  -14.2077   25.5046 C   0  0  0  0  0  0
   23.0276  -15.1858   24.6836 C   0  0  0  0  0  0
   22.3772  -15.5799   23.5175 C   0  0  0  0  0  0
   21.1689  -14.9866   23.1631 C   0  0  0  0  0  0
   17.7117  -15.2995   23.4082 C   0  0  0  0  0  0
   17.8176  -15.6272   24.9153 C   0  0  0  0  0  0
   17.0833  -16.1103   22.7215 O   0  0  0  0  0  0
   18.8083  -16.7853   25.2053 C   0  0  0  0  0  0
   18.4014  -17.6860   26.3733 C   0  0  0  0  0  0
   18.4265  -17.0521   27.5675 O   0  0  0  0  0  0
   18.0941  -18.8647   26.1877 O   0  0  0  0  0  0
   18.0971  -17.7370   28.7747 C   0  0  0  0  0  0
   19.2885  -18.5179   29.3447 C   0  0  0  0  0  0
   19.9559  -13.0516   21.0972 H   0  0  0  0  0  0
   19.4567  -12.2307   18.9044 H   0  0  0  0  0  0
   15.8310  -14.1886   21.6375 H   0  0  0  0  0  0
   13.7236  -12.8545   17.8630 H   0  0  0  0  0  0
   17.8720  -10.8912   16.3913 H   0  0  0  0  0  0
   19.0037  -12.1011   16.9878 H   0  0  0  0  0  0
   17.8501  -12.5341   15.7570 H   0  0  0  0  0  0
   15.2469  -10.6532   19.2581 H   0  0  0  0  0  0
   13.6706  -10.4759   18.3325 H   0  0  0  0  0  0
   12.6463  -13.0464   20.1098 H   0  0  0  0  0  0
   11.3960  -12.9299   22.1476 H   0  0  0  0  0  0
   12.9761   -8.9659   22.8858 H   0  0  0  0  0  0
   14.2538   -9.1216   20.8382 H   0  0  0  0  0  0
   10.5041   -9.7439   25.2842 H   0  0  0  0  0  0
    9.6229  -11.7557   24.8139 H   0  0  0  0  0  0
   10.5354  -12.7475   23.7123 H   0  0  0  0  0  0
   19.4633  -12.4326   23.1629 H   0  0  0  0  0  0
   18.8145  -13.0626   24.6142 H   0  0  0  0  0  0
   20.8390  -12.8671   25.8067 H   0  0  0  0  0  0
   22.9861  -13.9121   26.4100 H   0  0  0  0  0  0
   23.9626  -15.6486   24.9586 H   0  0  0  0  0  0
   22.8075  -16.3470   22.8872 H   0  0  0  0  0  0
   20.6721  -15.3006   22.2577 H   0  0  0  0  0  0
   16.8021  -15.9173   25.1960 H   0  0  0  0  0  0
   18.0373  -14.7621   25.5383 H   0  0  0  0  0  0
   19.8077  -16.3948   25.3912 H   0  0  0  0  0  0
   18.8980  -17.4340   24.3321 H   0  0  0  0  0  0
   17.2540  -18.4175   28.6211 H   0  0  0  0  0  0
   17.7606  -16.9991   29.5027 H   0  0  0  0  0  0
   18.9927  -19.0668   30.2387 H   0  0  0  0  0  0
   20.1006  -17.8522   29.6230 H   0  0  0  0  0  0
   19.6749  -19.2357   28.6226 H   0  0  0  0  0  0
  1 23  1  0  0  0
  1  2  2  0  0  0
  1  4  1  0  0  0
  2  3  1  0  0  0
  2 40  1  0  0  0
  3  6  2  0  0  0
  3 41  1  0  0  0
  4  5  2  0  0  0
  4 42  1  0  0  0
  5  6  1  0  0  0
  5 10  1  0  0  0
  6  7  1  0  0  0
  7  8  1  0  0  0
  7 11  1  0  0  0
  8  9  1  0  0  0
  8 12  2  0  0  0
  9 10  1  0  0  0
  9 13  1  0  0  0
  9 43  1  0  0  0
 11 44  1  0  0  0
 11 45  1  0  0  0
 11 46  1  0  0  0
 13 14  1  0  0  0
 13 47  1  0  0  0
 13 48  1  0  0  0
 14 19  1  0  0  0
 14 15  2  0  0  0
 15 16  1  0  0  0
 15 49  1  0  0  0
 16 17  2  0  0  0
 16 50  1  0  0  0
 17 20  1  0  0  0
 17 18  1  0  0  0
 18 19  2  0  0  0
 18 51  1  0  0  0
 19 52  1  0  0  0
 20 21  2  0  0  0
 20 22  1  0  0  0
 21 53  1  0  0  0
 22 54  1  0  0  0
 22 55  1  0  0  0
 23 24  1  0  0  0
 23 31  1  0  0  0
 24 25  1  0  0  0
 24 56  1  0  0  0
 24 57  1  0  0  0
 25 26  2  0  0  0
 25 30  1  0  0  0
 26 27  1  0  0  0
 26 58  1  0  0  0
 27 28  2  0  0  0
 27 59  1  0  0  0
 28 29  1  0  0  0
 28 60  1  0  0  0
 29 30  2  0  0  0
 29 61  1  0  0  0
 30 62  1  0  0  0
 31 32  1  0  0  0
 31 33  2  0  0  0
 32 34  1  0  0  0
 32 63  1  0  0  0
 32 64  1  0  0  0
 34 35  1  0  0  0
 34 65  1  0  0  0
 34 66  1  0  0  0
 35 36  1  0  0  0
 35 37  2  0  0  0
 36 38  1  0  0  0
 38 39  1  0  0  0
 38 67  1  0  0  0
 38 68  1  0  0  0
 39 69  1  0  0  0
 39 70  1  0  0  0
 39 71  1  0  0  0
M  END
> <s_m_entry_id>
35450

> <s_m_entry_name>
dock_pv.300

> <s_m_Source_Path>
/home/csk/Desktop/cluster/DUD-E-result/thrb

> <s_m_Source_File>
dock_pv.maegz

> <i_m_Source_File_Index>
300

> <chembl_id>
CHEMBL468340

> <chembl_pref_name>
None

> <i_lp_mmshare_version>
53161

> <r_lp_tautomer_probability>
1

> <s_lp_Force_Field>
OPLS_2005

> <r_lp_Energy>
37.662284

> <b_lp_Chiralities_Consistent>
1

> <s_lp_Variant>
CHEMBL204_lig4640-2

> <s_i_glide_gridfile>
glide-grid_1ype

> <i_i_glide_lignum>
6336

> <i_i_glide_rotatable_bonds>
12

> <r_i_docking_score>
-7.08237937650975

> <r_i_glide_ligand_efficiency>
-0.181599471192558

> <r_i_glide_ligand_efficiency_sa>
-0.615842204001464

> <r_i_glide_ligand_efficiency_ln>
-1.51866318361794

> <r_i_glide_gscore>
-7.08237937650975

> <r_i_glide_lipo>
-3.62485433592943

> <r_i_glide_hbond>
-0.203027382072395

> <r_i_glide_metal>
0

> <r_i_glide_rewards>
-0.407222289352798

> <r_i_glide_evdw>
-45.9356460571289

> <r_i_glide_ecoul>
-7.4783353805542

> <r_i_glide_erotb>
0.737337365486085

> <r_i_glide_esite>
-0.166080124701632

> <r_i_glide_emodel>
-65.8574276652836

> <r_i_glide_energy>
-53.4139814376831

> <r_i_glide_einternal>
21.0906429290771

> <i_i_glide_confnum>
61

> <i_i_glide_posenum>
84

> <r_i_glide_eff_state_penalty>
0

> <s_user_duplicate_titles>
CHEMBL204_lig4640

> <i_f3d_flags>
0

> <s_m_subgroup_title>
dock_pv

> <s_m_subgroupid>
dock_pv

> <b_m_subgroup_collapsed>
1

$$$$
CHEMBL204_lig5059
                    3D
 Schrodinger Suite 2021-1.
 68 71  0  0  1  0            999 V2000
   11.3729  -10.6931   23.6960 C   0  0  0  0  0  0
   12.3940  -10.7947   22.6208 C   0  0  0  0  0  0
   12.7969  -12.0288   22.0782 C   0  0  0  0  0  0
   13.7814  -12.1426   21.0776 C   0  0  0  0  0  0
   14.3354  -10.9422   20.5933 C   0  0  0  0  0  0
   13.9693   -9.7094   21.1200 C   0  0  0  0  0  0
   13.0122   -9.6375   22.1208 C   0  0  0  0  0  0
   11.2156   -9.6132   24.3209 N   0  0  0  0  0  0
   10.6486  -11.8423   23.9222 N   0  0  0  0  0  0
   15.4843  -13.7092   20.2205 C   0  0  0  0  0  0
   15.9153  -14.9993   20.4003 N   0  0  0  0  0  0
   15.0314  -16.1717   20.2385 C   0  0  0  0  0  0
   13.5581  -15.7958   20.0353 C   0  0  2  0  0  0
   13.2323  -14.5573   20.8793 C   0  0  0  0  0  0
   14.1833  -13.4427   20.6062 N   0  0  0  0  0  0
   16.2568  -12.8678   19.7483 O   0  0  0  0  0  0
   17.3639  -15.2792   20.3964 C   0  0  0  0  0  0
   18.0975  -15.1056   21.7498 C   0  0  0  0  0  0
   18.2700  -13.6409   22.1937 C   0  0  0  0  0  0
   19.1746  -13.5480   23.4389 C   0  0  0  0  0  0
   18.6728  -14.3830   24.5472 N   0  0  1  0  0  0
   18.3127  -15.7678   24.1892 C   0  0  0  0  0  0
   17.4282  -15.8353   22.9265 C   0  0  0  0  0  0
   19.4683  -14.2849   25.7815 C   0  0  0  0  0  0
   20.9556  -14.6074   25.6081 C   0  0  0  0  0  0
   21.3929  -15.9330   25.5208 C   0  0  0  0  0  0
   22.7371  -16.2107   25.2855 C   0  0  0  0  0  0
   23.6413  -15.1630   25.1243 C   0  0  0  0  0  0
   23.2143  -13.8403   25.2065 C   0  0  0  0  0  0
   21.8716  -13.5631   25.4516 C   0  0  0  0  0  0
   12.6143  -16.9817   20.3435 C   0  0  0  0  0  0
   11.2352  -16.6528   20.1969 O   0  0  0  0  0  0
   10.7631  -16.6051   18.8559 C   0  0  0  0  0  0
   12.3612  -12.9249   22.4912 H   0  0  0  0  0  0
   15.0555  -10.9202   19.7924 H   0  0  0  0  0  0
   14.4251   -8.8061   20.7423 H   0  0  0  0  0  0
   12.7513   -8.6603   22.5053 H   0  0  0  0  0  0
   10.4553   -9.6939   24.9875 H   0  0  0  0  0  0
    9.8382  -11.7956   24.5386 H   0  0  0  0  0  0
   10.8271  -12.7268   23.4644 H   0  0  0  0  0  0
   15.4400  -16.9331   19.5726 H   0  0  0  0  0  0
   15.0946  -16.6464   21.2189 H   0  0  0  0  0  0
   13.4412  -15.5201   18.9861 H   0  0  0  0  0  0
   13.2828  -14.8078   21.9406 H   0  0  0  0  0  0
   12.2100  -14.2358   20.6677 H   0  0  0  0  0  0
   17.5197  -16.3035   20.0545 H   0  0  0  0  0  0
   17.8605  -14.6530   19.6538 H   0  0  0  0  0  0
   19.1001  -15.5177   21.6202 H   0  0  0  0  0  0
   18.7334  -13.0760   21.3847 H   0  0  0  0  0  0
   17.3189  -13.1322   22.3566 H   0  0  0  0  0  0
   20.1898  -13.8529   23.1799 H   0  0  0  0  0  0
   19.2480  -12.5142   23.7756 H   0  0  0  0  0  0
   19.2151  -16.3564   24.0291 H   0  0  0  0  0  0
   17.7900  -16.2257   25.0307 H   0  0  0  0  0  0
   16.4188  -15.4697   23.1207 H   0  0  0  0  0  0
   17.2804  -16.8823   22.6608 H   0  0  0  0  0  0
   19.3713  -13.2625   26.1514 H   0  0  0  0  0  0
   19.0424  -14.9298   26.5528 H   0  0  0  0  0  0
   20.6954  -16.7486   25.6407 H   0  0  0  0  0  0
   23.0768  -17.2345   25.2259 H   0  0  0  0  0  0
   24.6853  -15.3768   24.9460 H   0  0  0  0  0  0
   23.9227  -13.0334   25.0901 H   0  0  0  0  0  0
   21.5370  -12.5387   25.5201 H   0  0  0  0  0  0
   12.8675  -17.8554   19.7397 H   0  0  0  0  0  0
   12.7559  -17.2866   21.3818 H   0  0  0  0  0  0
    9.7018  -16.3529   18.8542 H   0  0  0  0  0  0
   11.2838  -15.8523   18.2635 H   0  0  0  0  0  0
   10.8723  -17.5727   18.3638 H   0  0  0  0  0  0
  1  2  1  0  0  0
  1  8  2  0  0  0
  1  9  1  0  0  0
  2  3  1  0  0  0
  2  7  2  0  0  0
  3  4  2  0  0  0
  3 34  1  0  0  0
  4  5  1  0  0  0
  4 15  1  0  0  0
  5  6  2  0  0  0
  5 35  1  0  0  0
  6  7  1  0  0  0
  6 36  1  0  0  0
  7 37  1  0  0  0
  8 38  1  0  0  0
  9 39  1  0  0  0
  9 40  1  0  0  0
 10 11  1  0  0  0
 10 15  1  0  0  0
 10 16  2  0  0  0
 11 12  1  0  0  0
 11 17  1  0  0  0
 12 13  1  0  0  0
 12 41  1  0  0  0
 12 42  1  0  0  0
 13 14  1  0  0  0
 13 31  1  0  0  0
 13 43  1  0  0  0
 14 15  1  0  0  0
 14 44  1  0  0  0
 14 45  1  0  0  0
 17 18  1  0  0  0
 17 46  1  0  0  0
 17 47  1  0  0  0
 18 19  1  0  0  0
 18 23  1  0  0  0
 18 48  1  0  0  0
 19 20  1  0  0  0
 19 49  1  0  0  0
 19 50  1  0  0  0
 20 21  1  0  0  0
 20 51  1  0  0  0
 20 52  1  0  0  0
 21 22  1  0  0  0
 21 24  1  0  0  0
 22 23  1  0  0  0
 22 53  1  0  0  0
 22 54  1  0  0  0
 23 55  1  0  0  0
 23 56  1  0  0  0
 24 25  1  0  0  0
 24 57  1  0  0  0
 24 58  1  0  0  0
 25 26  2  0  0  0
 25 30  1  0  0  0
 26 27  1  0  0  0
 26 59  1  0  0  0
 27 28  2  0  0  0
 27 60  1  0  0  0
 28 29  1  0  0  0
 28 61  1  0  0  0
 29 30  2  0  0  0
 29 62  1  0  0  0
 30 63  1  0  0  0
 31 32  1  0  0  0
 31 64  1  0  0  0
 31 65  1  0  0  0
 32 33  1  0  0  0
 33 66  1  0  0  0
 33 67  1  0  0  0
 33 68  1  0  0  0
M  END
> <s_m_entry_id>
35451

> <s_m_entry_name>
dock_pv.301

> <s_m_Source_Path>
/home/csk/Desktop/cluster/DUD-E-result/thrb

> <s_m_Source_File>
dock_pv.maegz

> <i_m_Source_File_Index>
301

> <chembl_id>
CHEMBL3780434

> <chembl_pref_name>
None

> <i_lp_mmshare_version>
53161

> <r_lp_tautomer_probability>
1

> <s_lp_Force_Field>
OPLS_2005

> <r_lp_Energy>
65.946622

> <b_lp_Chiralities_Consistent>
1

> <s_lp_Variant>
CHEMBL204_lig5059-1

> <s_i_glide_gridfile>
glide-grid_1ype

> <i_i_glide_lignum>
6928

> <i_i_glide_rotatable_bonds>
8

> <r_i_docking_score>
-7.08128869636311

> <r_i_glide_ligand_efficiency>
-0.214584505950397

> <r_i_glide_ligand_efficiency_sa>
-0.688287168718893

> <r_i_glide_ligand_efficiency_ln>
-1.57484194112055

> <r_i_glide_gscore>
-7.08128869636311

> <r_i_glide_lipo>
-3.66499647241723

> <r_i_glide_hbond>
-0.220384602373368

> <r_i_glide_metal>
0

> <r_i_glide_rewards>
-0.488662169563237

> <r_i_glide_evdw>
-44.1147155761719

> <r_i_glide_ecoul>
-6.60070276260376

> <r_i_glide_erotb>
0.594928370617446

> <r_i_glide_esite>
-0.106332629427571

> <r_i_glide_emodel>
-66.412040883508

> <r_i_glide_energy>
-50.7154183387756

> <r_i_glide_einternal>
12.8975219726562

> <i_i_glide_confnum>
2

> <i_i_glide_posenum>
236

> <r_i_glide_eff_state_penalty>
0

> <s_user_duplicate_titles>
CHEMBL204_lig5059

> <i_f3d_flags>
0

> <s_m_subgroup_title>
dock_pv

> <s_m_subgroupid>
dock_pv

> <b_m_subgroup_collapsed>
1

$$$$
CHEMBL204_lig1750
                    3D
 Schrodinger Suite 2021-1.
 66 71  0  0  1  0            999 V2000
   12.0159   -9.8526   23.2747 C   0  0  0  0  0  0
   12.4489  -10.8559   22.2576 C   0  0  0  0  0  0
   13.5823  -10.6236   21.4568 C   0  0  0  0  0  0
   14.0168  -11.5602   20.5212 C   0  0  0  0  0  0
   13.3165  -12.7586   20.3483 C   0  0  0  0  0  0
   12.1884  -13.0016   21.1267 C   0  0  0  0  0  0
   11.7661  -12.0704   22.0666 C   0  0  0  0  0  0
   12.6305   -8.7623   23.4251 N   0  0  0  0  0  0
   10.9251  -10.2267   24.0201 N   0  0  0  0  0  0
   13.7290  -13.8495   19.3549 C   0  0  0  0  0  0
   16.2950  -13.5421   19.2048 C   0  0  0  0  0  0
   14.9618  -13.6171   18.4484 C   0  0  2  0  0  0
   17.3346  -12.7671   18.7223 N   0  0  0  0  0  0
   14.8195  -12.4974   17.5081 N   0  0  2  0  0  0
   16.0183  -12.2661   16.7014 C   0  0  0  0  0  0
   17.2242  -11.8535   17.5858 C   0  0  0  0  0  0
   16.6140  -14.2113   20.2875 N   0  0  0  0  0  0
   17.9025  -13.8446   20.5614 C   0  0  0  0  0  0
   18.3950  -12.9431   19.5873 C   0  0  0  0  0  0
   19.6933  -12.4313   19.6401 C   0  0  0  0  0  0
   20.4807  -12.8397   20.7186 C   0  0  0  0  0  0
   20.0162  -13.7089   21.7193 C   0  0  0  0  0  0
   18.7196  -14.2335   21.6307 C   0  0  0  0  0  0
   20.9004  -14.0720   22.9264 C   0  0  0  0  0  0
   22.4043  -13.7886   22.9025 C   0  0  0  0  0  0
   21.9275  -15.2045   22.8499 C   0  0  0  0  0  0
   20.3023  -13.8491   24.3417 C   0  0  0  0  0  0
   20.3511  -12.6997   24.7863 O   0  0  0  0  0  0
   19.7157  -14.8702   25.0310 N   0  0  0  0  0  0
   19.2941  -14.6370   26.4331 C   0  0  0  0  0  0
   17.8924  -15.2403   26.6379 C   0  0  0  0  0  0
   17.8145  -16.7103   26.2138 C   0  0  0  0  0  0
   18.2516  -16.8353   24.7563 C   0  0  0  0  0  0
   19.6602  -16.2612   24.5168 C   0  0  0  0  0  0
   14.1536   -9.7123   21.5665 H   0  0  0  0  0  0
   14.9072  -11.3416   19.9539 H   0  0  0  0  0  0
   11.6334  -13.9233   21.0196 H   0  0  0  0  0  0
   10.8902  -12.3263   22.6458 H   0  0  0  0  0  0
   12.2279   -8.2143   24.1695 H   0  0  0  0  0  0
   10.5332   -9.6144   24.7216 H   0  0  0  0  0  0
   10.3359  -10.9943   23.7286 H   0  0  0  0  0  0
   12.8656  -14.0496   18.7200 H   0  0  0  0  0  0
   13.8841  -14.7678   19.9241 H   0  0  0  0  0  0
   15.0313  -14.5042   17.8160 H   0  0  0  0  0  0
   14.4618  -11.6603   17.9442 H   0  0  0  0  0  0
   16.2480  -13.1924   16.1705 H   0  0  0  0  0  0
   15.8180  -11.4935   15.9575 H   0  0  0  0  0  0
   17.0794  -10.8474   17.9802 H   0  0  0  0  0  0
   18.1559  -11.8558   17.0197 H   0  0  0  0  0  0
   20.0767  -11.7508   18.8956 H   0  0  0  0  0  0
   21.4736  -12.4237   20.7784 H   0  0  0  0  0  0
   18.3362  -14.9020   22.3845 H   0  0  0  0  0  0
   22.8716  -13.3918   22.0092 H   0  0  0  0  0  0
   22.9020  -13.4265   23.8047 H   0  0  0  0  0  0
   22.1569  -15.8326   23.7114 H   0  0  0  0  0  0
   21.9827  -15.7700   21.9203 H   0  0  0  0  0  0
   19.2268  -13.5776   26.6879 H   0  0  0  0  0  0
   20.0074  -15.1262   27.0957 H   0  0  0  0  0  0
   17.1594  -14.6546   26.0807 H   0  0  0  0  0  0
   17.6163  -15.1427   27.6879 H   0  0  0  0  0  0
   18.4529  -17.3201   26.8553 H   0  0  0  0  0  0
   16.8032  -17.0952   26.3209 H   0  0  0  0  0  0
   18.2311  -17.8831   24.4537 H   0  0  0  0  0  0
   17.5316  -16.3303   24.1103 H   0  0  0  0  0  0
   19.8127  -16.3264   23.4408 H   0  0  0  0  0  0
   20.3988  -16.8629   25.0482 H   0  0  0  0  0  0
  1  2  1  0  0  0
  1  8  2  0  0  0
  1  9  1  0  0  0
  2  3  1  0  0  0
  2  7  2  0  0  0
  3  4  2  0  0  0
  3 35  1  0  0  0
  4  5  1  0  0  0
  4 36  1  0  0  0
  5  6  2  0  0  0
  5 10  1  0  0  0
  6  7  1  0  0  0
  6 37  1  0  0  0
  7 38  1  0  0  0
  8 39  1  0  0  0
  9 40  1  0  0  0
  9 41  1  0  0  0
 10 12  1  0  0  0
 10 42  1  0  0  0
 10 43  1  0  0  0
 11 12  1  0  0  0
 11 13  1  0  0  0
 11 17  2  0  0  0
 12 14  1  0  0  0
 12 44  1  0  0  0
 13 16  1  0  0  0
 13 19  1  0  0  0
 14 15  1  0  0  0
 14 45  1  0  0  0
 15 16  1  0  0  0
 15 46  1  0  0  0
 15 47  1  0  0  0
 16 48  1  0  0  0
 16 49  1  0  0  0
 17 18  1  0  0  0
 18 19  1  0  0  0
 18 23  2  0  0  0
 19 20  2  0  0  0
 20 21  1  0  0  0
 20 50  1  0  0  0
 21 22  2  0  0  0
 21 51  1  0  0  0
 22 23  1  0  0  0
 22 24  1  0  0  0
 23 52  1  0  0  0
 24 25  1  0  0  0
 24 26  1  0  0  0
 24 27  1  0  0  0
 25 26  1  0  0  0
 25 53  1  0  0  0
 25 54  1  0  0  0
 26 55  1  0  0  0
 26 56  1  0  0  0
 27 28  2  0  0  0
 27 29  1  0  0  0
 29 30  1  0  0  0
 29 34  1  0  0  0
 30 31  1  0  0  0
 30 57  1  0  0  0
 30 58  1  0  0  0
 31 32  1  0  0  0
 31 59  1  0  0  0
 31 60  1  0  0  0
 32 33  1  0  0  0
 32 61  1  0  0  0
 32 62  1  0  0  0
 33 34  1  0  0  0
 33 63  1  0  0  0
 33 64  1  0  0  0
 34 65  1  0  0  0
 34 66  1  0  0  0
M  END
> <s_m_entry_id>
35452

> <s_m_entry_name>
dock_pv.302

> <s_m_Source_Path>
/home/csk/Desktop/cluster/DUD-E-result/thrb

> <s_m_Source_File>
dock_pv.maegz

> <i_m_Source_File_Index>
302

> <chembl_id>
CHEMBL3922260

> <chembl_pref_name>
None

> <i_lp_mmshare_version>
53161

> <r_lp_tautomer_probability>
1

> <s_lp_Force_Field>
OPLS_2005

> <r_lp_Energy>
50.331094

> <b_lp_Chiralities_Consistent>
1

> <s_lp_Variant>
CHEMBL204_lig1750-1

> <s_i_glide_gridfile>
glide-grid_1ype

> <i_i_glide_lignum>
2537

> <i_i_glide_rotatable_bonds>
6

> <r_i_docking_score>
-7.07624995673764

> <r_i_glide_ligand_efficiency>
-0.208124998727578

> <r_i_glide_ligand_efficiency_sa>
-0.674244201226179

> <r_i_glide_ligand_efficiency_ln>
-1.56334209753159

> <r_i_glide_gscore>
-7.07624995673764

> <r_i_glide_lipo>
-3.30829534793081

> <r_i_glide_hbond>
-0.0243051906024358

> <r_i_glide_metal>
0

> <r_i_glide_rewards>
-1.53100329673011

> <r_i_glide_evdw>
-47.493782043457

> <r_i_glide_ecoul>
-1.89914000034332

> <r_i_glide_erotb>
0.48204451024583

> <r_i_glide_esite>
-0.0351305294957631

> <r_i_glide_emodel>
-61.109118279224

> <r_i_glide_energy>
-49.3929220438004

> <r_i_glide_einternal>
13.6448106765747

> <i_i_glide_confnum>
21

> <i_i_glide_posenum>
302

> <r_i_glide_eff_state_penalty>
0

> <s_user_duplicate_titles>
CHEMBL204_lig1750

> <i_f3d_flags>
0

> <s_m_subgroup_title>
dock_pv

> <s_m_subgroupid>
dock_pv

> <b_m_subgroup_collapsed>
1

$$$$
CHEMBL204_lig5059
                    3D
 Schrodinger Suite 2021-1.
 68 71  0  0  1  0            999 V2000
   11.3654  -10.5808   23.7717 C   0  0  0  0  0  0
   12.1589  -10.7285   22.5372 C   0  0  0  0  0  0
   12.9543  -11.8635   22.3050 C   0  0  0  0  0  0
   13.7624  -11.9675   21.1667 C   0  0  0  0  0  0
   13.6758  -10.9743   20.1810 C   0  0  0  0  0  0
   12.8715   -9.8558   20.3797 C   0  0  0  0  0  0
   12.1515   -9.7213   21.5613 C   0  0  0  0  0  0
   11.2161   -9.4598   24.3211 N   0  0  0  0  0  0
   10.8158  -11.7574   24.1996 N   0  0  0  0  0  0
   16.0193  -12.7729   20.7960 C   0  0  0  0  0  0
   16.8275  -13.8419   20.5011 N   0  0  0  0  0  0
   16.3073  -15.1906   20.2291 C   0  0  0  0  0  0
   15.1555  -15.4934   21.1893 C   0  0  1  0  0  0
   14.0889  -14.3899   21.1213 C   0  0  0  0  0  0
   14.6901  -13.0340   21.0618 N   0  0  0  0  0  0
   16.4754  -11.6225   20.8080 O   0  0  0  0  0  0
   18.2590  -13.6161   20.2192 C   0  0  0  0  0  0
   19.2164  -13.8659   21.4118 C   0  0  0  0  0  0
   18.9252  -12.9925   22.6442 C   0  0  0  0  0  0
   20.0218  -13.1673   23.7188 C   0  0  0  0  0  0
   20.1670  -14.5806   24.1074 N   0  0  1  0  0  0
   20.2953  -15.5386   22.9925 C   0  0  0  0  0  0
   19.2158  -15.3216   21.9132 C   0  0  0  0  0  0
   21.1122  -14.8061   25.2120 C   0  0  0  0  0  0
   22.5876  -14.7772   24.8079 C   0  0  0  0  0  0
   23.2892  -13.5689   24.7640 C   0  0  0  0  0  0
   24.6101  -13.5458   24.3219 C   0  0  0  0  0  0
   25.2225  -14.7302   23.9219 C   0  0  0  0  0  0
   24.5324  -15.9383   23.9584 C   0  0  0  0  0  0
   23.2116  -15.9596   24.3955 C   0  0  0  0  0  0
   14.5595  -16.9006   20.9637 C   0  0  0  0  0  0
   13.8340  -17.3670   22.0988 O   0  0  0  0  0  0
   14.6491  -17.9255   23.1226 C   0  0  0  0  0  0
   13.0153  -12.6314   23.0636 H   0  0  0  0  0  0
   14.2688  -11.0511   19.2811 H   0  0  0  0  0  0
   12.8144   -9.0786   19.6335 H   0  0  0  0  0  0
   11.5651   -8.8271   21.7033 H   0  0  0  0  0  0
   10.5808   -9.5295   25.1074 H   0  0  0  0  0  0
   10.0748  -11.7089   24.8930 H   0  0  0  0  0  0
   10.8270  -12.5730   23.6022 H   0  0  0  0  0  0
   15.8666  -15.1632   19.2310 H   0  0  0  0  0  0
   17.0908  -15.9473   20.1788 H   0  0  0  0  0  0
   15.5857  -15.4601   22.1918 H   0  0  0  0  0  0
   13.4154  -14.4812   21.9743 H   0  0  0  0  0  0
   13.4912  -14.5051   20.2155 H   0  0  0  0  0  0
   18.5610  -14.2528   19.3921 H   0  0  0  0  0  0
   18.4248  -12.6016   19.8526 H   0  0  0  0  0  0
   20.2266  -13.6330   21.0684 H   0  0  0  0  0  0
   18.8743  -11.9484   22.3343 H   0  0  0  0  0  0
   17.9335  -13.1832   23.0563 H   0  0  0  0  0  0
   20.9801  -12.7883   23.3617 H   0  0  0  0  0  0
   19.7659  -12.5792   24.6014 H   0  0  0  0  0  0
   21.2861  -15.4546   22.5434 H   0  0  0  0  0  0
   20.2191  -16.5517   23.3892 H   0  0  0  0  0  0
   18.2363  -15.6391   22.2735 H   0  0  0  0  0  0
   19.4171  -15.9889   21.0744 H   0  0  0  0  0  0
   20.9346  -14.0694   25.9975 H   0  0  0  0  0  0
   20.8876  -15.7825   25.6448 H   0  0  0  0  0  0
   22.8158  -12.6532   25.0844 H   0  0  0  0  0  0
   25.1730  -12.6227   24.3003 H   0  0  0  0  0  0
   26.2497  -14.7097   23.5866 H   0  0  0  0  0  0
   25.0176  -16.8521   23.6474 H   0  0  0  0  0  0
   22.6710  -16.8945   24.4093 H   0  0  0  0  0  0
   13.8774  -16.8764   20.1131 H   0  0  0  0  0  0
   15.3346  -17.6210   20.6917 H   0  0  0  0  0  0
   14.0164  -18.3105   23.9211 H   0  0  0  0  0  0
   15.2433  -18.7608   22.7496 H   0  0  0  0  0  0
   15.3220  -17.1894   23.5623 H   0  0  0  0  0  0
  1  2  1  0  0  0
  1  8  2  0  0  0
  1  9  1  0  0  0
  2  3  1  0  0  0
  2  7  2  0  0  0
  3  4  2  0  0  0
  3 34  1  0  0  0
  4  5  1  0  0  0
  4 15  1  0  0  0
  5  6  2  0  0  0
  5 35  1  0  0  0
  6  7  1  0  0  0
  6 36  1  0  0  0
  7 37  1  0  0  0
  8 38  1  0  0  0
  9 39  1  0  0  0
  9 40  1  0  0  0
 10 11  1  0  0  0
 10 15  1  0  0  0
 10 16  2  0  0  0
 11 12  1  0  0  0
 11 17  1  0  0  0
 12 13  1  0  0  0
 12 41  1  0  0  0
 12 42  1  0  0  0
 13 14  1  0  0  0
 13 31  1  0  0  0
 13 43  1  0  0  0
 14 15  1  0  0  0
 14 44  1  0  0  0
 14 45  1  0  0  0
 17 18  1  0  0  0
 17 46  1  0  0  0
 17 47  1  0  0  0
 18 19  1  0  0  0
 18 23  1  0  0  0
 18 48  1  0  0  0
 19 20  1  0  0  0
 19 49  1  0  0  0
 19 50  1  0  0  0
 20 21  1  0  0  0
 20 51  1  0  0  0
 20 52  1  0  0  0
 21 22  1  0  0  0
 21 24  1  0  0  0
 22 23  1  0  0  0
 22 53  1  0  0  0
 22 54  1  0  0  0
 23 55  1  0  0  0
 23 56  1  0  0  0
 24 25  1  0  0  0
 24 57  1  0  0  0
 24 58  1  0  0  0
 25 26  2  0  0  0
 25 30  1  0  0  0
 26 27  1  0  0  0
 26 59  1  0  0  0
 27 28  2  0  0  0
 27 60  1  0  0  0
 28 29  1  0  0  0
 28 61  1  0  0  0
 29 30  2  0  0  0
 29 62  1  0  0  0
 30 63  1  0  0  0
 31 32  1  0  0  0
 31 64  1  0  0  0
 31 65  1  0  0  0
 32 33  1  0  0  0
 33 66  1  0  0  0
 33 67  1  0  0  0
 33 68  1  0  0  0
M  END
> <s_m_entry_id>
35453

> <s_m_entry_name>
dock_pv.303

> <s_m_Source_Path>
/home/csk/Desktop/cluster/DUD-E-result/thrb

> <s_m_Source_File>
dock_pv.maegz

> <i_m_Source_File_Index>
303

> <chembl_id>
CHEMBL3780434

> <chembl_pref_name>
None

> <i_lp_mmshare_version>
53161

> <r_lp_tautomer_probability>
1

> <s_lp_Force_Field>
OPLS_2005

> <r_lp_Energy>
67.47393

> <b_lp_Chiralities_Consistent>
1

> <s_lp_Variant>
CHEMBL204_lig5059-2

> <s_i_glide_gridfile>
glide-grid_1ype

> <i_i_glide_lignum>
6929

> <i_i_glide_rotatable_bonds>
8

> <r_i_docking_score>
-7.07512852610009

> <r_i_glide_ligand_efficiency>
-0.214397834124245

> <r_i_glide_ligand_efficiency_sa>
-0.687688412428764

> <r_i_glide_ligand_efficiency_ln>
-1.57347195114971

> <r_i_glide_gscore>
-7.07512852610009

> <r_i_glide_lipo>
-3.20129863285412

> <r_i_glide_hbond>
-0.682199437740791

> <r_i_glide_metal>
0

> <r_i_glide_rewards>
-0.724053338623573

> <r_i_glide_evdw>
-44.6238441467285

> <r_i_glide_ecoul>
-4.94335126876831

> <r_i_glide_erotb>
0.594928370617446

> <r_i_glide_esite>
-0.089810589847374

> <r_i_glide_emodel>
-62.9952175334377

> <r_i_glide_energy>
-49.5671954154968

> <r_i_glide_einternal>
15.6674041748047

> <i_i_glide_confnum>
8

> <i_i_glide_posenum>
355

> <r_i_glide_eff_state_penalty>
0

> <s_user_duplicate_titles>
CHEMBL204_lig5059

> <i_f3d_flags>
0

> <s_m_subgroup_title>
dock_pv

> <s_m_subgroupid>
dock_pv

> <b_m_subgroup_collapsed>
1

$$$$
CHEMBL204_lig4812
                    3D
 Schrodinger Suite 2021-1.
 65 68  0  0  1  0            999 V2000
   20.2389  -13.0539   24.3880 C   0  0  0  0  0  0
   19.8885  -13.4575   23.0944 C   0  0  0  0  0  0
   20.5778  -14.5189   22.4946 C   0  0  0  0  0  0
   21.6169  -15.1504   23.1723 C   0  0  0  0  0  0
   21.9688  -14.7276   24.4516 C   0  0  0  0  0  0
   21.2801  -13.6834   25.0647 C   0  0  0  0  0  0
   18.7223  -12.7445   22.4062 C   0  0  0  0  0  0
   18.6426  -12.9213   20.9481 N   0  0  0  0  0  0
   19.2923  -11.8992   20.1007 C   0  0  0  0  0  0
   20.2348  -12.4623   19.0161 C   0  0  0  0  0  0
   20.8160  -13.6469   19.3468 O   0  0  0  0  0  0
   20.4800  -11.8530   17.9784 O   0  0  0  0  0  0
   17.2002  -14.8826   21.1730 C   0  0  0  0  0  0
   17.6182  -13.7613   20.4378 C   0  0  0  0  0  0
   17.0129  -13.5180   19.1919 C   0  0  0  0  0  0
   16.1990  -15.7232   20.7024 C   0  0  0  0  0  0
   15.6054  -15.4593   19.4754 C   0  0  0  0  0  0
   16.0158  -14.3656   18.6907 C   0  0  0  0  0  0
   15.4402  -14.1965   17.4286 N   0  0  0  0  0  0
   14.2626  -15.0075   17.0804 C   0  0  0  0  0  0
   13.5764  -15.7107   18.2897 C   0  0  1  0  0  0
   14.6035  -16.3231   19.0839 O   0  0  0  0  0  0
   12.7175  -14.7307   19.1512 C   0  0  0  0  0  0
   13.3048  -13.4301   19.2740 O   0  0  0  0  0  0
   12.7396  -16.8970   17.7732 C   0  0  0  0  0  0
   12.9571  -12.5945   20.3152 C   0  0  0  0  0  0
   13.5965  -11.3589   20.3709 C   0  0  0  0  0  0
   13.2928  -10.4466   21.3801 C   0  0  0  0  0  0
   12.3361  -10.7422   22.3684 C   0  0  0  0  0  0
   11.7097  -11.9982   22.2992 C   0  0  0  0  0  0
   12.0161  -12.9107   21.2963 C   0  0  0  0  0  0
   12.0161   -9.7601   23.4452 C   0  0  0  0  0  0
   12.6179   -8.6560   23.5207 N   0  0  0  0  0  0
   11.0414  -10.1623   24.3211 N   0  0  0  0  0  0
   15.5215  -13.0107   16.5816 C   0  0  0  0  0  0
   22.9831  -15.3367   25.1050 F   0  0  0  0  0  0
   19.7053  -12.2510   24.8764 H   0  0  0  0  0  0
   20.3084  -14.8669   21.5087 H   0  0  0  0  0  0
   22.1496  -15.9655   22.7052 H   0  0  0  0  0  0
   21.5530  -13.3659   26.0604 H   0  0  0  0  0  0
   17.7984  -13.0507   22.8979 H   0  0  0  0  0  0
   18.8159  -11.6834   22.6049 H   0  0  0  0  0  0
   18.5575  -11.2285   19.6544 H   0  0  0  0  0  0
   19.9161  -11.2587   20.7209 H   0  0  0  0  0  0
   21.4257  -13.9388   18.6656 H   0  0  0  0  0  0
   17.6518  -15.1239   22.1235 H   0  0  0  0  0  0
   17.3231  -12.6753   18.5995 H   0  0  0  0  0  0
   15.8831  -16.5737   21.2863 H   0  0  0  0  0  0
   14.7676  -15.8724   16.6485 H   0  0  0  0  0  0
   13.6162  -14.6420   16.2881 H   0  0  0  0  0  0
   11.7169  -14.6173   18.7309 H   0  0  0  0  0  0
   12.5992  -15.2075   20.1257 H   0  0  0  0  0  0
   11.9327  -16.5618   17.1219 H   0  0  0  0  0  0
   13.3447  -17.6053   17.2075 H   0  0  0  0  0  0
   12.2872  -17.4486   18.5969 H   0  0  0  0  0  0
   14.3403  -11.1126   19.6278 H   0  0  0  0  0  0
   13.8140   -9.4996   21.3881 H   0  0  0  0  0  0
   10.9633  -12.2966   23.0222 H   0  0  0  0  0  0
   11.4877  -13.8506   21.3043 H   0  0  0  0  0  0
   12.2961   -8.1216   24.3137 H   0  0  0  0  0  0
   10.6582   -9.5210   25.0015 H   0  0  0  0  0  0
   10.4732  -10.9721   24.1158 H   0  0  0  0  0  0
   16.5124  -12.5570   16.6161 H   0  0  0  0  0  0
   15.3196  -13.2565   15.5369 H   0  0  0  0  0  0
   14.7905  -12.2646   16.9019 H   0  0  0  0  0  0
  1  6  1  0  0  0
  1  2  2  0  0  0
  1 37  1  0  0  0
  2  3  1  0  0  0
  2  7  1  0  0  0
  3  4  2  0  0  0
  3 38  1  0  0  0
  4  5  1  0  0  0
  4 39  1  0  0  0
  5  6  2  0  0  0
  5 36  1  0  0  0
  6 40  1  0  0  0
  7  8  1  0  0  0
  7 41  1  0  0  0
  7 42  1  0  0  0
  8  9  1  0  0  0
  8 14  1  0  0  0
  9 10  1  0  0  0
  9 43  1  0  0  0
  9 44  1  0  0  0
 10 11  1  0  0  0
 10 12  2  0  0  0
 11 45  1  0  0  0
 13 14  2  0  0  0
 13 16  1  0  0  0
 13 46  1  0  0  0
 14 15  1  0  0  0
 15 18  2  0  0  0
 15 47  1  0  0  0
 16 17  2  0  0  0
 16 48  1  0  0  0
 17 22  1  0  0  0
 17 18  1  0  0  0
 18 19  1  0  0  0
 19 20  1  0  0  0
 19 35  1  0  0  0
 20 21  1  0  0  0
 20 49  1  0  0  0
 20 50  1  0  0  0
 21 22  1  0  0  0
 21 23  1  0  0  0
 21 25  1  0  0  0
 23 24  1  0  0  0
 23 51  1  0  0  0
 23 52  1  0  0  0
 24 26  1  0  0  0
 25 53  1  0  0  0
 25 54  1  0  0  0
 25 55  1  0  0  0
 26 27  2  0  0  0
 26 31  1  0  0  0
 27 28  1  0  0  0
 27 56  1  0  0  0
 28 29  2  0  0  0
 28 57  1  0  0  0
 29 30  1  0  0  0
 29 32  1  0  0  0
 30 31  2  0  0  0
 30 58  1  0  0  0
 31 59  1  0  0  0
 32 33  2  0  0  0
 32 34  1  0  0  0
 33 60  1  0  0  0
 34 61  1  0  0  0
 34 62  1  0  0  0
 35 63  1  0  0  0
 35 64  1  0  0  0
 35 65  1  0  0  0
M  END
> <s_m_entry_id>
35454

> <s_m_entry_name>
dock_pv.304

> <s_m_Source_Path>
/home/csk/Desktop/cluster/DUD-E-result/thrb

> <s_m_Source_File>
dock_pv.maegz

> <i_m_Source_File_Index>
304

> <chembl_id>
CHEMBL1952398

> <chembl_pref_name>
None

> <i_lp_mmshare_version>
53161

> <r_lp_tautomer_probability>
1

> <s_lp_Force_Field>
OPLS_2005

> <r_lp_Energy>
26.399637

> <b_lp_Chiralities_Consistent>
1

> <s_lp_Variant>
CHEMBL204_lig4812-1

> <s_i_glide_gridfile>
glide-grid_1ype

> <i_i_glide_lignum>
6575

> <i_i_glide_rotatable_bonds>
10

> <r_i_docking_score>
-7.07174557245724

> <r_i_glide_ligand_efficiency>
-0.196437377012701

> <r_i_glide_ligand_efficiency_sa>
-0.648621927084842

> <r_i_glide_ligand_efficiency_ln>
-1.5428638274241

> <r_i_glide_gscore>
-7.07174557245724

> <r_i_glide_lipo>
-3.0550650434073

> <r_i_glide_hbond>
-0.0121210385369648

> <r_i_glide_metal>
0

> <r_i_glide_rewards>
-1.27088622598135

> <r_i_glide_evdw>
-49.0150871276855

> <r_i_glide_ecoul>
-5.91845893859863

> <r_i_glide_erotb>
0.671573765679306

> <r_i_glide_esite>
-0.0667238330368651

> <r_i_glide_emodel>
-71.9875419335073

> <r_i_glide_energy>
-54.9335460662842

> <r_i_glide_einternal>
14.984320640564

> <i_i_glide_confnum>
2

> <i_i_glide_posenum>
73

> <r_i_glide_eff_state_penalty>
0

> <s_user_duplicate_titles>
CHEMBL204_lig4812

> <i_f3d_flags>
0

> <s_m_subgroup_title>
dock_pv

> <s_m_subgroupid>
dock_pv

> <b_m_subgroup_collapsed>
1

$$$$
CHEMBL204_lig2416
                    3D
 Schrodinger Suite 2021-1.
 63 66  0  0  1  0            999 V2000
   15.9956  -12.7257   17.2124 S   0  0  0  0  0  0
   16.5947  -12.5422   19.8471 N   0  0  0  0  0  0
   16.9792  -13.5111   20.7377 C   0  0  0  0  0  0
   17.1402  -12.5801   18.5495 N   0  0  1  0  0  0
   18.2107  -14.0838   20.5694 N   0  0  0  0  0  0
   15.1457  -14.2693   17.5127 C   0  0  0  0  0  0
   11.2542  -10.7774   23.6940 C   0  0  0  0  0  0
   15.0039  -11.6481   17.3062 O   0  0  0  0  0  0
   16.8060  -12.8815   15.9992 O   0  0  0  0  0  0
   15.9410  -11.2779   20.2519 C   0  0  0  0  0  0
   14.0121  -14.2560   18.3211 C   0  0  0  0  0  0
   16.2439  -13.8691   21.6597 O   0  0  0  0  0  0
   12.3125  -10.9535   22.6547 C   0  0  0  0  0  0
   11.1941   -9.6881   24.3205 N   0  0  0  0  0  0
   13.3210  -15.4528   18.6228 C   0  0  0  0  0  0
   19.4265  -13.2266   20.5103 C   0  0  2  0  0  0
   15.6151  -15.4695   16.9842 C   0  0  0  0  0  0
   13.8047  -16.6831   18.0860 C   0  0  0  0  0  0
   14.9594  -16.6676   17.2627 C   0  0  0  0  0  0
   12.6559  -12.1988   22.0986 C   0  0  0  0  0  0
   13.0601   -9.8372   22.2384 C   0  0  0  0  0  0
   10.4203  -11.8530   23.9204 N   0  0  0  0  0  0
   14.5849  -11.2281   20.9840 C   0  0  0  0  0  0
   18.4282  -15.4668   21.0502 C   0  0  0  0  0  0
   13.7784  -12.3349   21.2778 C   0  0  0  0  0  0
   14.1666   -9.9708   21.4146 C   0  0  0  0  0  0
   12.1575  -15.4591   19.4332 C   0  0  0  0  0  0
   20.4296  -13.5918   19.4001 C   0  0  0  0  0  0
   20.0674  -13.1986   21.9251 C   0  0  0  0  0  0
   13.1115  -17.8826   18.3876 C   0  0  0  0  0  0
   18.9806  -15.4167   22.4890 C   0  0  0  0  0  0
   11.4970  -16.6561   19.7032 C   0  0  0  0  0  0
   20.2718  -14.5875   22.5580 C   0  0  0  0  0  0
   11.9714  -17.8567   19.1874 C   0  0  0  0  0  0
   17.8019  -13.3597   18.5087 H   0  0  0  0  0  0
   16.6624  -10.7345   20.8687 H   0  0  0  0  0  0
   15.8261  -10.6527   19.3746 H   0  0  0  0  0  0
   13.6362  -13.3208   18.7089 H   0  0  0  0  0  0
   10.4235   -9.7057   24.9790 H   0  0  0  0  0  0
   19.1277  -12.2032   20.2729 H   0  0  0  0  0  0
   16.4900  -15.4785   16.3499 H   0  0  0  0  0  0
   15.3273  -17.5925   16.8463 H   0  0  0  0  0  0
   12.1063  -13.0912   22.3581 H   0  0  0  0  0  0
   12.8284   -8.8449   22.5994 H   0  0  0  0  0  0
    9.6361  -11.7504   24.5656 H   0  0  0  0  0  0
   10.5785  -12.7706   23.5202 H   0  0  0  0  0  0
   19.1623  -15.9242   20.3871 H   0  0  0  0  0  0
   17.5348  -16.0847   20.9393 H   0  0  0  0  0  0
   14.0342  -13.3219   20.9300 H   0  0  0  0  0  0
   14.7472   -9.0912   21.1749 H   0  0  0  0  0  0
   11.7776  -14.5296   19.8324 H   0  0  0  0  0  0
   21.3124  -12.9508   19.4505 H   0  0  0  0  0  0
   20.0001  -13.4529   18.4079 H   0  0  0  0  0  0
   20.7928  -14.6151   19.5013 H   0  0  0  0  0  0
   21.0133  -12.6558   21.8990 H   0  0  0  0  0  0
   19.4129  -12.6316   22.5878 H   0  0  0  0  0  0
   13.4692  -18.8204   17.9862 H   0  0  0  0  0  0
   19.1761  -16.4305   22.8368 H   0  0  0  0  0  0
   18.2268  -15.0121   23.1671 H   0  0  0  0  0  0
   10.6053  -16.6508   20.3142 H   0  0  0  0  0  0
   21.0721  -15.1129   22.0338 H   0  0  0  0  0  0
   20.6014  -14.4842   23.5940 H   0  0  0  0  0  0
   11.4460  -18.7762   19.4032 H   0  0  0  0  0  0
  1  4  1  0  0  0
  1  6  1  0  0  0
  1  8  2  0  0  0
  1  9  2  0  0  0
  2  4  1  0  0  0
  2  3  1  0  0  0
  2 10  1  0  0  0
  3  5  1  0  0  0
  3 12  2  0  0  0
  4 35  1  0  0  0
  5 16  1  0  0  0
  5 24  1  0  0  0
  6 11  1  0  0  0
  6 17  2  0  0  0
  7 13  1  0  0  0
  7 14  2  0  0  0
  7 22  1  0  0  0
 10 23  1  0  0  0
 10 36  1  0  0  0
 10 37  1  0  0  0
 11 15  2  0  0  0
 11 38  1  0  0  0
 13 21  1  0  0  0
 13 20  2  0  0  0
 14 39  1  0  0  0
 15 27  1  0  0  0
 15 18  1  0  0  0
 16 28  1  0  0  0
 16 29  1  0  0  0
 16 40  1  0  0  0
 17 19  1  0  0  0
 17 41  1  0  0  0
 18 19  2  0  0  0
 18 30  1  0  0  0
 19 42  1  0  0  0
 20 25  1  0  0  0
 20 43  1  0  0  0
 21 26  2  0  0  0
 21 44  1  0  0  0
 22 45  1  0  0  0
 22 46  1  0  0  0
 23 25  2  0  0  0
 23 26  1  0  0  0
 24 31  1  0  0  0
 24 47  1  0  0  0
 24 48  1  0  0  0
 25 49  1  0  0  0
 26 50  1  0  0  0
 27 32  2  0  0  0
 27 51  1  0  0  0
 28 52  1  0  0  0
 28 53  1  0  0  0
 28 54  1  0  0  0
 29 33  1  0  0  0
 29 55  1  0  0  0
 29 56  1  0  0  0
 30 34  2  0  0  0
 30 57  1  0  0  0
 31 33  1  0  0  0
 31 58  1  0  0  0
 31 59  1  0  0  0
 32 34  1  0  0  0
 32 60  1  0  0  0
 33 61  1  0  0  0
 33 62  1  0  0  0
 34 63  1  0  0  0
M  END
> <s_m_entry_id>
35455

> <s_m_entry_name>
dock_pv.305

> <s_m_Source_Path>
/home/csk/Desktop/cluster/DUD-E-result/thrb

> <s_m_Source_File>
dock_pv.maegz

> <i_m_Source_File_Index>
305

> <chembl_id>
CHEMBL39760

> <chembl_pref_name>
None

> <i_lp_mmshare_version>
53161

> <r_lp_tautomer_probability>
1

> <s_lp_Force_Field>
OPLS_2005

> <r_lp_Energy>
48.710233

> <b_lp_Chiralities_Consistent>
1

> <s_lp_Variant>
CHEMBL204_lig2416-1

> <s_i_glide_gridfile>
glide-grid_1ype

> <i_i_glide_lignum>
3546

> <i_i_glide_rotatable_bonds>
8

> <r_i_docking_score>
-7.06617033763518

> <r_i_glide_ligand_efficiency>
-0.207828539342211

> <r_i_glide_ligand_efficiency_sa>
-0.673283787903876

> <r_i_glide_ligand_efficiency_ln>
-1.56111522694812

> <r_i_glide_gscore>
-7.06617033763518

> <r_i_glide_lipo>
-2.85416618847758

> <r_i_glide_hbond>
-0.542544481614893

> <r_i_glide_metal>
0

> <r_i_glide_rewards>
-0.561264431565833

> <r_i_glide_evdw>
-42.2527656555176

> <r_i_glide_ecoul>
-9.17852878570557

> <r_i_glide_erotb>
0.528831476112842

> <r_i_glide_esite>
-0.147609111458007

> <r_i_glide_emodel>
-65.179362373721

> <r_i_glide_energy>
-51.4312944412231

> <r_i_glide_einternal>
18.1925163269043

> <i_i_glide_confnum>
2

> <i_i_glide_posenum>
320

> <r_i_glide_eff_state_penalty>
0

> <s_user_duplicate_titles>
CHEMBL204_lig2416

> <i_f3d_flags>
0

> <s_m_subgroup_title>
dock_pv

> <s_m_subgroupid>
dock_pv

> <b_m_subgroup_collapsed>
1

$$$$
CHEMBL204_lig2197
                    3D
 Schrodinger Suite 2021-1.
 53 54  0  0  1  0            999 V2000
   20.8000  -14.4279   25.3356 S   0  0  0  0  0  0
   12.1289  -11.2860   22.2542 C   0  0  0  0  0  0
   21.1433  -14.2418   23.6009 N   0  0  0  0  0  0
   12.6455  -12.1977   21.1891 C   0  0  0  0  0  0
   13.7261  -11.8167   20.3673 C   0  0  0  0  0  0
   14.2176  -12.6463   19.3496 C   0  0  0  0  0  0
   19.4948  -15.0784   25.4837 O   0  0  0  0  0  0
   22.0043  -15.0245   25.9202 O   0  0  0  0  0  0
   15.9060  -11.4512   16.0534 C   0  0  0  0  0  0
   15.4076  -12.2100   18.4872 C   0  0  2  0  0  0
   12.5114  -10.0875   22.3214 N   0  0  0  0  0  0
   15.1229  -12.3996   16.9712 C   0  0  0  0  0  0
   17.1386  -11.3921   16.0671 O   0  0  0  0  0  0
   16.7272  -12.8898   18.9576 C   0  0  0  0  0  0
   11.2160  -11.8525   23.1113 N   0  0  0  0  0  0
   20.2605  -13.7291   22.6368 C   0  0  0  0  0  0
   20.6839  -12.6537   25.9392 C   0  0  0  0  0  0
   18.6252  -12.6086   20.6602 C   0  0  0  0  0  0
   17.7303  -11.9325   19.6323 C   0  0  0  0  0  0
   15.0827  -10.6943   15.3005 O   0  0  0  0  0  0
   18.9162  -13.4547   22.9043 C   0  0  0  0  0  0
   20.7692  -13.4690   21.3605 C   0  0  0  0  0  0
   18.1038  -12.8964   21.9208 C   0  0  0  0  0  0
   19.9577  -12.9106   20.3727 C   0  0  0  0  0  0
   12.0740  -13.4601   20.9393 C   0  0  0  0  0  0
   13.6168  -13.8898   19.1375 C   0  0  0  0  0  0
   12.5471  -14.2936   19.9286 C   0  0  0  0  0  0
   15.6065   -9.7577   14.3693 C   0  0  0  0  0  0
   22.0998  -14.3882   23.3239 H   0  0  0  0  0  0
   14.2042  -10.8599   20.5247 H   0  0  0  0  0  0
   15.4958  -11.1310   18.6415 H   0  0  0  0  0  0
   12.0661   -9.6072   23.0886 H   0  0  0  0  0  0
   15.3252  -13.4235   16.6665 H   0  0  0  0  0  0
   14.0610  -12.2474   16.7827 H   0  0  0  0  0  0
   16.4882  -13.7107   19.6398 H   0  0  0  0  0  0
   17.2290  -13.3850   18.1242 H   0  0  0  0  0  0
   10.6890  -11.2812   23.7582 H   0  0  0  0  0  0
   11.0369  -12.8503   23.1209 H   0  0  0  0  0  0
   20.3009  -12.6572   26.9582 H   0  0  0  0  0  0
   21.6812  -12.2203   25.9208 H   0  0  0  0  0  0
   20.0173  -12.0933   25.2885 H   0  0  0  0  0  0
   18.3384  -11.4481   18.8669 H   0  0  0  0  0  0
   17.2063  -11.1252   20.1487 H   0  0  0  0  0  0
   18.4781  -13.6509   23.8682 H   0  0  0  0  0  0
   21.8021  -13.6831   21.1289 H   0  0  0  0  0  0
   17.0715  -12.6714   22.1482 H   0  0  0  0  0  0
   20.3728  -12.7035   19.3980 H   0  0  0  0  0  0
   11.2342  -13.8165   21.5169 H   0  0  0  0  0  0
   13.9789  -14.5513   18.3629 H   0  0  0  0  0  0
   12.0802  -15.2528   19.7612 H   0  0  0  0  0  0
   14.7906   -9.1918   13.9213 H   0  0  0  0  0  0
   16.2809   -9.0522   14.8549 H   0  0  0  0  0  0
   16.1493  -10.2581   13.5671 H   0  0  0  0  0  0
  1  3  1  0  0  0
  1  7  2  0  0  0
  1  8  2  0  0  0
  1 17  1  0  0  0
  2  4  1  0  0  0
  2 11  2  0  0  0
  2 15  1  0  0  0
  3 16  1  0  0  0
  3 29  1  0  0  0
  4  5  2  0  0  0
  4 25  1  0  0  0
  5  6  1  0  0  0
  5 30  1  0  0  0
  6 10  1  0  0  0
  6 26  2  0  0  0
  9 12  1  0  0  0
  9 13  2  0  0  0
  9 20  1  0  0  0
 10 14  1  0  0  0
 10 12  1  0  0  0
 10 31  1  0  0  0
 11 32  1  0  0  0
 12 33  1  0  0  0
 12 34  1  0  0  0
 14 19  1  0  0  0
 14 35  1  0  0  0
 14 36  1  0  0  0
 15 37  1  0  0  0
 15 38  1  0  0  0
 16 21  2  0  0  0
 16 22  1  0  0  0
 17 39  1  0  0  0
 17 40  1  0  0  0
 17 41  1  0  0  0
 18 24  1  0  0  0
 18 19  1  0  0  0
 18 23  2  0  0  0
 19 42  1  0  0  0
 19 43  1  0  0  0
 20 28  1  0  0  0
 21 23  1  0  0  0
 21 44  1  0  0  0
 22 24  2  0  0  0
 22 45  1  0  0  0
 23 46  1  0  0  0
 24 47  1  0  0  0
 25 27  2  0  0  0
 25 48  1  0  0  0
 26 27  1  0  0  0
 26 49  1  0  0  0
 27 50  1  0  0  0
 28 51  1  0  0  0
 28 52  1  0  0  0
 28 53  1  0  0  0
M  END
> <s_m_entry_id>
35456

> <s_m_entry_name>
dock_pv.306

> <s_m_Source_Path>
/home/csk/Desktop/cluster/DUD-E-result/thrb

> <s_m_Source_File>
dock_pv.maegz

> <i_m_Source_File_Index>
306

> <chembl_id>
CHEMBL436026

> <chembl_pref_name>
None

> <i_lp_mmshare_version>
53161

> <r_lp_tautomer_probability>
1

> <s_lp_Force_Field>
OPLS_2005

> <r_lp_Energy>
3.377687

> <b_lp_Chiralities_Consistent>
1

> <s_lp_Variant>
CHEMBL204_lig2197-2

> <s_i_glide_gridfile>
glide-grid_1ype

> <i_i_glide_lignum>
3227

> <i_i_glide_rotatable_bonds>
10

> <r_i_docking_score>
-7.06435673137069

> <r_i_glide_ligand_efficiency>
-0.25229845469181

> <r_i_glide_ligand_efficiency_sa>
-0.766126704287459

> <r_i_glide_ligand_efficiency_ln>
-1.63066095212689

> <r_i_glide_gscore>
-7.06435673137069

> <r_i_glide_lipo>
-2.57167638815246

> <r_i_glide_hbond>
-0.32

> <r_i_glide_metal>
0

> <r_i_glide_rewards>
-1.50303594342654

> <r_i_glide_evdw>
-47.3285942077637

> <r_i_glide_ecoul>
-7.4700345993042

> <r_i_glide_erotb>
0.844167208694093

> <r_i_glide_esite>
-0.0268767082019717

> <r_i_glide_emodel>
-74.2426687829228

> <r_i_glide_energy>
-54.7986288070679

> <r_i_glide_einternal>
9.27879333496094

> <i_i_glide_confnum>
60

> <i_i_glide_posenum>
66

> <r_i_glide_eff_state_penalty>
0

> <s_user_duplicate_titles>
CHEMBL204_lig2197

> <i_f3d_flags>
0

> <s_m_subgroup_title>
dock_pv

> <s_m_subgroupid>
dock_pv

> <b_m_subgroup_collapsed>
1

$$$$
CHEMBL204_lig1767
                    3D
 Schrodinger Suite 2021-1.
 64 67  0  0  1  0            999 V2000
   20.8966  -11.8418   18.5016 C   0  0  0  0  0  0
   19.5468  -12.2542   18.3138 O   0  0  0  0  0  0
   18.8116  -12.5187   19.4492 C   0  0  0  0  0  0
   17.4793  -12.1108   19.5528 C   0  0  0  0  0  0
   16.6891  -12.4033   20.6793 C   0  0  0  0  0  0
   17.2488  -13.0939   21.7725 C   0  0  0  0  0  0
   18.5641  -13.5598   21.6648 C   0  0  0  0  0  0
   19.3115  -14.3059   22.5259 N   0  0  0  0  0  0
   20.4608  -14.4400   21.9019 C   0  0  0  0  0  0
   21.6004  -15.0808   22.3211 N   0  0  0  0  0  0
   21.8428  -15.8200   23.5561 C   0  0  1  0  0  0
   23.3283  -16.2198   23.7046 C   0  0  0  0  0  0
   24.1937  -15.2083   23.5684 F   0  0  0  0  0  0
   21.3030  -15.0314   24.7454 C   0  0  0  0  0  0
   21.9129  -13.8429   25.1672 C   0  0  0  0  0  0
   21.3079  -13.0603   26.1490 C   0  0  0  0  0  0
   20.1059  -13.4662   26.7208 C   0  0  0  0  0  0
   19.5037  -14.6589   26.3201 C   0  0  0  0  0  0
   18.0175  -15.1742   27.0274 Cl  0  0  0  0  0  0
   20.1050  -15.4432   25.3424 C   0  0  0  0  0  0
   20.5394  -13.8495   20.6761 O   0  0  0  0  0  0
   19.3163  -13.2740   20.5187 C   0  0  0  0  0  0
   15.2566  -11.9126   20.7061 C   0  0  0  0  0  0
   15.0581  -10.7285   20.4310 O   0  0  0  0  0  0
   14.2352  -12.7847   20.9538 N   0  0  0  0  0  0
   14.4051  -14.2099   21.3320 C   0  0  0  0  0  0
   13.5731  -15.1245   20.3949 C   0  0  2  0  0  0
   13.4591  -16.5059   21.0609 C   0  0  0  0  0  0
   14.2268  -15.1750   18.9896 C   0  0  0  0  0  0
   13.3840  -15.8815   17.9184 C   0  0  0  0  0  0
   14.0166  -15.7353   16.6698 O   0  0  0  0  0  0
   12.2315  -14.6344   20.3624 O   0  0  0  0  0  0
   12.0780  -13.2855   19.9429 C   0  0  0  0  0  0
   12.8295  -12.3113   20.8795 C   0  0  1  0  0  0
   12.1560  -12.1192   22.2476 C   0  0  0  0  0  0
   21.2832  -11.4364   17.5641 H   0  0  0  0  0  0
   20.9692  -11.0562   19.2598 H   0  0  0  0  0  0
   21.5462  -12.6707   18.7838 H   0  0  0  0  0  0
   17.0461  -11.5561   18.7302 H   0  0  0  0  0  0
   16.6743  -13.3059   22.6621 H   0  0  0  0  0  0
   22.3542  -15.1814   21.6490 H   0  0  0  0  0  0
   21.2804  -16.7520   23.4787 H   0  0  0  0  0  0
   23.5166  -16.6760   24.6798 H   0  0  0  0  0  0
   23.6024  -16.9589   22.9485 H   0  0  0  0  0  0
   22.8304  -13.5043   24.7084 H   0  0  0  0  0  0
   21.7526  -12.1264   26.4557 H   0  0  0  0  0  0
   19.6402  -12.8556   27.4821 H   0  0  0  0  0  0
   19.6106  -16.3472   25.0148 H   0  0  0  0  0  0
   13.9890  -14.2910   22.3299 H   0  0  0  0  0  0
   15.4262  -14.5763   21.3634 H   0  0  0  0  0  0
   14.4323  -16.9857   21.1614 H   0  0  0  0  0  0
   13.0155  -16.4271   22.0537 H   0  0  0  0  0  0
   12.8151  -17.1714   20.4840 H   0  0  0  0  0  0
   15.1870  -15.6836   19.0657 H   0  0  0  0  0  0
   14.4581  -14.1663   18.6441 H   0  0  0  0  0  0
   12.3824  -15.4562   17.8855 H   0  0  0  0  0  0
   13.2314  -16.9358   18.1531 H   0  0  0  0  0  0
   13.3542  -15.8555   15.9742 H   0  0  0  0  0  0
   11.0158  -13.0530   19.9225 H   0  0  0  0  0  0
   12.4192  -13.1718   18.9132 H   0  0  0  0  0  0
   12.7781  -11.3354   20.3929 H   0  0  0  0  0  0
   11.1256  -11.7782   22.1311 H   0  0  0  0  0  0
   12.1046  -13.0529   22.8081 H   0  0  0  0  0  0
   12.6799  -11.3759   22.8480 H   0  0  0  0  0  0
  1  2  1  0  0  0
  1 36  1  0  0  0
  1 37  1  0  0  0
  1 38  1  0  0  0
  2  3  1  0  0  0
  3  4  2  0  0  0
  3 22  1  0  0  0
  4  5  1  0  0  0
  4 39  1  0  0  0
  5  6  2  0  0  0
  5 23  1  0  0  0
  6  7  1  0  0  0
  6 40  1  0  0  0
  7  8  1  0  0  0
  7 22  2  0  0  0
  8  9  2  0  0  0
  9 10  1  0  0  0
  9 21  1  0  0  0
 10 11  1  0  0  0
 10 41  1  0  0  0
 11 12  1  0  0  0
 11 14  1  0  0  0
 11 42  1  0  0  0
 12 13  1  0  0  0
 12 43  1  0  0  0
 12 44  1  0  0  0
 14 15  2  0  0  0
 14 20  1  0  0  0
 15 16  1  0  0  0
 15 45  1  0  0  0
 16 17  2  0  0  0
 16 46  1  0  0  0
 17 18  1  0  0  0
 17 47  1  0  0  0
 18 19  1  0  0  0
 18 20  2  0  0  0
 20 48  1  0  0  0
 21 22  1  0  0  0
 23 24  2  0  0  0
 23 25  1  0  0  0
 25 26  1  0  0  0
 25 34  1  0  0  0
 26 27  1  0  0  0
 26 49  1  0  0  0
 26 50  1  0  0  0
 27 28  1  0  0  0
 27 29  1  0  0  0
 27 32  1  0  0  0
 28 51  1  0  0  0
 28 52  1  0  0  0
 28 53  1  0  0  0
 29 30  1  0  0  0
 29 54  1  0  0  0
 29 55  1  0  0  0
 30 31  1  0  0  0
 30 56  1  0  0  0
 30 57  1  0  0  0
 31 58  1  0  0  0
 32 33  1  0  0  0
 33 34  1  0  0  0
 33 59  1  0  0  0
 33 60  1  0  0  0
 34 35  1  0  0  0
 34 61  1  0  0  0
 35 62  1  0  0  0
 35 63  1  0  0  0
 35 64  1  0  0  0
M  END
> <s_m_entry_id>
35457

> <s_m_entry_name>
dock_pv.307

> <s_m_Source_Path>
/home/csk/Desktop/cluster/DUD-E-result/thrb

> <s_m_Source_File>
dock_pv.maegz

> <i_m_Source_File_Index>
307

> <chembl_id>
CHEMBL4107222

> <chembl_pref_name>
None

> <i_lp_mmshare_version>
53161

> <r_lp_tautomer_probability>
1

> <s_lp_Force_Field>
OPLS_2005

> <r_lp_Energy>
44.344163

> <b_lp_Chiralities_Consistent>
1

> <s_lp_Variant>
CHEMBL204_lig1767-4

> <s_i_glide_gridfile>
glide-grid_1ype

> <i_i_glide_lignum>
2584

> <i_i_glide_rotatable_bonds>
10

> <r_i_docking_score>
-7.0635805776584

> <r_i_glide_ligand_efficiency>
-0.201816587933097

> <r_i_glide_ligand_efficiency_sa>
-0.660155440842806

> <r_i_glide_ligand_efficiency_ln>
-1.55061270452052

> <r_i_glide_gscore>
-7.0635805776584

> <r_i_glide_lipo>
-3.59754640262411

> <r_i_glide_hbond>
-0.456

> <r_i_glide_metal>
0

> <r_i_glide_rewards>
-0.499297114250873

> <r_i_glide_evdw>
-41.9135131835938

> <r_i_glide_ecoul>
-6.11115884780884

> <r_i_glide_erotb>
0.559364102076778

> <r_i_glide_esite>
-0.057751676509183

> <r_i_glide_emodel>
-63.3654436991086

> <r_i_glide_energy>
-48.0246720314026

> <r_i_glide_einternal>
9.08816242218018

> <i_i_glide_confnum>
3

> <i_i_glide_posenum>
323

> <r_i_glide_eff_state_penalty>
0

> <s_user_duplicate_titles>
CHEMBL204_lig1767,CHEMBL204_lig1769

> <i_f3d_flags>
0

> <s_m_subgroup_title>
dock_pv

> <s_m_subgroupid>
dock_pv

> <b_m_subgroup_collapsed>
1

$$$$
CHEMBL204_lig949
                    3D
 Schrodinger Suite 2021-1.
 68 70  0  0  1  0            999 V2000
   18.7332  -14.3946   21.2760 N   0  0  0  0  0  0
   17.7845  -14.8179   22.1452 C   0  0  0  0  0  0
   15.0557  -17.2710   21.8625 S   0  0  0  0  0  0
   17.6737  -16.3592   22.3924 C   0  0  2  0  0  0
   11.4239  -10.8380   23.5216 C   0  0  0  0  0  0
   16.3130  -16.6539   22.9181 N   0  0  1  0  0  0
   12.3399  -10.8819   22.4266 N   0  0  0  0  0  0
   18.8390  -12.9999   20.8013 C   0  0  2  0  0  0
   17.5413  -12.4517   20.1833 C   0  0  0  0  0  0
   17.0608  -11.3232   20.7215 N   0  0  0  0  0  0
   11.2160   -9.5969   24.1806 N   0  0  0  0  0  0
   15.6850  -18.0726   20.8086 O   0  0  0  0  0  0
   14.0167  -17.8438   22.7217 O   0  0  0  0  0  0
   18.7261  -16.9868   23.3542 C   0  0  0  0  0  0
   17.0243  -14.0334   22.7210 O   0  0  0  0  0  0
   12.8027  -12.1602   21.8631 C   0  0  0  0  0  0
   12.2880   -9.8544   21.3887 C   0  0  0  0  0  0
   17.0301  -13.0332   19.2262 O   0  0  0  0  0  0
   10.8158  -11.8525   23.9267 N   0  0  0  0  0  0
   19.7471  -15.2416   20.6622 C   0  0  0  0  0  0
   14.3590  -15.7166   21.0835 C   0  0  0  0  0  0
   16.0011  -10.5197   20.1180 C   0  0  0  0  0  0
   12.2896   -8.7259   24.3205 O   0  0  0  0  0  0
   19.2246  -16.1076   24.4843 C   0  0  0  0  0  0
   14.2728  -12.0141   21.4258 C   0  0  0  0  0  0
   13.7132   -9.5485   20.9215 C   0  0  0  0  0  0
   14.5193  -10.8096   20.4882 C   0  0  0  0  0  0
   19.9575  -13.0408   19.7415 C   0  0  0  0  0  0
   20.7556  -14.2930   20.0375 C   0  0  0  0  0  0
   18.4490  -15.9759   25.6532 C   0  0  0  0  0  0
   20.3407  -15.2621   24.2916 C   0  0  0  0  0  0
   20.6731  -14.3224   25.2552 C   0  0  0  0  0  0
   18.8141  -15.0497   26.6146 C   0  0  0  0  0  0
   19.9067  -14.2146   26.4057 C   0  0  0  0  0  0
   17.7600  -16.8763   21.4373 H   0  0  0  0  0  0
   15.9893  -16.0183   23.6551 H   0  0  0  0  0  0
   19.1557  -12.3842   21.6454 H   0  0  0  0  0  0
   17.5355  -10.9173   21.5164 H   0  0  0  0  0  0
   10.6143   -9.5428   24.9973 H   0  0  0  0  0  0
   19.5870  -17.3456   22.7927 H   0  0  0  0  0  0
   18.3182  -17.8946   23.8011 H   0  0  0  0  0  0
   12.1714  -12.4396   21.0167 H   0  0  0  0  0  0
   12.7227  -12.9676   22.5960 H   0  0  0  0  0  0
   11.6911  -10.2197   20.5527 H   0  0  0  0  0  0
   11.8037   -8.9399   21.7356 H   0  0  0  0  0  0
   10.1502  -11.6542   24.6659 H   0  0  0  0  0  0
   20.2573  -15.9066   21.3508 H   0  0  0  0  0  0
   19.2492  -15.8526   19.9210 H   0  0  0  0  0  0
   13.5351  -15.9945   20.4289 H   0  0  0  0  0  0
   14.0033  -15.0662   21.8815 H   0  0  0  0  0  0
   15.1480  -15.2270   20.5146 H   0  0  0  0  0  0
   16.2364   -9.4731   20.3206 H   0  0  0  0  0  0
   16.0868  -10.6527   19.0360 H   0  0  0  0  0  0
   12.9023   -9.2216   24.8796 H   0  0  0  0  0  0
   14.6291  -12.9270   20.9508 H   0  0  0  0  0  0
   14.8831  -11.9250   22.3210 H   0  0  0  0  0  0
   14.2335   -9.0317   21.7308 H   0  0  0  0  0  0
   13.6190   -8.8150   20.1243 H   0  0  0  0  0  0
   14.0132  -11.1207   19.5717 H   0  0  0  0  0  0
   20.5821  -12.1478   19.7618 H   0  0  0  0  0  0
   19.5522  -13.1216   18.7304 H   0  0  0  0  0  0
   21.5384  -14.0620   20.7619 H   0  0  0  0  0  0
   21.2164  -14.7129   19.1457 H   0  0  0  0  0  0
   17.5633  -16.5795   25.7936 H   0  0  0  0  0  0
   20.9276  -15.3179   23.3878 H   0  0  0  0  0  0
   21.5191  -13.6665   25.1047 H   0  0  0  0  0  0
   18.2228  -14.9522   27.5154 H   0  0  0  0  0  0
   20.1580  -13.4716   27.1481 H   0  0  0  0  0  0
  1  2  1  0  0  0
  1  8  1  0  0  0
  1 20  1  0  0  0
  2  4  1  0  0  0
  2 15  2  0  0  0
  3  6  1  0  0  0
  3 12  2  0  0  0
  3 13  2  0  0  0
  3 21  1  0  0  0
  4  6  1  0  0  0
  4 14  1  0  0  0
  4 35  1  0  0  0
  5  7  1  0  0  0
  5 11  1  0  0  0
  5 19  2  0  0  0
  6 36  1  0  0  0
  7 17  1  0  0  0
  7 16  1  0  0  0
  8  9  1  0  0  0
  8 28  1  0  0  0
  8 37  1  0  0  0
  9 10  1  0  0  0
  9 18  2  0  0  0
 10 22  1  0  0  0
 10 38  1  0  0  0
 11 23  1  0  0  0
 11 39  1  0  0  0
 14 24  1  0  0  0
 14 40  1  0  0  0
 14 41  1  0  0  0
 16 25  1  0  0  0
 16 42  1  0  0  0
 16 43  1  0  0  0
 17 26  1  0  0  0
 17 44  1  0  0  0
 17 45  1  0  0  0
 19 46  1  0  0  0
 20 29  1  0  0  0
 20 47  1  0  0  0
 20 48  1  0  0  0
 21 49  1  0  0  0
 21 50  1  0  0  0
 21 51  1  0  0  0
 22 27  1  0  0  0
 22 52  1  0  0  0
 22 53  1  0  0  0
 23 54  1  0  0  0
 24 30  2  0  0  0
 24 31  1  0  0  0
 25 27  1  0  0  0
 25 55  1  0  0  0
 25 56  1  0  0  0
 26 27  1  0  0  0
 26 57  1  0  0  0
 26 58  1  0  0  0
 27 59  1  0  0  0
 28 29  1  0  0  0
 28 60  1  0  0  0
 28 61  1  0  0  0
 29 62  1  0  0  0
 29 63  1  0  0  0
 30 33  1  0  0  0
 30 64  1  0  0  0
 31 32  2  0  0  0
 31 65  1  0  0  0
 32 34  1  0  0  0
 32 66  1  0  0  0
 33 34  2  0  0  0
 33 67  1  0  0  0
 34 68  1  0  0  0
M  END
> <s_m_entry_id>
35459

> <s_m_entry_name>
dock_pv.309

> <s_m_Source_Path>
/home/csk/Desktop/cluster/DUD-E-result/thrb

> <s_m_Source_File>
dock_pv.maegz

> <i_m_Source_File_Index>
309

> <chembl_id>
CHEMBL147430

> <chembl_pref_name>
None

> <i_lp_mmshare_version>
53161

> <r_lp_tautomer_probability>
1

> <s_lp_Force_Field>
OPLS_2005

> <r_lp_Energy>
18.776459

> <b_lp_Chiralities_Consistent>
1

> <s_lp_Variant>
CHEMBL204_lig949-1

> <s_i_glide_gridfile>
glide-grid_1ype

> <i_i_glide_lignum>
1493

> <i_i_glide_rotatable_bonds>
13

> <r_i_docking_score>
-7.06332750814102

> <r_i_glide_ligand_efficiency>
-0.20774492671003

> <r_i_glide_ligand_efficiency_sa>
-0.673012915434244

> <r_i_glide_ligand_efficiency_ln>
-1.5604871661742

> <r_i_glide_gscore>
-7.06332750814102

> <r_i_glide_lipo>
-2.82043929708965

> <r_i_glide_hbond>
-0.684270289838196

> <r_i_glide_metal>
0

> <r_i_glide_rewards>
-0.841629506192649

> <r_i_glide_evdw>
-43.962329864502

> <r_i_glide_ecoul>
-8.34546947479248

> <r_i_glide_erotb>
0.833054278213033

> <r_i_glide_esite>
-0.100105778789584

> <r_i_glide_emodel>
-63.0632408533875

> <r_i_glide_energy>
-52.3077993392944

> <r_i_glide_einternal>
17.0706615447998

> <i_i_glide_confnum>
55

> <i_i_glide_posenum>
124

> <r_i_glide_eff_state_penalty>
0

> <s_user_duplicate_titles>
CHEMBL204_lig949

> <i_f3d_flags>
0

> <s_m_subgroup_title>
dock_pv

> <s_m_subgroupid>
dock_pv

> <b_m_subgroup_collapsed>
1

$$$$
CHEMBL204_lig1727
                    3D
 Schrodinger Suite 2021-1.
 70 73  0  0  1  0            999 V2000
   18.7932  -14.8042   25.5902 C   0  0  0  0  0  0
   19.9070  -13.7493   25.5333 C   0  0  0  0  0  0
   20.5701  -13.5349   24.1464 C   0  0  0  0  0  0
   18.3005  -15.3457   24.6068 O   0  0  0  0  0  0
   18.4161  -15.0532   26.8724 O   0  0  0  0  0  0
   21.1934  -14.7321   23.5290 N   0  0  0  0  0  0
   22.2229  -15.3619   24.2687 C   0  0  0  0  0  0
   23.5092  -14.7955   24.3721 C   0  0  0  0  0  0
   24.4900  -15.4518   25.1211 C   0  0  0  0  0  0
   24.2044  -16.6416   25.7922 C   0  0  0  0  0  0
   22.9282  -17.1976   25.6956 C   0  0  0  0  0  0
   21.9447  -16.5631   24.9391 C   0  0  0  0  0  0
   25.2851  -17.3219   26.6109 C   0  0  0  0  0  0
   23.8854  -13.5010   23.6706 C   0  0  0  0  0  0
   20.7353  -15.3182   22.3783 C   0  0  0  0  0  0
   21.1569  -16.3928   21.9409 O   0  0  0  0  0  0
   15.6303  -14.0080   19.7222 C   0  0  0  0  0  0
   16.1096  -14.8909   20.5613 N   0  0  0  0  0  0
   17.4097  -14.5308   20.7565 C   0  0  0  0  0  0
   17.7277  -13.3485   20.0489 C   0  0  0  0  0  0
   16.5598  -13.0288   19.3740 N   0  0  0  0  0  0
   18.3875  -15.1785   21.5170 C   0  0  0  0  0  0
   19.6672  -14.6177   21.5795 C   0  0  0  0  0  0
   19.9601  -13.4370   20.8836 C   0  0  0  0  0  0
   19.0043  -12.7729   20.1080 C   0  0  0  0  0  0
   16.4067  -11.9047   18.4481 C   0  0  0  0  0  0
   17.1612  -12.1590   17.1330 C   0  0  0  0  0  0
   14.2121  -14.1763   19.1830 C   0  0  0  0  0  0
   13.3768  -12.9833   19.1186 N   0  0  0  0  0  0
   13.0268  -12.2623   20.2683 C   0  0  0  0  0  0
   12.9588  -10.8704   20.1693 C   0  0  0  0  0  0
   12.5949  -10.0972   21.2643 C   0  0  0  0  0  0
   12.2731  -10.6928   22.4899 C   0  0  0  0  0  0
   12.3413  -12.0956   22.5797 C   0  0  0  0  0  0
   12.7259  -12.8739   21.4874 C   0  0  0  0  0  0
   13.2160  -10.2532   18.9949 F   0  0  0  0  0  0
   11.8554   -9.8530   23.6248 C   0  0  0  0  0  0
   10.8160  -10.4032   24.3211 N   0  0  0  0  0  0
   12.4147   -8.7440   23.8531 N   0  0  0  0  0  0
   20.6783  -14.1654   26.1828 H   0  0  0  0  0  0
   19.6162  -12.7998   25.9830 H   0  0  0  0  0  0
   21.2917  -12.7230   24.2124 H   0  0  0  0  0  0
   19.7970  -13.1315   23.4942 H   0  0  0  0  0  0
   18.8644  -14.4825   27.4984 H   0  0  0  0  0  0
   25.4818  -15.0285   25.1995 H   0  0  0  0  0  0
   22.6932  -18.1197   26.2069 H   0  0  0  0  0  0
   20.9601  -17.0041   24.8729 H   0  0  0  0  0  0
   25.0578  -18.3739   26.7862 H   0  0  0  0  0  0
   25.4108  -16.8142   27.5678 H   0  0  0  0  0  0
   26.2400  -17.2838   26.0845 H   0  0  0  0  0  0
   23.3609  -13.4067   22.7206 H   0  0  0  0  0  0
   23.6360  -12.6528   24.3046 H   0  0  0  0  0  0
   24.9514  -13.4645   23.4477 H   0  0  0  0  0  0
   18.1508  -16.0891   22.0494 H   0  0  0  0  0  0
   20.9597  -13.0265   20.9347 H   0  0  0  0  0  0
   19.2520  -11.8700   19.5709 H   0  0  0  0  0  0
   15.3575  -11.7207   18.2418 H   0  0  0  0  0  0
   16.7793  -11.0076   18.9445 H   0  0  0  0  0  0
   17.0071  -11.3359   16.4346 H   0  0  0  0  0  0
   18.2352  -12.2528   17.2965 H   0  0  0  0  0  0
   16.8140  -13.0722   16.6463 H   0  0  0  0  0  0
   14.2718  -14.5650   18.1659 H   0  0  0  0  0  0
   13.6672  -14.9478   19.7294 H   0  0  0  0  0  0
   13.5913  -12.3888   18.3314 H   0  0  0  0  0  0
   12.5330   -9.0255   21.1384 H   0  0  0  0  0  0
   12.0885  -12.5995   23.5044 H   0  0  0  0  0  0
   12.7577  -13.9485   21.5924 H   0  0  0  0  0  0
   10.3022   -9.8529   25.0014 H   0  0  0  0  0  0
   10.3096  -11.1856   23.9317 H   0  0  0  0  0  0
   13.1719   -8.5570   23.2157 H   0  0  0  0  0  0
  1  2  1  0  0  0
  1  4  2  0  0  0
  1  5  1  0  0  0
  2  3  1  0  0  0
  2 40  1  0  0  0
  2 41  1  0  0  0
  3  6  1  0  0  0
  3 42  1  0  0  0
  3 43  1  0  0  0
  5 44  1  0  0  0
  6  7  1  0  0  0
  6 15  1  0  0  0
  7  8  1  0  0  0
  7 12  2  0  0  0
  8  9  2  0  0  0
  8 14  1  0  0  0
  9 10  1  0  0  0
  9 45  1  0  0  0
 10 11  2  0  0  0
 10 13  1  0  0  0
 11 12  1  0  0  0
 11 46  1  0  0  0
 12 47  1  0  0  0
 13 48  1  0  0  0
 13 49  1  0  0  0
 13 50  1  0  0  0
 14 51  1  0  0  0
 14 52  1  0  0  0
 14 53  1  0  0  0
 15 16  2  0  0  0
 15 23  1  0  0  0
 17 18  2  0  0  0
 17 21  1  0  0  0
 17 28  1  0  0  0
 18 19  1  0  0  0
 19 20  1  0  0  0
 19 22  2  0  0  0
 20 21  1  0  0  0
 20 25  2  0  0  0
 21 26  1  0  0  0
 22 23  1  0  0  0
 22 54  1  0  0  0
 23 24  2  0  0  0
 24 25  1  0  0  0
 24 55  1  0  0  0
 25 56  1  0  0  0
 26 27  1  0  0  0
 26 57  1  0  0  0
 26 58  1  0  0  0
 27 59  1  0  0  0
 27 60  1  0  0  0
 27 61  1  0  0  0
 28 29  1  0  0  0
 28 62  1  0  0  0
 28 63  1  0  0  0
 29 30  1  0  0  0
 29 64  1  0  0  0
 30 31  1  0  0  0
 30 35  2  0  0  0
 31 32  2  0  0  0
 31 36  1  0  0  0
 32 33  1  0  0  0
 32 65  1  0  0  0
 33 34  2  0  0  0
 33 37  1  0  0  0
 34 35  1  0  0  0
 34 66  1  0  0  0
 35 67  1  0  0  0
 37 38  1  0  0  0
 37 39  2  0  0  0
 38 68  1  0  0  0
 38 69  1  0  0  0
 39 70  1  0  0  0
M  END
> <s_m_entry_id>
35460

> <s_m_entry_name>
dock_pv.310

> <s_m_Source_Path>
/home/csk/Desktop/cluster/DUD-E-result/thrb

> <s_m_Source_File>
dock_pv.maegz

> <i_m_Source_File_Index>
310

> <chembl_id>
CHEMBL3800621

> <chembl_pref_name>
None

> <i_lp_mmshare_version>
53161

> <r_lp_tautomer_probability>
1

> <s_lp_Force_Field>
OPLS_2005

> <r_lp_Energy>
41.739751

> <b_lp_Chiralities_Consistent>
1

> <s_lp_Variant>
CHEMBL204_lig1727-1

> <s_i_glide_gridfile>
glide-grid_1ype

> <i_i_glide_lignum>
2510

> <i_i_glide_rotatable_bonds>
12

> <r_i_docking_score>
-7.05815663575968

> <r_i_glide_ligand_efficiency>
-0.180978375275889

> <r_i_glide_ligand_efficiency_sa>
-0.613735936424221

> <r_i_glide_ligand_efficiency_ln>
-1.51346914039773

> <r_i_glide_gscore>
-7.05815663575968

> <r_i_glide_lipo>
-3.04831847569183

> <r_i_glide_hbond>
-0.119158779193247

> <r_i_glide_metal>
0

> <r_i_glide_rewards>
-1.0786129543647

> <r_i_glide_evdw>
-52.7304954528809

> <r_i_glide_ecoul>
-4.3918890953064

> <r_i_glide_erotb>
0.659018438751401

> <r_i_glide_esite>
-0.175776728321296

> <r_i_glide_emodel>
-76.9678814363083

> <r_i_glide_energy>
-57.1223845481873

> <r_i_glide_einternal>
13.3974151611328

> <i_i_glide_confnum>
78

> <i_i_glide_posenum>
349

> <r_i_glide_eff_state_penalty>
0

> <s_user_duplicate_titles>
CHEMBL204_lig1727

> <i_f3d_flags>
0

> <s_m_subgroup_title>
dock_pv

> <s_m_subgroupid>
dock_pv

> <b_m_subgroup_collapsed>
1

$$$$
CHEMBL204_lig3361
                    3D
 Schrodinger Suite 2021-1.
 40 42  0  0  1  0            999 V2000
   19.4846  -12.3243   18.7242 C   0  0  0  0  0  0
   20.4154  -12.8924   19.5835 C   0  0  0  0  0  0
   20.0420  -13.2661   20.8930 C   0  0  0  0  0  0
   18.6954  -13.0680   21.3270 C   0  0  0  0  0  0
   17.7547  -12.4668   20.4235 C   0  0  0  0  0  0
   18.1638  -12.1068   19.1282 C   0  0  0  0  0  0
   20.9876  -13.8205   21.7858 C   0  0  0  0  0  0
   20.6152  -14.1774   23.0752 C   0  0  0  0  0  0
   19.3056  -14.0137   23.5414 C   0  0  0  0  0  0
   18.3634  -13.4572   22.6574 C   0  0  0  0  0  0
   18.9520  -14.4009   24.9346 C   0  0  0  0  0  0
   19.8262  -14.4177   25.8426 N   0  0  0  0  0  0
   17.6299  -14.7331   25.1204 N   0  0  0  0  0  0
   17.2461  -11.5050   18.2865 O   0  0  0  0  0  0
   17.2397  -11.8950   16.9187 C   0  0  0  0  0  0
   16.3335  -12.1899   20.8081 C   0  0  0  0  0  0
   15.6542  -10.9827   20.7194 C   0  0  0  0  0  0
   14.3882  -11.2183   21.1771 N   0  0  0  0  0  0
   14.1971  -12.4935   21.5285 N   0  0  0  0  0  0
   15.3596  -13.0676   21.3124 C   0  0  0  0  0  0
   13.1275  -10.0584   21.3288 S   0  0  0  0  0  0
   13.6153   -9.0919   22.3189 O   0  0  0  0  0  0
   12.8164   -9.6475   19.9564 O   0  0  0  0  0  0
   11.6951  -11.0479   22.0599 C   0  0  0  0  0  0
   19.8121  -12.0409   17.7357 H   0  0  0  0  0  0
   21.4356  -13.0448   19.2546 H   0  0  0  0  0  0
   22.0151  -13.9512   21.4658 H   0  0  0  0  0  0
   21.3746  -14.5903   23.7251 H   0  0  0  0  0  0
   17.3546  -13.2922   22.9982 H   0  0  0  0  0  0
   19.4457  -14.6956   26.7304 H   0  0  0  0  0  0
   17.3085  -15.0301   26.0280 H   0  0  0  0  0  0
   16.9618  -14.7106   24.3618 H   0  0  0  0  0  0
   16.3438  -11.4977   16.4438 H   0  0  0  0  0  0
   18.0998  -11.5016   16.3778 H   0  0  0  0  0  0
   17.2143  -12.9817   16.8155 H   0  0  0  0  0  0
   15.9592   -9.9952   20.3953 H   0  0  0  0  0  0
   15.5015  -14.1206   21.5124 H   0  0  0  0  0  0
   10.8180  -10.4065   22.1311 H   0  0  0  0  0  0
   11.4858  -11.8974   21.4141 H   0  0  0  0  0  0
   11.9742  -11.3940   23.0529 H   0  0  0  0  0  0
  1  2  1  0  0  0
  1  6  2  0  0  0
  1 25  1  0  0  0
  2  3  2  0  0  0
  2 26  1  0  0  0
  3  4  1  0  0  0
  3  7  1  0  0  0
  4  5  2  0  0  0
  4 10  1  0  0  0
  5  6  1  0  0  0
  5 16  1  0  0  0
  6 14  1  0  0  0
  7  8  2  0  0  0
  7 27  1  0  0  0
  8  9  1  0  0  0
  8 28  1  0  0  0
  9 10  2  0  0  0
  9 11  1  0  0  0
 10 29  1  0  0  0
 11 12  2  0  0  0
 11 13  1  0  0  0
 12 30  1  0  0  0
 13 31  1  0  0  0
 13 32  1  0  0  0
 14 15  1  0  0  0
 15 33  1  0  0  0
 15 34  1  0  0  0
 15 35  1  0  0  0
 16 17  2  0  0  0
 16 20  1  0  0  0
 17 18  1  0  0  0
 17 36  1  0  0  0
 18 19  1  0  0  0
 18 21  1  0  0  0
 19 20  2  0  0  0
 20 37  1  0  0  0
 21 22  2  0  0  0
 21 23  2  0  0  0
 21 24  1  0  0  0
 24 38  1  0  0  0
 24 39  1  0  0  0
 24 40  1  0  0  0
M  END
> <s_m_entry_id>
35461

> <s_m_entry_name>
dock_pv.311

> <s_m_Source_Path>
/home/csk/Desktop/cluster/DUD-E-result/thrb

> <s_m_Source_File>
dock_pv.maegz

> <i_m_Source_File_Index>
311

> <chembl_id>
CHEMBL321944

> <chembl_pref_name>
None

> <i_lp_mmshare_version>
53161

> <r_lp_tautomer_probability>
1

> <s_lp_Force_Field>
OPLS_2005

> <r_lp_Energy>
11.970275

> <b_lp_Chiralities_Consistent>
1

> <s_lp_Variant>
CHEMBL204_lig3361-1

> <s_i_glide_gridfile>
glide-grid_1ype

> <i_i_glide_lignum>
4699

> <i_i_glide_rotatable_bonds>
4

> <r_i_docking_score>
-7.05637182777967

> <r_i_glide_ligand_efficiency>
-0.294015492824153

> <r_i_glide_ligand_efficiency_sa>
-0.848087435480288

> <r_i_glide_ligand_efficiency_ln>
-1.68891357419203

> <r_i_glide_gscore>
-7.05637182777967

> <r_i_glide_lipo>
-2.06918119098349

> <r_i_glide_hbond>
-0.122791041338705

> <r_i_glide_metal>
0

> <r_i_glide_rewards>
-2.25010407541075

> <r_i_glide_evdw>
-40.5438613891602

> <r_i_glide_ecoul>
-4.98105001449585

> <r_i_glide_erotb>
0.16008586077437

> <r_i_glide_esite>
-3.08091887126299e-05

> <r_i_glide_emodel>
-61.848948560388

> <r_i_glide_energy>
-45.524911403656

> <r_i_glide_einternal>
5.63285160064697

> <i_i_glide_confnum>
2

> <i_i_glide_posenum>
255

> <r_i_glide_eff_state_penalty>
0

> <s_user_duplicate_titles>
CHEMBL204_lig3361

> <i_f3d_flags>
0

> <s_m_subgroup_title>
dock_pv

> <s_m_subgroupid>
dock_pv

> <b_m_subgroup_collapsed>
1

$$$$
CHEMBL204_lig3511
                    3D
 Schrodinger Suite 2021-1.
 48 50  0  0  1  0            999 V2000
   19.2808  -14.9361   22.9352 S   0  0  0  0  0  0
   20.7330  -14.3247   23.8172 C   0  0  0  0  0  0
   18.5777  -13.4573   22.5788 O   0  0  0  0  0  0
   11.6312  -10.9526   23.1207 C   0  0  0  0  0  0
   18.5482  -13.0511   21.2698 C   0  0  0  0  0  0
   18.4170  -15.6522   23.8793 O   0  0  0  0  0  0
   19.7324  -15.5823   21.6952 O   0  0  0  0  0  0
   12.4534  -11.5211   22.0098 C   0  0  0  0  0  0
   20.6803  -13.8866   25.1532 C   0  0  0  0  0  0
   11.7154   -9.7388   23.4381 N   0  0  0  0  0  0
   17.3244  -13.0003   20.5983 C   0  0  0  0  0  0
   17.2621  -12.5883   19.2582 C   0  0  0  0  0  0
   19.6779  -12.3088   19.2599 C   0  0  0  0  0  0
   19.7198  -12.6888   20.6021 C   0  0  0  0  0  0
   13.4780  -10.7597   21.4138 C   0  0  0  0  0  0
   12.2523  -12.8238   21.5209 C   0  0  0  0  0  0
   16.0965  -12.4721   18.5233 O   0  0  0  0  0  0
   10.8158  -11.8529   23.7581 N   0  0  0  0  0  0
   18.4477  -12.2529   18.6025 C   0  0  0  0  0  0
   19.2159  -13.8528   26.0650 Cl  0  0  0  0  0  0
   14.0803  -12.5974   19.9649 C   0  0  0  0  0  0
   14.9494  -13.2437   18.8885 C   0  0  0  0  0  0
   14.2832  -11.2884   20.4062 C   0  0  0  0  0  0
   13.0497  -13.3547   20.5157 C   0  0  0  0  0  0
   21.9578  -14.2905   23.1408 C   0  0  0  0  0  0
   21.8442  -13.4588   25.7938 C   0  0  0  0  0  0
   20.9534  -11.9677   18.5154 C   0  0  0  0  0  0
   23.1161  -13.8543   23.7856 C   0  0  0  0  0  0
   23.0615  -13.4533   25.1169 C   0  0  0  0  0  0
   11.0942   -9.5298   24.2075 H   0  0  0  0  0  0
   16.4308  -13.2719   21.1397 H   0  0  0  0  0  0
   20.6627  -12.7292   21.1242 H   0  0  0  0  0  0
   13.6736   -9.7501   21.7471 H   0  0  0  0  0  0
   11.4707  -13.4535   21.9168 H   0  0  0  0  0  0
   10.1221  -11.5286   24.4229 H   0  0  0  0  0  0
   10.8160  -12.8400   23.5228 H   0  0  0  0  0  0
   18.4025  -11.9556   17.5652 H   0  0  0  0  0  0
   15.2453  -14.2509   19.1913 H   0  0  0  0  0  0
   14.3399  -13.3627   17.9914 H   0  0  0  0  0  0
   15.0738  -10.6814   19.9862 H   0  0  0  0  0  0
   12.8707  -14.3659   20.1754 H   0  0  0  0  0  0
   22.0156  -14.6126   22.1110 H   0  0  0  0  0  0
   21.8000  -13.1290   26.8221 H   0  0  0  0  0  0
   21.7849  -11.7826   19.1986 H   0  0  0  0  0  0
   21.2175  -12.7890   17.8477 H   0  0  0  0  0  0
   20.8177  -11.0709   17.9097 H   0  0  0  0  0  0
   24.0594  -13.8300   23.2598 H   0  0  0  0  0  0
   23.9592  -13.1226   25.6173 H   0  0  0  0  0  0
  1  2  1  0  0  0
  1  3  1  0  0  0
  1  6  2  0  0  0
  1  7  2  0  0  0
  2  9  2  0  0  0
  2 25  1  0  0  0
  3  5  1  0  0  0
  4  8  1  0  0  0
  4 10  2  0  0  0
  4 18  1  0  0  0
  5 11  2  0  0  0
  5 14  1  0  0  0
  8 16  1  0  0  0
  8 15  2  0  0  0
  9 20  1  0  0  0
  9 26  1  0  0  0
 10 30  1  0  0  0
 11 12  1  0  0  0
 11 31  1  0  0  0
 12 17  1  0  0  0
 12 19  2  0  0  0
 13 14  2  0  0  0
 13 19  1  0  0  0
 13 27  1  0  0  0
 14 32  1  0  0  0
 15 23  1  0  0  0
 15 33  1  0  0  0
 16 24  2  0  0  0
 16 34  1  0  0  0
 17 22  1  0  0  0
 18 35  1  0  0  0
 18 36  1  0  0  0
 19 37  1  0  0  0
 21 22  1  0  0  0
 21 23  2  0  0  0
 21 24  1  0  0  0
 22 38  1  0  0  0
 22 39  1  0  0  0
 23 40  1  0  0  0
 24 41  1  0  0  0
 25 28  2  0  0  0
 25 42  1  0  0  0
 26 29  2  0  0  0
 26 43  1  0  0  0
 27 44  1  0  0  0
 27 45  1  0  0  0
 27 46  1  0  0  0
 28 29  1  0  0  0
 28 47  1  0  0  0
 29 48  1  0  0  0
M  END
> <s_m_entry_id>
35462

> <s_m_entry_name>
dock_pv.312

> <s_m_Source_Path>
/home/csk/Desktop/cluster/DUD-E-result/thrb

> <s_m_Source_File>
dock_pv.maegz

> <i_m_Source_File_Index>
312

> <chembl_id>
CHEMBL168290

> <chembl_pref_name>
None

> <i_lp_mmshare_version>
53161

> <r_lp_tautomer_probability>
1

> <s_lp_Force_Field>
OPLS_2005

> <r_lp_Energy>
17.153815

> <b_lp_Chiralities_Consistent>
1

> <s_lp_Variant>
CHEMBL204_lig3511-1

> <s_i_glide_gridfile>
glide-grid_1ype

> <i_i_glide_lignum>
4890

> <i_i_glide_rotatable_bonds>
7

> <r_i_docking_score>
-7.05493560413047

> <r_i_glide_ligand_efficiency>
-0.24327364152174

> <r_i_glide_ligand_efficiency_sa>
-0.747413701254189

> <r_i_glide_ligand_efficiency_ln>
-1.61540135561468

> <r_i_glide_gscore>
-7.05493560413047

> <r_i_glide_lipo>
-3.7476854717445

> <r_i_glide_hbond>
-0.074651953856994

> <r_i_glide_metal>
0

> <r_i_glide_rewards>
-0.550306260210314

> <r_i_glide_evdw>
-46.7670059204102

> <r_i_glide_ecoul>
-5.88801574707031

> <r_i_glide_erotb>
0.642567137801382

> <r_i_glide_esite>
-0.103306398038989

> <r_i_glide_emodel>
-70.3552567366449

> <r_i_glide_energy>
-52.6550216674805

> <r_i_glide_einternal>
10.816309928894

> <i_i_glide_confnum>
8

> <i_i_glide_posenum>
385

> <r_i_glide_eff_state_penalty>
0

> <s_user_duplicate_titles>
CHEMBL204_lig3511,281942

> <i_f3d_flags>
0

> <s_m_subgroup_title>
dock_pv

> <s_m_subgroupid>
dock_pv

> <b_m_subgroup_collapsed>
1

$$$$
CHEMBL204_lig1917
                    3D
 Schrodinger Suite 2021-1.
 64 67  0  0  1  0            999 V2000
   15.5868  -13.4939   21.5216 C   0  0  0  0  0  0
   20.8421  -17.3312   23.2050 S   0  0  0  0  0  0
   14.4600  -13.2626   20.7603 N   0  0  0  0  0  0
   16.2404  -14.6989   21.3710 N   0  0  0  0  0  0
   20.2211  -15.7131   22.8385 N   0  0  2  0  0  0
   13.7569  -12.0741   21.0498 C   0  0  0  0  0  0
   11.3348  -10.7082   23.6714 C   0  0  0  0  0  0
   11.2160   -9.6355   24.3209 N   0  0  0  0  0  0
   17.6550  -14.7312   21.8346 C   0  0  0  0  0  0
   21.8814  -17.0754   24.7653 C   0  0  0  0  0  0
   12.8162  -12.0342   22.0882 C   0  0  0  0  0  0
   12.2655  -10.8095   22.5219 C   0  0  0  0  0  0
   19.6918  -18.1662   23.5698 O   0  0  0  0  0  0
   21.7246  -17.7480   22.1087 O   0  0  0  0  0  0
   16.0153  -12.6530   22.3210 O   0  0  0  0  0  0
   19.3006  -15.0503   23.7875 C   0  0  0  0  0  0
   20.1381  -15.2519   21.4352 C   0  0  0  0  0  0
   17.8388  -15.1589   23.3165 C   0  0  0  0  0  0
   18.6987  -15.3819   20.8939 C   0  0  0  0  0  0
   10.6269  -11.8530   23.9210 N   0  0  0  0  0  0
   14.1301  -13.9933   19.5305 C   0  0  0  0  0  0
   15.6569  -15.9924   20.9406 C   0  0  0  0  0  0
   22.9245  -15.9785   24.6096 C   0  0  0  0  0  0
   14.1011  -10.8987   20.3790 C   0  0  0  0  0  0
   12.6584   -9.6430   21.8473 C   0  0  0  0  0  0
   13.5549   -9.6861   20.7872 C   0  0  0  0  0  0
   22.6183  -14.6710   24.9967 C   0  0  0  0  0  0
   24.1805  -16.2742   24.0720 C   0  0  0  0  0  0
   14.1209  -16.1356   20.9387 C   0  0  0  0  0  0
   13.4469  -15.3394   19.8117 C   0  0  0  0  0  0
   25.1313  -15.2642   23.9325 C   0  0  0  0  0  0
   23.5633  -13.6620   24.8466 C   0  0  0  0  0  0
   24.8160  -13.9638   24.3203 C   0  0  0  0  0  0
   10.4964   -9.7284   25.0283 H   0  0  0  0  0  0
   18.0060  -13.6965   21.8303 H   0  0  0  0  0  0
   21.1938  -16.8422   25.5767 H   0  0  0  0  0  0
   22.3485  -18.0314   24.9967 H   0  0  0  0  0  0
   12.5846  -12.9537   22.6081 H   0  0  0  0  0  0
   19.6012  -14.0045   23.8767 H   0  0  0  0  0  0
   19.4133  -15.5015   24.7746 H   0  0  0  0  0  0
   20.4681  -14.2121   21.4032 H   0  0  0  0  0  0
   20.8376  -15.8201   20.8210 H   0  0  0  0  0  0
   17.2166  -14.5394   23.9643 H   0  0  0  0  0  0
   17.4898  -16.1842   23.4525 H   0  0  0  0  0  0
   18.4680  -16.4376   20.7377 H   0  0  0  0  0  0
   18.6559  -14.8961   19.9211 H   0  0  0  0  0  0
    9.8322  -11.8144   24.5580 H   0  0  0  0  0  0
   10.8159  -12.7372   23.4639 H   0  0  0  0  0  0
   13.4887  -13.3828   18.8931 H   0  0  0  0  0  0
   15.0537  -14.1568   18.9711 H   0  0  0  0  0  0
   16.0981  -16.2784   19.9847 H   0  0  0  0  0  0
   16.0147  -16.7396   21.6489 H   0  0  0  0  0  0
   14.8417  -10.9193   19.5924 H   0  0  0  0  0  0
   12.2709   -8.6800   22.1506 H   0  0  0  0  0  0
   13.8525   -8.7614   20.3211 H   0  0  0  0  0  0
   21.6517  -14.4326   25.4156 H   0  0  0  0  0  0
   24.4209  -17.2823   23.7667 H   0  0  0  0  0  0
   13.8540  -17.1868   20.8259 H   0  0  0  0  0  0
   13.7269  -15.8295   21.9089 H   0  0  0  0  0  0
   12.3994  -15.1709   20.0669 H   0  0  0  0  0  0
   13.4311  -15.9233   18.8912 H   0  0  0  0  0  0
   26.1119  -15.4857   23.5343 H   0  0  0  0  0  0
   23.3332  -12.6527   25.1532 H   0  0  0  0  0  0
   25.5575  -13.1828   24.2234 H   0  0  0  0  0  0
  1  3  1  0  0  0
  1  4  1  0  0  0
  1 15  2  0  0  0
  2  5  1  0  0  0
  2 10  1  0  0  0
  2 13  2  0  0  0
  2 14  2  0  0  0
  3  6  1  0  0  0
  3 21  1  0  0  0
  4  9  1  0  0  0
  4 22  1  0  0  0
  5 17  1  0  0  0
  5 16  1  0  0  0
  6 11  2  0  0  0
  6 24  1  0  0  0
  7 12  1  0  0  0
  7  8  2  0  0  0
  7 20  1  0  0  0
  8 34  1  0  0  0
  9 18  1  0  0  0
  9 19  1  0  0  0
  9 35  1  0  0  0
 10 23  1  0  0  0
 10 36  1  0  0  0
 10 37  1  0  0  0
 11 12  1  0  0  0
 11 38  1  0  0  0
 12 25  2  0  0  0
 16 18  1  0  0  0
 16 39  1  0  0  0
 16 40  1  0  0  0
 17 19  1  0  0  0
 17 41  1  0  0  0
 17 42  1  0  0  0
 18 43  1  0  0  0
 18 44  1  0  0  0
 19 45  1  0  0  0
 19 46  1  0  0  0
 20 47  1  0  0  0
 20 48  1  0  0  0
 21 30  1  0  0  0
 21 49  1  0  0  0
 21 50  1  0  0  0
 22 29  1  0  0  0
 22 51  1  0  0  0
 22 52  1  0  0  0
 23 27  2  0  0  0
 23 28  1  0  0  0
 24 26  2  0  0  0
 24 53  1  0  0  0
 25 26  1  0  0  0
 25 54  1  0  0  0
 26 55  1  0  0  0
 27 32  1  0  0  0
 27 56  1  0  0  0
 28 31  2  0  0  0
 28 57  1  0  0  0
 29 30  1  0  0  0
 29 58  1  0  0  0
 29 59  1  0  0  0
 30 60  1  0  0  0
 30 61  1  0  0  0
 31 33  1  0  0  0
 31 62  1  0  0  0
 32 33  2  0  0  0
 32 63  1  0  0  0
 33 64  1  0  0  0
M  END
> <s_m_entry_id>
35463

> <s_m_entry_name>
dock_pv.313

> <s_m_Source_Path>
/home/csk/Desktop/cluster/DUD-E-result/thrb

> <s_m_Source_File>
dock_pv.maegz

> <i_m_Source_File_Index>
313

> <chembl_id>
CHEMBL103993

> <chembl_pref_name>
None

> <i_lp_mmshare_version>
53161

> <r_lp_tautomer_probability>
1

> <s_lp_Force_Field>
OPLS_2005

> <r_lp_Energy>
65.093658

> <b_lp_Chiralities_Consistent>
1

> <s_lp_Variant>
CHEMBL204_lig1917-1

> <s_i_glide_gridfile>
glide-grid_1ype

> <i_i_glide_lignum>
2861

> <i_i_glide_rotatable_bonds>
6

> <r_i_docking_score>
-7.04713515772434

> <r_i_glide_ligand_efficiency>
-0.213549550234071

> <r_i_glide_ligand_efficiency_sa>
-0.684967512732619

> <r_i_glide_ligand_efficiency_ln>
-1.56724637096485

> <r_i_glide_gscore>
-7.04713515772434

> <r_i_glide_lipo>
-2.71761909238393

> <r_i_glide_hbond>
-0.746637388722433

> <r_i_glide_metal>
0

> <r_i_glide_rewards>
-0.455841364052543

> <r_i_glide_evdw>
-44.2047386169434

> <r_i_glide_ecoul>
-8.40780353546143

> <r_i_glide_erotb>
0.457969905244198

> <r_i_glide_esite>
-0.113599756643244

> <r_i_glide_emodel>
-73.1904404376349

> <r_i_glide_energy>
-52.6125421524048

> <r_i_glide_einternal>
3.22824478149414

> <i_i_glide_confnum>
39

> <i_i_glide_posenum>
356

> <r_i_glide_eff_state_penalty>
0

> <s_user_duplicate_titles>
CHEMBL204_lig1917,169532

> <i_f3d_flags>
0

> <s_m_subgroup_title>
dock_pv

> <s_m_subgroupid>
dock_pv

> <b_m_subgroup_collapsed>
1

$$$$
CHEMBL204_lig4576
                    3D
 Schrodinger Suite 2021-1.
 52 53  0  0  1  0            999 V2000
   19.2147  -15.8823   26.3063 C   0  0  0  0  0  0
   20.0339  -16.7276   25.5572 C   0  0  0  0  0  0
   21.0930  -16.1978   24.8192 C   0  0  0  0  0  0
   21.3388  -14.8165   24.8184 C   0  0  0  0  0  0
   20.5209  -13.9794   25.5890 C   0  0  0  0  0  0
   19.4613  -14.5116   26.3209 C   0  0  0  0  0  0
   22.4253  -14.2079   23.9247 C   0  0  0  0  0  0
   21.7782  -13.4961   22.7144 C   0  0  0  0  0  0
   23.2834  -15.1478   23.5216 F   0  0  0  0  0  0
   23.1358  -13.3475   24.6549 F   0  0  0  0  0  0
   20.9115  -14.3687   21.9190 N   0  0  0  0  0  0
   20.1161  -13.7825   20.9272 C   0  0  0  0  0  0
   18.7372  -14.0135   20.9588 C   0  0  0  0  0  0
   17.8882  -13.4268   20.0077 C   0  0  0  0  0  0
   18.4438  -12.6042   19.0035 C   0  0  0  0  0  0
   19.8262  -12.3847   18.9763 C   0  0  0  0  0  0
   20.6559  -12.9628   19.9340 C   0  0  0  0  0  0
   16.3779  -13.6735   20.1278 C   0  0  0  0  0  0
   15.7269  -12.5818   20.9784 C   0  0  0  0  0  0
   15.1462  -11.5715   20.3125 N   0  0  0  0  0  0
   15.7817  -12.6530   22.2037 O   0  0  0  0  0  0
   14.4416  -10.4408   20.9205 C   0  0  0  0  0  0
   12.9846  -10.3432   20.4284 C   0  0  0  0  0  0
   18.2162  -14.8020   21.9342 F   0  0  0  0  0  0
   12.1566  -11.4765   20.7294 O   0  0  0  0  0  0
   12.2410  -11.9055   22.1121 N   0  0  0  0  0  0
   11.5746  -11.0981   23.0668 C   0  0  0  0  0  0
   10.8159  -11.8530   23.9628 N   0  0  0  0  0  0
   11.6167   -9.8524   23.1436 N   0  0  0  0  0  0
   17.6200  -11.9641   17.9791 C   0  0  0  0  0  0
   16.9707  -11.4545   17.1672 N   0  0  0  0  0  0
   19.8006  -18.0607   25.5385 F   0  0  0  0  0  0
   18.1863  -16.3879   27.0252 F   0  0  0  0  0  0
   21.7012  -16.8678   24.2283 H   0  0  0  0  0  0
   20.6868  -12.9114   25.6011 H   0  0  0  0  0  0
   18.8275  -13.8582   26.9013 H   0  0  0  0  0  0
   22.5377  -13.0535   22.0710 H   0  0  0  0  0  0
   21.1874  -12.6534   23.0767 H   0  0  0  0  0  0
   20.3791  -15.0104   22.4933 H   0  0  0  0  0  0
   20.2779  -11.7671   18.2124 H   0  0  0  0  0  0
   21.7198  -12.7821   19.8958 H   0  0  0  0  0  0
   16.1747  -14.6411   20.5898 H   0  0  0  0  0  0
   15.9095  -13.7296   19.1441 H   0  0  0  0  0  0
   15.2121  -11.5644   19.3060 H   0  0  0  0  0  0
   14.9850   -9.5163   20.7202 H   0  0  0  0  0  0
   14.4160  -10.5179   22.0077 H   0  0  0  0  0  0
   12.9739  -10.2422   19.3438 H   0  0  0  0  0  0
   12.5160   -9.4328   20.8042 H   0  0  0  0  0  0
   11.9098  -12.8579   22.0910 H   0  0  0  0  0  0
   10.0985  -11.4165   24.5290 H   0  0  0  0  0  0
   10.6199  -12.8303   23.7771 H   0  0  0  0  0  0
   11.0414   -9.5293   23.9088 H   0  0  0  0  0  0
  1  6  1  0  0  0
  1  2  2  0  0  0
  1 33  1  0  0  0
  2  3  1  0  0  0
  2 32  1  0  0  0
  3  4  2  0  0  0
  3 34  1  0  0  0
  4  5  1  0  0  0
  4  7  1  0  0  0
  5  6  2  0  0  0
  5 35  1  0  0  0
  6 36  1  0  0  0
  7  8  1  0  0  0
  7  9  1  0  0  0
  7 10  1  0  0  0
  8 11  1  0  0  0
  8 37  1  0  0  0
  8 38  1  0  0  0
 11 12  1  0  0  0
 11 39  1  0  0  0
 12 17  1  0  0  0
 12 13  2  0  0  0
 13 24  1  0  0  0
 13 14  1  0  0  0
 14 18  1  0  0  0
 14 15  2  0  0  0
 15 30  1  0  0  0
 15 16  1  0  0  0
 16 17  2  0  0  0
 16 40  1  0  0  0
 17 41  1  0  0  0
 18 19  1  0  0  0
 18 42  1  0  0  0
 18 43  1  0  0  0
 19 20  1  0  0  0
 19 21  2  0  0  0
 20 22  1  0  0  0
 20 44  1  0  0  0
 22 23  1  0  0  0
 22 45  1  0  0  0
 22 46  1  0  0  0
 23 25  1  0  0  0
 23 47  1  0  0  0
 23 48  1  0  0  0
 25 26  1  0  0  0
 26 27  1  0  0  0
 26 49  1  0  0  0
 27 28  1  0  0  0
 27 29  2  0  0  0
 28 50  1  0  0  0
 28 51  1  0  0  0
 29 52  1  0  0  0
 30 31  3  0  0  0
M  END
> <s_m_entry_id>
35464

> <s_m_entry_name>
dock_pv.314

> <s_m_Source_Path>
/home/csk/Desktop/cluster/DUD-E-result/thrb

> <s_m_Source_File>
dock_pv.maegz

> <i_m_Source_File_Index>
314

> <chembl_id>
CHEMBL403310

> <chembl_pref_name>
None

> <i_lp_mmshare_version>
53161

> <r_lp_tautomer_probability>
1

> <s_lp_Force_Field>
OPLS_2005

> <r_lp_Energy>
8.316306

> <b_lp_Chiralities_Consistent>
1

> <s_lp_Variant>
CHEMBL204_lig4576-1

> <s_i_glide_gridfile>
glide-grid_1ype

> <i_i_glide_lignum>
6247

> <i_i_glide_rotatable_bonds>
12

> <r_i_docking_score>
-7.0463611882197

> <r_i_glide_ligand_efficiency>
-0.213526096612718

> <r_i_glide_ligand_efficiency_sa>
-0.684892284437056

> <r_i_glide_ligand_efficiency_ln>
-1.56707424415442

> <r_i_glide_gscore>
-7.0463611882197

> <r_i_glide_lipo>
-2.50318392627344

> <r_i_glide_hbond>
-0.654027394744101

> <r_i_glide_metal>
0

> <r_i_glide_rewards>
-1.31740281077691

> <r_i_glide_evdw>
-43.5779685974121

> <r_i_glide_ecoul>
-8.7152156829834

> <r_i_glide_erotb>
1.0044281801529

> <r_i_glide_esite>
-0.0899944542600308

> <r_i_glide_emodel>
-70.7095634242039

> <r_i_glide_energy>
-52.2931842803955

> <r_i_glide_einternal>
9.18152236938477

> <i_i_glide_confnum>
80

> <i_i_glide_posenum>
360

> <r_i_glide_eff_state_penalty>
0

> <s_user_duplicate_titles>
CHEMBL204_lig4576

> <i_f3d_flags>
0

> <s_m_subgroup_title>
dock_pv

> <s_m_subgroupid>
dock_pv

> <b_m_subgroup_collapsed>
1

$$$$
CHEMBL204_lig4342
                    3D
 Schrodinger Suite 2021-1.
 64 66  0  0  1  0            999 V2000
   16.1338  -13.2185   19.0957 C   0  0  1  0  0  0
   15.4767  -12.1529   20.0255 C   0  0  0  0  0  0
   16.3281  -12.8580   17.6646 N   0  0  2  0  0  0
   13.9428  -12.3477   20.1683 C   0  0  0  0  0  0
   13.2570  -11.4974   21.2305 C   0  0  0  0  0  0
   12.2144  -12.0337   21.9954 C   0  0  0  0  0  0
   11.6005  -11.2252   22.9520 C   0  0  0  0  0  0
   12.0329   -9.9104   23.1212 C   0  0  0  0  0  0
   13.0793   -9.4489   22.3209 C   0  0  0  0  0  0
   13.6874  -10.2149   21.3792 N   0  0  0  0  0  0
   15.2424  -12.1505   16.9784 C   0  0  0  0  0  0
   15.7966  -11.3779   15.7617 C   0  0  0  0  0  0
   18.6576  -13.1016   19.5355 N   0  0  0  0  0  0
   19.9502  -13.5981   20.0780 C   0  0  1  0  0  0
   21.0018  -12.5999   19.5511 C   0  0  0  0  0  0
   20.3504  -11.9826   18.3432 C   0  0  0  0  0  0
   18.9157  -11.8528   18.8237 C   0  0  0  0  0  0
   20.1886  -15.1157   24.3780 C   0  0  0  0  0  0
   19.2733  -16.0056   23.7921 C   0  0  0  0  0  0
   18.1552  -16.4464   24.4902 C   0  0  0  0  0  0
   17.9414  -16.0075   25.7890 C   0  0  0  0  0  0
   18.8396  -15.1293   26.3897 C   0  0  0  0  0  0
   19.9752  -14.6813   25.7034 C   0  0  0  0  0  0
   20.9575  -13.7671   26.4396 C   0  0  0  0  0  0
   20.8150  -12.3768   26.0474 N   0  0  0  0  0  0
   17.0272  -17.5192   23.7449 Cl  0  0  0  0  0  0
   21.3390  -14.5632   23.5256 C   0  0  0  0  0  0
   21.0543  -14.3938   22.0969 N   0  0  0  0  0  0
   20.0338  -13.6665   21.6088 C   0  0  0  0  0  0
   19.2211  -13.0520   22.3006 O   0  0  0  0  0  0
   17.4698  -13.7561   19.7072 C   0  0  0  0  0  0
   17.3952  -14.8115   20.3389 O   0  0  0  0  0  0
   16.9685  -11.3922   15.3784 O   0  0  0  0  0  0
   14.8147  -10.6531   15.1574 O   0  0  0  0  0  0
   15.4655  -14.0827   19.0951 H   0  0  0  0  0  0
   15.7086  -11.1400   19.6930 H   0  0  0  0  0  0
   15.9008  -12.2000   21.0319 H   0  0  0  0  0  0
   16.4539  -13.7200   17.1486 H   0  0  0  0  0  0
   13.7425  -13.3955   20.3996 H   0  0  0  0  0  0
   13.4418  -12.1549   19.2201 H   0  0  0  0  0  0
   11.8804  -13.0530   21.8612 H   0  0  0  0  0  0
   10.7884  -11.6138   23.5524 H   0  0  0  0  0  0
   11.5731   -9.2738   23.8632 H   0  0  0  0  0  0
   13.4551   -8.4439   22.4372 H   0  0  0  0  0  0
   14.4594  -12.8478   16.6767 H   0  0  0  0  0  0
   14.8039  -11.3974   17.6305 H   0  0  0  0  0  0
   20.1342  -14.5867   19.6535 H   0  0  0  0  0  0
   21.9586  -13.0533   19.3085 H   0  0  0  0  0  0
   21.2024  -11.8164   20.2859 H   0  0  0  0  0  0
   20.4000  -12.6702   17.4985 H   0  0  0  0  0  0
   20.8165  -11.0528   18.0361 H   0  0  0  0  0  0
   18.2895  -11.5971   17.9799 H   0  0  0  0  0  0
   18.8184  -11.0526   19.5550 H   0  0  0  0  0  0
   19.4109  -16.3407   22.7743 H   0  0  0  0  0  0
   17.0736  -16.3555   26.3210 H   0  0  0  0  0  0
   18.6434  -14.8018   27.3989 H   0  0  0  0  0  0
   20.8142  -13.8443   27.5180 H   0  0  0  0  0  0
   21.9791  -14.0960   26.2451 H   0  0  0  0  0  0
   19.9022  -12.0391   26.3251 H   0  0  0  0  0  0
   21.4714  -11.7848   26.5429 H   0  0  0  0  0  0
   22.1904  -15.2352   23.6370 H   0  0  0  0  0  0
   21.6783  -13.5954   23.8944 H   0  0  0  0  0  0
   21.7043  -14.8217   21.4496 H   0  0  0  0  0  0
   15.1688  -10.1950   14.3906 H   0  0  0  0  0  0
  1  3  1  0  0  0
  1  2  1  0  0  0
  1 31  1  0  0  0
  1 35  1  0  0  0
  2  4  1  0  0  0
  2 36  1  0  0  0
  2 37  1  0  0  0
  3 11  1  0  0  0
  3 38  1  0  0  0
  4  5  1  0  0  0
  4 39  1  0  0  0
  4 40  1  0  0  0
  5 10  1  0  0  0
  5  6  2  0  0  0
  6  7  1  0  0  0
  6 41  1  0  0  0
  7  8  2  0  0  0
  7 42  1  0  0  0
  8  9  1  0  0  0
  8 43  1  0  0  0
  9 10  2  0  0  0
  9 44  1  0  0  0
 11 12  1  0  0  0
 11 45  1  0  0  0
 11 46  1  0  0  0
 12 33  2  0  0  0
 12 34  1  0  0  0
 13 17  1  0  0  0
 13 14  1  0  0  0
 13 31  1  0  0  0
 14 29  1  0  0  0
 14 15  1  0  0  0
 14 47  1  0  0  0
 15 16  1  0  0  0
 15 48  1  0  0  0
 15 49  1  0  0  0
 16 17  1  0  0  0
 16 50  1  0  0  0
 16 51  1  0  0  0
 17 52  1  0  0  0
 17 53  1  0  0  0
 18 19  2  0  0  0
 18 23  1  0  0  0
 18 27  1  0  0  0
 19 20  1  0  0  0
 19 54  1  0  0  0
 20 21  2  0  0  0
 20 26  1  0  0  0
 21 22  1  0  0  0
 21 55  1  0  0  0
 22 23  2  0  0  0
 22 56  1  0  0  0
 23 24  1  0  0  0
 24 25  1  0  0  0
 24 57  1  0  0  0
 24 58  1  0  0  0
 25 59  1  0  0  0
 25 60  1  0  0  0
 27 28  1  0  0  0
 27 61  1  0  0  0
 27 62  1  0  0  0
 28 29  1  0  0  0
 28 63  1  0  0  0
 29 30  2  0  0  0
 31 32  2  0  0  0
 34 64  1  0  0  0
M  END
> <s_m_entry_id>
35465

> <s_m_entry_name>
dock_pv.315

> <s_m_Source_Path>
/home/csk/Desktop/cluster/DUD-E-result/thrb

> <s_m_Source_File>
dock_pv.maegz

> <i_m_Source_File_Index>
315

> <chembl_id>
CHEMBL394517

> <chembl_pref_name>
None

> <i_lp_mmshare_version>
53161

> <r_lp_tautomer_probability>
1

> <s_lp_Force_Field>
OPLS_2005

> <r_lp_Energy>
20.903597

> <b_lp_Chiralities_Consistent>
1

> <s_lp_Variant>
CHEMBL204_lig4342-1

> <s_i_glide_gridfile>
glide-grid_1ype

> <i_i_glide_lignum>
5991

> <i_i_glide_rotatable_bonds>
14

> <r_i_docking_score>
-7.04563163360311

> <r_i_glide_ligand_efficiency>
-0.207224459811856

> <r_i_glide_ligand_efficiency_sa>
-0.671326804730728

> <r_i_glide_ligand_efficiency_ln>
-1.5565776511363

> <r_i_glide_gscore>
-7.04563163360311

> <r_i_glide_lipo>
-3.43924096760334

> <r_i_glide_hbond>
-0.346514620159422

> <r_i_glide_metal>
0

> <r_i_glide_rewards>
-0.777487951793623

> <r_i_glide_evdw>
-50.05615234375

> <r_i_glide_ecoul>
-6.12575197219849

> <r_i_glide_erotb>
0.939282318970543

> <r_i_glide_esite>
0

> <r_i_glide_emodel>
-77.2313646524578

> <r_i_glide_energy>
-56.1819043159485

> <r_i_glide_einternal>
8.35548210144043

> <i_i_glide_confnum>
54

> <i_i_glide_posenum>
115

> <r_i_glide_eff_state_penalty>
0

> <s_user_duplicate_titles>
CHEMBL204_lig4342,384887

> <i_f3d_flags>
0

> <s_m_subgroup_title>
dock_pv

> <s_m_subgroupid>
dock_pv

> <b_m_subgroup_collapsed>
1

$$$$
CHEMBL204_lig4963
                    3D
 Schrodinger Suite 2021-1.
 73 76  0  0  1  0            999 V2000
   11.5258   -9.7972   24.1147 N   0  0  0  0  0  0
   12.4160   -8.8705   23.6983 C   0  0  0  0  0  0
   13.2469   -9.0531   22.5985 C   0  0  0  0  0  0
   11.4341  -10.9542   23.4237 C   0  0  0  0  0  0
   12.2186  -11.2530   22.2746 C   0  0  0  0  0  0
   13.1645  -10.2643   21.8689 C   0  0  0  0  0  0
   14.0001  -10.5209   20.7573 C   0  0  0  0  0  0
   13.8790  -11.7103   20.0404 C   0  0  0  0  0  0
   12.9320  -12.6594   20.4131 C   0  0  0  0  0  0
   12.1155  -12.4539   21.5213 C   0  0  0  0  0  0
   10.4985  -11.8529   23.9210 N   0  0  0  0  0  0
   14.6947  -11.9749   18.9359 N   0  0  0  0  0  0
   16.1261  -11.7039   18.8491 C   0  0  2  0  0  0
   16.6363  -11.8316   17.3786 C   0  0  0  0  0  0
   15.7298  -11.8562   16.3816 N   0  0  0  0  0  0
   17.8498  -11.8531   17.1608 O   0  0  0  0  0  0
   16.9242  -12.5582   19.8176 C   0  0  0  0  0  0
   16.7886  -13.9522   19.8370 C   0  0  0  0  0  0
   17.5299  -14.7498   20.7274 C   0  0  0  0  0  0
   18.4367  -14.1398   21.6105 C   0  0  0  0  0  0
   18.5483  -12.7452   21.6010 C   0  0  0  0  0  0
   17.8072  -11.9622   20.7196 C   0  0  0  0  0  0
   17.4226  -16.1294   20.7852 O   0  0  0  0  0  0
   16.4363  -16.7977   20.0038 C   0  0  0  0  0  0
   16.4908  -18.2928   20.3223 C   0  0  0  0  0  0
   19.1662  -14.9759   22.4454 O   0  0  0  0  0  0
   20.1571  -14.5296   23.3866 C   0  0  0  0  0  0
   19.6056  -13.6550   24.5314 C   0  0  0  0  0  0
   21.4236  -13.9539   22.7192 C   0  0  0  0  0  0
   16.0240  -12.2171   14.9931 C   0  0  0  0  0  0
   16.1804  -13.7191   14.7470 C   0  0  0  0  0  0
   15.5599  -14.6565   15.5837 C   0  0  0  0  0  0
   15.7268  -16.0249   15.3707 C   0  0  0  0  0  0
   16.5340  -16.4701   14.3210 C   0  0  0  0  0  0
   17.1588  -15.5452   13.4844 C   0  0  0  0  0  0
   16.9817  -14.1763   13.6947 C   0  0  0  0  0  0
   14.9034  -17.2010   16.4351 S   0  0  0  0  0  0
   13.6162  -17.8536   15.4585 N   0  0  0  0  0  0
   15.8551  -18.2861   16.6903 O   0  0  0  0  0  0
   14.2909  -16.4541   17.5393 O   0  0  0  0  0  0
   12.4702   -7.9659   24.2873 H   0  0  0  0  0  0
   13.9656   -8.2965   22.3212 H   0  0  0  0  0  0
   14.7295   -9.7768   20.4784 H   0  0  0  0  0  0
   12.8356  -13.5804   19.8573 H   0  0  0  0  0  0
   11.3968  -13.2088   21.8058 H   0  0  0  0  0  0
   10.4703  -12.8129   23.5916 H   0  0  0  0  0  0
    9.8055  -11.5264   24.5955 H   0  0  0  0  0  0
   14.4040  -12.7895   18.4155 H   0  0  0  0  0  0
   16.2788  -10.6556   19.1049 H   0  0  0  0  0  0
   14.7572  -11.7792   16.6396 H   0  0  0  0  0  0
   16.0976  -14.4064   19.1440 H   0  0  0  0  0  0
   19.2163  -12.2530   22.2752 H   0  0  0  0  0  0
   17.9251  -10.8879   20.7428 H   0  0  0  0  0  0
   15.4401  -16.4110   20.2270 H   0  0  0  0  0  0
   16.6255  -16.6529   18.9408 H   0  0  0  0  0  0
   15.7520  -18.8414   19.7370 H   0  0  0  0  0  0
   17.4734  -18.7055   20.0919 H   0  0  0  0  0  0
   16.2899  -18.4759   21.3780 H   0  0  0  0  0  0
   20.4730  -15.4581   23.8654 H   0  0  0  0  0  0
   20.2249  -13.7618   25.4226 H   0  0  0  0  0  0
   19.6084  -12.5931   24.2982 H   0  0  0  0  0  0
   18.5905  -13.9478   24.8027 H   0  0  0  0  0  0
   22.1049  -13.5394   23.4619 H   0  0  0  0  0  0
   21.9745  -14.7311   22.1895 H   0  0  0  0  0  0
   21.2091  -13.1669   21.9995 H   0  0  0  0  0  0
   16.9257  -11.6972   14.6618 H   0  0  0  0  0  0
   15.2121  -11.8570   14.3592 H   0  0  0  0  0  0
   14.9306  -14.3233   16.3954 H   0  0  0  0  0  0
   16.6753  -17.5278   14.1505 H   0  0  0  0  0  0
   17.7782  -15.8899   12.6697 H   0  0  0  0  0  0
   17.4696  -13.4745   13.0345 H   0  0  0  0  0  0
   12.9152  -17.1431   15.1924 H   0  0  0  0  0  0
   13.9504  -18.3804   14.6508 H   0  0  0  0  0  0
  1  2  2  0  0  0
  1  4  1  0  0  0
  2  3  1  0  0  0
  2 41  1  0  0  0
  3  6  2  0  0  0
  3 42  1  0  0  0
  4  5  2  0  0  0
  4 11  1  0  0  0
  5  6  1  0  0  0
  5 10  1  0  0  0
  6  7  1  0  0  0
  7  8  2  0  0  0
  7 43  1  0  0  0
  8  9  1  0  0  0
  8 12  1  0  0  0
  9 10  2  0  0  0
  9 44  1  0  0  0
 10 45  1  0  0  0
 11 46  1  0  0  0
 11 47  1  0  0  0
 12 13  1  0  0  0
 12 48  1  0  0  0
 13 14  1  0  0  0
 13 17  1  0  0  0
 13 49  1  0  0  0
 14 15  1  0  0  0
 14 16  2  0  0  0
 15 30  1  0  0  0
 15 50  1  0  0  0
 17 18  2  0  0  0
 17 22  1  0  0  0
 18 19  1  0  0  0
 18 51  1  0  0  0
 19 20  2  0  0  0
 19 23  1  0  0  0
 20 21  1  0  0  0
 20 26  1  0  0  0
 21 22  2  0  0  0
 21 52  1  0  0  0
 22 53  1  0  0  0
 23 24  1  0  0  0
 24 25  1  0  0  0
 24 54  1  0  0  0
 24 55  1  0  0  0
 25 56  1  0  0  0
 25 57  1  0  0  0
 25 58  1  0  0  0
 26 27  1  0  0  0
 27 28  1  0  0  0
 27 29  1  0  0  0
 27 59  1  0  0  0
 28 60  1  0  0  0
 28 61  1  0  0  0
 28 62  1  0  0  0
 29 63  1  0  0  0
 29 64  1  0  0  0
 29 65  1  0  0  0
 30 31  1  0  0  0
 30 66  1  0  0  0
 30 67  1  0  0  0
 31 32  2  0  0  0
 31 36  1  0  0  0
 32 33  1  0  0  0
 32 68  1  0  0  0
 33 34  2  0  0  0
 33 37  1  0  0  0
 34 35  1  0  0  0
 34 69  1  0  0  0
 35 36  2  0  0  0
 35 70  1  0  0  0
 36 71  1  0  0  0
 37 38  1  0  0  0
 37 39  2  0  0  0
 37 40  2  0  0  0
 38 72  1  0  0  0
 38 73  1  0  0  0
M  END
> <s_m_entry_id>
35466

> <s_m_entry_name>
dock_pv.316

> <s_m_Source_Path>
/home/csk/Desktop/cluster/DUD-E-result/thrb

> <s_m_Source_File>
dock_pv.maegz

> <i_m_Source_File_Index>
316

> <chembl_id>
CHEMBL3114854

> <chembl_pref_name>
None

> <i_lp_mmshare_version>
53161

> <r_lp_tautomer_probability>
1

> <s_lp_Force_Field>
OPLS_2005

> <r_lp_Energy>
27.095573

> <b_lp_Chiralities_Consistent>
1

> <s_lp_Variant>
CHEMBL204_lig4963-1

> <s_i_glide_gridfile>
glide-grid_1ype

> <i_i_glide_lignum>
6765

> <i_i_glide_rotatable_bonds>
12

> <r_i_docking_score>
-7.04162544279697

> <r_i_glide_ligand_efficiency>
-0.176040636069924

> <r_i_glide_ligand_efficiency_sa>
-0.602050505894176

> <r_i_glide_ligand_efficiency_ln>
-1.50177148116247

> <r_i_glide_gscore>
-7.04162544279697

> <r_i_glide_lipo>
-3.18117602629859

> <r_i_glide_hbond>
-0.576

> <r_i_glide_metal>
0

> <r_i_glide_rewards>
0.344342185710338

> <r_i_glide_evdw>
-47.9177436828613

> <r_i_glide_ecoul>
-10.3307752609253

> <r_i_glide_erotb>
0.506034834869269

> <r_i_glide_esite>
-0.189322963796133

> <r_i_glide_emodel>
-78.8446932362198

> <r_i_glide_energy>
-58.2485189437866

> <r_i_glide_einternal>
8.73892784118652

> <i_i_glide_confnum>
36

> <i_i_glide_posenum>
184

> <r_i_glide_eff_state_penalty>
0

> <s_user_duplicate_titles>
CHEMBL204_lig4963

> <i_f3d_flags>
0

> <s_m_subgroup_title>
dock_pv

> <s_m_subgroupid>
dock_pv

> <b_m_subgroup_collapsed>
1

$$$$
CHEMBL204_lig5005
                    3D
 Schrodinger Suite 2021-1.
 69 72  0  0  1  0            999 V2000
   18.6908  -12.8579   20.2351 C   0  0  0  0  0  0
   17.5335  -13.2844   19.6035 C   0  0  0  0  0  0
   16.6828  -14.2235   20.1900 C   0  0  0  0  0  0
   17.0420  -14.7530   21.4410 C   0  0  0  0  0  0
   18.2074  -14.3399   22.1044 C   0  0  0  0  0  0
   19.0231  -13.3776   21.4904 C   0  0  0  0  0  0
   15.3480  -14.6519   19.5437 C   0  0  2  0  0  0
   15.3277  -14.7338   18.0720 N   0  0  0  0  0  0
   15.3849  -13.6909   17.1293 C   0  0  0  0  0  0
   15.2390  -12.3376   17.4501 C   0  0  0  0  0  0
   15.3894  -11.3662   16.4664 C   0  0  0  0  0  0
   15.6634  -11.7224   15.1450 C   0  0  0  0  0  0
   15.7596  -13.0792   14.8132 C   0  0  0  0  0  0
   15.6165  -14.0527   15.8006 C   0  0  0  0  0  0
   15.8660  -10.6628   14.1577 C   0  0  0  0  0  0
   16.8164   -9.8528   14.3020 N   0  0  0  0  0  0
   14.9185  -10.6540   13.1682 N   0  0  0  0  0  0
   14.1547  -13.9432   20.1734 C   0  0  0  0  0  0
   14.1659  -12.7288   20.6817 N   0  0  0  0  0  0
   12.9515  -14.5596   20.3792 N   0  0  0  0  0  0
   18.4581  -14.9240   23.3370 O   0  0  0  0  0  0
   19.6376  -14.6843   24.1160 C   0  0  0  0  0  0
   19.6945  -13.2760   24.7420 C   0  0  0  0  0  0
   12.2009  -13.6759   21.0994 C   0  0  0  0  0  0
   12.9916  -12.5489   21.2716 C   0  0  0  0  0  0
   12.6737  -11.3112   22.0464 C   0  0  0  0  0  0
   20.9455  -15.1531   23.4448 C   0  0  0  0  0  0
   19.4223  -11.9114   19.5611 O   0  0  0  0  0  0
   20.8320  -11.8929   19.7094 C   0  0  0  0  0  0
   21.3765  -11.7695   18.2898 C   0  0  0  0  0  0
   13.4569  -10.1592   21.9131 C   0  0  0  0  0  0
   13.2160   -9.0530   22.7207 C   0  0  0  0  0  0
   12.1857   -9.0823   23.6581 C   0  0  0  0  0  0
   11.3722  -10.2104   23.7673 C   0  0  0  0  0  0
   11.6160  -11.3193   22.9625 C   0  0  0  0  0  0
   16.2457  -15.6803   22.0260 F   0  0  0  0  0  0
   11.9678   -7.8955   24.5768 C   0  0  0  0  0  0
   17.3302  -12.8619   18.6386 H   0  0  0  0  0  0
   19.9102  -13.0141   21.9755 H   0  0  0  0  0  0
   15.2488  -15.7015   19.8258 H   0  0  0  0  0  0
   15.1015  -15.6409   17.6907 H   0  0  0  0  0  0
   15.0548  -12.0176   18.4599 H   0  0  0  0  0  0
   15.3065  -10.3195   16.7214 H   0  0  0  0  0  0
   15.9552  -13.3872   13.7945 H   0  0  0  0  0  0
   15.7120  -15.0928   15.5240 H   0  0  0  0  0  0
   16.7740   -9.1482   13.5764 H   0  0  0  0  0  0
   14.9370   -9.9281   12.4632 H   0  0  0  0  0  0
   14.2219  -11.3828   13.1111 H   0  0  0  0  0  0
   12.6930  -15.4967   20.1053 H   0  0  0  0  0  0
   19.5097  -15.3549   24.9669 H   0  0  0  0  0  0
   20.6207  -13.1287   25.2989 H   0  0  0  0  0  0
   19.6217  -12.4702   24.0159 H   0  0  0  0  0  0
   18.8758  -13.1420   25.4498 H   0  0  0  0  0  0
   11.2161  -13.9323   21.4528 H   0  0  0  0  0  0
   21.7946  -15.0249   24.1174 H   0  0  0  0  0  0
   20.8879  -16.2139   23.1996 H   0  0  0  0  0  0
   21.1860  -14.6264   22.5243 H   0  0  0  0  0  0
   21.2559  -12.7836   20.1791 H   0  0  0  0  0  0
   21.1157  -11.0302   20.3139 H   0  0  0  0  0  0
   22.4143  -11.4530   18.3204 H   0  0  0  0  0  0
   20.8226  -11.0403   17.7026 H   0  0  0  0  0  0
   21.3099  -12.7224   17.7650 H   0  0  0  0  0  0
   14.2819  -10.1304   21.2161 H   0  0  0  0  0  0
   13.8624   -8.1928   22.6492 H   0  0  0  0  0  0
   10.5615  -10.2417   24.4833 H   0  0  0  0  0  0
   10.9927  -12.1944   23.0840 H   0  0  0  0  0  0
   12.3616   -6.9691   24.1633 H   0  0  0  0  0  0
   10.9064   -7.7360   24.7685 H   0  0  0  0  0  0
   12.4690   -8.0761   25.5211 H   0  0  0  0  0  0
  1  2  2  0  0  0
  1  6  1  0  0  0
  1 28  1  0  0  0
  2  3  1  0  0  0
  2 38  1  0  0  0
  3  4  2  0  0  0
  3  7  1  0  0  0
  4  5  1  0  0  0
  4 36  1  0  0  0
  5  6  2  0  0  0
  5 21  1  0  0  0
  6 39  1  0  0  0
  7  8  1  0  0  0
  7 18  1  0  0  0
  7 40  1  0  0  0
  8  9  1  0  0  0
  8 41  1  0  0  0
  9 10  2  0  0  0
  9 14  1  0  0  0
 10 11  1  0  0  0
 10 42  1  0  0  0
 11 12  2  0  0  0
 11 43  1  0  0  0
 12 13  1  0  0  0
 12 15  1  0  0  0
 13 14  2  0  0  0
 13 44  1  0  0  0
 14 45  1  0  0  0
 15 16  2  0  0  0
 15 17  1  0  0  0
 16 46  1  0  0  0
 17 47  1  0  0  0
 17 48  1  0  0  0
 18 19  2  0  0  0
 18 20  1  0  0  0
 19 25  1  0  0  0
 20 24  1  0  0  0
 20 49  1  0  0  0
 21 22  1  0  0  0
 22 23  1  0  0  0
 22 27  1  0  0  0
 22 50  1  0  0  0
 23 51  1  0  0  0
 23 52  1  0  0  0
 23 53  1  0  0  0
 24 25  2  0  0  0
 24 54  1  0  0  0
 25 26  1  0  0  0
 26 31  2  0  0  0
 26 35  1  0  0  0
 27 55  1  0  0  0
 27 56  1  0  0  0
 27 57  1  0  0  0
 28 29  1  0  0  0
 29 30  1  0  0  0
 29 58  1  0  0  0
 29 59  1  0  0  0
 30 60  1  0  0  0
 30 61  1  0  0  0
 30 62  1  0  0  0
 31 32  1  0  0  0
 31 63  1  0  0  0
 32 33  2  0  0  0
 32 64  1  0  0  0
 33 34  1  0  0  0
 33 37  1  0  0  0
 34 35  2  0  0  0
 34 65  1  0  0  0
 35 66  1  0  0  0
 37 67  1  0  0  0
 37 68  1  0  0  0
 37 69  1  0  0  0
M  END
> <s_m_entry_id>
35467

> <s_m_entry_name>
dock_pv.317

> <s_m_Source_Path>
/home/csk/Desktop/cluster/DUD-E-result/thrb

> <s_m_Source_File>
dock_pv.maegz

> <i_m_Source_File_Index>
317

> <chembl_id>
CHEMBL3403473

> <chembl_pref_name>
None

> <i_lp_mmshare_version>
53161

> <r_lp_tautomer_probability>
0.499999999999999

> <s_lp_Force_Field>
OPLS_2005

> <r_lp_Energy>
20.389277

> <b_lp_Chiralities_Consistent>
1

> <s_lp_Variant>
CHEMBL204_lig5005-1

> <s_i_glide_gridfile>
glide-grid_1ype

> <i_i_glide_lignum>
6828

> <i_i_glide_rotatable_bonds>
10

> <r_i_docking_score>
-7.03974347416362

> <r_i_glide_ligand_efficiency>
-0.190263337139557

> <r_i_glide_ligand_efficiency_sa>
-0.633999648820407

> <r_i_glide_ligand_efficiency_ln>
-1.52675532454373

> <r_i_glide_gscore>
-7.03974347416362

> <r_i_glide_lipo>
-3.49775970763451

> <r_i_glide_hbond>
-0.477455041908784

> <r_i_glide_metal>
0

> <r_i_glide_rewards>
0.0867359843758294

> <r_i_glide_evdw>
-52.6282920837402

> <r_i_glide_ecoul>
-7.01995086669922

> <r_i_glide_erotb>
0.568337844488109

> <r_i_glide_esite>
-0.0351953192923732

> <r_i_glide_emodel>
-80.8373906623465

> <r_i_glide_energy>
-59.6482429504395

> <r_i_glide_einternal>
6.24893093109131

> <i_i_glide_confnum>
9

> <i_i_glide_posenum>
77

> <r_i_glide_eff_state_penalty>
0

> <s_user_duplicate_titles>
CHEMBL204_lig5005

> <i_f3d_flags>
0

> <s_m_subgroup_title>
dock_pv

> <s_m_subgroupid>
dock_pv

> <b_m_subgroup_collapsed>
1

$$$$
CHEMBL204_lig3287
                    3D
 Schrodinger Suite 2021-1.
 51 55  0  0  1  0            999 V2000
   13.1027  -16.0828   20.5282 C   0  0  0  0  0  0
   12.5889  -14.9065   19.9979 N   0  0  0  0  0  0
   11.6196  -15.1860   19.1210 N   0  0  0  0  0  0
   11.5139  -16.5588   19.1309 N   0  0  0  0  0  0
   12.4323  -17.0954   20.0231 N   0  0  0  0  0  0
   21.3205  -16.8069   23.1264 S   0  0  0  0  0  0
   14.1440  -16.1956   21.5214 C   0  0  0  0  0  0
   12.5442  -11.5879   21.6173 C   0  0  0  0  0  0
   12.8024   -9.4526   22.3463 N   0  0  0  0  0  0
   12.1540  -10.5794   22.5446 C   0  0  0  0  0  0
   12.8919  -13.5643   20.2835 C   0  0  0  0  0  0
   21.1937  -15.3639   24.2044 C   0  0  0  0  0  0
   12.2272  -12.9264   21.3404 C   0  0  0  0  0  0
   15.2222  -15.4039   21.2965 N   0  0  0  0  0  0
   13.6688   -9.6585   21.2618 O   0  0  0  0  0  0
   20.0321  -14.5612   24.3088 C   0  0  0  0  0  0
   18.7810  -14.8152   23.5360 C   0  0  0  0  0  0
   13.5094  -10.9434   20.8313 C   0  0  0  0  0  0
   16.4148  -15.2734   22.0446 C   0  0  0  0  0  0
   17.1848  -14.1234   21.8335 C   0  0  0  0  0  0
   18.3469  -13.8958   22.5750 C   0  0  0  0  0  0
   22.7387  -17.1780   23.0572 O   0  0  0  0  0  0
   20.3372  -17.7947   23.5795 O   0  0  0  0  0  0
   14.0178  -16.9969   22.4511 O   0  0  0  0  0  0
   13.8383  -12.8930   19.5044 C   0  0  0  0  0  0
   18.0024  -15.9550   23.7564 C   0  0  0  0  0  0
   16.8463  -16.1976   23.0103 C   0  0  0  0  0  0
   14.1760  -11.5668   19.7696 C   0  0  0  0  0  0
   11.2162  -10.7386   23.5234 N   0  0  0  0  0  0
   16.8116  -13.2047   20.9125 F   0  0  0  0  0  0
   20.8145  -16.1966   21.4198 C   0  0  0  0  0  0
   22.3332  -15.0258   24.9460 C   0  0  0  0  0  0
   20.0699  -13.4432   25.1570 C   0  0  0  0  0  0
   21.2094  -13.1184   25.8877 C   0  0  0  0  0  0
   22.3453  -13.9102   25.7742 C   0  0  0  0  0  0
   11.4848  -13.4529   21.9206 H   0  0  0  0  0  0
   15.1404  -14.7591   20.5247 H   0  0  0  0  0  0
   18.9170  -12.9972   22.3935 H   0  0  0  0  0  0
   14.3256  -13.4075   18.6878 H   0  0  0  0  0  0
   18.2901  -16.6679   24.5134 H   0  0  0  0  0  0
   16.2935  -17.1001   23.2124 H   0  0  0  0  0  0
   14.9208  -11.0507   19.1853 H   0  0  0  0  0  0
   10.6375  -11.5661   23.5710 H   0  0  0  0  0  0
   10.9438   -9.9838   24.1362 H   0  0  0  0  0  0
   21.2188  -16.8928   20.6885 H   0  0  0  0  0  0
   19.7299  -16.1824   21.3528 H   0  0  0  0  0  0
   21.2160  -15.1985   21.2554 H   0  0  0  0  0  0
   23.2321  -15.6227   24.8837 H   0  0  0  0  0  0
   19.2071  -12.8057   25.2532 H   0  0  0  0  0  0
   21.2134  -12.2452   26.5256 H   0  0  0  0  0  0
   23.2436  -13.6650   26.3213 H   0  0  0  0  0  0
  1  2  1  0  0  0
  1  5  2  0  0  0
  1  7  1  0  0  0
  2  3  1  0  0  0
  2 11  1  0  0  0
  3  4  2  0  0  0
  4  5  1  0  0  0
  6 12  1  0  0  0
  6 22  2  0  0  0
  6 23  2  0  0  0
  6 31  1  0  0  0
  7 14  1  0  0  0
  7 24  2  0  0  0
  8 13  2  0  0  0
  8 10  1  0  0  0
  8 18  1  0  0  0
  9 10  2  0  0  0
  9 15  1  0  0  0
 10 29  1  0  0  0
 11 13  1  0  0  0
 11 25  2  0  0  0
 12 16  2  0  0  0
 12 32  1  0  0  0
 13 36  1  0  0  0
 14 19  1  0  0  0
 14 37  1  0  0  0
 15 18  1  0  0  0
 16 17  1  0  0  0
 16 33  1  0  0  0
 17 26  2  0  0  0
 17 21  1  0  0  0
 18 28  2  0  0  0
 19 20  1  0  0  0
 19 27  2  0  0  0
 20 21  2  0  0  0
 20 30  1  0  0  0
 21 38  1  0  0  0
 25 28  1  0  0  0
 25 39  1  0  0  0
 26 27  1  0  0  0
 26 40  1  0  0  0
 27 41  1  0  0  0
 28 42  1  0  0  0
 29 43  1  0  0  0
 29 44  1  0  0  0
 31 45  1  0  0  0
 31 46  1  0  0  0
 31 47  1  0  0  0
 32 35  2  0  0  0
 32 48  1  0  0  0
 33 34  2  0  0  0
 33 49  1  0  0  0
 34 35  1  0  0  0
 34 50  1  0  0  0
 35 51  1  0  0  0
M  END
> <s_m_entry_id>
35468

> <s_m_entry_name>
dock_pv.318

> <s_m_Source_Path>
/home/csk/Desktop/cluster/DUD-E-result/thrb

> <s_m_Source_File>
dock_pv.maegz

> <i_m_Source_File_Index>
318

> <chembl_id>
CHEMBL441283

> <chembl_pref_name>
None

> <i_lp_mmshare_version>
53161

> <r_lp_tautomer_probability>
1

> <s_lp_Force_Field>
OPLS_2005

> <r_lp_Energy>
48.796668

> <b_lp_Chiralities_Consistent>
1

> <s_lp_Variant>
CHEMBL204_lig3287-1

> <s_i_glide_gridfile>
glide-grid_1ype

> <i_i_glide_lignum>
4618

> <i_i_glide_rotatable_bonds>
6

> <r_i_docking_score>
-7.03750353904858

> <r_i_glide_ligand_efficiency>
-0.201071529687102

> <r_i_glide_ligand_efficiency_sa>
-0.657718305918092

> <r_i_glide_ligand_efficiency_ln>
-1.54488821579697

> <r_i_glide_gscore>
-7.03750353904858

> <r_i_glide_lipo>
-2.87206296934022

> <r_i_glide_hbond>
-0.32

> <r_i_glide_metal>
0

> <r_i_glide_rewards>
-0.765044495171983

> <r_i_glide_evdw>
-51.2148666381836

> <r_i_glide_ecoul>
-5.97333145141602

> <r_i_glide_erotb>
0.41828703000501

> <r_i_glide_esite>
-0.041940054919798

> <r_i_glide_emodel>
-76.4845939057401

> <r_i_glide_energy>
-57.1881980895996

> <r_i_glide_einternal>
8.82514190673828

> <i_i_glide_confnum>
77

> <i_i_glide_posenum>
254

> <r_i_glide_eff_state_penalty>
0

> <s_user_duplicate_titles>
CHEMBL204_lig3287

> <i_f3d_flags>
0

> <s_m_subgroup_title>
dock_pv

> <s_m_subgroupid>
dock_pv

> <b_m_subgroup_collapsed>
1

$$$$
CHEMBL204_lig1770
                    3D
 Schrodinger Suite 2021-1.
 67 70  0  0  1  0            999 V2000
   20.9484  -12.2381   19.1812 C   0  0  0  0  0  0
   19.5456  -12.0346   19.3332 O   0  0  0  0  0  0
   18.9347  -12.5301   20.4693 C   0  0  0  0  0  0
   19.5649  -13.1824   21.5447 C   0  0  0  0  0  0
   18.8372  -13.6404   22.6578 C   0  0  0  0  0  0
   17.4453  -13.4856   22.7198 C   0  0  0  0  0  0
   16.8006  -12.8289   21.6681 C   0  0  0  0  0  0
   15.4801  -12.5303   21.4967 N   0  0  0  0  0  0
   15.4604  -11.9232   20.3304 C   0  0  0  0  0  0
   14.3768  -11.4530   19.6405 N   0  0  0  0  0  0
   12.9577  -11.6769   19.9356 C   0  0  1  0  0  0
   12.5122  -13.1034   19.5332 C   0  0  0  0  0  0
   13.0156  -14.0786   20.2901 F   0  0  0  0  0  0
   12.5372  -11.1946   21.3423 C   0  0  0  0  0  0
   11.6526  -11.9409   22.1378 C   0  0  0  0  0  0
   11.2095  -11.4525   23.3646 C   0  0  0  0  0  0
   11.6245  -10.2045   23.8163 C   0  0  0  0  0  0
   12.5476   -9.4761   23.0664 C   0  0  0  0  0  0
   13.2159   -8.0136   23.7040 Cl  0  0  0  0  0  0
   12.9819   -9.9568   21.8297 C   0  0  0  0  0  0
   16.6685  -11.7779   19.7118 O   0  0  0  0  0  0
   17.5450  -12.3658   20.5756 C   0  0  0  0  0  0
   19.5474  -14.2881   23.8172 C   0  0  0  0  0  0
   19.6026  -13.6672   24.8815 O   0  0  0  0  0  0
   20.0990  -15.5221   23.6374 N   0  0  0  0  0  0
   20.7635  -16.1850   24.7854 C   0  0  0  0  0  0
   22.0697  -16.8757   24.2937 C   0  0  2  0  0  0
   22.5466  -17.8499   25.3865 C   0  0  0  0  0  0
   23.1524  -15.8429   23.8418 C   0  0  0  0  0  0
   24.0140  -15.1764   24.9395 C   0  0  1  0  0  0
   24.9819  -14.1368   24.3523 C   0  0  0  0  0  0
   23.2168  -14.5307   25.9126 O   0  0  0  0  0  0
   21.7092  -17.7371   23.2057 O   0  0  0  0  0  0
   21.1008  -17.1015   22.0829 C   0  0  0  0  0  0
   19.7852  -16.3832   22.4712 C   0  0  1  0  0  0
   18.6166  -17.3547   22.7154 C   0  0  0  0  0  0
   21.2701  -11.8310   18.2230 H   0  0  0  0  0  0
   21.5152  -11.7277   19.9633 H   0  0  0  0  0  0
   21.2092  -13.2996   19.1878 H   0  0  0  0  0  0
   20.6355  -13.3228   21.5331 H   0  0  0  0  0  0
   16.8772  -13.8531   23.5643 H   0  0  0  0  0  0
   14.5374  -11.2376   18.6679 H   0  0  0  0  0  0
   12.4173  -11.0008   19.2704 H   0  0  0  0  0  0
   11.4278  -13.2092   19.5678 H   0  0  0  0  0  0
   12.8167  -13.3241   18.5099 H   0  0  0  0  0  0
   11.2813  -12.9049   21.8207 H   0  0  0  0  0  0
   10.5157  -12.0326   23.9536 H   0  0  0  0  0  0
   11.2747   -9.8360   24.7691 H   0  0  0  0  0  0
   13.6838   -9.3676   21.2554 H   0  0  0  0  0  0
   20.0753  -16.9481   25.1486 H   0  0  0  0  0  0
   20.9901  -15.5094   25.6091 H   0  0  0  0  0  0
   22.7526  -17.3352   26.3264 H   0  0  0  0  0  0
   21.7999  -18.6163   25.5873 H   0  0  0  0  0  0
   23.4564  -18.3648   25.0795 H   0  0  0  0  0  0
   22.6826  -15.0520   23.2577 H   0  0  0  0  0  0
   23.8329  -16.3547   23.1610 H   0  0  0  0  0  0
   24.6026  -15.9428   25.4502 H   0  0  0  0  0  0
   25.6476  -14.5924   23.6182 H   0  0  0  0  0  0
   25.6151  -13.6923   25.1183 H   0  0  0  0  0  0
   24.4479  -13.3287   23.8511 H   0  0  0  0  0  0
   23.7953  -14.2530   26.6297 H   0  0  0  0  0  0
   20.9081  -17.8522   21.3151 H   0  0  0  0  0  0
   21.7963  -16.3970   21.6259 H   0  0  0  0  0  0
   19.5115  -15.7849   21.6047 H   0  0  0  0  0  0
   18.4220  -17.9531   21.8268 H   0  0  0  0  0  0
   18.8365  -18.0578   23.5204 H   0  0  0  0  0  0
   17.6978  -16.8195   22.9559 H   0  0  0  0  0  0
  1  2  1  0  0  0
  1 37  1  0  0  0
  1 38  1  0  0  0
  1 39  1  0  0  0
  2  3  1  0  0  0
  3  4  2  0  0  0
  3 22  1  0  0  0
  4  5  1  0  0  0
  4 40  1  0  0  0
  5  6  2  0  0  0
  5 23  1  0  0  0
  6  7  1  0  0  0
  6 41  1  0  0  0
  7  8  1  0  0  0
  7 22  2  0  0  0
  8  9  2  0  0  0
  9 10  1  0  0  0
  9 21  1  0  0  0
 10 11  1  0  0  0
 10 42  1  0  0  0
 11 12  1  0  0  0
 11 14  1  0  0  0
 11 43  1  0  0  0
 12 13  1  0  0  0
 12 44  1  0  0  0
 12 45  1  0  0  0
 14 15  2  0  0  0
 14 20  1  0  0  0
 15 16  1  0  0  0
 15 46  1  0  0  0
 16 17  2  0  0  0
 16 47  1  0  0  0
 17 18  1  0  0  0
 17 48  1  0  0  0
 18 19  1  0  0  0
 18 20  2  0  0  0
 20 49  1  0  0  0
 21 22  1  0  0  0
 23 24  2  0  0  0
 23 25  1  0  0  0
 25 26  1  0  0  0
 25 35  1  0  0  0
 26 27  1  0  0  0
 26 50  1  0  0  0
 26 51  1  0  0  0
 27 28  1  0  0  0
 27 29  1  0  0  0
 27 33  1  0  0  0
 28 52  1  0  0  0
 28 53  1  0  0  0
 28 54  1  0  0  0
 29 30  1  0  0  0
 29 55  1  0  0  0
 29 56  1  0  0  0
 30 31  1  0  0  0
 30 32  1  0  0  0
 30 57  1  0  0  0
 31 58  1  0  0  0
 31 59  1  0  0  0
 31 60  1  0  0  0
 32 61  1  0  0  0
 33 34  1  0  0  0
 34 35  1  0  0  0
 34 62  1  0  0  0
 34 63  1  0  0  0
 35 36  1  0  0  0
 35 64  1  0  0  0
 36 65  1  0  0  0
 36 66  1  0  0  0
 36 67  1  0  0  0
M  END
> <s_m_entry_id>
35469

> <s_m_entry_name>
dock_pv.319

> <s_m_Source_Path>
/home/csk/Desktop/cluster/DUD-E-result/thrb

> <s_m_Source_File>
dock_pv.maegz

> <i_m_Source_File_Index>
319

> <chembl_id>
CHEMBL4111930

> <chembl_pref_name>
None

> <i_lp_mmshare_version>
53161

> <r_lp_tautomer_probability>
1

> <s_lp_Force_Field>
OPLS_2005

> <r_lp_Energy>
46.291775

> <b_lp_Chiralities_Consistent>
1

> <s_lp_Variant>
CHEMBL204_lig1770-8

> <s_i_glide_gridfile>
glide-grid_1ype

> <i_i_glide_lignum>
2596

> <i_i_glide_rotatable_bonds>
10

> <r_i_docking_score>
-7.03288045876594

> <r_i_glide_ligand_efficiency>
-0.195357790521276

> <r_i_glide_ligand_efficiency_sa>
-0.645057211035525

> <r_i_glide_ligand_efficiency_ln>
-1.53438450963069

> <r_i_glide_gscore>
-7.03288045876594

> <r_i_glide_lipo>
-3.75184665746888

> <r_i_glide_hbond>
-0.32

> <r_i_glide_metal>
0

> <r_i_glide_rewards>
-0.503357175562759

> <r_i_glide_evdw>
-50.6159439086914

> <r_i_glide_ecoul>
-3.05894231796265

> <r_i_glide_erotb>
0.531961917394665

> <r_i_glide_esite>
0

> <r_i_glide_emodel>
-70.5577725687783

> <r_i_glide_energy>
-53.6748862266541

> <r_i_glide_einternal>
11.7835721969604

> <i_i_glide_confnum>
19

> <i_i_glide_posenum>
213

> <r_i_glide_eff_state_penalty>
0

> <s_user_duplicate_titles>
CHEMBL204_lig1770

> <i_f3d_flags>
0

> <s_m_subgroup_title>
dock_pv

> <s_m_subgroupid>
dock_pv

> <b_m_subgroup_collapsed>
1

$$$$
CHEMBL204_lig3063
                    3D
 Schrodinger Suite 2021-1.
 52 55  0  0  1  0            999 V2000
   15.9875  -12.9072   19.5477 N   0  0  0  0  0  0
   17.3253  -13.1886   19.8417 C   0  0  0  0  0  0
   17.2291  -12.3061   17.7468 C   0  0  0  0  0  0
   18.0993  -12.7521   18.7748 C   0  0  0  0  0  0
   15.9123  -12.3732   18.2647 C   0  0  0  0  0  0
   17.8410  -13.7255   21.0798 C   0  0  0  0  0  0
   19.7821  -14.7476   23.3001 C   0  0  0  0  0  0
   20.8179  -13.9589   23.8325 C   0  0  0  0  0  0
   20.7592  -13.5710   25.1815 C   0  0  0  0  0  0
   11.5098  -10.6793   23.5210 C   0  0  0  0  0  0
   14.8005  -13.0686   20.4187 C   0  0  0  0  0  0
   19.0101  -14.3833   20.9098 N   0  0  0  0  0  0
   19.6639  -13.9220   25.9668 C   0  0  0  0  0  0
   12.6272  -10.6709   22.5322 C   0  0  0  0  0  0
   17.4313  -11.8477   16.4407 C   0  0  0  0  0  0
   19.7499  -15.2254   21.8541 C   0  0  0  0  0  0
   18.7238  -15.1397   24.1178 C   0  0  0  0  0  0
   11.2266   -9.6648   24.2110 N   0  0  0  0  0  0
   18.6409  -14.6888   25.4223 C   0  0  0  0  0  0
   13.1442  -11.8332   21.9133 C   0  0  0  0  0  0
   17.2287  -13.6263   22.1407 O   0  0  0  0  0  0
   14.2433  -11.7800   21.0391 C   0  0  0  0  0  0
   10.8160  -11.8530   23.6061 N   0  0  0  0  0  0
   22.0160  -12.6530   25.9210 Cl  0  0  0  0  0  0
   22.1452  -13.4530   22.8380 Cl  0  0  0  0  0  0
   17.2324  -15.0530   26.3210 Cl  0  0  0  0  0  0
   14.8160  -11.9363   17.5145 C   0  0  0  0  0  0
   18.6943  -11.8530   15.9210 O   0  0  0  0  0  0
   13.2395   -9.4507   22.2066 C   0  0  0  0  0  0
   15.0608  -11.4530   16.2274 C   0  0  0  0  0  0
   14.3151   -9.3819   21.3299 C   0  0  0  0  0  0
   16.3430  -11.4153   15.6917 C   0  0  0  0  0  0
   14.8160  -10.5378   20.7538 C   0  0  0  0  0  0
   19.1781  -12.7931   18.7341 H   0  0  0  0  0  0
   14.9991  -13.8101   21.1910 H   0  0  0  0  0  0
   14.0133  -13.5175   19.8111 H   0  0  0  0  0  0
   19.3485  -14.4256   19.9613 H   0  0  0  0  0  0
   19.6032  -13.5854   26.9921 H   0  0  0  0  0  0
   19.3229  -16.2295   21.8142 H   0  0  0  0  0  0
   20.7658  -15.3535   21.4781 H   0  0  0  0  0  0
   17.9128  -15.7300   23.7140 H   0  0  0  0  0  0
   10.4200   -9.8376   24.8005 H   0  0  0  0  0  0
   12.7192  -12.8017   22.1355 H   0  0  0  0  0  0
    9.9729  -11.8788   24.1714 H   0  0  0  0  0  0
   11.0817  -12.6998   23.1213 H   0  0  0  0  0  0
   13.8177  -11.9803   17.9210 H   0  0  0  0  0  0
   19.3255  -12.2550   16.5242 H   0  0  0  0  0  0
   12.8978   -8.5300   22.6573 H   0  0  0  0  0  0
   14.2347  -11.1189   15.6174 H   0  0  0  0  0  0
   14.7912   -8.4349   21.1202 H   0  0  0  0  0  0
   16.4864  -11.0600   14.6815 H   0  0  0  0  0  0
   15.6734  -10.4421   20.1061 H   0  0  0  0  0  0
  1  2  1  0  0  0
  1  5  1  0  0  0
  1 11  1  0  0  0
  2  4  2  0  0  0
  2  6  1  0  0  0
  3  5  1  0  0  0
  3 15  2  0  0  0
  3  4  1  0  0  0
  4 34  1  0  0  0
  5 27  2  0  0  0
  6 12  1  0  0  0
  6 21  2  0  0  0
  7 16  1  0  0  0
  7  8  1  0  0  0
  7 17  2  0  0  0
  8  9  2  0  0  0
  8 25  1  0  0  0
  9 24  1  0  0  0
  9 13  1  0  0  0
 10 14  1  0  0  0
 10 18  2  0  0  0
 10 23  1  0  0  0
 11 22  1  0  0  0
 11 35  1  0  0  0
 11 36  1  0  0  0
 12 16  1  0  0  0
 12 37  1  0  0  0
 13 19  2  0  0  0
 13 38  1  0  0  0
 14 20  2  0  0  0
 14 29  1  0  0  0
 15 28  1  0  0  0
 15 32  1  0  0  0
 16 39  1  0  0  0
 16 40  1  0  0  0
 17 19  1  0  0  0
 17 41  1  0  0  0
 18 42  1  0  0  0
 19 26  1  0  0  0
 20 22  1  0  0  0
 20 43  1  0  0  0
 22 33  2  0  0  0
 23 44  1  0  0  0
 23 45  1  0  0  0
 27 30  1  0  0  0
 27 46  1  0  0  0
 28 47  1  0  0  0
 29 31  2  0  0  0
 29 48  1  0  0  0
 30 32  2  0  0  0
 30 49  1  0  0  0
 31 33  1  0  0  0
 31 50  1  0  0  0
 32 51  1  0  0  0
 33 52  1  0  0  0
M  END
> <s_m_entry_id>
35470

> <s_m_entry_name>
dock_pv.320

> <s_m_Source_Path>
/home/csk/Desktop/cluster/DUD-E-result/thrb

> <s_m_Source_File>
dock_pv.maegz

> <i_m_Source_File_Index>
320

> <chembl_id>
CHEMBL96231

> <chembl_pref_name>
None

> <i_lp_mmshare_version>
53161

> <r_lp_tautomer_probability>
1

> <s_lp_Force_Field>
OPLS_2005

> <r_lp_Energy>
11.429443

> <b_lp_Chiralities_Consistent>
1

> <s_lp_Variant>
CHEMBL204_lig3063-1

> <s_i_glide_gridfile>
glide-grid_1ype

> <i_i_glide_lignum>
4345

> <i_i_glide_rotatable_bonds>
8

> <r_i_docking_score>
-7.03137644646713

> <r_i_glide_ligand_efficiency>
-0.213072013529307

> <r_i_glide_ligand_efficiency_sa>
-0.683435797360041

> <r_i_glide_ligand_efficiency_ln>
-1.56374171517548

> <r_i_glide_gscore>
-7.03137644646713

> <r_i_glide_lipo>
-3.47667986100715

> <r_i_glide_hbond>
-0.426587566114911

> <r_i_glide_metal>
0

> <r_i_glide_rewards>
-0.205554299691821

> <r_i_glide_evdw>
-43.2721557617188

> <r_i_glide_ecoul>
-7.20359706878662

> <r_i_glide_erotb>
0.40566446012876

> <r_i_glide_esite>
-0.0840718313780712

> <r_i_glide_emodel>
-68.5082778924053

> <r_i_glide_energy>
-50.4757528305054

> <r_i_glide_einternal>
5.21924638748169

> <i_i_glide_confnum>
12

> <i_i_glide_posenum>
308

> <r_i_glide_eff_state_penalty>
0

> <s_user_duplicate_titles>
CHEMBL204_lig3063,151456

> <i_f3d_flags>
0

> <s_m_subgroup_title>
dock_pv

> <s_m_subgroupid>
dock_pv

> <b_m_subgroup_collapsed>
1

$$$$
CHEMBL204_lig43
                    3D
 Schrodinger Suite 2021-1.
 55 56  0  0  1  0            999 V2000
   18.2859  -17.2285   26.3378 S   0  0  0  0  0  0
   14.3430  -16.0388   21.5828 O   0  0  0  0  0  0
   13.1690  -11.5884   20.0535 O   0  0  0  0  0  0
   18.7802  -16.6215   21.2321 O   0  0  0  0  0  0
   14.0179  -17.9927   22.7207 O   0  0  0  0  0  0
   13.2850  -14.3586   19.4589 O   0  0  0  0  0  0
   12.8089   -9.9134   22.4122 N   0  0  0  0  0  0
   16.8681  -15.8512   22.1526 N   0  0  0  0  0  0
   12.4990  -13.3605   21.3737 N   0  0  0  0  0  0
   12.3035  -11.1877   22.1841 C   0  0  0  0  0  0
   12.6865  -12.0495   21.0937 C   0  0  0  0  0  0
   16.2771  -17.1232   22.6128 C   0  0  2  0  0  0
   18.0328  -15.6795   21.5015 C   0  0  0  0  0  0
   18.3839  -14.2631   21.0975 C   0  0  0  0  0  0
   14.7701  -17.1056   22.3114 C   0  0  0  0  0  0
   11.2855  -11.3919   23.1209 C   0  0  0  0  0  0
   12.1690   -9.3871   23.5089 C   0  0  0  0  0  0
   12.8949  -14.4167   20.6282 C   0  0  0  0  0  0
   11.2160  -10.2795   23.9534 C   0  0  0  0  0  0
   19.5299  -14.0268   20.3229 C   0  0  0  0  0  0
   17.5913  -13.1594   21.4708 C   0  0  0  0  0  0
   12.9648  -15.7580   21.3689 C   0  0  0  0  0  0
   19.8832  -12.7351   19.9348 C   0  0  0  0  0  0
   16.5300  -17.3054   24.1367 C   0  0  0  0  0  0
   17.9442  -11.8675   21.0867 C   0  0  0  0  0  0
   13.8913   -9.2421   21.7031 C   0  0  0  0  0  0
   19.0885  -11.6577   20.3226 C   0  0  0  0  0  0
   18.0065  -17.4151   24.5574 C   0  0  0  0  0  0
   21.1216  -12.5128   19.0905 C   0  0  0  0  0  0
   18.1225  -15.4272   26.4905 C   0  0  0  0  0  0
   16.2791  -15.0446   22.2914 H   0  0  0  0  0  0
   12.1381  -13.5642   22.2941 H   0  0  0  0  0  0
   16.7177  -17.9616   22.0652 H   0  0  0  0  0  0
   10.6353  -12.2531   23.1990 H   0  0  0  0  0  0
   12.4343   -8.4093   23.8782 H   0  0  0  0  0  0
   10.5206  -10.1435   24.7730 H   0  0  0  0  0  0
   20.1611  -14.8510   20.0191 H   0  0  0  0  0  0
   16.6953  -13.2785   22.0649 H   0  0  0  0  0  0
   12.4164  -15.7265   22.3118 H   0  0  0  0  0  0
   12.5088  -16.5271   20.7427 H   0  0  0  0  0  0
   16.0622  -16.4885   24.6843 H   0  0  0  0  0  0
   16.0244  -18.2046   24.4884 H   0  0  0  0  0  0
   17.3372  -11.0238   21.3881 H   0  0  0  0  0  0
   13.5092   -8.8673   20.7507 H   0  0  0  0  0  0
   14.7110   -9.9410   21.5224 H   0  0  0  0  0  0
   14.2669   -8.4054   22.2948 H   0  0  0  0  0  0
   19.3622  -10.6525   20.0449 H   0  0  0  0  0  0
   18.4023  -18.3817   24.2435 H   0  0  0  0  0  0
   18.6240  -16.6640   24.0647 H   0  0  0  0  0  0
   21.0804  -11.5672   18.5461 H   0  0  0  0  0  0
   22.0160  -12.5269   19.7151 H   0  0  0  0  0  0
   21.2157  -13.3026   18.3404 H   0  0  0  0  0  0
   18.1627  -15.1343   27.5382 H   0  0  0  0  0  0
   18.9332  -14.9256   25.9625 H   0  0  0  0  0  0
   17.1783  -15.0735   26.0782 H   0  0  0  0  0  0
  1 28  1  0  0  0
  1 30  1  0  0  0
  2 15  1  0  0  0
  2 22  1  0  0  0
  3 11  2  0  0  0
  4 13  2  0  0  0
  5 15  2  0  0  0
  6 18  2  0  0  0
  7 10  1  0  0  0
  7 17  1  0  0  0
  7 26  1  0  0  0
  8 12  1  0  0  0
  8 13  1  0  0  0
  8 31  1  0  0  0
  9 11  1  0  0  0
  9 18  1  0  0  0
  9 32  1  0  0  0
 10 11  1  0  0  0
 10 16  2  0  0  0
 12 15  1  0  0  0
 12 24  1  0  0  0
 12 33  1  0  0  0
 13 14  1  0  0  0
 14 20  1  0  0  0
 14 21  2  0  0  0
 16 19  1  0  0  0
 16 34  1  0  0  0
 17 19  2  0  0  0
 17 35  1  0  0  0
 18 22  1  0  0  0
 19 36  1  0  0  0
 20 23  2  0  0  0
 20 37  1  0  0  0
 21 25  1  0  0  0
 21 38  1  0  0  0
 22 39  1  0  0  0
 22 40  1  0  0  0
 23 27  1  0  0  0
 23 29  1  0  0  0
 24 28  1  0  0  0
 24 41  1  0  0  0
 24 42  1  0  0  0
 25 27  2  0  0  0
 25 43  1  0  0  0
 26 44  1  0  0  0
 26 45  1  0  0  0
 26 46  1  0  0  0
 27 47  1  0  0  0
 28 48  1  0  0  0
 28 49  1  0  0  0
 29 50  1  0  0  0
 29 51  1  0  0  0
 29 52  1  0  0  0
 30 53  1  0  0  0
 30 54  1  0  0  0
 30 55  1  0  0  0
M  END
> <s_m_entry_id>
35471

> <s_m_entry_name>
dock_pv.321

> <s_m_Source_Path>
/home/csk/Desktop/cluster/DUD-E-result/thrb

> <s_m_Source_File>
dock_pv.maegz

> <i_m_Source_File_Index>
321

> <chembl_id>
CHEMBL1604617

> <chembl_pref_name>
None

> <i_lp_mmshare_version>
53161

> <r_lp_tautomer_probability>
0.99990000499975

> <s_lp_Force_Field>
OPLS_2005

> <r_lp_Energy>
13.213848

> <b_lp_Chiralities_Consistent>
1

> <s_lp_Variant>
CHEMBL204_lig43-1

> <s_i_glide_gridfile>
glide-grid_1ype

> <i_i_glide_lignum>
46

> <i_i_glide_rotatable_bonds>
13

> <r_i_docking_score>
-7.0292864613544

> <r_i_glide_ligand_efficiency>
-0.234309548711813

> <r_i_glide_ligand_efficiency_sa>
-0.728054245387307

> <r_i_glide_ligand_efficiency_ln>
-1.59713047423011

> <r_i_glide_gscore>
-7.0292864613544

> <r_i_glide_lipo>
-2.68866634649958

> <r_i_glide_hbond>
-0.457302129058241

> <r_i_glide_metal>
0

> <r_i_glide_rewards>
-1.47752285022983

> <r_i_glide_evdw>
-50.9125213623047

> <r_i_glide_ecoul>
-7.42567253112793

> <r_i_glide_erotb>
1.28189299107571

> <r_i_glide_esite>
-0.0282111788580421

> <r_i_glide_emodel>
-76.0597385614519

> <r_i_glide_energy>
-58.3381938934326

> <r_i_glide_einternal>
14.1420221328735

> <i_i_glide_confnum>
216

> <i_i_glide_posenum>
188

> <r_i_glide_eff_state_penalty>
0

> <s_user_duplicate_titles>
CHEMBL204_lig43

> <i_f3d_flags>
0

> <s_m_subgroup_title>
dock_pv

> <s_m_subgroupid>
dock_pv

> <b_m_subgroup_collapsed>
1

$$$$
CHEMBL204_lig98
                    3D
 Schrodinger Suite 2021-1.
 47 49  0  0  1  0            999 V2000
   18.1165  -11.8571   18.1508 O   0  0  0  0  0  0
   23.3834  -13.3271   25.1219 O   0  0  0  0  0  0
   17.2492  -12.5265   20.1887 N   0  0  0  0  0  0
   16.1113  -11.8256   20.0581 N   0  0  0  0  0  0
   15.9811  -13.0522   21.9214 N   0  0  0  0  0  0
   18.0636  -14.1803   21.8035 N   0  0  0  0  0  0
   12.6686   -9.6101   21.5031 N   0  0  0  0  0  0
   17.1282  -13.2912   21.3385 C   0  0  0  0  0  0
   15.4108  -12.1751   21.1134 C   0  0  0  0  0  0
   14.0794  -11.5812   21.4127 C   0  0  0  0  0  0
   18.3198  -12.3975   19.2403 C   0  0  0  0  0  0
   13.8278  -10.2258   21.1624 C   0  0  0  0  0  0
   13.0600  -12.3391   22.0039 C   0  0  0  0  0  0
   18.1962  -14.6881   23.1644 C   0  0  0  0  0  0
   19.7348  -12.8823   19.6306 C   0  0  0  0  0  0
   19.5936  -14.3803   23.6932 C   0  0  0  0  0  0
   11.8600  -11.7254   22.3580 C   0  0  0  0  0  0
   19.7570  -13.7811   24.9456 C   0  0  0  0  0  0
   20.7186  -14.6833   22.9229 C   0  0  0  0  0  0
   11.7160  -10.3620   22.1087 C   0  0  0  0  0  0
   22.1583  -13.7217   24.6175 C   0  0  0  0  0  0
   21.0340  -13.4542   25.4009 C   0  0  0  0  0  0
   21.9875  -14.3450   23.3735 C   0  0  0  0  0  0
   20.9225  -12.0633   19.0697 C   0  0  0  0  0  0
   21.1136  -12.0463   17.5411 C   0  0  0  0  0  0
   24.5565  -13.5345   24.3379 C   0  0  0  0  0  0
   18.7731  -14.5390   21.1839 H   0  0  0  0  0  0
   14.5867   -9.5972   20.7212 H   0  0  0  0  0  0
   13.2064  -13.3877   22.2208 H   0  0  0  0  0  0
   17.4370  -14.2444   23.8122 H   0  0  0  0  0  0
   18.0228  -15.7656   23.1723 H   0  0  0  0  0  0
   19.8393  -12.8035   20.7116 H   0  0  0  0  0  0
   19.8415  -13.9335   19.3646 H   0  0  0  0  0  0
   11.0686  -12.2860   22.8363 H   0  0  0  0  0  0
   18.8994  -13.5439   25.5580 H   0  0  0  0  0  0
   20.6191  -15.1620   21.9591 H   0  0  0  0  0  0
   10.8161   -9.8524   22.4036 H   0  0  0  0  0  0
   21.1529  -12.9688   26.3593 H   0  0  0  0  0  0
   22.8184  -14.5656   22.7266 H   0  0  0  0  0  0
   20.8400  -11.0469   19.4429 H   0  0  0  0  0  0
   21.8407  -12.4492   19.5160 H   0  0  0  0  0  0
   22.0158  -11.4951   17.2761 H   0  0  0  0  0  0
   21.2162  -13.0544   17.1450 H   0  0  0  0  0  0
   20.2913  -11.5633   17.0187 H   0  0  0  0  0  0
   25.4162  -13.0959   24.8394 H   0  0  0  0  0  0
   24.7582  -14.5981   24.2008 H   0  0  0  0  0  0
   24.4803  -13.0532   23.3626 H   0  0  0  0  0  0
  1 11  2  0  0  0
  2 21  1  0  0  0
  2 26  1  0  0  0
  3  4  1  0  0  0
  3  8  1  0  0  0
  3 11  1  0  0  0
  4  9  2  0  0  0
  5  8  2  0  0  0
  5  9  1  0  0  0
  6  8  1  0  0  0
  6 14  1  0  0  0
  6 27  1  0  0  0
  7 12  1  0  0  0
  7 20  2  0  0  0
  9 10  1  0  0  0
 10 12  2  0  0  0
 10 13  1  0  0  0
 11 15  1  0  0  0
 12 28  1  0  0  0
 13 17  2  0  0  0
 13 29  1  0  0  0
 14 16  1  0  0  0
 14 30  1  0  0  0
 14 31  1  0  0  0
 15 24  1  0  0  0
 15 32  1  0  0  0
 15 33  1  0  0  0
 16 18  2  0  0  0
 16 19  1  0  0  0
 17 20  1  0  0  0
 17 34  1  0  0  0
 18 22  1  0  0  0
 18 35  1  0  0  0
 19 23  2  0  0  0
 19 36  1  0  0  0
 20 37  1  0  0  0
 21 22  2  0  0  0
 21 23  1  0  0  0
 22 38  1  0  0  0
 23 39  1  0  0  0
 24 25  1  0  0  0
 24 40  1  0  0  0
 24 41  1  0  0  0
 25 42  1  0  0  0
 25 43  1  0  0  0
 25 44  1  0  0  0
 26 45  1  0  0  0
 26 46  1  0  0  0
 26 47  1  0  0  0
M  END
> <s_m_entry_id>
35472

> <s_m_entry_name>
dock_pv.322

> <s_m_Source_Path>
/home/csk/Desktop/cluster/DUD-E-result/thrb

> <s_m_Source_File>
dock_pv.maegz

> <i_m_Source_File_Index>
322

> <chembl_id>
CHEMBL1374067

> <chembl_pref_name>
None

> <i_lp_mmshare_version>
53161

> <r_lp_tautomer_probability>
1

> <s_lp_Force_Field>
OPLS_2005

> <r_lp_Energy>
22.341739

> <b_lp_Chiralities_Consistent>
1

> <s_lp_Variant>
CHEMBL204_lig98-1

> <s_i_glide_gridfile>
glide-grid_1ype

> <i_i_glide_lignum>
112

> <i_i_glide_rotatable_bonds>
8

> <r_i_docking_score>
-7.02893882046578

> <r_i_glide_ligand_efficiency>
-0.270343800787145

> <r_i_glide_ligand_efficiency_sa>
-0.800892446080428

> <r_i_glide_ligand_efficiency_ln>
-1.65072321815695

> <r_i_glide_gscore>
-7.02893882046578

> <r_i_glide_lipo>
-3.21495765529772

> <r_i_glide_hbond>
-0.0308008697284632

> <r_i_glide_metal>
0

> <r_i_glide_rewards>
-1.89718849058018

> <r_i_glide_evdw>
-45.6670761108398

> <r_i_glide_ecoul>
-3.52905821800232

> <r_i_glide_erotb>
0.926720733382933

> <r_i_glide_esite>
0

> <r_i_glide_emodel>
-64.3708056859293

> <r_i_glide_energy>
-49.1961343288422

> <r_i_glide_einternal>
11.0012245178223

> <i_i_glide_confnum>
28

> <i_i_glide_posenum>
43

> <r_i_glide_eff_state_penalty>
0

> <s_user_duplicate_titles>
CHEMBL204_lig98

> <i_f3d_flags>
0

> <s_m_subgroup_title>
dock_pv

> <s_m_subgroupid>
dock_pv

> <b_m_subgroup_collapsed>
1

$$$$
CHEMBL204_lig5049
                    3D
 Schrodinger Suite 2021-1.
 47 50  0  0  1  0            999 V2000
   12.9949   -9.8804   22.1097 C   0  0  0  0  0  0
   12.1359  -10.9345   22.4755 C   0  0  0  0  0  0
   12.1631  -12.1085   21.6944 C   0  0  0  0  0  0
   13.8612   -9.9324   21.0209 C   0  0  0  0  0  0
   13.8445  -11.1001   20.2597 C   0  0  0  0  0  0
   13.0117  -12.2013   20.5824 C   0  0  0  0  0  0
   13.2727  -13.2114   19.6015 C   0  0  0  0  0  0
   14.2161  -12.7260   18.7061 C   0  0  0  0  0  0
   14.5409  -11.4536   19.1237 N   0  0  0  0  0  0
   14.8015  -13.3712   17.4880 C   0  0  0  0  0  0
   14.6847  -14.7482   17.2789 C   0  0  0  0  0  0
   15.2155  -15.2995   16.1148 C   0  0  0  0  0  0
   15.8391  -14.4719   15.1829 C   0  0  0  0  0  0
   15.9254  -13.0931   15.4369 C   0  0  0  0  0  0
   15.4323  -12.5583   16.5945 N   0  0  0  0  0  0
   11.2277  -10.7766   23.6530 C   0  0  0  0  0  0
   10.4194  -11.8530   23.9210 N   0  0  0  0  0  0
   11.2160   -9.7102   24.3210 N   0  0  0  0  0  0
   16.6530  -12.1297   14.4602 C   0  0  0  0  0  0
   16.4851  -12.5025   12.9587 C   0  0  0  0  0  0
   15.0321  -12.3412   12.4849 C   0  0  0  0  0  0
   14.5058  -10.9152   12.7250 C   0  0  0  0  0  0
   14.7630  -10.4122   14.1635 C   0  0  0  0  0  0
   16.2260  -10.6378   14.5995 C   0  0  0  0  0  0
   18.0160  -12.2530   14.7593 O   0  0  0  0  0  0
   13.0027   -8.9695   22.6933 H   0  0  0  0  0  0
   11.5259  -12.9495   21.9257 H   0  0  0  0  0  0
   14.5062   -9.0990   20.7822 H   0  0  0  0  0  0
   12.8085  -14.1846   19.5433 H   0  0  0  0  0  0
   15.2160  -10.8891   18.6285 H   0  0  0  0  0  0
   14.1837  -15.3829   17.9946 H   0  0  0  0  0  0
   15.1263  -16.3595   15.9262 H   0  0  0  0  0  0
   16.2377  -14.9186   14.2861 H   0  0  0  0  0  0
    9.6649  -11.7581   24.6009 H   0  0  0  0  0  0
   10.5735  -12.7705   23.5210 H   0  0  0  0  0  0
   10.5037   -9.7595   25.0402 H   0  0  0  0  0  0
   17.1487  -11.8974   12.3381 H   0  0  0  0  0  0
   16.7831  -13.5321   12.7653 H   0  0  0  0  0  0
   14.9426  -12.6029   11.4302 H   0  0  0  0  0  0
   14.4159  -13.0532   13.0240 H   0  0  0  0  0  0
   14.9963  -10.2530   12.0131 H   0  0  0  0  0  0
   13.4402  -10.8665   12.4964 H   0  0  0  0  0  0
   14.5150   -9.3519   14.2302 H   0  0  0  0  0  0
   14.0866  -10.9254   14.8476 H   0  0  0  0  0  0
   16.3305  -10.3045   15.6329 H   0  0  0  0  0  0
   16.8894   -9.9932   14.0203 H   0  0  0  0  0  0
   18.2586  -13.1598   14.5526 H   0  0  0  0  0  0
  1  2  2  0  0  0
  1  4  1  0  0  0
  1 26  1  0  0  0
  2  3  1  0  0  0
  2 16  1  0  0  0
  3  6  2  0  0  0
  3 27  1  0  0  0
  4  5  2  0  0  0
  4 28  1  0  0  0
  5  6  1  0  0  0
  5  9  1  0  0  0
  6  7  1  0  0  0
  7  8  2  0  0  0
  7 29  1  0  0  0
  8  9  1  0  0  0
  8 10  1  0  0  0
  9 30  1  0  0  0
 10 11  2  0  0  0
 10 15  1  0  0  0
 11 12  1  0  0  0
 11 31  1  0  0  0
 12 13  2  0  0  0
 12 32  1  0  0  0
 13 14  1  0  0  0
 13 33  1  0  0  0
 14 15  2  0  0  0
 14 19  1  0  0  0
 16 17  1  0  0  0
 16 18  2  0  0  0
 17 34  1  0  0  0
 17 35  1  0  0  0
 18 36  1  0  0  0
 19 20  1  0  0  0
 19 24  1  0  0  0
 19 25  1  0  0  0
 20 21  1  0  0  0
 20 37  1  0  0  0
 20 38  1  0  0  0
 21 22  1  0  0  0
 21 39  1  0  0  0
 21 40  1  0  0  0
 22 23  1  0  0  0
 22 41  1  0  0  0
 22 42  1  0  0  0
 23 24  1  0  0  0
 23 43  1  0  0  0
 23 44  1  0  0  0
 24 45  1  0  0  0
 24 46  1  0  0  0
 25 47  1  0  0  0
M  END
> <s_m_entry_id>
35473

> <s_m_entry_name>
dock_pv.323

> <s_m_Source_Path>
/home/csk/Desktop/cluster/DUD-E-result/thrb

> <s_m_Source_File>
dock_pv.maegz

> <i_m_Source_File_Index>
323

> <chembl_id>
CHEMBL3632759

> <chembl_pref_name>
None

> <i_lp_mmshare_version>
53161

> <r_lp_tautomer_probability>
1

> <s_lp_Force_Field>
OPLS_2005

> <r_lp_Energy>
9.489585

> <b_lp_Chiralities_Consistent>
1

> <s_lp_Variant>
CHEMBL204_lig5049-1

> <s_i_glide_gridfile>
glide-grid_1ype

> <i_i_glide_lignum>
6917

> <i_i_glide_rotatable_bonds>
4

> <r_i_docking_score>
-7.02568331618655

> <r_i_glide_ligand_efficiency>
-0.281027332647462

> <r_i_glide_ligand_efficiency_sa>
-0.821728904702145

> <r_i_glide_ligand_efficiency_ln>
-1.66529748867544

> <r_i_glide_gscore>
-7.02568331618655

> <r_i_glide_lipo>
-2.05813371660957

> <r_i_glide_hbond>
-0.749900493255664

> <r_i_glide_metal>
0

> <r_i_glide_rewards>
-1.12898945454545

> <r_i_glide_evdw>
-36.6352233886719

> <r_i_glide_ecoul>
-9.74373817443848

> <r_i_glide_erotb>
0.33729180843247

> <r_i_glide_esite>
-0.132629564608969

> <r_i_glide_emodel>
-65.4397417808359

> <r_i_glide_energy>
-46.3789615631104

> <r_i_glide_einternal>
0.608789205551147

> <i_i_glide_confnum>
3

> <i_i_glide_posenum>
104

> <r_i_glide_eff_state_penalty>
0

> <s_user_duplicate_titles>
CHEMBL204_lig5049

> <i_f3d_flags>
0

> <s_m_subgroup_title>
dock_pv

> <s_m_subgroupid>
dock_pv

> <b_m_subgroup_collapsed>
1

$$$$
CHEMBL204_lig290
                    3D
 Schrodinger Suite 2021-1.
 62 65  0  0  1  0            999 V2000
   14.0546  -11.4110   21.3333 N   0  0  0  0  0  0
   15.3356  -11.6497   20.9521 C   0  0  0  0  0  0
   15.8496  -13.1173   20.9030 C   0  0  1  0  0  0
   13.0249  -12.3979   21.7244 C   0  0  2  0  0  0
   12.5411  -13.2734   20.5552 C   0  0  0  0  0  0
   16.8289  -13.4746   19.7188 C   0  0  0  0  0  0
   12.0165  -14.4534   20.9037 N   0  0  0  0  0  0
   16.1211  -10.7314   20.7185 O   0  0  0  0  0  0
   12.7025  -12.9012   19.3947 O   0  0  0  0  0  0
   18.3219  -13.1712   19.9447 C   0  0  0  0  0  0
   16.3323  -13.1901   18.2797 C   0  0  0  0  0  0
   16.4238  -13.3955   22.2411 N   0  0  0  0  0  0
   13.5486  -10.0425   21.4685 C   0  0  0  0  0  0
   11.5965  -15.4848   19.9551 C   0  0  0  0  0  0
   12.6721  -16.4925   17.9021 C   0  0  0  0  0  0
   12.7290  -16.2502   19.2771 C   0  0  0  0  0  0
   13.6797  -17.2192   17.2683 C   0  0  0  0  0  0
   11.8935  -11.5275   22.2997 C   0  0  0  0  0  0
   13.6164  -17.4527   15.9210 O   0  0  0  0  0  0
   12.0418  -10.1902   21.5930 C   0  0  0  0  0  0
   14.8320  -17.4559   19.3799 C   0  0  0  0  0  0
   19.1826  -14.2100   20.3265 C   0  0  0  0  0  0
   18.8440  -11.8861   19.7678 C   0  0  0  0  0  0
   16.0085  -14.2659   17.4414 C   0  0  0  0  0  0
   16.2433  -11.8907   17.7597 C   0  0  0  0  0  0
   14.7560  -17.7086   18.0093 C   0  0  0  0  0  0
   13.8233  -16.7249   20.0123 C   0  0  0  0  0  0
   20.2045  -11.6523   19.9213 C   0  0  0  0  0  0
   15.8926  -11.6764   16.4305 C   0  0  0  0  0  0
   15.6489  -14.0584   16.1125 C   0  0  0  0  0  0
   20.5401  -13.9712   20.5138 C   0  0  0  0  0  0
   15.6160  -12.7628   15.6077 C   0  0  0  0  0  0
   21.0396  -12.6902   20.3126 C   0  0  0  0  0  0
   15.0257  -13.8094   20.7597 H   0  0  0  0  0  0
   13.4167  -13.0491   22.5100 H   0  0  0  0  0  0
   16.8013  -14.5656   19.7638 H   0  0  0  0  0  0
   11.8751  -14.6540   21.8859 H   0  0  0  0  0  0
   15.7855  -13.9094   22.8459 H   0  0  0  0  0  0
   17.2759  -13.9437   22.1679 H   0  0  0  0  0  0
   13.9731   -9.6018   22.3725 H   0  0  0  0  0  0
   13.8187   -9.4081   20.6241 H   0  0  0  0  0  0
   10.9950  -16.2131   20.5032 H   0  0  0  0  0  0
   10.9371  -15.0465   19.2035 H   0  0  0  0  0  0
   11.8428  -16.1274   17.3145 H   0  0  0  0  0  0
   12.0512  -11.3896   23.3717 H   0  0  0  0  0  0
   10.8982  -11.9582   22.1818 H   0  0  0  0  0  0
   12.9327  -16.9232   15.4737 H   0  0  0  0  0  0
   11.5711   -9.3610   22.1188 H   0  0  0  0  0  0
   11.6134  -10.2527   20.5955 H   0  0  0  0  0  0
   15.6692  -17.8292   19.9517 H   0  0  0  0  0  0
   18.8079  -15.2133   20.4728 H   0  0  0  0  0  0
   18.2156  -11.0539   19.5067 H   0  0  0  0  0  0
   16.0372  -15.2805   17.8103 H   0  0  0  0  0  0
   16.4576  -11.0262   18.3628 H   0  0  0  0  0  0
   15.5363  -18.2736   17.5197 H   0  0  0  0  0  0
   13.8892  -16.5392   21.0745 H   0  0  0  0  0  0
   20.6042  -10.6591   19.7975 H   0  0  0  0  0  0
   15.8354  -10.6716   16.0404 H   0  0  0  0  0  0
   15.4007  -14.8974   15.4780 H   0  0  0  0  0  0
   21.2016  -14.7727   20.8069 H   0  0  0  0  0  0
   15.3420  -12.6004   14.5745 H   0  0  0  0  0  0
   22.0901  -12.4966   20.4578 H   0  0  0  0  0  0
  1  2  1  0  0  0
  1  4  1  0  0  0
  1 13  1  0  0  0
  2  3  1  0  0  0
  2  8  2  0  0  0
  3  6  1  0  0  0
  3 12  1  0  0  0
  3 34  1  0  0  0
  4  5  1  0  0  0
  4 18  1  0  0  0
  4 35  1  0  0  0
  5  7  1  0  0  0
  5  9  2  0  0  0
  6 10  1  0  0  0
  6 11  1  0  0  0
  6 36  1  0  0  0
  7 14  1  0  0  0
  7 37  1  0  0  0
 10 22  2  0  0  0
 10 23  1  0  0  0
 11 24  2  0  0  0
 11 25  1  0  0  0
 12 38  1  0  0  0
 12 39  1  0  0  0
 13 20  1  0  0  0
 13 40  1  0  0  0
 13 41  1  0  0  0
 14 16  1  0  0  0
 14 42  1  0  0  0
 14 43  1  0  0  0
 15 16  2  0  0  0
 15 17  1  0  0  0
 15 44  1  0  0  0
 16 27  1  0  0  0
 17 19  1  0  0  0
 17 26  2  0  0  0
 18 20  1  0  0  0
 18 45  1  0  0  0
 18 46  1  0  0  0
 19 47  1  0  0  0
 20 48  1  0  0  0
 20 49  1  0  0  0
 21 27  2  0  0  0
 21 26  1  0  0  0
 21 50  1  0  0  0
 22 31  1  0  0  0
 22 51  1  0  0  0
 23 28  2  0  0  0
 23 52  1  0  0  0
 24 30  1  0  0  0
 24 53  1  0  0  0
 25 29  2  0  0  0
 25 54  1  0  0  0
 26 55  1  0  0  0
 27 56  1  0  0  0
 28 33  1  0  0  0
 28 57  1  0  0  0
 29 32  1  0  0  0
 29 58  1  0  0  0
 30 32  2  0  0  0
 30 59  1  0  0  0
 31 33  2  0  0  0
 31 60  1  0  0  0
 32 61  1  0  0  0
 33 62  1  0  0  0
M  END
> <s_m_entry_id>
35474

> <s_m_entry_name>
dock_pv.324

> <s_m_Source_Path>
/home/csk/Desktop/cluster/DUD-E-result/thrb

> <s_m_Source_File>
dock_pv.maegz

> <i_m_Source_File_Index>
324

> <chembl_id>
CHEMBL3142679

> <chembl_pref_name>
None

> <i_lp_mmshare_version>
53161

> <r_lp_tautomer_probability>
0.999999999997365

> <s_lp_Force_Field>
OPLS_2005

> <r_lp_Energy>
31.549473

> <b_lp_Chiralities_Consistent>
1

> <s_lp_Variant>
CHEMBL204_lig290-2

> <s_i_glide_gridfile>
glide-grid_1ype

> <i_i_glide_lignum>
362

> <i_i_glide_rotatable_bonds>
10

> <r_i_docking_score>
-7.0251621087243

> <r_i_glide_ligand_efficiency>
-0.212883700264373

> <r_i_glide_ligand_efficiency_sa>
-0.682831776098675

> <r_i_glide_ligand_efficiency_ln>
-1.5623596786376

> <r_i_glide_gscore>
-7.0251621087243

> <r_i_glide_lipo>
-2.40089649713895

> <r_i_glide_hbond>
-0.707577749182941

> <r_i_glide_metal>
0

> <r_i_glide_rewards>
-1.38669790463124

> <r_i_glide_evdw>
-41.3471412658691

> <r_i_glide_ecoul>
-9.18179988861084

> <r_i_glide_erotb>
0.914637088813917

> <r_i_glide_esite>
0

> <r_i_glide_emodel>
-70.035917195097

> <r_i_glide_energy>
-50.52894115448

> <r_i_glide_einternal>
8.07892036437988

> <i_i_glide_confnum>
129

> <i_i_glide_posenum>
362

> <r_i_glide_eff_state_penalty>
0

> <s_user_duplicate_titles>
CHEMBL204_lig290

> <i_f3d_flags>
0

> <s_m_subgroup_title>
dock_pv

> <s_m_subgroupid>
dock_pv

> <b_m_subgroup_collapsed>
1

$$$$
CHEMBL204_lig4124
                    3D
 Schrodinger Suite 2021-1.
 67 71  0  0  1  0            999 V2000
   15.4593  -17.1178   21.0929 C   0  0  0  0  0  0
   14.9062  -17.4710   19.7316 C   0  0  0  0  0  0
   16.2313  -15.9989   21.1923 N   0  0  0  0  0  0
   11.3268  -10.7359   23.6938 C   0  0  0  0  0  0
   20.3473  -14.2064   23.4704 N   0  0  2  0  0  0
   13.5196  -17.2748   19.4074 C   0  0  0  0  0  0
   12.3668  -10.8939   22.6472 C   0  0  0  0  0  0
   13.9707  -12.2934   21.4137 C   0  0  0  0  0  0
   12.8619  -12.1573   22.2835 C   0  0  0  0  0  0
   16.3741  -15.0046   20.1023 C   0  0  0  0  0  0
   11.2161   -9.6500   24.3203 N   0  0  0  0  0  0
   18.3686  -15.5027   22.4941 C   0  0  0  0  0  0
   15.1946  -17.8504   22.0501 O   0  0  0  0  0  0
   16.8255  -15.5933   22.4831 C   0  0  0  0  0  0
   18.9002  -14.3980   23.4348 C   0  0  1  0  0  0
   14.5357  -13.5572   21.1270 C   0  0  0  0  0  0
   15.6819  -13.6646   20.3323 C   0  0  0  0  0  0
   14.5613  -11.1272   20.8493 C   0  0  0  0  0  0
   12.9370   -9.7650   22.0331 C   0  0  0  0  0  0
   14.0049   -9.8646   21.1464 C   0  0  0  0  0  0
   13.0868  -17.5248   18.0642 C   0  0  0  0  0  0
   15.7106  -11.2625   20.0351 C   0  0  0  0  0  0
   10.5566  -11.8527   23.9207 N   0  0  0  0  0  0
   16.2581  -12.5178   19.7914 C   0  0  0  0  0  0
   15.7874  -17.9216   18.7419 C   0  0  0  0  0  0
   20.5408  -13.3207   24.6097 C   0  0  0  0  0  0
   20.9083  -13.6581   22.2380 C   0  0  0  0  0  0
   12.5436  -16.8298   20.3491 C   0  0  0  0  0  0
   19.6040  -13.8600   25.6902 C   0  0  0  0  0  0
   15.3526  -18.1663   17.4453 C   0  0  0  0  0  0
   18.4886  -14.5621   24.9092 C   0  0  0  0  0  0
   14.0217  -17.9635   17.0975 C   0  0  0  0  0  0
   11.7278  -17.3214   17.7150 C   0  0  0  0  0  0
   11.2159  -16.6517   19.9718 C   0  0  0  0  0  0
   10.8100  -16.8930   18.6663 C   0  0  0  0  0  0
   12.4629  -13.0585   22.7268 H   0  0  0  0  0  0
   16.0176  -15.3716   19.1413 H   0  0  0  0  0  0
   17.4348  -14.8159   19.9447 H   0  0  0  0  0  0
   10.4549   -9.6949   24.9869 H   0  0  0  0  0  0
   18.7838  -16.4711   22.7745 H   0  0  0  0  0  0
   18.7522  -15.3150   21.4932 H   0  0  0  0  0  0
   16.4158  -14.6109   22.7209 H   0  0  0  0  0  0
   16.5051  -16.2316   23.3099 H   0  0  0  0  0  0
   18.4178  -13.4860   23.0698 H   0  0  0  0  0  0
   14.0917  -14.4372   21.5710 H   0  0  0  0  0  0
   12.5736   -8.7773   22.2759 H   0  0  0  0  0  0
   14.4462   -8.9746   20.7232 H   0  0  0  0  0  0
   16.1775  -10.3811   19.6239 H   0  0  0  0  0  0
    9.7499  -11.7806   24.5389 H   0  0  0  0  0  0
   10.7527  -12.7628   23.5174 H   0  0  0  0  0  0
   17.1521  -12.5929   19.1887 H   0  0  0  0  0  0
   16.8337  -18.0701   18.9692 H   0  0  0  0  0  0
   20.3488  -12.2727   24.3659 H   0  0  0  0  0  0
   21.5897  -13.3591   24.9073 H   0  0  0  0  0  0
   20.3840  -12.7556   21.9188 H   0  0  0  0  0  0
   21.9633  -13.4132   22.3718 H   0  0  0  0  0  0
   20.8488  -14.3862   21.4281 H   0  0  0  0  0  0
   12.8242  -16.6300   21.3714 H   0  0  0  0  0  0
   19.2227  -13.0536   26.3140 H   0  0  0  0  0  0
   20.1318  -14.5545   26.3452 H   0  0  0  0  0  0
   16.0559  -18.5007   16.6972 H   0  0  0  0  0  0
   17.5484  -14.0425   25.1029 H   0  0  0  0  0  0
   18.3743  -15.6054   25.2034 H   0  0  0  0  0  0
   13.6934  -18.1406   16.0827 H   0  0  0  0  0  0
   11.4070  -17.4940   16.6971 H   0  0  0  0  0  0
   10.4953  -16.3163   20.7017 H   0  0  0  0  0  0
    9.7751  -16.7458   18.3910 H   0  0  0  0  0  0
  1  2  1  0  0  0
  1  3  1  0  0  0
  1 13  2  0  0  0
  2  6  1  0  0  0
  2 25  2  0  0  0
  3 10  1  0  0  0
  3 14  1  0  0  0
  4  7  1  0  0  0
  4 11  2  0  0  0
  4 23  1  0  0  0
  5 15  1  0  0  0
  5 26  1  0  0  0
  5 27  1  0  0  0
  6 21  1  0  0  0
  6 28  2  0  0  0
  7  9  1  0  0  0
  7 19  2  0  0  0
  8 16  1  0  0  0
  8  9  2  0  0  0
  8 18  1  0  0  0
  9 36  1  0  0  0
 10 17  1  0  0  0
 10 37  1  0  0  0
 10 38  1  0  0  0
 11 39  1  0  0  0
 12 14  1  0  0  0
 12 15  1  0  0  0
 12 40  1  0  0  0
 12 41  1  0  0  0
 14 42  1  0  0  0
 14 43  1  0  0  0
 15 31  1  0  0  0
 15 44  1  0  0  0
 16 17  2  0  0  0
 16 45  1  0  0  0
 17 24  1  0  0  0
 18 22  1  0  0  0
 18 20  2  0  0  0
 19 20  1  0  0  0
 19 46  1  0  0  0
 20 47  1  0  0  0
 21 33  2  0  0  0
 21 32  1  0  0  0
 22 24  2  0  0  0
 22 48  1  0  0  0
 23 49  1  0  0  0
 23 50  1  0  0  0
 24 51  1  0  0  0
 25 30  1  0  0  0
 25 52  1  0  0  0
 26 29  1  0  0  0
 26 53  1  0  0  0
 26 54  1  0  0  0
 27 55  1  0  0  0
 27 56  1  0  0  0
 27 57  1  0  0  0
 28 34  1  0  0  0
 28 58  1  0  0  0
 29 31  1  0  0  0
 29 59  1  0  0  0
 29 60  1  0  0  0
 30 32  2  0  0  0
 30 61  1  0  0  0
 31 62  1  0  0  0
 31 63  1  0  0  0
 32 64  1  0  0  0
 33 35  1  0  0  0
 33 65  1  0  0  0
 34 35  2  0  0  0
 34 66  1  0  0  0
 35 67  1  0  0  0
M  END
> <s_m_entry_id>
35475

> <s_m_entry_name>
dock_pv.325

> <s_m_Source_Path>
/home/csk/Desktop/cluster/DUD-E-result/thrb

> <s_m_Source_File>
dock_pv.maegz

> <i_m_Source_File_Index>
325

> <chembl_id>
CHEMBL194689

> <chembl_pref_name>
None

> <i_lp_mmshare_version>
53161

> <r_lp_tautomer_probability>
1

> <s_lp_Force_Field>
OPLS_2005

> <r_lp_Energy>
51.893562

> <b_lp_Chiralities_Consistent>
1

> <s_lp_Variant>
CHEMBL204_lig4124-2

> <s_i_glide_gridfile>
glide-grid_1ype

> <i_i_glide_lignum>
5737

> <i_i_glide_rotatable_bonds>
8

> <r_i_docking_score>
-7.02376101402098

> <r_i_glide_ligand_efficiency>
-0.200678886114885

> <r_i_glide_ligand_efficiency_sa>
-0.656433942758623

> <r_i_glide_ligand_efficiency_ln>
-1.54187142655451

> <r_i_glide_gscore>
-7.02376101402098

> <r_i_glide_lipo>
-3.34342073201514

> <r_i_glide_hbond>
-0.53111746012615

> <r_i_glide_metal>
0

> <r_i_glide_rewards>
-0.242249178797468

> <r_i_glide_evdw>
-42.1064949035645

> <r_i_glide_ecoul>
-8.29243946075439

> <r_i_glide_erotb>
0.560396061511972

> <r_i_glide_esite>
-0.118179040302813

> <r_i_glide_emodel>
-67.8276972676247

> <r_i_glide_energy>
-50.3989343643188

> <r_i_glide_einternal>
7.03347492218018

> <i_i_glide_confnum>
1

> <i_i_glide_posenum>
153

> <r_i_glide_eff_state_penalty>
0

> <s_user_duplicate_titles>
CHEMBL204_lig4124

> <i_f3d_flags>
0

> <s_m_subgroup_title>
dock_pv

> <s_m_subgroupid>
dock_pv

> <b_m_subgroup_collapsed>
1

$$$$
CHEMBL204_lig3478
                    3D
 Schrodinger Suite 2021-1.
 56 58  0  0  1  0            999 V2000
   20.5776  -14.3041   24.8124 S   0  0  0  0  0  0
   22.3037  -14.6775   24.4690 C   0  0  0  0  0  0
   11.5505  -10.5885   23.3580 C   0  0  0  0  0  0
   12.1703  -10.9064   22.1070 N   0  0  0  0  0  0
   19.8906  -14.8857   23.3987 O   0  0  0  0  0  0
   19.5279  -13.9943   22.4239 C   0  0  0  0  0  0
   20.4157  -12.8459   24.8750 O   0  0  0  0  0  0
   20.1528  -15.1673   25.9196 O   0  0  0  0  0  0
   11.6157   -9.4679   23.9213 N   0  0  0  0  0  0
   22.7350  -15.9749   24.1466 C   0  0  0  0  0  0
   18.2112  -13.5324   22.3736 C   0  0  0  0  0  0
   12.1550  -12.2268   21.4515 C   0  0  0  0  0  0
   12.7336   -9.8649   21.2377 C   0  0  0  0  0  0
   17.7961  -12.6616   21.3667 C   0  0  0  0  0  0
   10.8155  -11.6286   23.9528 N   0  0  0  0  0  0
   20.0526  -12.6759   20.4639 C   0  0  0  0  0  0
   20.4481  -13.5722   21.4617 C   0  0  0  0  0  0
   16.4812  -12.2543   21.3767 O   0  0  0  0  0  0
   18.7298  -12.2312   20.4171 C   0  0  0  0  0  0
   21.6392  -17.3092   24.0255 Cl  0  0  0  0  0  0
   15.8574  -11.9689   20.1234 C   0  0  0  0  0  0
   13.6129  -12.6555   21.1789 C   0  0  0  0  0  0
   14.2089  -10.2070   20.9765 C   0  0  0  0  0  0
   23.2457  -13.6481   24.5714 C   0  0  0  0  0  0
   14.3794  -11.6035   20.3410 C   0  0  0  0  0  0
   24.0920  -16.2178   23.9208 C   0  0  0  0  0  0
   21.0519  -12.1416   19.4569 C   0  0  0  0  0  0
   24.5944  -13.8933   24.3206 C   0  0  0  0  0  0
   20.8159  -12.6526   18.0289 C   0  0  0  0  0  0
   25.0209  -15.1804   24.0001 C   0  0  0  0  0  0
   11.0670   -9.4625   24.7692 H   0  0  0  0  0  0
   17.5013  -13.8690   23.1141 H   0  0  0  0  0  0
   11.6481  -12.9977   22.0357 H   0  0  0  0  0  0
   11.6160  -12.1462   20.5076 H   0  0  0  0  0  0
   12.6485   -8.8676   21.6733 H   0  0  0  0  0  0
   12.1673   -9.8457   20.3042 H   0  0  0  0  0  0
   10.1927  -11.4583   24.7366 H   0  0  0  0  0  0
   10.6791  -12.5244   23.5024 H   0  0  0  0  0  0
   21.4663  -13.9334   21.5061 H   0  0  0  0  0  0
   18.4515  -11.5286   19.6470 H   0  0  0  0  0  0
   15.9322  -12.8417   19.4712 H   0  0  0  0  0  0
   16.3478  -11.1414   19.6090 H   0  0  0  0  0  0
   14.1043  -12.8217   22.1386 H   0  0  0  0  0  0
   13.6471  -13.6290   20.6877 H   0  0  0  0  0  0
   14.6739   -9.4509   20.3476 H   0  0  0  0  0  0
   14.7443  -10.1305   21.9171 H   0  0  0  0  0  0
   22.9403  -12.6543   24.8561 H   0  0  0  0  0  0
   13.8852  -11.5604   19.3679 H   0  0  0  0  0  0
   24.4257  -17.2155   23.6750 H   0  0  0  0  0  0
   20.9992  -11.0548   19.4800 H   0  0  0  0  0  0
   22.0588  -12.3877   19.7806 H   0  0  0  0  0  0
   25.3153  -13.0902   24.3933 H   0  0  0  0  0  0
   21.5193  -12.2012   17.3289 H   0  0  0  0  0  0
   20.9605  -13.7329   17.9857 H   0  0  0  0  0  0
   19.8072  -12.4303   17.6788 H   0  0  0  0  0  0
   26.0695  -15.3727   23.8249 H   0  0  0  0  0  0
  1  2  1  0  0  0
  1  5  1  0  0  0
  1  7  2  0  0  0
  1  8  2  0  0  0
  2 10  1  0  0  0
  2 24  2  0  0  0
  3  4  1  0  0  0
  3  9  2  0  0  0
  3 15  1  0  0  0
  4 13  1  0  0  0
  4 12  1  0  0  0
  5  6  1  0  0  0
  6 11  2  0  0  0
  6 17  1  0  0  0
  9 31  1  0  0  0
 10 20  1  0  0  0
 10 26  2  0  0  0
 11 14  1  0  0  0
 11 32  1  0  0  0
 12 22  1  0  0  0
 12 33  1  0  0  0
 12 34  1  0  0  0
 13 23  1  0  0  0
 13 35  1  0  0  0
 13 36  1  0  0  0
 14 18  1  0  0  0
 14 19  2  0  0  0
 15 37  1  0  0  0
 15 38  1  0  0  0
 16 17  2  0  0  0
 16 19  1  0  0  0
 16 27  1  0  0  0
 17 39  1  0  0  0
 18 21  1  0  0  0
 19 40  1  0  0  0
 21 25  1  0  0  0
 21 41  1  0  0  0
 21 42  1  0  0  0
 22 25  1  0  0  0
 22 43  1  0  0  0
 22 44  1  0  0  0
 23 25  1  0  0  0
 23 45  1  0  0  0
 23 46  1  0  0  0
 24 28  1  0  0  0
 24 47  1  0  0  0
 25 48  1  0  0  0
 26 30  1  0  0  0
 26 49  1  0  0  0
 27 29  1  0  0  0
 27 50  1  0  0  0
 27 51  1  0  0  0
 28 30  2  0  0  0
 28 52  1  0  0  0
 29 53  1  0  0  0
 29 54  1  0  0  0
 29 55  1  0  0  0
 30 56  1  0  0  0
M  END
> <s_m_entry_id>
35476

> <s_m_entry_name>
dock_pv.326

> <s_m_Source_Path>
/home/csk/Desktop/cluster/DUD-E-result/thrb

> <s_m_Source_File>
dock_pv.maegz

> <i_m_Source_File_Index>
326

> <chembl_id>
CHEMBL352803

> <chembl_pref_name>
None

> <i_lp_mmshare_version>
53161

> <r_lp_tautomer_probability>
1

> <s_lp_Force_Field>
OPLS_2005

> <r_lp_Energy>
23.629307

> <b_lp_Chiralities_Consistent>
1

> <s_lp_Variant>
CHEMBL204_lig3478-1

> <s_i_glide_gridfile>
glide-grid_1ype

> <i_i_glide_lignum>
4842

> <i_i_glide_rotatable_bonds>
8

> <r_i_docking_score>
-7.0198547278111

> <r_i_glide_ligand_efficiency>
-0.233995157593703

> <r_i_glide_ligand_efficiency_sa>
-0.72707735908664

> <r_i_glide_ligand_efficiency_ln>
-1.59498748160211

> <r_i_glide_gscore>
-7.0198547278111

> <r_i_glide_lipo>
-3.47478497512593

> <r_i_glide_hbond>
-0.0827058373140831

> <r_i_glide_metal>
0

> <r_i_glide_rewards>
-0.921931165459781

> <r_i_glide_evdw>
-47.3821830749512

> <r_i_glide_ecoul>
-4.57437944412231

> <r_i_glide_erotb>
0.589245875047809

> <r_i_glide_esite>
-0.0744125545932121

> <r_i_glide_emodel>
-70.8671496637199

> <r_i_glide_energy>
-51.9565625190735

> <r_i_glide_einternal>
5.58173084259033

> <i_i_glide_confnum>
36

> <i_i_glide_posenum>
47

> <r_i_glide_eff_state_penalty>
0

> <s_user_duplicate_titles>
CHEMBL204_lig3478,280044

> <i_f3d_flags>
0

> <s_m_subgroup_title>
dock_pv

> <s_m_subgroupid>
dock_pv

> <b_m_subgroup_collapsed>
1

$$$$
CHEMBL204_lig2224
                    3D
 Schrodinger Suite 2021-1.
 51 55  0  0  1  0            999 V2000
   15.9159  -16.1735   21.3561 N   0  0  0  0  0  0
   14.6586  -16.3857   21.8507 C   0  0  0  0  0  0
   12.5055  -12.7518   20.4817 C   0  0  0  0  0  0
   20.3557  -14.7812   23.4702 C   0  0  0  0  0  0
   11.6171  -12.8583   21.5213 N   0  0  0  0  0  0
   13.0761  -11.4928   20.5470 C   0  0  0  0  0  0
   12.5657  -10.8405   21.7168 C   0  0  0  0  0  0
   13.8123  -14.8337   20.0261 N   0  0  1  0  0  0
   21.3886  -14.0369   24.1070 C   0  0  0  0  0  0
   19.1244  -14.8670   24.1909 C   0  0  0  0  0  0
   11.6490  -11.7458   22.3211 C   0  0  0  0  0  0
   21.2396  -13.4513   25.3147 N   0  0  0  0  0  0
   13.5251  -15.4591   21.3315 C   0  0  0  0  0  0
   18.9607  -14.2672   25.4060 N   0  0  0  0  0  0
   20.4670  -15.4286   22.2076 C   0  0  0  0  0  0
   17.0271  -17.0214   21.8130 C   0  0  0  0  0  0
   20.0274  -13.5923   25.8999 C   0  0  0  0  0  0
   12.7481  -13.9320   19.5577 C   0  0  0  0  0  0
   16.2076  -15.2768   20.2147 C   0  0  0  0  0  0
   18.0468  -15.5961   23.6362 C   0  0  0  0  0  0
   14.4140  -17.2268   22.7203 O   0  0  0  0  0  0
   12.7945   -9.6030   22.3323 C   0  0  0  0  0  0
   18.1836  -16.2239   22.3923 C   0  0  0  0  0  0
   10.9729  -11.4579   23.5083 C   0  0  0  0  0  0
   15.1288  -14.2129   19.9784 C   0  0  0  0  0  0
   22.6396  -13.8529   23.5218 N   0  0  0  0  0  0
   12.1216   -9.3180   23.5211 C   0  0  0  0  0  0
   19.3871  -16.1400   21.6934 C   0  0  0  0  0  0
   11.2294  -10.2208   24.0886 C   0  0  0  0  0  0
   12.4160   -7.8265   24.3215 Cl  0  0  0  0  0  0
   11.0764  -13.6963   21.6926 H   0  0  0  0  0  0
   13.8167  -11.1120   19.8613 H   0  0  0  0  0  0
   13.3544  -14.7209   22.1148 H   0  0  0  0  0  0
   12.6123  -16.0506   21.2608 H   0  0  0  0  0  0
   21.3893  -15.3761   21.6504 H   0  0  0  0  0  0
   16.7225  -17.7587   22.5580 H   0  0  0  0  0  0
   17.3846  -17.5992   20.9593 H   0  0  0  0  0  0
   19.8950  -13.1146   26.8612 H   0  0  0  0  0  0
   11.8347  -14.5089   19.4086 H   0  0  0  0  0  0
   13.0274  -13.5710   18.5666 H   0  0  0  0  0  0
   16.3140  -15.8941   19.3221 H   0  0  0  0  0  0
   17.1578  -14.7606   20.3614 H   0  0  0  0  0  0
   17.1130  -15.6589   24.1792 H   0  0  0  0  0  0
   13.4905   -8.8945   21.9114 H   0  0  0  0  0  0
   10.2664  -12.1452   23.9520 H   0  0  0  0  0  0
   15.2938  -13.6962   19.0309 H   0  0  0  0  0  0
   15.1730  -13.4794   20.7868 H   0  0  0  0  0  0
   22.7811  -14.1358   22.5653 H   0  0  0  0  0  0
   23.3106  -13.2881   24.0188 H   0  0  0  0  0  0
   19.4864  -16.6224   20.7307 H   0  0  0  0  0  0
   10.7174   -9.9601   25.0044 H   0  0  0  0  0  0
  1  2  1  0  0  0
  1 16  1  0  0  0
  1 19  1  0  0  0
  2 13  1  0  0  0
  2 21  2  0  0  0
  3 18  1  0  0  0
  3  5  1  0  0  0
  3  6  2  0  0  0
  4 15  1  0  0  0
  4  9  2  0  0  0
  4 10  1  0  0  0
  5 11  1  0  0  0
  5 31  1  0  0  0
  6  7  1  0  0  0
  6 32  1  0  0  0
  7 22  1  0  0  0
  7 11  2  0  0  0
  8 25  1  0  0  0
  8 18  1  0  0  0
  8 13  1  0  0  0
  9 12  1  0  0  0
  9 26  1  0  0  0
 10 20  1  0  0  0
 10 14  2  0  0  0
 11 24  1  0  0  0
 12 17  2  0  0  0
 13 33  1  0  0  0
 13 34  1  0  0  0
 14 17  1  0  0  0
 15 28  2  0  0  0
 15 35  1  0  0  0
 16 23  1  0  0  0
 16 36  1  0  0  0
 16 37  1  0  0  0
 17 38  1  0  0  0
 18 39  1  0  0  0
 18 40  1  0  0  0
 19 25  1  0  0  0
 19 41  1  0  0  0
 19 42  1  0  0  0
 20 23  2  0  0  0
 20 43  1  0  0  0
 22 27  2  0  0  0
 22 44  1  0  0  0
 23 28  1  0  0  0
 24 29  2  0  0  0
 24 45  1  0  0  0
 25 46  1  0  0  0
 25 47  1  0  0  0
 26 48  1  0  0  0
 26 49  1  0  0  0
 27 30  1  0  0  0
 27 29  1  0  0  0
 28 50  1  0  0  0
 29 51  1  0  0  0
M  END
> <s_m_entry_id>
35477

> <s_m_entry_name>
dock_pv.327

> <s_m_Source_Path>
/home/csk/Desktop/cluster/DUD-E-result/thrb

> <s_m_Source_File>
dock_pv.maegz

> <i_m_Source_File_Index>
327

> <chembl_id>
CHEMBL172928

> <chembl_pref_name>
None

> <i_lp_mmshare_version>
53161

> <r_lp_tautomer_probability>
0.999978000241998

> <s_lp_Force_Field>
OPLS_2005

> <r_lp_Energy>
24.539926

> <b_lp_Chiralities_Consistent>
1

> <s_lp_Variant>
CHEMBL204_lig2224-1

> <s_i_glide_gridfile>
glide-grid_1ype

> <i_i_glide_lignum>
3269

> <i_i_glide_rotatable_bonds>
4

> <r_i_docking_score>
-7.01844959550906

> <r_i_glide_ligand_efficiency>
-0.233948319850302

> <r_i_glide_ligand_efficiency_sa>
-0.726931823328002

> <r_i_glide_ligand_efficiency_ln>
-1.59466822023294

> <r_i_glide_gscore>
-7.01844959550906

> <r_i_glide_lipo>
-2.74533030603755

> <r_i_glide_hbond>
-0.574885965016522

> <r_i_glide_metal>
0

> <r_i_glide_rewards>
-0.982831161953977

> <r_i_glide_evdw>
-46.0300750732422

> <r_i_glide_ecoul>
-5.57284545898438

> <r_i_glide_erotb>
0.446995514493779

> <r_i_glide_esite>
-0.0249671044850258

> <r_i_glide_emodel>
-70.0850411671239

> <r_i_glide_energy>
-51.6029205322266

> <r_i_glide_einternal>
6.8548002243042

> <i_i_glide_confnum>
22

> <i_i_glide_posenum>
315

> <r_i_glide_eff_state_penalty>
0

> <s_user_duplicate_titles>
CHEMBL204_lig2224

> <i_f3d_flags>
0

> <s_m_subgroup_title>
dock_pv

> <s_m_subgroupid>
dock_pv

> <b_m_subgroup_collapsed>
1

$$$$
CHEMBL204_lig1902
                    3D
 Schrodinger Suite 2021-1.
 61 64  0  0  1  0            999 V2000
   20.5791  -14.0267   24.9594 S   0  0  0  0  0  0
   15.8372  -13.6516   21.6006 C   0  0  0  0  0  0
   14.5132  -13.5301   21.2285 N   0  0  0  0  0  0
   16.4658  -14.7977   21.1925 N   0  0  0  0  0  0
   19.8993  -15.1644   23.7840 N   0  0  3  0  0  0
   13.9410  -12.2418   21.4111 C   0  0  0  0  0  0
   11.3554  -10.6530   23.7168 C   0  0  0  0  0  0
   11.2162   -9.5580   24.3208 N   0  0  0  0  0  0
   17.6617  -15.2699   21.9258 C   0  0  0  0  0  0
   20.4155  -12.6701   24.4230 O   0  0  0  0  0  0
   20.0760  -14.3755   26.2955 O   0  0  0  0  0  0
   12.8877  -12.0837   22.3197 C   0  0  0  0  0  0
   12.4000  -10.8166   22.6791 C   0  0  0  0  0  0
   22.3188  -14.4303   24.9210 C   0  0  0  0  0  0
   16.4235  -12.8041   22.2886 O   0  0  0  0  0  0
   20.2088  -15.0417   22.3471 C   0  0  0  0  0  0
   18.7775  -16.0575   24.1251 C   0  0  0  0  0  0
   18.9826  -14.5197   21.5736 C   0  0  0  0  0  0
   17.4914  -15.5500   23.4526 C   0  0  0  0  0  0
   10.5911  -11.7801   23.9211 N   0  0  0  0  0  0
   13.6115  -14.7101   21.1949 C   0  0  0  0  0  0
   16.2365  -15.4002   19.8700 C   0  0  0  0  0  0
   14.4717  -11.1049   20.7826 C   0  0  0  0  0  0
   12.9824   -9.6970   22.0588 C   0  0  0  0  0  0
   14.0028   -9.8388   21.1229 C   0  0  0  0  0  0
   23.1942  -13.6690   24.1445 C   0  0  0  0  0  0
   22.7739  -15.5603   25.6003 C   0  0  0  0  0  0
   13.6918  -15.5470   19.9141 C   0  0  0  0  0  0
   15.0082  -16.3073   19.7726 C   0  0  0  0  0  0
   24.1110  -15.9336   25.4995 C   0  0  0  0  0  0
   24.5321  -14.0368   24.0513 C   0  0  0  0  0  0
   24.9806  -15.1723   24.7212 C   0  0  0  0  0  0
   10.4355   -9.6049   24.9657 H   0  0  0  0  0  0
   17.8318  -16.2768   21.5428 H   0  0  0  0  0  0
   12.5193  -12.9596   22.8332 H   0  0  0  0  0  0
   20.5322  -16.0173   21.9802 H   0  0  0  0  0  0
   21.0498  -14.3580   22.2211 H   0  0  0  0  0  0
   19.0282  -17.0704   23.8054 H   0  0  0  0  0  0
   18.6502  -16.0848   25.2089 H   0  0  0  0  0  0
   19.1821  -14.5865   20.5035 H   0  0  0  0  0  0
   18.8769  -13.4601   21.8121 H   0  0  0  0  0  0
   17.2159  -14.6308   23.9703 H   0  0  0  0  0  0
   16.6837  -16.2611   23.6205 H   0  0  0  0  0  0
    9.7779  -11.7254   24.5339 H   0  0  0  0  0  0
   10.8102  -12.6838   23.5170 H   0  0  0  0  0  0
   13.8328  -15.3393   22.0587 H   0  0  0  0  0  0
   12.5719  -14.4098   21.3134 H   0  0  0  0  0  0
   16.0940  -14.5820   19.1638 H   0  0  0  0  0  0
   17.1392  -15.8993   19.5212 H   0  0  0  0  0  0
   15.2966  -11.1996   20.0911 H   0  0  0  0  0  0
   12.6595   -8.6993   22.3184 H   0  0  0  0  0  0
   14.4629   -8.9541   20.7141 H   0  0  0  0  0  0
   22.8413  -12.8049   23.6005 H   0  0  0  0  0  0
   22.0926  -16.1531   26.1931 H   0  0  0  0  0  0
   12.8783  -16.2735   19.9190 H   0  0  0  0  0  0
   13.5145  -14.9139   19.0442 H   0  0  0  0  0  0
   15.0162  -16.8063   18.8032 H   0  0  0  0  0  0
   15.0766  -17.1023   20.5173 H   0  0  0  0  0  0
   24.4708  -16.8070   26.0240 H   0  0  0  0  0  0
   25.2159  -13.4484   23.4589 H   0  0  0  0  0  0
   26.0162  -15.4618   24.6476 H   0  0  0  0  0  0
  1  5  1  0  0  0
  1 10  2  0  0  0
  1 11  2  0  0  0
  1 14  1  0  0  0
  2  4  1  0  0  0
  2  3  1  0  0  0
  2 15  2  0  0  0
  3  6  1  0  0  0
  3 21  1  0  0  0
  4  9  1  0  0  0
  4 22  1  0  0  0
  5 16  1  0  0  0
  5 17  1  0  0  0
  6 12  2  0  0  0
  6 23  1  0  0  0
  7 13  1  0  0  0
  7  8  2  0  0  0
  7 20  1  0  0  0
  8 33  1  0  0  0
  9 19  1  0  0  0
  9 18  1  0  0  0
  9 34  1  0  0  0
 12 13  1  0  0  0
 12 35  1  0  0  0
 13 24  2  0  0  0
 14 26  2  0  0  0
 14 27  1  0  0  0
 16 18  1  0  0  0
 16 36  1  0  0  0
 16 37  1  0  0  0
 17 19  1  0  0  0
 17 38  1  0  0  0
 17 39  1  0  0  0
 18 40  1  0  0  0
 18 41  1  0  0  0
 19 42  1  0  0  0
 19 43  1  0  0  0
 20 44  1  0  0  0
 20 45  1  0  0  0
 21 28  1  0  0  0
 21 46  1  0  0  0
 21 47  1  0  0  0
 22 29  1  0  0  0
 22 48  1  0  0  0
 22 49  1  0  0  0
 23 25  2  0  0  0
 23 50  1  0  0  0
 24 25  1  0  0  0
 24 51  1  0  0  0
 25 52  1  0  0  0
 26 31  1  0  0  0
 26 53  1  0  0  0
 27 30  2  0  0  0
 27 54  1  0  0  0
 28 29  1  0  0  0
 28 55  1  0  0  0
 28 56  1  0  0  0
 29 57  1  0  0  0
 29 58  1  0  0  0
 30 32  1  0  0  0
 30 59  1  0  0  0
 31 32  2  0  0  0
 31 60  1  0  0  0
 32 61  1  0  0  0
M  END
> <s_m_entry_id>
35478

> <s_m_entry_name>
dock_pv.328

> <s_m_Source_Path>
/home/csk/Desktop/cluster/DUD-E-result/thrb

> <s_m_Source_File>
dock_pv.maegz

> <i_m_Source_File_Index>
328

> <chembl_id>
CHEMBL102502

> <chembl_pref_name>
None

> <i_lp_mmshare_version>
53161

> <r_lp_tautomer_probability>
1

> <s_lp_Force_Field>
OPLS_2005

> <r_lp_Energy>
59.222387

> <b_lp_Chiralities_Consistent>
1

> <s_lp_Variant>
CHEMBL204_lig1902-1

> <s_i_glide_gridfile>
glide-grid_1ype

> <i_i_glide_lignum>
2844

> <i_i_glide_rotatable_bonds>
5

> <r_i_docking_score>
-7.01484413676286

> <r_i_glide_ligand_efficiency>
-0.219213879273839

> <r_i_glide_ligand_efficiency_sa>
-0.69596068432664

> <r_i_glide_ligand_efficiency_ln>
-1.57081481965044

> <r_i_glide_gscore>
-7.01484413676286

> <r_i_glide_lipo>
-2.53157528837576

> <r_i_glide_hbond>
-0.69301949595251

> <r_i_glide_metal>
0

> <r_i_glide_rewards>
-0.551170599414324

> <r_i_glide_evdw>
-45.8072090148926

> <r_i_glide_ecoul>
-8.19913578033447

> <r_i_glide_erotb>
0.387190887612204

> <r_i_glide_esite>
-0.10603882283767

> <r_i_glide_emodel>
-72.8805523185579

> <r_i_glide_energy>
-54.0063447952271

> <r_i_glide_einternal>
6.68609046936035

> <i_i_glide_confnum>
16

> <i_i_glide_posenum>
137

> <r_i_glide_eff_state_penalty>
0

> <s_user_duplicate_titles>
CHEMBL204_lig1902

> <i_f3d_flags>
0

> <s_m_subgroup_title>
dock_pv

> <s_m_subgroupid>
dock_pv

> <b_m_subgroup_collapsed>
1

$$$$
CHEMBL204_lig4395
                    3D
 Schrodinger Suite 2021-1.
 61 63  0  0  1  0            999 V2000
   19.6131  -13.3204   24.0065 C   0  0  0  0  0  0
   18.6732  -14.4932   23.7776 C   0  0  0  0  0  0
   18.6007  -15.5901   24.6231 C   0  0  0  0  0  0
   17.4432  -16.7685   24.1305 S   0  0  0  0  0  0
   16.9597  -15.7826   22.7759 C   0  0  0  0  0  0
   17.7455  -14.6083   22.7175 C   0  0  0  0  0  0
   17.6318  -13.3824   21.5022 Cl  0  0  0  0  0  0
   15.8699  -16.2498   21.9297 C   0  0  0  0  0  0
   15.3433  -15.3124   21.1127 N   0  0  0  0  0  0
   15.4425  -17.4048   22.0111 O   0  0  0  0  0  0
   14.1843  -15.4331   20.3119 C   0  0  0  0  0  0
   13.1870  -14.4248   20.3876 C   0  0  0  0  0  0
   12.0152  -14.5893   19.6365 C   0  0  0  0  0  0
   11.8269  -15.6935   18.8176 C   0  0  0  0  0  0
   12.8324  -16.6410   18.6938 C   0  0  0  0  0  0
   14.0308  -16.5176   19.4150 C   0  0  0  0  0  0
   13.3552  -13.1560   21.2053 C   0  0  0  0  0  0
   14.4690  -12.6355   21.3103 O   0  0  0  0  0  0
   12.2350  -12.6518   21.7752 N   0  0  0  0  0  0
   10.3617  -15.8534   17.9191 Cl  0  0  0  0  0  0
   12.1332  -11.4222   22.4418 C   0  0  0  0  0  0
   12.8898  -10.3601   22.0394 N   0  0  0  0  0  0
   12.8199   -9.2137   22.7556 C   0  0  0  0  0  0
   12.0160   -9.0738   23.8840 C   0  0  0  0  0  0
   11.2158  -10.1521   24.2649 C   0  0  0  0  0  0
   11.2461  -11.3342   23.5207 C   0  0  0  0  0  0
   12.0048   -7.5841   24.7520 Cl  0  0  0  0  0  0
   15.0912  -17.3940   19.2452 O   0  0  0  0  0  0
   14.9653  -18.5009   18.3626 C   0  0  0  0  0  0
   20.9825  -13.5731   23.5285 N   0  0  0  0  0  0
   21.0941  -13.6098   22.0582 C   0  0  0  0  0  0
   21.9913  -13.8528   24.4027 C   0  0  0  0  0  0
   21.8101  -13.9852   25.6161 O   0  0  0  0  0  0
   23.2284  -13.8536   23.8743 N   0  0  0  0  0  0
   24.4586  -13.8817   24.6627 C   0  0  0  0  0  0
   25.1802  -15.2421   24.8134 C   0  0  0  0  0  0
   25.4462  -16.0594   23.5465 C   0  0  0  0  0  0
   26.3451  -15.4529   22.7209 O   0  0  0  0  0  0
   24.8964  -17.1310   23.3156 O   0  0  0  0  0  0
   19.6201  -13.0621   25.0679 H   0  0  0  0  0  0
   19.2474  -12.4169   23.5177 H   0  0  0  0  0  0
   19.1928  -15.7597   25.5106 H   0  0  0  0  0  0
   15.6710  -14.3655   21.2453 H   0  0  0  0  0  0
   11.2267  -13.8505   19.6653 H   0  0  0  0  0  0
   12.6680  -17.4587   18.0100 H   0  0  0  0  0  0
   11.4330  -13.2618   21.8473 H   0  0  0  0  0  0
   13.4541   -8.4045   22.4289 H   0  0  0  0  0  0
   10.5583  -10.0770   25.1189 H   0  0  0  0  0  0
   10.6265  -12.1698   23.8160 H   0  0  0  0  0  0
   15.8893  -19.0789   18.3775 H   0  0  0  0  0  0
   14.1577  -19.1624   18.6756 H   0  0  0  0  0  0
   14.7936  -18.1789   17.3345 H   0  0  0  0  0  0
   22.0945  -13.8241   21.6917 H   0  0  0  0  0  0
   20.4426  -14.3849   21.6528 H   0  0  0  0  0  0
   20.7818  -12.6555   21.6293 H   0  0  0  0  0  0
   23.3171  -13.6585   22.8896 H   0  0  0  0  0  0
   24.5623  -13.1993   25.5088 H   0  0  0  0  0  0
   25.1005  -13.3392   23.9662 H   0  0  0  0  0  0
   24.4982  -15.8443   25.4156 H   0  0  0  0  0  0
   26.0075  -15.2076   25.5211 H   0  0  0  0  0  0
   26.6663  -14.6104   23.0589 H   0  0  0  0  0  0
  1 30  1  0  0  0
  1  2  1  0  0  0
  1 40  1  0  0  0
  1 41  1  0  0  0
  2  3  2  0  0  0
  2  6  1  0  0  0
  3  4  1  0  0  0
  3 42  1  0  0  0
  4  5  1  0  0  0
  5  6  2  0  0  0
  5  8  1  0  0  0
  6  7  1  0  0  0
  8 10  2  0  0  0
  8  9  1  0  0  0
  9 11  1  0  0  0
  9 43  1  0  0  0
 11 12  2  0  0  0
 11 16  1  0  0  0
 12 13  1  0  0  0
 12 17  1  0  0  0
 13 14  2  0  0  0
 13 44  1  0  0  0
 14 15  1  0  0  0
 14 20  1  0  0  0
 15 16  2  0  0  0
 15 45  1  0  0  0
 16 28  1  0  0  0
 17 18  2  0  0  0
 17 19  1  0  0  0
 19 21  1  0  0  0
 19 46  1  0  0  0
 21 22  2  0  0  0
 21 26  1  0  0  0
 22 23  1  0  0  0
 23 24  2  0  0  0
 23 47  1  0  0  0
 24 25  1  0  0  0
 24 27  1  0  0  0
 25 26  2  0  0  0
 25 48  1  0  0  0
 26 49  1  0  0  0
 28 29  1  0  0  0
 29 50  1  0  0  0
 29 51  1  0  0  0
 29 52  1  0  0  0
 30 31  1  0  0  0
 30 32  1  0  0  0
 31 53  1  0  0  0
 31 54  1  0  0  0
 31 55  1  0  0  0
 32 33  2  0  0  0
 32 34  1  0  0  0
 34 35  1  0  0  0
 34 56  1  0  0  0
 35 36  1  0  0  0
 35 57  1  0  0  0
 35 58  1  0  0  0
 36 37  1  0  0  0
 36 59  1  0  0  0
 36 60  1  0  0  0
 37 38  1  0  0  0
 37 39  2  0  0  0
 38 61  1  0  0  0
M  END
> <s_m_entry_id>
35479

> <s_m_entry_name>
dock_pv.329

> <s_m_Source_Path>
/home/csk/Desktop/cluster/DUD-E-result/thrb

> <s_m_Source_File>
dock_pv.maegz

> <i_m_Source_File_Index>
329

> <chembl_id>
CHEMBL390055

> <chembl_pref_name>
None

> <i_lp_mmshare_version>
53161

> <r_lp_tautomer_probability>
1

> <s_lp_Force_Field>
OPLS_2005

> <r_lp_Energy>
42.030355

> <b_lp_Chiralities_Consistent>
1

> <s_lp_Variant>
CHEMBL204_lig4395-1

> <s_i_glide_gridfile>
glide-grid_1ype

> <i_i_glide_lignum>
6055

> <i_i_glide_rotatable_bonds>
15

> <r_i_docking_score>
-7.01378513081461

> <r_i_glide_ligand_efficiency>
-0.179840644379862

> <r_i_glide_ligand_efficiency_sa>
-0.609877650395254

> <r_i_glide_ligand_efficiency_ln>
-1.50395463017744

> <r_i_glide_gscore>
-7.01378513081461

> <r_i_glide_lipo>
-3.0224899941721

> <r_i_glide_hbond>
-0.0547500681659987

> <r_i_glide_metal>
0

> <r_i_glide_rewards>
-0.381629308007597

> <r_i_glide_evdw>
-60.6910514831543

> <r_i_glide_ecoul>
-7.07652568817139

> <r_i_glide_erotb>
0.596502271174713

> <r_i_glide_esite>
-0.055386604260205

> <r_i_glide_emodel>
-89.2021665726246

> <r_i_glide_energy>
-67.7675771713257

> <r_i_glide_einternal>
13.6910781860352

> <i_i_glide_confnum>
128

> <i_i_glide_posenum>
261

> <r_i_glide_eff_state_penalty>
0

> <s_user_duplicate_titles>
CHEMBL204_lig4395

> <i_f3d_flags>
0

> <s_m_subgroup_title>
dock_pv

> <s_m_subgroupid>
dock_pv

> <b_m_subgroup_collapsed>
1

$$$$
CHEMBL204_lig3345
                    3D
 Schrodinger Suite 2021-1.
 25 26  0  0  1  0            999 V2000
   12.3072  -12.5312   21.5908 C   0  0  0  0  0  0
   12.3647  -11.2780   22.2627 C   0  0  0  0  0  0
   13.1102  -14.1757   19.8346 C   0  0  0  0  0  0
   13.1629  -12.8539   20.5242 C   0  0  0  0  0  0
   13.6732  -14.3451   18.7210 N   0  0  0  0  0  0
   11.5265  -10.9492   23.3702 C   0  0  0  0  0  0
   14.0848  -11.8768   20.1190 C   0  0  0  0  0  0
   13.3080  -10.3098   21.8096 C   0  0  0  0  0  0
   14.1657  -10.6338   20.7366 C   0  0  0  0  0  0
   12.4160  -15.1525   20.5074 N   0  0  0  0  0  0
   10.6228  -11.8530   23.9210 N   0  0  0  0  0  0
   12.5317   -8.7554   23.5207 C   0  0  0  0  0  0
   11.6160   -9.6963   23.9667 C   0  0  0  0  0  0
   13.3767   -9.0530   22.4558 C   0  0  0  0  0  0
   11.5662  -13.2424   21.9210 H   0  0  0  0  0  0
   13.5495  -15.2838   18.3729 H   0  0  0  0  0  0
   14.7673  -12.0800   19.3054 H   0  0  0  0  0  0
   14.8961   -9.9104   20.4040 H   0  0  0  0  0  0
   12.3020  -16.0679   20.1011 H   0  0  0  0  0  0
   11.9732  -14.9513   21.3920 H   0  0  0  0  0  0
    9.8786  -11.5142   24.5303 H   0  0  0  0  0  0
   10.5737  -12.8043   23.5695 H   0  0  0  0  0  0
   12.5992   -7.7983   24.0169 H   0  0  0  0  0  0
   10.9703   -9.4516   24.7983 H   0  0  0  0  0  0
   14.1129   -8.3302   22.1369 H   0  0  0  0  0  0
  1  2  1  0  0  0
  1  4  2  0  0  0
  1 15  1  0  0  0
  2  6  2  0  0  0
  2  8  1  0  0  0
  3  4  1  0  0  0
  3  5  2  0  0  0
  3 10  1  0  0  0
  4  7  1  0  0  0
  5 16  1  0  0  0
  6 11  1  0  0  0
  6 13  1  0  0  0
  7  9  2  0  0  0
  7 17  1  0  0  0
  8 14  2  0  0  0
  8  9  1  0  0  0
  9 18  1  0  0  0
 10 19  1  0  0  0
 10 20  1  0  0  0
 11 21  1  0  0  0
 11 22  1  0  0  0
 12 14  1  0  0  0
 12 13  2  0  0  0
 12 23  1  0  0  0
 13 24  1  0  0  0
 14 25  1  0  0  0
M  END
> <s_m_entry_id>
35480

> <s_m_entry_name>
dock_pv.330

> <s_m_Source_Path>
/home/csk/Desktop/cluster/DUD-E-result/thrb

> <s_m_Source_File>
dock_pv.maegz

> <i_m_Source_File_Index>
330

> <chembl_id>
CHEMBL319264

> <chembl_pref_name>
None

> <i_lp_mmshare_version>
53161

> <r_lp_tautomer_probability>
1

> <s_lp_Force_Field>
OPLS_2005

> <r_lp_Energy>
8.9788

> <b_lp_Chiralities_Consistent>
1

> <s_lp_Variant>
CHEMBL204_lig3345-1

> <s_i_glide_gridfile>
glide-grid_1ype

> <i_i_glide_lignum>
4682

> <i_i_glide_rotatable_bonds>
1

> <r_i_docking_score>
-7.01016814870326

> <r_i_glide_ligand_efficiency>
-0.500726296335947

> <r_i_glide_ligand_efficiency_sa>
-1.20682160852157

> <r_i_glide_ligand_efficiency_ln>
-1.92636925273294

> <r_i_glide_gscore>
-7.01016814870326

> <r_i_glide_lipo>
-1.93099090034908

> <r_i_glide_hbond>
-0.456

> <r_i_glide_metal>
0

> <r_i_glide_rewards>
-2.3490088890069

> <r_i_glide_evdw>
-24.0855922698975

> <r_i_glide_ecoul>
-6.59326267242432

> <r_i_glide_erotb>
0

> <r_i_glide_esite>
-0.0808993449887561

> <r_i_glide_emodel>
-44.6980558115332

> <r_i_glide_energy>
-30.6788549423218

> <r_i_glide_einternal>
0.0426839366555214

> <i_i_glide_confnum>
1

> <i_i_glide_posenum>
301

> <r_i_glide_eff_state_penalty>
0

> <s_user_duplicate_titles>
CHEMBL204_lig3345

> <i_f3d_flags>
0

> <s_m_subgroup_title>
dock_pv

> <s_m_subgroupid>
dock_pv

> <b_m_subgroup_collapsed>
1

$$$$
CHEMBL204_lig1919
                    3D
 Schrodinger Suite 2021-1.
 49 52  0  0  1  0            999 V2000
   13.0517   -9.7108   22.1251 C   0  0  0  0  0  0
   14.0175   -9.7886   21.1266 C   0  0  0  0  0  0
   14.3589  -11.0201   20.5798 C   0  0  0  0  0  0
   13.7249  -12.1871   21.0248 C   0  0  0  0  0  0
   12.7251  -12.0902   22.0018 C   0  0  0  0  0  0
   12.3803  -10.8543   22.5936 C   0  0  0  0  0  0
   11.3649  -10.7239   23.6803 C   0  0  0  0  0  0
   11.2162   -9.6467   24.3156 N   0  0  0  0  0  0
   10.6254  -11.8528   23.9210 N   0  0  0  0  0  0
   14.0474  -13.5423   20.3920 C   0  0  0  0  0  0
   15.3263  -11.0530   19.6086 O   0  0  0  0  0  0
   19.8268  -14.6290   25.5566 C   0  0  0  0  0  0
   20.3120  -13.5522   26.3132 C   0  0  0  0  0  0
   21.5886  -13.0909   26.0024 C   0  0  0  0  0  0
   22.3198  -13.7095   24.9909 C   0  0  0  0  0  0
   21.8596  -14.7477   24.2476 N   0  0  0  0  0  0
   20.6307  -15.1976   24.5260 C   0  0  0  0  0  0
   19.9789  -16.2612   23.8475 C   0  0  0  0  0  0
   18.7126  -16.5048   24.3514 C   0  0  0  0  0  0
   18.2787  -15.4490   25.6824 S   0  0  0  0  0  0
   15.2305  -14.2072   20.9564 N   0  0  0  0  0  0
   15.1792  -15.4397   21.5210 C   0  0  0  0  0  0
   16.5379  -15.6104   22.2169 C   0  0  2  0  0  0
   17.4663  -14.6181   21.5495 C   0  0  0  0  0  0
   16.5241  -13.5315   21.0782 C   0  0  0  0  0  0
   17.0358  -17.0093   22.2024 N   0  0  2  0  0  0
   17.5528  -17.7517   23.7168 S   0  0  0  0  0  0
   16.4152  -17.7980   24.6394 O   0  0  0  0  0  0
   18.3405  -18.9457   23.3960 O   0  0  0  0  0  0
   14.2269  -16.2203   21.5713 O   0  0  0  0  0  0
   12.8292   -8.7371   22.5398 H   0  0  0  0  0  0
   14.5129   -8.8864   20.7993 H   0  0  0  0  0  0
   12.2423  -13.0044   22.3197 H   0  0  0  0  0  0
   10.4572   -9.7303   24.9824 H   0  0  0  0  0  0
    9.8178  -11.7897   24.5399 H   0  0  0  0  0  0
   10.8174  -12.7562   23.5044 H   0  0  0  0  0  0
   13.1698  -14.1868   20.4769 H   0  0  0  0  0  0
   14.2071  -13.3998   19.3225 H   0  0  0  0  0  0
   15.5768  -10.1671   19.3194 H   0  0  0  0  0  0
   19.7225  -13.0941   27.0969 H   0  0  0  0  0  0
   22.0073  -12.2554   26.5437 H   0  0  0  0  0  0
   23.3142  -13.3603   24.7511 H   0  0  0  0  0  0
   20.4267  -16.8085   23.0321 H   0  0  0  0  0  0
   16.4161  -15.3532   23.2677 H   0  0  0  0  0  0
   17.9745  -15.0726   20.6964 H   0  0  0  0  0  0
   18.2331  -14.2271   22.2197 H   0  0  0  0  0  0
   16.8450  -13.1053   20.1270 H   0  0  0  0  0  0
   16.4517  -12.7246   21.8092 H   0  0  0  0  0  0
   17.6688  -17.2066   21.4242 H   0  0  0  0  0  0
  1  2  2  0  0  0
  1  6  1  0  0  0
  1 31  1  0  0  0
  2  3  1  0  0  0
  2 32  1  0  0  0
  3  4  2  0  0  0
  3 11  1  0  0  0
  4  5  1  0  0  0
  4 10  1  0  0  0
  5  6  2  0  0  0
  5 33  1  0  0  0
  6  7  1  0  0  0
  7  8  2  0  0  0
  7  9  1  0  0  0
  8 34  1  0  0  0
  9 35  1  0  0  0
  9 36  1  0  0  0
 10 21  1  0  0  0
 10 37  1  0  0  0
 10 38  1  0  0  0
 11 39  1  0  0  0
 12 13  1  0  0  0
 12 17  2  0  0  0
 12 20  1  0  0  0
 13 14  2  0  0  0
 13 40  1  0  0  0
 14 15  1  0  0  0
 14 41  1  0  0  0
 15 16  2  0  0  0
 15 42  1  0  0  0
 16 17  1  0  0  0
 17 18  1  0  0  0
 18 19  2  0  0  0
 18 43  1  0  0  0
 19 20  1  0  0  0
 19 27  1  0  0  0
 21 22  1  0  0  0
 21 25  1  0  0  0
 22 23  1  0  0  0
 22 30  2  0  0  0
 23 24  1  0  0  0
 23 26  1  0  0  0
 23 44  1  0  0  0
 24 25  1  0  0  0
 24 45  1  0  0  0
 24 46  1  0  0  0
 25 47  1  0  0  0
 25 48  1  0  0  0
 26 27  1  0  0  0
 26 49  1  0  0  0
 27 28  2  0  0  0
 27 29  2  0  0  0
M  END
> <s_m_entry_id>
35481

> <s_m_entry_name>
dock_pv.331

> <s_m_Source_Path>
/home/csk/Desktop/cluster/DUD-E-result/thrb

> <s_m_Source_File>
dock_pv.maegz

> <i_m_Source_File_Index>
331

> <chembl_id>
CHEMBL330572

> <chembl_pref_name>
None

> <i_lp_mmshare_version>
53161

> <r_lp_tautomer_probability>
1

> <s_lp_Force_Field>
OPLS_2005

> <r_lp_Energy>
8.348721

> <b_lp_Chiralities_Consistent>
1

> <s_lp_Variant>
CHEMBL204_lig1919-1

> <s_i_glide_gridfile>
glide-grid_1ype

> <i_i_glide_lignum>
2863

> <i_i_glide_rotatable_bonds>
7

> <r_i_docking_score>
-7.00929445519942

> <r_i_glide_ligand_efficiency>
-0.233643148506647

> <r_i_glide_ligand_efficiency_sa>
-0.725983585010188

> <r_i_glide_ligand_efficiency_ln>
-1.59258807260134

> <r_i_glide_gscore>
-7.00929445519942

> <r_i_glide_lipo>
-3.13776158636431

> <r_i_glide_hbond>
-0.865696069544749

> <r_i_glide_metal>
0

> <r_i_glide_rewards>
0.254339811949429

> <r_i_glide_evdw>
-39.552433013916

> <r_i_glide_ecoul>
-11.033091545105

> <r_i_glide_erotb>
0.504037743585615

> <r_i_glide_esite>
-0.131628972363855

> <r_i_glide_emodel>
-67.2697330723418

> <r_i_glide_energy>
-50.585524559021

> <r_i_glide_einternal>
5.0175986289978

> <i_i_glide_confnum>
77

> <i_i_glide_posenum>
235

> <r_i_glide_eff_state_penalty>
0

> <s_user_duplicate_titles>
CHEMBL204_lig1919

> <i_f3d_flags>
0

> <s_m_subgroup_title>
dock_pv

> <s_m_subgroupid>
dock_pv

> <b_m_subgroup_collapsed>
1

$$$$
CHEMBL204_lig535
                    3D
 Schrodinger Suite 2021-1.
 67 70  0  0  1  0            999 V2000
   16.9203  -12.1042   17.6551 N   0  0  0  0  0  0
   15.5446  -12.1003   17.7193 C   0  0  0  0  0  0
   15.7358  -13.1023   19.9725 N   0  0  0  0  0  0
   15.0298  -12.6717   18.9933 C   0  0  0  0  0  0
   19.4310  -14.0166   23.4717 C   0  0  0  0  0  0
   17.1329  -13.0318   19.8754 C   0  0  0  0  0  0
   18.5557  -14.8723   24.0843 N   0  0  0  0  0  0
   17.7727  -12.5344   18.7249 C   0  0  0  0  0  0
   20.0852  -14.2615   22.0469 C   0  0  0  0  0  0
   19.2710  -13.5541   20.9182 C   0  0  0  0  0  0
   17.8676  -13.5097   20.9551 C   0  0  0  0  0  0
   11.6347   -9.8530   23.9075 C   0  0  0  0  0  0
   19.1700  -12.5234   18.6965 C   0  0  0  0  0  0
   13.5127  -12.7457   19.1935 C   0  0  0  0  0  0
   17.7121  -15.8827   23.4160 C   0  0  0  0  0  0
   14.8161  -11.6642   16.8227 O   0  0  0  0  0  0
   12.0739  -10.5758   22.6802 C   0  0  0  0  0  0
   12.0160   -8.6750   24.1484 N   0  0  0  0  0  0
   19.8083  -13.0120   24.0809 O   0  0  0  0  0  0
   19.8993  -13.0470   19.7630 C   0  0  0  0  0  0
   11.6155  -11.8701   22.3693 C   0  0  0  0  0  0
   12.9841   -9.9828   21.7886 C   0  0  0  0  0  0
   10.8160  -10.5872   24.7207 N   0  0  0  0  0  0
   12.9913  -11.9619   20.3981 C   0  0  0  0  0  0
   17.5427  -11.6641   16.3946 C   0  0  0  0  0  0
   18.1677  -14.6547   25.4979 C   0  0  0  0  0  0
   13.4335  -10.6630   20.6623 C   0  0  0  0  0  0
   12.0657  -12.5556   21.2497 C   0  0  0  0  0  0
   21.5471  -13.7184   22.1134 C   0  0  0  0  0  0
   20.2474  -15.7645   21.6601 C   0  0  0  0  0  0
   17.9756  -17.2506   24.0882 C   0  0  1  0  0  0
   18.4292  -15.9794   26.2500 C   0  0  0  0  0  0
   17.6884  -17.1631   25.6035 C   0  0  0  0  0  0
   17.1528  -18.3622   23.4194 C   0  0  0  0  0  0
   17.3174  -13.8744   21.8064 H   0  0  0  0  0  0
   19.7148  -12.1568   17.8412 H   0  0  0  0  0  0
   12.9624  -12.4096   18.3225 H   0  0  0  0  0  0
   13.2348  -13.7959   19.2978 H   0  0  0  0  0  0
   17.7840  -15.9021   22.3360 H   0  0  0  0  0  0
   16.6694  -15.6066   23.5817 H   0  0  0  0  0  0
   11.6409   -8.3400   25.0222 H   0  0  0  0  0  0
   20.9684  -13.0609   19.6367 H   0  0  0  0  0  0
   10.9006  -12.3835   22.9956 H   0  0  0  0  0  0
   13.3710   -8.9913   21.9765 H   0  0  0  0  0  0
   10.2250  -10.0909   25.3815 H   0  0  0  0  0  0
   10.3899  -11.4310   24.3667 H   0  0  0  0  0  0
   16.8729  -11.7721   15.5397 H   0  0  0  0  0  0
   17.8260  -10.6163   16.4583 H   0  0  0  0  0  0
   18.4256  -12.2530   16.1560 H   0  0  0  0  0  0
   17.1050  -14.4133   25.5196 H   0  0  0  0  0  0
   18.6977  -13.8329   25.9818 H   0  0  0  0  0  0
   14.1549  -10.1929   20.0129 H   0  0  0  0  0  0
   11.6969  -13.5538   21.0611 H   0  0  0  0  0  0
   21.6122  -12.6536   22.3389 H   0  0  0  0  0  0
   22.1454  -14.2433   22.8606 H   0  0  0  0  0  0
   22.0376  -13.8533   21.1559 H   0  0  0  0  0  0
   19.3643  -16.2095   21.2087 H   0  0  0  0  0  0
   21.0190  -15.8946   20.8991 H   0  0  0  0  0  0
   20.5515  -16.3773   22.5100 H   0  0  0  0  0  0
   19.0346  -17.4817   23.9623 H   0  0  0  0  0  0
   18.1166  -15.8731   27.2899 H   0  0  0  0  0  0
   19.5020  -16.1757   26.2838 H   0  0  0  0  0  0
   16.6159  -17.0231   25.7548 H   0  0  0  0  0  0
   17.9239  -18.1059   26.1004 H   0  0  0  0  0  0
   16.0818  -18.1685   23.4928 H   0  0  0  0  0  0
   17.3493  -19.3253   23.8878 H   0  0  0  0  0  0
   17.4000  -18.4563   22.3610 H   0  0  0  0  0  0
  1  2  1  0  0  0
  1  8  1  0  0  0
  1 25  1  0  0  0
  2  4  1  0  0  0
  2 16  2  0  0  0
  3  6  1  0  0  0
  3  4  2  0  0  0
  4 14  1  0  0  0
  5  9  1  0  0  0
  5  7  1  0  0  0
  5 19  2  0  0  0
  6  8  1  0  0  0
  6 11  2  0  0  0
  7 15  1  0  0  0
  7 26  1  0  0  0
  8 13  2  0  0  0
  9 10  1  0  0  0
  9 29  1  0  0  0
  9 30  1  0  0  0
 10 20  2  0  0  0
 10 11  1  0  0  0
 11 35  1  0  0  0
 12 17  1  0  0  0
 12 18  2  0  0  0
 12 23  1  0  0  0
 13 20  1  0  0  0
 13 36  1  0  0  0
 14 24  1  0  0  0
 14 37  1  0  0  0
 14 38  1  0  0  0
 15 31  1  0  0  0
 15 39  1  0  0  0
 15 40  1  0  0  0
 17 21  2  0  0  0
 17 22  1  0  0  0
 18 41  1  0  0  0
 20 42  1  0  0  0
 21 28  1  0  0  0
 21 43  1  0  0  0
 22 27  2  0  0  0
 22 44  1  0  0  0
 23 45  1  0  0  0
 23 46  1  0  0  0
 24 27  1  0  0  0
 24 28  2  0  0  0
 25 47  1  0  0  0
 25 48  1  0  0  0
 25 49  1  0  0  0
 26 32  1  0  0  0
 26 50  1  0  0  0
 26 51  1  0  0  0
 27 52  1  0  0  0
 28 53  1  0  0  0
 29 54  1  0  0  0
 29 55  1  0  0  0
 29 56  1  0  0  0
 30 57  1  0  0  0
 30 58  1  0  0  0
 30 59  1  0  0  0
 31 34  1  0  0  0
 31 33  1  0  0  0
 31 60  1  0  0  0
 32 33  1  0  0  0
 32 61  1  0  0  0
 32 62  1  0  0  0
 33 63  1  0  0  0
 33 64  1  0  0  0
 34 65  1  0  0  0
 34 66  1  0  0  0
 34 67  1  0  0  0
M  END
> <s_m_entry_id>
35482

> <s_m_entry_name>
dock_pv.332

> <s_m_Source_Path>
/home/csk/Desktop/cluster/DUD-E-result/thrb

> <s_m_Source_File>
dock_pv.maegz

> <i_m_Source_File_Index>
332

> <chembl_id>
CHEMBL73313

> <chembl_pref_name>
None

> <i_lp_mmshare_version>
53161

> <r_lp_tautomer_probability>
1

> <s_lp_Force_Field>
OPLS_2005

> <r_lp_Energy>
56.723732

> <b_lp_Chiralities_Consistent>
1

> <s_lp_Variant>
CHEMBL204_lig535-1

> <s_i_glide_gridfile>
glide-grid_1ype

> <i_i_glide_lignum>
738

> <i_i_glide_rotatable_bonds>
6

> <r_i_docking_score>
-7.00654016384628

> <r_i_glide_ligand_efficiency>
-0.206074710701361

> <r_i_glide_ligand_efficiency_sa>
-0.667602063948238

> <r_i_glide_ligand_efficiency_ln>
-1.54794124898843

> <r_i_glide_gscore>
-7.00654016384628

> <r_i_glide_lipo>
-3.18434615563608

> <r_i_glide_hbond>
-0.125161664723086

> <r_i_glide_metal>
0

> <r_i_glide_rewards>
-1.00486899195777

> <r_i_glide_evdw>
-48.1518287658691

> <r_i_glide_ecoul>
-4.49552965164185

> <r_i_glide_erotb>
0.476329240099616

> <r_i_glide_esite>
-0.0865717055892263

> <r_i_glide_emodel>
-68.9665562525276

> <r_i_glide_energy>
-52.647358417511

> <r_i_glide_einternal>
4.06367683410645

> <i_i_glide_confnum>
1

> <i_i_glide_posenum>
80

> <r_i_glide_eff_state_penalty>
0

> <s_user_duplicate_titles>
CHEMBL204_lig535,119151

> <i_f3d_flags>
0

> <s_m_subgroup_title>
dock_pv

> <s_m_subgroupid>
dock_pv

> <b_m_subgroup_collapsed>
1

$$$$
CHEMBL204_lig3494
                    3D
 Schrodinger Suite 2021-1.
 52 55  0  0  1  0            999 V2000
   17.6898  -16.7528   22.1615 S   0  0  0  0  0  0
   13.6612  -14.4637   20.3600 N   0  0  0  0  0  0
   14.9909  -14.6668   20.5100 C   0  0  0  0  0  0
   15.1160  -15.9713   21.3033 C   0  0  1  0  0  0
   16.1934  -15.8437   22.3186 N   0  0  1  0  0  0
   18.9815  -15.5165   22.4105 C   0  0  0  0  0  0
   11.2963  -10.7175   23.6553 C   0  0  0  0  0  0
   19.2990  -14.9668   23.6979 C   0  0  0  0  0  0
   17.7460  -17.6977   23.2818 O   0  0  0  0  0  0
   17.8074  -17.2380   20.7803 O   0  0  0  0  0  0
   13.7356  -16.2452   21.8768 C   0  0  0  0  0  0
   13.1287  -13.2837   19.6780 C   0  0  0  0  0  0
   12.2183  -10.8270   22.4893 C   0  0  0  0  0  0
   12.8008  -15.4798   20.9617 C   0  0  0  0  0  0
   11.2161   -9.6526   24.3210 N   0  0  0  0  0  0
   15.9199  -13.9822   20.0755 O   0  0  0  0  0  0
   12.2393  -11.9548   21.6443 C   0  0  0  0  0  0
   13.1227  -12.0470   20.5652 C   0  0  0  0  0  0
   20.4104  -14.0659   23.8057 C   0  0  0  0  0  0
   10.5602  -11.8467   23.9210 N   0  0  0  0  0  0
   19.7514  -15.1546   21.3016 C   0  0  0  0  0  0
   13.1159   -9.7839   22.1898 C   0  0  0  0  0  0
   18.5612  -15.2523   24.8835 C   0  0  0  0  0  0
   20.8161  -14.2723   21.4186 C   0  0  0  0  0  0
   14.0053   -9.8699   21.1212 C   0  0  0  0  0  0
   14.0089  -11.0001   20.3101 C   0  0  0  0  0  0
   21.1565  -13.7354   22.6522 C   0  0  0  0  0  0
   20.7537  -13.5201   25.0683 C   0  0  0  0  0  0
   18.9283  -14.7015   26.1065 C   0  0  0  0  0  0
   20.0170  -13.8463   26.2003 C   0  0  0  0  0  0
   15.4087  -16.7713   20.6229 H   0  0  0  0  0  0
   15.8254  -15.8365   23.2746 H   0  0  0  0  0  0
   13.6519  -15.8527   22.8898 H   0  0  0  0  0  0
   13.4875  -17.3069   21.9133 H   0  0  0  0  0  0
   12.1099  -13.4806   19.3393 H   0  0  0  0  0  0
   13.7135  -13.0818   18.7786 H   0  0  0  0  0  0
   11.9762  -15.0331   21.5162 H   0  0  0  0  0  0
   12.3830  -16.1244   20.1865 H   0  0  0  0  0  0
   10.5028   -9.7358   25.0375 H   0  0  0  0  0  0
   11.5634  -12.7817   21.8120 H   0  0  0  0  0  0
    9.7825  -11.7930   24.5798 H   0  0  0  0  0  0
   10.7691  -12.7541   23.5209 H   0  0  0  0  0  0
   19.5361  -15.5623   20.3242 H   0  0  0  0  0  0
   13.1471   -8.8957   22.8048 H   0  0  0  0  0  0
   17.6957  -15.8939   24.8512 H   0  0  0  0  0  0
   21.3954  -14.0185   20.5421 H   0  0  0  0  0  0
   14.6976   -9.0637   20.9283 H   0  0  0  0  0  0
   14.7100  -11.0674   19.4900 H   0  0  0  0  0  0
   21.9933  -13.0564   22.7311 H   0  0  0  0  0  0
   21.5933  -12.8450   25.1536 H   0  0  0  0  0  0
   18.3582  -14.9343   26.9938 H   0  0  0  0  0  0
   20.2847  -13.4206   27.1567 H   0  0  0  0  0  0
  1  5  1  0  0  0
  1  6  1  0  0  0
  1  9  2  0  0  0
  1 10  2  0  0  0
  2  3  1  0  0  0
  2 12  1  0  0  0
  2 14  1  0  0  0
  3  4  1  0  0  0
  3 16  2  0  0  0
  4  5  1  0  0  0
  4 11  1  0  0  0
  4 31  1  0  0  0
  5 32  1  0  0  0
  6  8  1  0  0  0
  6 21  2  0  0  0
  7 13  1  0  0  0
  7 15  2  0  0  0
  7 20  1  0  0  0
  8 19  2  0  0  0
  8 23  1  0  0  0
 11 14  1  0  0  0
 11 33  1  0  0  0
 11 34  1  0  0  0
 12 18  1  0  0  0
 12 35  1  0  0  0
 12 36  1  0  0  0
 13 17  2  0  0  0
 13 22  1  0  0  0
 14 37  1  0  0  0
 14 38  1  0  0  0
 15 39  1  0  0  0
 17 18  1  0  0  0
 17 40  1  0  0  0
 18 26  2  0  0  0
 19 28  1  0  0  0
 19 27  1  0  0  0
 20 41  1  0  0  0
 20 42  1  0  0  0
 21 24  1  0  0  0
 21 43  1  0  0  0
 22 25  2  0  0  0
 22 44  1  0  0  0
 23 29  2  0  0  0
 23 45  1  0  0  0
 24 27  2  0  0  0
 24 46  1  0  0  0
 25 26  1  0  0  0
 25 47  1  0  0  0
 26 48  1  0  0  0
 27 49  1  0  0  0
 28 30  2  0  0  0
 28 50  1  0  0  0
 29 30  1  0  0  0
 29 51  1  0  0  0
 30 52  1  0  0  0
M  END
> <s_m_entry_id>
35483

> <s_m_entry_name>
dock_pv.333

> <s_m_Source_Path>
/home/csk/Desktop/cluster/DUD-E-result/thrb

> <s_m_Source_File>
dock_pv.maegz

> <i_m_Source_File_Index>
333

> <chembl_id>
CHEMBL331648

> <chembl_pref_name>
None

> <i_lp_mmshare_version>
53161

> <r_lp_tautomer_probability>
1

> <s_lp_Force_Field>
OPLS_2005

> <r_lp_Energy>
20.210891

> <b_lp_Chiralities_Consistent>
1

> <s_lp_Variant>
CHEMBL204_lig3494-1

> <s_i_glide_gridfile>
glide-grid_1ype

> <i_i_glide_lignum>
4866

> <i_i_glide_rotatable_bonds>
6

> <r_i_docking_score>
-7.00546039757026

> <r_i_glide_ligand_efficiency>
-0.233515346585675

> <r_i_glide_ligand_efficiency_sa>
-0.725586474727471

> <r_i_glide_ligand_efficiency_ln>
-1.5917169329326

> <r_i_glide_gscore>
-7.00546039757026

> <r_i_glide_lipo>
-3.43695351630345

> <r_i_glide_hbond>
-0.696754372784265

> <r_i_glide_metal>
0

> <r_i_glide_rewards>
0.120664891335868

> <r_i_glide_evdw>
-41.7486305236816

> <r_i_glide_ecoul>
-8.78610706329346

> <r_i_glide_erotb>
0.554908110914797

> <r_i_glide_esite>
-0.141977925055105

> <r_i_glide_emodel>
-67.4841471158949

> <r_i_glide_energy>
-50.5347375869751

> <r_i_glide_einternal>
5.06654834747314

> <i_i_glide_confnum>
19

> <i_i_glide_posenum>
336

> <r_i_glide_eff_state_penalty>
0

> <s_user_duplicate_titles>
CHEMBL204_lig3494

> <i_f3d_flags>
0

> <s_m_subgroup_title>
dock_pv

> <s_m_subgroupid>
dock_pv

> <b_m_subgroup_collapsed>
1

$$$$
CHEMBL204_lig4652
                    3D
 Schrodinger Suite 2021-1.
 70 73  0  0  1  0            999 V2000
   18.0755  -12.9209   21.0424 C   0  0  0  0  0  0
   18.0937  -11.8201   20.1841 C   0  0  0  0  0  0
   17.3983  -11.8537   18.9744 C   0  0  0  0  0  0
   17.2946  -14.0377   20.7102 C   0  0  0  0  0  0
   16.5832  -14.0594   19.5095 C   0  0  0  0  0  0
   16.6499  -12.9792   18.6077 C   0  0  0  0  0  0
   15.9888  -13.0792   17.3807 N   0  0  0  0  0  0
   15.1083  -14.2304   17.1297 C   0  0  0  0  0  0
   14.7056  -15.0296   18.4064 C   0  0  2  0  0  0
   15.8604  -15.2077   19.2451 O   0  0  0  0  0  0
   14.2986  -16.4577   17.9898 C   0  0  0  0  0  0
   13.5677  -14.3191   19.1977 C   0  0  0  0  0  0
   13.7920  -12.9126   19.2952 O   0  0  0  0  0  0
   13.2587  -12.1999   20.3425 C   0  0  0  0  0  0
   12.2257  -12.6599   21.1637 C   0  0  0  0  0  0
   11.7659  -11.8692   22.2102 C   0  0  0  0  0  0
   12.3215  -10.6025   22.4732 C   0  0  0  0  0  0
   13.3454  -10.1536   21.6198 C   0  0  0  0  0  0
   13.8040  -10.9412   20.5706 C   0  0  0  0  0  0
   11.8660   -9.7587   23.6132 C   0  0  0  0  0  0
   12.4160   -8.6526   23.8718 N   0  0  0  0  0  0
   10.8160  -10.2857   24.3210 N   0  0  0  0  0  0
   15.7319  -12.0138   16.4153 C   0  0  0  0  0  0
   18.8140  -12.8241   22.2339 N   0  0  0  0  0  0
   19.4176  -13.8229   22.9144 C   0  0  0  0  0  0
   20.0510  -13.4414   24.2774 C   0  0  2  0  0  0
   19.4702  -14.9852   22.5143 O   0  0  0  0  0  0
   21.6170  -13.4531   24.2485 C   0  0  0  0  0  0
   19.4616  -14.1509   25.5223 C   0  0  0  0  0  0
   22.3217  -14.7868   24.5096 C   0  0  0  0  0  0
   22.3689  -15.7718   23.5210 C   0  0  0  0  0  0
   23.0288  -16.9750   23.7604 C   0  0  0  0  0  0
   23.6511  -17.1904   24.9882 C   0  0  0  0  0  0
   23.6158  -16.2115   25.9765 C   0  0  0  0  0  0
   22.9544  -15.0102   25.7374 C   0  0  0  0  0  0
   18.3371  -14.8680   25.2844 O   0  0  0  0  0  0
   20.0029  -14.0299   26.6233 O   0  0  0  0  0  0
   17.7274  -15.6316   26.3079 C   0  0  0  0  0  0
   18.6643  -10.9381   20.4418 H   0  0  0  0  0  0
   17.4530  -10.9997   18.3222 H   0  0  0  0  0  0
   17.2286  -14.8870   21.3728 H   0  0  0  0  0  0
   15.8433  -14.9263   16.7225 H   0  0  0  0  0  0
   14.3471  -14.1157   16.3558 H   0  0  0  0  0  0
   13.4507  -16.4471   17.3030 H   0  0  0  0  0  0
   15.1179  -16.9797   17.4946 H   0  0  0  0  0  0
   14.0178  -17.0566   18.8560 H   0  0  0  0  0  0
   12.6007  -14.4817   18.7205 H   0  0  0  0  0  0
   13.5171  -14.7805   20.1854 H   0  0  0  0  0  0
   11.7654  -13.6227   21.0058 H   0  0  0  0  0  0
   10.9704  -12.2782   22.8176 H   0  0  0  0  0  0
   13.8067   -9.1863   21.7731 H   0  0  0  0  0  0
   14.6070  -10.5872   19.9408 H   0  0  0  0  0  0
   11.9954   -8.2110   24.6748 H   0  0  0  0  0  0
   10.3038   -9.7370   25.0032 H   0  0  0  0  0  0
   10.3079  -11.0771   23.9558 H   0  0  0  0  0  0
   16.4594  -11.2076   16.4766 H   0  0  0  0  0  0
   15.7689  -12.4008   15.3955 H   0  0  0  0  0  0
   14.7411  -11.5859   16.5816 H   0  0  0  0  0  0
   18.9513  -11.8876   22.5779 H   0  0  0  0  0  0
   19.7800  -12.4007   24.4571 H   0  0  0  0  0  0
   21.9722  -12.7476   25.0028 H   0  0  0  0  0  0
   21.9920  -13.0533   23.3031 H   0  0  0  0  0  0
   21.9078  -15.6074   22.5586 H   0  0  0  0  0  0
   23.0639  -17.7330   22.9919 H   0  0  0  0  0  0
   24.1661  -18.1222   25.1718 H   0  0  0  0  0  0
   24.1068  -16.3751   26.9257 H   0  0  0  0  0  0
   22.9383  -14.2557   26.5117 H   0  0  0  0  0  0
   16.7991  -16.0538   25.9200 H   0  0  0  0  0  0
   18.3758  -16.4542   26.6191 H   0  0  0  0  0  0
   17.4968  -15.0216   27.1831 H   0  0  0  0  0  0
  1 24  1  0  0  0
  1  2  2  0  0  0
  1  4  1  0  0  0
  2  3  1  0  0  0
  2 39  1  0  0  0
  3  6  2  0  0  0
  3 40  1  0  0  0
  4  5  2  0  0  0
  4 41  1  0  0  0
  5  6  1  0  0  0
  5 10  1  0  0  0
  6  7  1  0  0  0
  7  8  1  0  0  0
  7 23  1  0  0  0
  8  9  1  0  0  0
  8 42  1  0  0  0
  8 43  1  0  0  0
  9 10  1  0  0  0
  9 11  1  0  0  0
  9 12  1  0  0  0
 11 44  1  0  0  0
 11 45  1  0  0  0
 11 46  1  0  0  0
 12 13  1  0  0  0
 12 47  1  0  0  0
 12 48  1  0  0  0
 13 14  1  0  0  0
 14 19  1  0  0  0
 14 15  2  0  0  0
 15 16  1  0  0  0
 15 49  1  0  0  0
 16 17  2  0  0  0
 16 50  1  0  0  0
 17 20  1  0  0  0
 17 18  1  0  0  0
 18 19  2  0  0  0
 18 51  1  0  0  0
 19 52  1  0  0  0
 20 21  2  0  0  0
 20 22  1  0  0  0
 21 53  1  0  0  0
 22 54  1  0  0  0
 22 55  1  0  0  0
 23 56  1  0  0  0
 23 57  1  0  0  0
 23 58  1  0  0  0
 24 25  1  0  0  0
 24 59  1  0  0  0
 25 26  1  0  0  0
 25 27  2  0  0  0
 26 28  1  0  0  0
 26 29  1  0  0  0
 26 60  1  0  0  0
 28 30  1  0  0  0
 28 61  1  0  0  0
 28 62  1  0  0  0
 29 36  1  0  0  0
 29 37  2  0  0  0
 30 31  2  0  0  0
 30 35  1  0  0  0
 31 32  1  0  0  0
 31 63  1  0  0  0
 32 33  2  0  0  0
 32 64  1  0  0  0
 33 34  1  0  0  0
 33 65  1  0  0  0
 34 35  2  0  0  0
 34 66  1  0  0  0
 35 67  1  0  0  0
 36 38  1  0  0  0
 38 68  1  0  0  0
 38 69  1  0  0  0
 38 70  1  0  0  0
M  END
> <s_m_entry_id>
35484

> <s_m_entry_name>
dock_pv.334

> <s_m_Source_Path>
/home/csk/Desktop/cluster/DUD-E-result/thrb

> <s_m_Source_File>
dock_pv.maegz

> <i_m_Source_File_Index>
334

> <chembl_id>
CHEMBL459524

> <chembl_pref_name>
None

> <i_lp_mmshare_version>
53161

> <r_lp_tautomer_probability>
1

> <s_lp_Force_Field>
OPLS_2005

> <r_lp_Energy>
31.373996

> <b_lp_Chiralities_Consistent>
1

> <s_lp_Variant>
CHEMBL204_lig4652-1

> <s_i_glide_gridfile>
glide-grid_1ype

> <i_i_glide_lignum>
6365

> <i_i_glide_rotatable_bonds>
11

> <r_i_docking_score>
-7.0050217819957

> <r_i_glide_ligand_efficiency>
-0.184342678473571

> <r_i_glide_ligand_efficiency_sa>
-0.619755550700124

> <r_i_glide_ligand_efficiency_ln>
-1.51048876306138

> <r_i_glide_gscore>
-7.0050217819957

> <r_i_glide_lipo>
-3.04196988360252

> <r_i_glide_hbond>
-0.116057159898039

> <r_i_glide_metal>
0

> <r_i_glide_rewards>
-0.978876468536831

> <r_i_glide_evdw>
-52.5518798828125

> <r_i_glide_ecoul>
-5.20944118499756

> <r_i_glide_erotb>
0.615341791236388

> <r_i_glide_esite>
-0.0744498893044494

> <r_i_glide_emodel>
-78.3997328200851

> <r_i_glide_energy>
-57.7613210678101

> <r_i_glide_einternal>
8.28782081604004

> <i_i_glide_confnum>
9

> <i_i_glide_posenum>
272

> <r_i_glide_eff_state_penalty>
0

> <s_user_duplicate_titles>
CHEMBL204_lig4652

> <i_f3d_flags>
0

> <s_m_subgroup_title>
dock_pv

> <s_m_subgroupid>
dock_pv

> <b_m_subgroup_collapsed>
1

$$$$
CHEMBL204_lig3861
                    3D
 Schrodinger Suite 2021-1.
 70 74  0  0  1  0            999 V2000
   18.3173  -15.3136   22.2386 N   0  0  0  0  0  0
   18.8328  -13.4711   21.3088 N   0  0  0  0  0  0
   17.9671  -14.0121   22.1786 C   0  0  0  0  0  0
   19.2439  -15.6496   21.3274 C   0  0  0  0  0  0
   19.5188  -14.5149   20.6770 N   0  0  0  0  0  0
   17.9848  -16.2419   23.3538 C   0  0  1  0  0  0
   18.6235  -12.2332   20.4936 C   0  0  2  0  0  0
   18.3224  -15.7018   24.7871 C   0  0  0  0  0  0
   17.3050  -12.1718   19.6870 C   0  0  0  0  0  0
   19.4117  -14.9254   25.0414 N   0  0  0  0  0  0
   16.1132  -12.6392   14.2053 N   0  0  0  0  0  0
   16.5222  -16.7351   23.1921 C   0  0  0  0  0  0
   16.0166  -13.2842   15.4004 C   0  0  0  0  0  0
   19.7334  -16.7606   21.1214 O   0  0  0  0  0  0
   17.0090  -13.4544   22.7153 O   0  0  0  0  0  0
   17.0320  -13.1909   18.8504 N   0  0  0  0  0  0
   15.9988  -12.6004   16.6308 C   0  0  0  0  0  0
   16.1634  -11.2851   14.2006 C   0  0  0  0  0  0
   19.8522  -11.9751   19.6301 C   0  0  0  0  0  0
   17.5623  -16.0154   25.7048 O   0  0  0  0  0  0
   16.1459  -17.6198   21.6437 S   0  0  0  0  0  0
   15.8505  -13.2996   17.9865 C   0  0  0  0  0  0
   20.8605  -12.8421   19.5021 C   0  0  0  0  0  0
   20.8822  -14.1778   20.2166 C   0  0  0  0  0  0
   16.5702  -11.1940   19.8156 O   0  0  0  0  0  0
   16.0545  -11.2036   16.5877 C   0  0  0  0  0  0
   14.7605  -16.8489   20.8417 C   0  0  0  0  0  0
   16.2366  -10.6531   12.9643 N   0  0  0  0  0  0
   16.1435  -10.5306   15.3688 C   0  0  0  0  0  0
   12.5801  -15.7269   19.5300 C   0  0  0  0  0  0
   11.2163  -15.0521   18.7210 Cl  0  0  0  0  0  0
   13.8110  -16.1164   21.5623 C   0  0  0  0  0  0
   14.6128  -17.0178   19.4638 C   0  0  0  0  0  0
   13.5223  -16.4540   18.8055 C   0  0  0  0  0  0
   12.7226  -15.5523   20.9045 C   0  0  0  0  0  0
   20.5847  -14.7532   24.1697 C   0  0  0  0  0  0
   19.6631  -14.4100   26.3941 C   0  0  0  0  0  0
   15.9062  -14.7986   15.3019 C   0  0  0  0  0  0
   20.9220  -13.5696   26.2261 C   0  0  0  0  0  0
   21.6792  -14.3190   25.1468 C   0  0  0  0  0  0
   18.5998  -17.1400   23.2774 H   0  0  0  0  0  0
   18.5306  -11.4233   21.2221 H   0  0  0  0  0  0
   15.8980  -15.8532   23.2023 H   0  0  0  0  0  0
   16.2046  -17.3661   24.0241 H   0  0  0  0  0  0
   17.7377  -13.9015   18.7365 H   0  0  0  0  0  0
   19.9347  -11.0530   19.0928 H   0  0  0  0  0  0
   15.6202  -14.3568   17.8627 H   0  0  0  0  0  0
   14.9769  -12.8736   18.4874 H   0  0  0  0  0  0
   21.7014  -12.5710   18.8795 H   0  0  0  0  0  0
   21.5900  -14.1609   21.0481 H   0  0  0  0  0  0
   21.2163  -14.9574   19.5291 H   0  0  0  0  0  0
   16.0143  -10.6456   17.5050 H   0  0  0  0  0  0
   16.0174   -9.6637   12.8964 H   0  0  0  0  0  0
   16.1144  -11.2425   12.1532 H   0  0  0  0  0  0
   16.1838   -9.4524   15.3389 H   0  0  0  0  0  0
   13.8871  -15.9871   22.6303 H   0  0  0  0  0  0
   15.3378  -17.5906   18.9044 H   0  0  0  0  0  0
   13.4010  -16.5884   17.7402 H   0  0  0  0  0  0
   11.9860  -14.9923   21.4635 H   0  0  0  0  0  0
   20.9006  -15.6737   23.6753 H   0  0  0  0  0  0
   20.4392  -13.9163   23.4878 H   0  0  0  0  0  0
   18.8168  -13.8475   26.7823 H   0  0  0  0  0  0
   19.8548  -15.2532   27.0559 H   0  0  0  0  0  0
   14.9195  -15.1247   15.6337 H   0  0  0  0  0  0
   16.0419  -15.1567   14.2795 H   0  0  0  0  0  0
   16.6592  -15.2852   15.9219 H   0  0  0  0  0  0
   20.6578  -12.5681   25.8822 H   0  0  0  0  0  0
   21.4793  -13.4534   27.1550 H   0  0  0  0  0  0
   22.1696  -15.1951   25.5775 H   0  0  0  0  0  0
   22.4561  -13.7196   24.6680 H   0  0  0  0  0  0
  1  3  1  0  0  0
  1  4  1  0  0  0
  1  6  1  0  0  0
  2  3  1  0  0  0
  2  7  1  0  0  0
  2  5  1  0  0  0
  3 15  2  0  0  0
  4  5  1  0  0  0
  4 14  2  0  0  0
  5 24  1  0  0  0
  6  8  1  0  0  0
  6 12  1  0  0  0
  6 41  1  0  0  0
  7  9  1  0  0  0
  7 19  1  0  0  0
  7 42  1  0  0  0
  8 10  1  0  0  0
  8 20  2  0  0  0
  9 16  1  0  0  0
  9 25  2  0  0  0
 10 36  1  0  0  0
 10 37  1  0  0  0
 11 13  1  0  0  0
 11 18  2  0  0  0
 12 21  1  0  0  0
 12 43  1  0  0  0
 12 44  1  0  0  0
 13 17  2  0  0  0
 13 38  1  0  0  0
 16 22  1  0  0  0
 16 45  1  0  0  0
 17 22  1  0  0  0
 17 26  1  0  0  0
 18 29  1  0  0  0
 18 28  1  0  0  0
 19 23  2  0  0  0
 19 46  1  0  0  0
 21 27  1  0  0  0
 22 47  1  0  0  0
 22 48  1  0  0  0
 23 24  1  0  0  0
 23 49  1  0  0  0
 24 50  1  0  0  0
 24 51  1  0  0  0
 26 29  2  0  0  0
 26 52  1  0  0  0
 27 32  2  0  0  0
 27 33  1  0  0  0
 28 53  1  0  0  0
 28 54  1  0  0  0
 29 55  1  0  0  0
 30 34  1  0  0  0
 30 31  1  0  0  0
 30 35  2  0  0  0
 32 35  1  0  0  0
 32 56  1  0  0  0
 33 34  2  0  0  0
 33 57  1  0  0  0
 34 58  1  0  0  0
 35 59  1  0  0  0
 36 40  1  0  0  0
 36 60  1  0  0  0
 36 61  1  0  0  0
 37 39  1  0  0  0
 37 62  1  0  0  0
 37 63  1  0  0  0
 38 64  1  0  0  0
 38 65  1  0  0  0
 38 66  1  0  0  0
 39 40  1  0  0  0
 39 67  1  0  0  0
 39 68  1  0  0  0
 40 69  1  0  0  0
 40 70  1  0  0  0
M  END
> <s_m_entry_id>
35485

> <s_m_entry_name>
dock_pv.335

> <s_m_Source_Path>
/home/csk/Desktop/cluster/DUD-E-result/thrb

> <s_m_Source_File>
dock_pv.maegz

> <i_m_Source_File_Index>
335

> <chembl_id>
CHEMBL33927

> <chembl_pref_name>
None

> <i_lp_mmshare_version>
53161

> <r_lp_tautomer_probability>
0.999999772200052

> <s_lp_Force_Field>
OPLS_2005

> <r_lp_Energy>
45.188827

> <b_lp_Chiralities_Consistent>
1

> <s_lp_Variant>
CHEMBL204_lig3861-2

> <s_i_glide_gridfile>
glide-grid_1ype

> <i_i_glide_lignum>
5313

> <i_i_glide_rotatable_bonds>
10

> <r_i_docking_score>
-7.00110417063838

> <r_i_glide_ligand_efficiency>
-0.17502760426596

> <r_i_glide_ligand_efficiency_sa>
-0.59858598586244

> <r_i_glide_ligand_efficiency_ln>
-1.49312948629885

> <r_i_glide_gscore>
-7.00110417063838

> <r_i_glide_lipo>
-2.43857719115865

> <r_i_glide_hbond>
-0.32

> <r_i_glide_metal>
0

> <r_i_glide_rewards>
-1.21567395577446

> <r_i_glide_evdw>
-49.8660430908203

> <r_i_glide_ecoul>
-6.20016622543335

> <r_i_glide_erotb>
0.448721187278838

> <r_i_glide_esite>
-0.0522471226281034

> <r_i_glide_emodel>
-76.2387540867354

> <r_i_glide_energy>
-56.0662093162537

> <r_i_glide_einternal>
3.43167901039124

> <i_i_glide_confnum>
25

> <i_i_glide_posenum>
124

> <r_i_glide_eff_state_penalty>
0

> <s_user_duplicate_titles>
CHEMBL204_lig3861

> <i_f3d_flags>
0

> <s_m_subgroup_title>
dock_pv

> <s_m_subgroupid>
dock_pv

> <b_m_subgroup_collapsed>
1

$$$$
CHEMBL204_lig47
                    3D
 Schrodinger Suite 2021-1.
 36 38  0  0  1  0            999 V2000
   15.1742  -12.2540   18.8954 S   0  0  0  0  0  0
   16.4636  -11.4536   19.6210 O   0  0  0  0  0  0
   19.0252  -12.2532   18.6936 O   0  0  0  0  0  0
   16.0886  -12.6534   22.2258 O   0  0  0  0  0  0
   15.5012  -13.6809   18.7634 O   0  0  0  0  0  0
   14.7458  -11.4655   17.7358 O   0  0  0  0  0  0
   17.3497  -12.3042   20.3006 N   0  0  0  0  0  0
   19.2114  -13.4219   20.8388 C   0  0  0  0  0  0
   18.3353  -13.5308   21.8917 C   0  0  0  0  0  0
   18.5665  -12.5960   19.7848 C   0  0  0  0  0  0
   17.1015  -12.7891   21.5425 C   0  0  0  0  0  0
   13.9232  -12.0141   20.1790 C   0  0  0  0  0  0
   12.9435  -12.9812   20.4798 C   0  0  0  0  0  0
   20.4670  -14.0278   20.8860 C   0  0  0  0  0  0
   18.6682  -14.2438   23.0432 C   0  0  0  0  0  0
   13.9325  -10.8044   20.8920 C   0  0  0  0  0  0
   12.9919  -10.5587   21.8986 C   0  0  0  0  0  0
   20.8174  -14.7484   22.0347 C   0  0  0  0  0  0
   19.9240  -14.8531   23.1095 C   0  0  0  0  0  0
   12.0157  -12.7237   21.4910 C   0  0  0  0  0  0
   12.0352  -11.5259   22.1978 C   0  0  0  0  0  0
   12.8354  -14.3006   19.7291 C   0  0  0  0  0  0
   13.0133   -9.2601   22.6780 C   0  0  0  0  0  0
   21.1671  -13.9501   20.0646 H   0  0  0  0  0  0
   17.9774  -14.3277   23.8722 H   0  0  0  0  0  0
   14.6769  -10.0531   20.6789 H   0  0  0  0  0  0
   21.7831  -15.2264   22.0906 H   0  0  0  0  0  0
   20.2058  -15.4072   23.9935 H   0  0  0  0  0  0
   11.2577  -13.4532   21.7310 H   0  0  0  0  0  0
   11.2998  -11.3519   22.9709 H   0  0  0  0  0  0
   13.6774  -14.9509   19.9749 H   0  0  0  0  0  0
   11.9126  -14.8345   19.9617 H   0  0  0  0  0  0
   12.8443  -14.1284   18.6543 H   0  0  0  0  0  0
   13.9771   -8.7550   22.6073 H   0  0  0  0  0  0
   12.2236   -8.6074   22.3079 H   0  0  0  0  0  0
   12.8155   -9.4430   23.7367 H   0  0  0  0  0  0
  1  2  1  0  0  0
  1  5  2  0  0  0
  1  6  2  0  0  0
  1 12  1  0  0  0
  2  7  1  0  0  0
  3 10  2  0  0  0
  4 11  2  0  0  0
  7 10  1  0  0  0
  7 11  1  0  0  0
  8  9  1  0  0  0
  8 10  1  0  0  0
  8 14  2  0  0  0
  9 11  1  0  0  0
  9 15  2  0  0  0
 12 13  1  0  0  0
 12 16  2  0  0  0
 13 20  2  0  0  0
 13 22  1  0  0  0
 14 18  1  0  0  0
 14 24  1  0  0  0
 15 19  1  0  0  0
 15 25  1  0  0  0
 16 17  1  0  0  0
 16 26  1  0  0  0
 17 21  2  0  0  0
 17 23  1  0  0  0
 18 19  2  0  0  0
 18 27  1  0  0  0
 19 28  1  0  0  0
 20 21  1  0  0  0
 20 29  1  0  0  0
 21 30  1  0  0  0
 22 31  1  0  0  0
 22 32  1  0  0  0
 22 33  1  0  0  0
 23 34  1  0  0  0
 23 35  1  0  0  0
 23 36  1  0  0  0
M  END
> <s_m_entry_id>
35486

> <s_m_entry_name>
dock_pv.336

> <s_m_Source_Path>
/home/csk/Desktop/cluster/DUD-E-result/thrb

> <s_m_Source_File>
dock_pv.maegz

> <i_m_Source_File_Index>
336

> <chembl_id>
CHEMBL1604527

> <chembl_pref_name>
None

> <i_lp_mmshare_version>
53161

> <r_lp_tautomer_probability>
1

> <s_lp_Force_Field>
OPLS_2005

> <r_lp_Energy>
37.395261

> <b_lp_Chiralities_Consistent>
1

> <s_lp_Variant>
CHEMBL204_lig47-1

> <s_i_glide_gridfile>
glide-grid_1ype

> <i_i_glide_lignum>
51

> <i_i_glide_rotatable_bonds>
3

> <r_i_docking_score>
-6.9965020857268

> <r_i_glide_ligand_efficiency>
-0.304195742857687

> <r_i_glide_ligand_efficiency_sa>
-0.86509222762023

> <r_i_glide_ligand_efficiency_ln>
-1.69181764510215

> <r_i_glide_gscore>
-6.9965020857268

> <r_i_glide_lipo>
-2.3951108148224

> <r_i_glide_hbond>
-0.299846389882723

> <r_i_glide_metal>
0

> <r_i_glide_rewards>
-2.08539415460806

> <r_i_glide_evdw>
-36.6564598083496

> <r_i_glide_ecoul>
-5.98392963409424

> <r_i_glide_erotb>
0.514261709118001

> <r_i_glide_esite>
0

> <r_i_glide_emodel>
-59.2455653029603

> <r_i_glide_energy>
-42.6403894424438

> <r_i_glide_einternal>
3.85199642181396

> <i_i_glide_confnum>
8

> <i_i_glide_posenum>
290

> <r_i_glide_eff_state_penalty>
0

> <s_user_duplicate_titles>
CHEMBL204_lig47

> <i_f3d_flags>
0

> <s_m_subgroup_title>
dock_pv

> <s_m_subgroupid>
dock_pv

> <b_m_subgroup_collapsed>
1

$$$$
CHEMBL204_lig3501
                    3D
 Schrodinger Suite 2021-1.
 53 55  0  0  1  0            999 V2000
   20.3861  -14.1087   24.8504 S   0  0  0  0  0  0
   11.5666  -10.5726   23.3539 C   0  0  0  0  0  0
   12.2268  -10.8801   22.1220 N   0  0  0  0  0  0
   19.8982  -14.8087   23.4122 O   0  0  0  0  0  0
   19.5315  -13.9923   22.3748 C   0  0  0  0  0  0
   20.2212  -12.6535   24.7706 O   0  0  0  0  0  0
   19.8204  -14.8913   25.9545 O   0  0  0  0  0  0
   22.1350  -14.4804   24.7352 C   0  0  0  0  0  0
   11.6161   -9.4538   23.9235 N   0  0  0  0  0  0
   18.2343  -13.4809   22.3269 C   0  0  0  0  0  0
   12.7820   -9.8237   21.2643 C   0  0  0  0  0  0
   12.1960  -12.1878   21.4401 C   0  0  0  0  0  0
   17.8152  -12.6910   21.2556 C   0  0  0  0  0  0
   10.8158  -11.6168   23.9231 N   0  0  0  0  0  0
   20.0347  -12.8909   20.2814 C   0  0  0  0  0  0
   20.4321  -13.6998   21.3502 C   0  0  0  0  0  0
   16.5099  -12.2470   21.2817 O   0  0  0  0  0  0
   18.7292  -12.3959   20.2330 C   0  0  0  0  0  0
   15.8799  -11.9098   20.0461 C   0  0  0  0  0  0
   13.6423  -12.6147   21.1127 C   0  0  0  0  0  0
   14.2500  -10.1649   20.9766 C   0  0  0  0  0  0
   14.4057  -11.5417   20.2974 C   0  0  0  0  0  0
   22.6461  -15.6151   25.3682 C   0  0  0  0  0  0
   22.9819  -13.6230   24.0293 C   0  0  0  0  0  0
   21.0043  -12.5755   19.1600 C   0  0  0  0  0  0
   24.3479  -13.8839   23.9832 C   0  0  0  0  0  0
   24.0109  -15.8812   25.3132 C   0  0  0  0  0  0
   24.8558  -15.0137   24.6226 C   0  0  0  0  0  0
   11.0388   -9.4550   24.7489 H   0  0  0  0  0  0
   17.5387  -13.7195   23.1189 H   0  0  0  0  0  0
   12.7104   -8.8349   21.7199 H   0  0  0  0  0  0
   12.2064   -9.7831   20.3405 H   0  0  0  0  0  0
   11.7141  -12.9652   22.0341 H   0  0  0  0  0  0
   11.6171  -12.0903   20.5234 H   0  0  0  0  0  0
   10.1965  -11.4612   24.7098 H   0  0  0  0  0  0
   10.6981  -12.5108   23.4713 H   0  0  0  0  0  0
   21.4332  -14.1079   21.3870 H   0  0  0  0  0  0
   18.4387  -11.7772   19.3998 H   0  0  0  0  0  0
   15.9376  -12.7544   19.3583 H   0  0  0  0  0  0
   16.3797  -11.0666   19.5691 H   0  0  0  0  0  0
   14.1564  -12.8220   22.0534 H   0  0  0  0  0  0
   13.6547  -13.5699   20.5877 H   0  0  0  0  0  0
   14.7099   -9.3914   20.3681 H   0  0  0  0  0  0
   14.8038  -10.1205   21.9110 H   0  0  0  0  0  0
   13.8996  -11.4658   19.3341 H   0  0  0  0  0  0
   21.9926  -16.2834   25.9127 H   0  0  0  0  0  0
   22.5830  -12.7528   23.5285 H   0  0  0  0  0  0
   21.6156  -13.4530   18.9469 H   0  0  0  0  0  0
   20.4808  -12.3297   18.2316 H   0  0  0  0  0  0
   21.6644  -11.7495   19.4384 H   0  0  0  0  0  0
   25.0123  -13.2105   23.4652 H   0  0  0  0  0  0
   24.4173  -16.7461   25.8143 H   0  0  0  0  0  0
   25.9192  -15.2123   24.5929 H   0  0  0  0  0  0
  1  4  1  0  0  0
  1  6  2  0  0  0
  1  7  2  0  0  0
  1  8  1  0  0  0
  2  3  1  0  0  0
  2  9  2  0  0  0
  2 14  1  0  0  0
  3 11  1  0  0  0
  3 12  1  0  0  0
  4  5  1  0  0  0
  5 10  2  0  0  0
  5 16  1  0  0  0
  8 23  2  0  0  0
  8 24  1  0  0  0
  9 29  1  0  0  0
 10 13  1  0  0  0
 10 30  1  0  0  0
 11 21  1  0  0  0
 11 31  1  0  0  0
 11 32  1  0  0  0
 12 20  1  0  0  0
 12 33  1  0  0  0
 12 34  1  0  0  0
 13 17  1  0  0  0
 13 18  2  0  0  0
 14 35  1  0  0  0
 14 36  1  0  0  0
 15 16  2  0  0  0
 15 18  1  0  0  0
 15 25  1  0  0  0
 16 37  1  0  0  0
 17 19  1  0  0  0
 18 38  1  0  0  0
 19 22  1  0  0  0
 19 39  1  0  0  0
 19 40  1  0  0  0
 20 22  1  0  0  0
 20 41  1  0  0  0
 20 42  1  0  0  0
 21 22  1  0  0  0
 21 43  1  0  0  0
 21 44  1  0  0  0
 22 45  1  0  0  0
 23 27  1  0  0  0
 23 46  1  0  0  0
 24 26  2  0  0  0
 24 47  1  0  0  0
 25 48  1  0  0  0
 25 49  1  0  0  0
 25 50  1  0  0  0
 26 28  1  0  0  0
 26 51  1  0  0  0
 27 28  2  0  0  0
 27 52  1  0  0  0
 28 53  1  0  0  0
M  END
> <s_m_entry_id>
35487

> <s_m_entry_name>
dock_pv.337

> <s_m_Source_Path>
/home/csk/Desktop/cluster/DUD-E-result/thrb

> <s_m_Source_File>
dock_pv.maegz

> <i_m_Source_File_Index>
337

> <chembl_id>
CHEMBL424394

> <chembl_pref_name>
None

> <i_lp_mmshare_version>
53161

> <r_lp_tautomer_probability>
1

> <s_lp_Force_Field>
OPLS_2005

> <r_lp_Energy>
23.671082

> <b_lp_Chiralities_Consistent>
1

> <s_lp_Variant>
CHEMBL204_lig3501-1

> <s_i_glide_gridfile>
glide-grid_1ype

> <i_i_glide_lignum>
4875

> <i_i_glide_rotatable_bonds>
7

> <r_i_docking_score>
-6.99205512420022

> <r_i_glide_ligand_efficiency>
-0.249716254435722

> <r_i_glide_ligand_efficiency_sa>
-0.758285623475356

> <r_i_glide_ligand_efficiency_ln>
-1.61397161832451

> <r_i_glide_gscore>
-6.99205512420022

> <r_i_glide_lipo>
-3.274343388399

> <r_i_glide_hbond>
-0.0797836690632858

> <r_i_glide_metal>
0

> <r_i_glide_rewards>
-1.32444895445564

> <r_i_glide_evdw>
-45.3817405700684

> <r_i_glide_ecoul>
-4.62287759780884

> <r_i_glide_erotb>
0.723571893166366

> <r_i_glide_esite>
-0.0745323372739169

> <r_i_glide_emodel>
-68.6082817184142

> <r_i_glide_energy>
-50.0046181678772

> <r_i_glide_einternal>
4.89335250854492

> <i_i_glide_confnum>
15

> <i_i_glide_posenum>
228

> <r_i_glide_eff_state_penalty>
0

> <s_user_duplicate_titles>
CHEMBL204_lig3501,279299

> <i_f3d_flags>
0

> <s_m_subgroup_title>
dock_pv

> <s_m_subgroupid>
dock_pv

> <b_m_subgroup_collapsed>
1

$$$$
CHEMBL204_lig72
                    3D
 Schrodinger Suite 2021-1.
 57 60  0  0  1  0            999 V2000
   19.8610  -16.0182   25.2136 S   0  0  0  0  0  0
   18.4972  -16.1025   25.7505 O   0  0  0  0  0  0
   20.7143  -17.2101   25.1422 O   0  0  0  0  0  0
   16.4296  -13.0532   22.4033 O   0  0  0  0  0  0
   16.4277  -11.0549   18.6540 O   0  0  0  0  0  0
   12.7594  -12.7406   20.8046 O   0  0  0  0  0  0
   19.6514  -13.3637   19.8435 N   0  0  0  0  0  0
   20.7303  -14.7793   26.1220 N   0  0  0  0  0  0
   15.3907  -11.2645   20.6384 N   0  0  0  0  0  0
   18.5927  -13.9326   21.9573 C   0  0  0  0  0  0
   19.6867  -14.0619   21.0745 C   0  0  0  0  0  0
   19.7554  -15.3340   23.5683 C   0  0  0  0  0  0
   17.3784  -13.1152   21.6175 C   0  0  0  0  0  0
   17.4438  -12.4187   20.2954 C   0  0  0  0  0  0
   18.6438  -14.5785   23.2023 C   0  0  0  0  0  0
   20.7787  -14.8596   21.4408 C   0  0  0  0  0  0
   20.8162  -15.4928   22.6768 C   0  0  0  0  0  0
   18.5464  -12.6001   19.5195 C   0  0  0  0  0  0
   16.3935  -11.5381   19.7872 C   0  0  0  0  0  0
   22.1641  -14.5486   25.8065 C   0  0  0  0  0  0
   20.0313  -13.4992   26.4378 C   0  0  0  0  0  0
   20.8082  -13.3363   18.9456 C   0  0  0  0  0  0
   22.1590  -13.1092   25.3321 C   0  0  0  0  0  0
   21.1468  -12.4635   26.2556 C   0  0  0  0  0  0
   14.2538  -10.3831   20.4153 C   0  0  0  0  0  0
   13.2148  -10.5158   21.5207 C   0  0  0  0  0  0
   12.4816  -11.7041   21.6747 C   0  0  0  0  0  0
   12.9753   -9.4345   22.3761 C   0  0  0  0  0  0
   11.5120  -11.7743   22.6867 C   0  0  0  0  0  0
   12.0184   -9.5246   23.3866 C   0  0  0  0  0  0
   11.2772  -10.6930   23.5350 C   0  0  0  0  0  0
   12.3073  -14.0494   21.1275 C   0  0  0  0  0  0
   15.4235  -11.7236   21.5383 H   0  0  0  0  0  0
   17.8261  -14.4795   23.9078 H   0  0  0  0  0  0
   21.6160  -14.9901   20.7758 H   0  0  0  0  0  0
   21.6792  -16.0825   22.9506 H   0  0  0  0  0  0
   18.6253  -12.1175   18.5516 H   0  0  0  0  0  0
   22.7540  -14.5912   26.7210 H   0  0  0  0  0  0
   22.5993  -15.3000   25.1476 H   0  0  0  0  0  0
   19.2718  -13.2463   25.6982 H   0  0  0  0  0  0
   19.7123  -13.4263   27.4767 H   0  0  0  0  0  0
   21.6409  -12.8157   19.4193 H   0  0  0  0  0  0
   21.1298  -14.3494   18.7032 H   0  0  0  0  0  0
   20.6000  -12.8380   17.9982 H   0  0  0  0  0  0
   23.1483  -12.6545   25.3964 H   0  0  0  0  0  0
   21.8322  -13.0542   24.2919 H   0  0  0  0  0  0
   20.7746  -11.5103   25.8800 H   0  0  0  0  0  0
   21.6136  -12.2535   27.2186 H   0  0  0  0  0  0
   13.7827  -10.6663   19.4721 H   0  0  0  0  0  0
   14.5845   -9.3505   20.3257 H   0  0  0  0  0  0
   13.5455   -8.5231   22.2837 H   0  0  0  0  0  0
   10.9028  -12.6526   22.8182 H   0  0  0  0  0  0
   11.8444   -8.6897   24.0482 H   0  0  0  0  0  0
   10.5151  -10.7605   24.3005 H   0  0  0  0  0  0
   12.6858  -14.7544   20.3865 H   0  0  0  0  0  0
   12.6753  -14.3664   22.1056 H   0  0  0  0  0  0
   11.2241  -14.1152   21.1157 H   0  0  0  0  0  0
  1  2  2  0  0  0
  1  3  2  0  0  0
  1  8  1  0  0  0
  1 12  1  0  0  0
  4 13  2  0  0  0
  5 19  2  0  0  0
  6 27  1  0  0  0
  6 32  1  0  0  0
  7 11  1  0  0  0
  7 18  1  0  0  0
  7 22  1  0  0  0
  8 20  1  0  0  0
  8 21  1  0  0  0
  9 19  1  0  0  0
  9 25  1  0  0  0
  9 33  1  0  0  0
 10 11  1  0  0  0
 10 13  1  0  0  0
 10 15  2  0  0  0
 11 16  2  0  0  0
 12 15  1  0  0  0
 12 17  2  0  0  0
 13 14  1  0  0  0
 14 18  2  0  0  0
 14 19  1  0  0  0
 15 34  1  0  0  0
 16 17  1  0  0  0
 16 35  1  0  0  0
 17 36  1  0  0  0
 18 37  1  0  0  0
 20 23  1  0  0  0
 20 38  1  0  0  0
 20 39  1  0  0  0
 21 24  1  0  0  0
 21 40  1  0  0  0
 21 41  1  0  0  0
 22 42  1  0  0  0
 22 43  1  0  0  0
 22 44  1  0  0  0
 23 24  1  0  0  0
 23 45  1  0  0  0
 23 46  1  0  0  0
 24 47  1  0  0  0
 24 48  1  0  0  0
 25 26  1  0  0  0
 25 49  1  0  0  0
 25 50  1  0  0  0
 26 27  1  0  0  0
 26 28  2  0  0  0
 27 29  2  0  0  0
 28 30  1  0  0  0
 28 51  1  0  0  0
 29 31  1  0  0  0
 29 52  1  0  0  0
 30 31  2  0  0  0
 30 53  1  0  0  0
 31 54  1  0  0  0
 32 55  1  0  0  0
 32 56  1  0  0  0
 32 57  1  0  0  0
M  END
> <s_m_entry_id>
35488

> <s_m_entry_name>
dock_pv.338

> <s_m_Source_Path>
/home/csk/Desktop/cluster/DUD-E-result/thrb

> <s_m_Source_File>
dock_pv.maegz

> <i_m_Source_File_Index>
338

> <chembl_id>
CHEMBL1577592

> <chembl_pref_name>
None

> <i_lp_mmshare_version>
53161

> <r_lp_tautomer_probability>
1

> <s_lp_Force_Field>
OPLS_2005

> <r_lp_Energy>
31.473284

> <b_lp_Chiralities_Consistent>
1

> <s_lp_Variant>
CHEMBL204_lig72-1

> <s_i_glide_gridfile>
glide-grid_1ype

> <i_i_glide_lignum>
82

> <i_i_glide_rotatable_bonds>
7

> <r_i_docking_score>
-6.98784347167484

> <r_i_glide_ligand_efficiency>
-0.218370108489839

> <r_i_glide_ligand_efficiency_sa>
-0.693281879069449

> <r_i_glide_ligand_efficiency_ln>
-1.5647686347269

> <r_i_glide_gscore>
-6.98784347167484

> <r_i_glide_lipo>
-3.38808055528108

> <r_i_glide_hbond>
-0.227717114384553

> <r_i_glide_metal>
0

> <r_i_glide_rewards>
-1.03929172862081

> <r_i_glide_evdw>
-48.1402320861816

> <r_i_glide_ecoul>
-3.37757587432861

> <r_i_glide_erotb>
0.580893912069986

> <r_i_glide_esite>
0

> <r_i_glide_emodel>
-70.301646516676

> <r_i_glide_energy>
-51.5178079605103

> <r_i_glide_einternal>
3.3752863407135

> <i_i_glide_confnum>
25

> <i_i_glide_posenum>
290

> <r_i_glide_eff_state_penalty>
0

> <s_user_duplicate_titles>
CHEMBL204_lig72

> <i_f3d_flags>
0

> <s_m_subgroup_title>
dock_pv

> <s_m_subgroupid>
dock_pv

> <b_m_subgroup_collapsed>
1

$$$$
CHEMBL204_lig3521
                    3D
 Schrodinger Suite 2021-1.
 49 52  0  0  1  0            999 V2000
   15.7502  -17.7394   22.6188 S   0  0  0  0  0  0
   13.3750  -14.4696   20.1284 N   0  0  0  0  0  0
   13.9201  -16.2453   21.1015 C   0  0  1  0  0  0
   14.6107  -14.9986   20.4861 C   0  0  0  0  0  0
   14.3788  -16.6531   22.4477 N   0  0  2  0  0  0
   12.6271  -15.4049   20.9979 C   0  0  0  0  0  0
   17.1993  -16.6922   22.5316 C   0  0  0  0  0  0
   11.5951  -10.5041   23.5744 C   0  0  0  0  0  0
   12.9903  -13.2133   19.5056 C   0  0  0  0  0  0
   15.6984  -18.2696   23.9854 O   0  0  0  0  0  0
   15.7633  -18.6464   21.4655 O   0  0  0  0  0  0
   17.5207  -15.8924   23.6285 C   0  0  0  0  0  0
   12.4386  -10.7053   22.3662 C   0  0  0  0  0  0
   11.6162   -9.4221   24.2166 N   0  0  0  0  0  0
   15.7654  -14.5960   20.3608 O   0  0  0  0  0  0
   18.6701  -15.0663   23.6052 C   0  0  0  0  0  0
   12.3214  -11.8331   21.5273 C   0  0  0  0  0  0
   13.1522  -12.0071   20.4163 C   0  0  0  0  0  0
   17.9993  -16.6743   21.3898 C   0  0  0  0  0  0
   19.4932  -15.0558   22.4373 C   0  0  0  0  0  0
   19.1325  -15.8660   21.3319 C   0  0  0  0  0  0
   10.8160  -11.5761   23.9208 N   0  0  0  0  0  0
   13.4125   -9.7496   22.0263 C   0  0  0  0  0  0
   14.2582   -9.9292   20.9390 C   0  0  0  0  0  0
   14.1265  -11.0531   20.1311 C   0  0  0  0  0  0
   19.0271  -14.2532   24.7103 C   0  0  0  0  0  0
   20.6497  -14.2366   22.4174 C   0  0  0  0  0  0
   20.1680  -13.4561   24.6564 C   0  0  0  0  0  0
   20.9738  -13.4531   23.5223 C   0  0  0  0  0  0
   13.9401  -17.1036   20.4275 H   0  0  0  0  0  0
   14.4169  -15.8699   23.1105 H   0  0  0  0  0  0
   12.2946  -14.9260   21.9206 H   0  0  0  0  0  0
   11.7895  -15.8842   20.4886 H   0  0  0  0  0  0
   11.9539  -13.2799   19.1745 H   0  0  0  0  0  0
   13.5903  -13.0742   18.6053 H   0  0  0  0  0  0
   16.8925  -15.8982   24.5091 H   0  0  0  0  0  0
   10.9602   -9.4548   24.9849 H   0  0  0  0  0  0
   11.5768  -12.5918   21.7226 H   0  0  0  0  0  0
   17.7416  -17.2862   20.5372 H   0  0  0  0  0  0
   19.7454  -15.8544   20.4415 H   0  0  0  0  0  0
   10.0876  -11.4605   24.6190 H   0  0  0  0  0  0
   10.8421  -12.4505   23.4173 H   0  0  0  0  0  0
   13.5490   -8.8640   22.6323 H   0  0  0  0  0  0
   15.0185   -9.1924   20.7228 H   0  0  0  0  0  0
   14.7871  -11.1815   19.2858 H   0  0  0  0  0  0
   18.4083  -14.2531   25.5966 H   0  0  0  0  0  0
   21.2817  -14.2267   21.5406 H   0  0  0  0  0  0
   20.4297  -12.8353   25.5014 H   0  0  0  0  0  0
   21.8554  -12.8300   23.4950 H   0  0  0  0  0  0
  1  5  1  0  0  0
  1  7  1  0  0  0
  1 10  2  0  0  0
  1 11  2  0  0  0
  2  6  1  0  0  0
  2  9  1  0  0  0
  2  4  1  0  0  0
  3  5  1  0  0  0
  3  4  1  0  0  0
  3  6  1  0  0  0
  3 30  1  0  0  0
  4 15  2  0  0  0
  5 31  1  0  0  0
  6 32  1  0  0  0
  6 33  1  0  0  0
  7 12  2  0  0  0
  7 19  1  0  0  0
  8 13  1  0  0  0
  8 14  2  0  0  0
  8 22  1  0  0  0
  9 18  1  0  0  0
  9 34  1  0  0  0
  9 35  1  0  0  0
 12 16  1  0  0  0
 12 36  1  0  0  0
 13 17  2  0  0  0
 13 23  1  0  0  0
 14 37  1  0  0  0
 16 26  1  0  0  0
 16 20  2  0  0  0
 17 18  1  0  0  0
 17 38  1  0  0  0
 18 25  2  0  0  0
 19 21  2  0  0  0
 19 39  1  0  0  0
 20 21  1  0  0  0
 20 27  1  0  0  0
 21 40  1  0  0  0
 22 41  1  0  0  0
 22 42  1  0  0  0
 23 24  2  0  0  0
 23 43  1  0  0  0
 24 25  1  0  0  0
 24 44  1  0  0  0
 25 45  1  0  0  0
 26 28  2  0  0  0
 26 46  1  0  0  0
 27 29  2  0  0  0
 27 47  1  0  0  0
 28 29  1  0  0  0
 28 48  1  0  0  0
 29 49  1  0  0  0
M  END
> <s_m_entry_id>
35489

> <s_m_entry_name>
dock_pv.339

> <s_m_Source_Path>
/home/csk/Desktop/cluster/DUD-E-result/thrb

> <s_m_Source_File>
dock_pv.maegz

> <i_m_Source_File_Index>
339

> <chembl_id>
CHEMBL120765

> <chembl_pref_name>
None

> <i_lp_mmshare_version>
53161

> <r_lp_tautomer_probability>
1

> <s_lp_Force_Field>
OPLS_2005

> <r_lp_Energy>
10.901639

> <b_lp_Chiralities_Consistent>
1

> <s_lp_Variant>
CHEMBL204_lig3521-1

> <s_i_glide_gridfile>
glide-grid_1ype

> <i_i_glide_lignum>
4907

> <i_i_glide_rotatable_bonds>
6

> <r_i_docking_score>
-6.98687122125265

> <r_i_glide_ligand_efficiency>
-0.240926593836298

> <r_i_glide_ligand_efficiency_sa>
-0.740202827167612

> <r_i_glide_ligand_efficiency_ln>
-1.59981633789948

> <r_i_glide_gscore>
-6.98687122125265

> <r_i_glide_lipo>
-2.87138557004478

> <r_i_glide_hbond>
-0.579261307588857

> <r_i_glide_metal>
0

> <r_i_glide_rewards>
-0.791925936342122

> <r_i_glide_evdw>
-40.7940521240234

> <r_i_glide_ecoul>
-7.83079481124878

> <r_i_glide_erotb>
0.589796187532323

> <r_i_glide_esite>
-0.119772766920725

> <r_i_glide_emodel>
-66.9586777722673

> <r_i_glide_energy>
-48.6248469352722

> <r_i_glide_einternal>
7.2857723236084

> <i_i_glide_confnum>
43

> <i_i_glide_posenum>
92

> <r_i_glide_eff_state_penalty>
0

> <s_user_duplicate_titles>
CHEMBL204_lig3521

> <i_f3d_flags>
0

> <s_m_subgroup_title>
dock_pv

> <s_m_subgroupid>
dock_pv

> <b_m_subgroup_collapsed>
1

$$$$
CHEMBL204_lig4865
                    3D
 Schrodinger Suite 2021-1.
 53 54  0  0  1  0            999 V2000
   16.3276  -13.4898   19.9491 N   0  0  3  0  0  0
   15.4057  -12.1814   19.2356 S   0  0  0  0  0  0
   14.1413  -11.7477   20.4401 C   0  0  0  0  0  0
   16.3365  -11.0534   19.1251 O   0  0  0  0  0  0
   14.7089  -12.7046   18.0556 O   0  0  0  0  0  0
   14.1997  -10.5320   21.1199 C   0  0  0  0  0  0
   13.2416  -10.2295   22.0856 C   0  0  0  0  0  0
   12.2161  -11.1343   22.4167 C   0  0  0  0  0  0
   12.1482  -12.3295   21.6756 C   0  0  0  0  0  0
   13.0935  -12.6316   20.6971 C   0  0  0  0  0  0
   11.2597  -10.8189   23.5227 C   0  0  0  0  0  0
   10.4539  -11.8530   23.9210 N   0  0  0  0  0  0
   11.2169   -9.6792   24.0494 N   0  0  0  0  0  0
   22.4667  -15.7880   23.5211 C   0  0  0  0  0  0
   23.4206  -15.5093   24.5162 C   0  0  0  0  0  0
   23.0447  -14.5892   25.5159 C   0  0  0  0  0  0
   21.7982  -13.9649   25.5059 C   0  0  0  0  0  0
   20.8830  -14.2382   24.4893 C   0  0  0  0  0  0
   21.2266  -15.1626   23.5010 C   0  0  0  0  0  0
   24.7684  -16.1614   24.4713 C   0  0  0  0  0  0
   25.6044  -15.8531   25.5139 N   0  0  0  0  0  0
   25.0988  -16.9206   23.5200 N   0  0  0  0  0  0
   19.5138  -13.5532   24.4979 C   0  0  0  0  0  0
   18.4156  -14.3684   23.9626 N   0  0  0  0  0  0
   17.9988  -14.3712   22.6846 C   0  0  0  0  0  0
   16.9357  -15.4243   22.3255 C   0  0  0  0  0  0
   18.4465  -13.6013   21.8347 O   0  0  0  0  0  0
   16.7815  -15.7754   20.8219 C   0  0  0  0  0  0
   15.8170  -14.8651   20.0376 C   0  0  0  0  0  0
   17.1281  -13.2476   20.5475 H   0  0  0  0  0  0
   14.9959   -9.8275   20.9225 H   0  0  0  0  0  0
   13.3317   -9.2892   22.6125 H   0  0  0  0  0  0
   11.3653  -13.0520   21.8573 H   0  0  0  0  0  0
   13.0144  -13.5607   20.1518 H   0  0  0  0  0  0
    9.6925  -11.6859   24.5796 H   0  0  0  0  0  0
   10.5699  -12.7991   23.5743 H   0  0  0  0  0  0
   10.4901   -9.6479   24.7548 H   0  0  0  0  0  0
   22.6730  -16.4864   22.7230 H   0  0  0  0  0  0
   23.7121  -14.3285   26.3202 H   0  0  0  0  0  0
   21.5524  -13.2616   26.2891 H   0  0  0  0  0  0
   20.5449  -15.4012   22.6992 H   0  0  0  0  0  0
   26.5770  -16.1260   25.4604 H   0  0  0  0  0  0
   25.3060  -15.2600   26.2768 H   0  0  0  0  0  0
   24.3652  -17.0529   22.8417 H   0  0  0  0  0  0
   19.2488  -13.2867   25.5225 H   0  0  0  0  0  0
   19.6161  -12.6139   23.9498 H   0  0  0  0  0  0
   18.0056  -15.0383   24.5963 H   0  0  0  0  0  0
   17.2031  -16.3372   22.8602 H   0  0  0  0  0  0
   15.9769  -15.1024   22.7206 H   0  0  0  0  0  0
   17.7525  -15.8211   20.3244 H   0  0  0  0  0  0
   16.3845  -16.7894   20.7546 H   0  0  0  0  0  0
   15.6951  -15.2362   19.0187 H   0  0  0  0  0  0
   14.8201  -14.8673   20.4772 H   0  0  0  0  0  0
  1  2  1  0  0  0
  1 29  1  0  0  0
  1 30  1  0  0  0
  2  4  2  0  0  0
  2  5  2  0  0  0
  2  3  1  0  0  0
  3 10  1  0  0  0
  3  6  2  0  0  0
  6  7  1  0  0  0
  6 31  1  0  0  0
  7  8  2  0  0  0
  7 32  1  0  0  0
  8 11  1  0  0  0
  8  9  1  0  0  0
  9 10  2  0  0  0
  9 33  1  0  0  0
 10 34  1  0  0  0
 11 12  1  0  0  0
 11 13  2  0  0  0
 12 35  1  0  0  0
 12 36  1  0  0  0
 13 37  1  0  0  0
 14 15  2  0  0  0
 14 19  1  0  0  0
 14 38  1  0  0  0
 15 16  1  0  0  0
 15 20  1  0  0  0
 16 17  2  0  0  0
 16 39  1  0  0  0
 17 18  1  0  0  0
 17 40  1  0  0  0
 18 23  1  0  0  0
 18 19  2  0  0  0
 19 41  1  0  0  0
 20 21  1  0  0  0
 20 22  2  0  0  0
 21 42  1  0  0  0
 21 43  1  0  0  0
 22 44  1  0  0  0
 23 24  1  0  0  0
 23 45  1  0  0  0
 23 46  1  0  0  0
 24 25  1  0  0  0
 24 47  1  0  0  0
 25 26  1  0  0  0
 25 27  2  0  0  0
 26 28  1  0  0  0
 26 48  1  0  0  0
 26 49  1  0  0  0
 28 29  1  0  0  0
 28 50  1  0  0  0
 28 51  1  0  0  0
 29 52  1  0  0  0
 29 53  1  0  0  0
M  END
> <s_m_entry_id>
35490

> <s_m_entry_name>
dock_pv.340

> <s_m_Source_Path>
/home/csk/Desktop/cluster/DUD-E-result/thrb

> <s_m_Source_File>
dock_pv.maegz

> <i_m_Source_File_Index>
340

> <chembl_id>
CHEMBL2159364

> <chembl_pref_name>
None

> <i_lp_mmshare_version>
53161

> <r_lp_tautomer_probability>
1

> <s_lp_Force_Field>
OPLS_2005

> <r_lp_Energy>
3.068958

> <b_lp_Chiralities_Consistent>
1

> <s_lp_Variant>
CHEMBL204_lig4865-1

> <s_i_glide_gridfile>
glide-grid_1ype

> <i_i_glide_lignum>
6649

> <i_i_glide_rotatable_bonds>
11

> <r_i_docking_score>
-6.98431700452041

> <r_i_glide_ligand_efficiency>
-0.240838517397256

> <r_i_glide_ligand_efficiency_sa>
-0.739932228442298

> <r_i_glide_ligand_efficiency_ln>
-1.59923148703715

> <r_i_glide_gscore>
-6.98431700452041

> <r_i_glide_lipo>
-2.39786782105834

> <r_i_glide_hbond>
-1.06279948696307

> <r_i_glide_metal>
0

> <r_i_glide_rewards>
-0.48873389776794

> <r_i_glide_evdw>
-37.736083984375

> <r_i_glide_ecoul>
-13.4222269058228

> <r_i_glide_erotb>
1.02500631158629

> <r_i_glide_esite>
-0.159783875225178

> <r_i_glide_emodel>
-69.5149436645968

> <r_i_glide_energy>
-51.1583108901978

> <r_i_glide_einternal>
7.47632217407227

> <i_i_glide_confnum>
14

> <i_i_glide_posenum>
379

> <r_i_glide_eff_state_penalty>
0

> <s_user_duplicate_titles>
CHEMBL204_lig4865

> <i_f3d_flags>
0

> <s_m_subgroup_title>
dock_pv

> <s_m_subgroupid>
dock_pv

> <b_m_subgroup_collapsed>
1

$$$$
CHEMBL204_lig4358
                    3D
 Schrodinger Suite 2021-1.
 61 62  0  0  1  0            999 V2000
   16.5739  -14.2280   13.6865 O   0  0  0  0  0  0
   17.2090  -13.0558   13.9615 C   0  0  0  0  0  0
   16.2561  -11.9806   14.4480 C   0  0  0  0  0  0
   15.5638  -12.1895   16.1792 S   0  0  0  0  0  0
   18.4159  -12.8621   13.8575 O   0  0  0  0  0  0
   15.0695  -13.5608   16.3209 O   0  0  0  0  0  0
   14.6808  -11.0503   16.4350 O   0  0  0  0  0  0
   16.9535  -12.0489   17.2506 N   0  0  1  0  0  0
   20.9650  -14.9312   24.0085 C   0  0  0  0  0  0
   19.7821  -15.2461   24.6873 C   0  0  0  0  0  0
   19.4739  -14.6346   25.8993 C   0  0  0  0  0  0
   20.3456  -13.6942   26.4433 C   0  0  0  0  0  0
   21.5420  -13.3998   25.7966 C   0  0  0  0  0  0
   21.8725  -14.0197   24.5863 C   0  0  0  0  0  0
   18.0159  -15.0545   26.7199 Cl  0  0  0  0  0  0
   23.2085  -13.6665   23.9357 C   0  0  0  0  0  0
   24.2632  -14.5587   24.3770 N   0  0  0  0  0  0
   21.2460  -15.6405   22.6880 C   0  0  0  0  0  0
   21.2146  -14.7574   21.5243 N   0  0  0  0  0  0
   20.1187  -14.1522   21.0496 C   0  0  0  0  0  0
   20.3335  -13.1729   19.8844 C   0  0  0  0  0  0
   18.9963  -14.3583   21.5161 O   0  0  0  0  0  0
   19.0890  -13.0532   19.1287 N   0  0  0  0  0  0
   18.1079  -12.1785   19.4009 C   0  0  0  0  0  0
   16.7559  -12.4190   18.6872 C   0  0  1  0  0  0
   18.2530  -11.2615   20.2091 O   0  0  0  0  0  0
   15.5235  -11.7305   19.3448 C   0  0  0  0  0  0
   15.2782  -12.0807   20.8317 C   0  0  0  0  0  0
   13.9506  -11.5577   21.3934 C   0  0  0  0  0  0
   13.7155  -10.2207   21.5211 N   0  3  0  0  0  0
   12.5979   -9.7265   22.0915 C   0  0  0  0  0  0
   11.6163  -10.5937   22.5677 C   0  0  0  0  0  0
   11.7949  -11.9655   22.4117 C   0  0  0  0  0  0
   12.9655  -12.4547   21.8313 C   0  0  0  0  0  0
   14.5717   -9.3870   21.1233 O   0  5  0  0  0  0
   15.6229  -14.2123   13.8393 H   0  0  0  0  0  0
   15.4076  -11.9201   13.7671 H   0  0  0  0  0  0
   16.7382  -11.0060   14.4210 H   0  0  0  0  0  0
   17.7345  -12.5931   16.8782 H   0  0  0  0  0  0
   19.0870  -15.9574   24.2665 H   0  0  0  0  0  0
   20.1002  -13.2035   27.3743 H   0  0  0  0  0  0
   22.2176  -12.6844   26.2415 H   0  0  0  0  0  0
   23.1429  -13.6651   22.8478 H   0  0  0  0  0  0
   23.4889  -12.6518   24.2190 H   0  0  0  0  0  0
   24.1828  -15.4685   23.9398 H   0  0  0  0  0  0
   25.1769  -14.1953   24.1267 H   0  0  0  0  0  0
   20.5653  -16.4818   22.5351 H   0  0  0  0  0  0
   22.2369  -16.0889   22.7454 H   0  0  0  0  0  0
   22.1126  -14.5948   21.0794 H   0  0  0  0  0  0
   21.1155  -13.5431   19.2204 H   0  0  0  0  0  0
   20.6637  -12.2087   20.2717 H   0  0  0  0  0  0
   18.9124  -13.7987   18.4717 H   0  0  0  0  0  0
   16.5802  -13.4970   18.7183 H   0  0  0  0  0  0
   14.6208  -12.0055   18.8007 H   0  0  0  0  0  0
   15.6291  -10.6532   19.2414 H   0  0  0  0  0  0
   16.0760  -11.6852   21.4610 H   0  0  0  0  0  0
   15.3135  -13.1648   20.9563 H   0  0  0  0  0  0
   12.5350   -8.6525   22.1643 H   0  0  0  0  0  0
   10.7319  -10.2130   23.0548 H   0  0  0  0  0  0
   11.0373  -12.6528   22.7614 H   0  0  0  0  0  0
   13.1065  -13.5234   21.7454 H   0  0  0  0  0  0
  1  2  1  0  0  0
  1 36  1  0  0  0
  2  3  1  0  0  0
  2  5  2  0  0  0
  3  4  1  0  0  0
  3 37  1  0  0  0
  3 38  1  0  0  0
  4  6  2  0  0  0
  4  7  2  0  0  0
  4  8  1  0  0  0
  8 25  1  0  0  0
  8 39  1  0  0  0
  9 18  1  0  0  0
  9 10  2  0  0  0
  9 14  1  0  0  0
 10 11  1  0  0  0
 10 40  1  0  0  0
 11 12  2  0  0  0
 11 15  1  0  0  0
 12 13  1  0  0  0
 12 41  1  0  0  0
 13 14  2  0  0  0
 13 42  1  0  0  0
 14 16  1  0  0  0
 16 17  1  0  0  0
 16 43  1  0  0  0
 16 44  1  0  0  0
 17 45  1  0  0  0
 17 46  1  0  0  0
 18 19  1  0  0  0
 18 47  1  0  0  0
 18 48  1  0  0  0
 19 20  1  0  0  0
 19 49  1  0  0  0
 20 21  1  0  0  0
 20 22  2  0  0  0
 21 23  1  0  0  0
 21 50  1  0  0  0
 21 51  1  0  0  0
 23 24  1  0  0  0
 23 52  1  0  0  0
 24 25  1  0  0  0
 24 26  2  0  0  0
 25 27  1  0  0  0
 25 53  1  0  0  0
 27 28  1  0  0  0
 27 54  1  0  0  0
 27 55  1  0  0  0
 28 29  1  0  0  0
 28 56  1  0  0  0
 28 57  1  0  0  0
 29 30  2  0  0  0
 29 34  1  0  0  0
 30 31  1  0  0  0
 30 35  1  0  0  0
 31 32  2  0  0  0
 31 58  1  0  0  0
 32 33  1  0  0  0
 32 59  1  0  0  0
 33 34  2  0  0  0
 33 60  1  0  0  0
 34 61  1  0  0  0
M  CHG  2  30   1  35  -1
M  END
> <s_m_entry_id>
35491

> <s_m_entry_name>
dock_pv.341

> <s_m_Source_Path>
/home/csk/Desktop/cluster/DUD-E-result/thrb

> <s_m_Source_File>
dock_pv.maegz

> <i_m_Source_File_Index>
341

> <chembl_id>
CHEMBL231494

> <chembl_pref_name>
None

> <i_lp_mmshare_version>
53161

> <r_lp_tautomer_probability>
1

> <s_lp_Force_Field>
OPLS_2005

> <r_lp_Energy>
9.308582

> <b_lp_Chiralities_Consistent>
1

> <s_lp_Variant>
CHEMBL204_lig4358-2

> <s_i_glide_gridfile>
glide-grid_1ype

> <i_i_glide_lignum>
6011

> <i_i_glide_rotatable_bonds>
16

> <r_i_docking_score>
-6.97784104687126

> <r_i_glide_ligand_efficiency>
-0.199366887053465

> <r_i_glide_ligand_efficiency_sa>
-0.652142306834898

> <r_i_glide_ligand_efficiency_ln>
-1.53179097462638

> <r_i_glide_gscore>
-6.97784104687126

> <r_i_glide_lipo>
-3.24491257549235

> <r_i_glide_hbond>
-0.453306862615135

> <r_i_glide_metal>
0

> <r_i_glide_rewards>
-0.889393463661335

> <r_i_glide_evdw>
-48.6281509399414

> <r_i_glide_ecoul>
-5.72938919067383

> <r_i_glide_erotb>
0.960610777069992

> <r_i_glide_esite>
-0.0600229965742888

> <r_i_glide_emodel>
-73.8515970467232

> <r_i_glide_energy>
-54.3575401306152

> <r_i_glide_einternal>
11.0384387969971

> <i_i_glide_confnum>
30

> <i_i_glide_posenum>
316

> <r_i_glide_eff_state_penalty>
0

> <s_user_duplicate_titles>
CHEMBL204_lig4358

> <i_f3d_flags>
0

> <s_m_subgroup_title>
dock_pv

> <s_m_subgroupid>
dock_pv

> <b_m_subgroup_collapsed>
1

$$$$
CHEMBL204_lig3452
                    3D
 Schrodinger Suite 2021-1.
 53 54  0  0  1  0            999 V2000
   12.2059  -10.0882   22.7538 C   0  0  0  0  0  0
   18.6752  -13.1031   20.2375 C   0  0  0  0  0  0
   12.4139  -11.1937   21.7735 C   0  0  0  0  0  0
   13.2714  -11.0396   20.6654 C   0  0  0  0  0  0
   13.5016  -12.0777   19.7501 C   0  0  0  0  0  0
   19.4722  -13.3856   21.4898 C   0  0  0  0  0  0
   12.9206   -9.0531   22.7182 N   0  0  0  0  0  0
   21.8120  -14.0280   25.1333 C   0  0  0  0  0  0
   20.9977  -13.8107   23.8306 C   0  0  0  0  0  0
   12.8632  -13.3057   19.9418 C   0  0  0  0  0  0
   19.1640  -12.4870   19.2864 O   0  0  0  0  0  0
   11.7911  -12.4445   21.9217 C   0  0  0  0  0  0
   18.8443  -13.5613   22.7314 C   0  0  0  0  0  0
   20.8654  -13.4520   21.4268 C   0  0  0  0  0  0
   12.0162  -13.4836   21.0240 C   0  0  0  0  0  0
   21.6155  -13.6574   22.5817 C   0  0  0  0  0  0
   19.5991  -13.7807   23.8800 C   0  0  0  0  0  0
   17.4179  -13.5756   20.2396 N   0  0  0  0  0  0
   11.2162  -10.3055   23.6790 N   0  0  0  0  0  0
   13.0582  -14.3602   19.0907 O   0  0  0  0  0  0
   14.4600  -11.8437   18.5823 C   0  0  0  0  0  0
   21.2679  -13.1356   26.2828 C   0  0  0  0  0  0
   23.3186  -13.6803   24.9753 C   0  0  0  0  0  0
   21.7049  -15.5145   25.5420 C   0  0  0  0  0  0
   16.4253  -13.4122   19.1819 C   0  0  0  0  0  0
   15.9425  -11.9559   18.9955 C   0  0  0  0  0  0
   13.7814  -10.0991   20.5128 H   0  0  0  0  0  0
   12.6733   -8.4192   23.4616 H   0  0  0  0  0  0
   11.1249  -12.6498   22.7462 H   0  0  0  0  0  0
   17.7695  -13.5136   22.8319 H   0  0  0  0  0  0
   21.3813  -13.3289   20.4845 H   0  0  0  0  0  0
   11.5251  -14.4313   21.1879 H   0  0  0  0  0  0
   22.6890  -13.6849   22.4782 H   0  0  0  0  0  0
   19.0774  -13.9140   24.8155 H   0  0  0  0  0  0
   17.1300  -14.1253   21.0353 H   0  0  0  0  0  0
   11.0003   -9.6088   24.3768 H   0  0  0  0  0  0
   10.5249  -11.0337   23.5417 H   0  0  0  0  0  0
   12.5386  -15.1325   19.3277 H   0  0  0  0  0  0
   14.2573  -10.8526   18.1793 H   0  0  0  0  0  0
   14.2396  -12.5174   17.7532 H   0  0  0  0  0  0
   21.8859  -13.2192   27.1748 H   0  0  0  0  0  0
   20.2591  -13.4111   26.5897 H   0  0  0  0  0  0
   21.2451  -12.0822   26.0002 H   0  0  0  0  0  0
   23.8209  -14.3422   24.2695 H   0  0  0  0  0  0
   23.4688  -12.6532   24.6400 H   0  0  0  0  0  0
   23.8489  -13.7879   25.9207 H   0  0  0  0  0  0
   22.0338  -16.1734   24.7377 H   0  0  0  0  0  0
   22.3253  -15.7341   26.4096 H   0  0  0  0  0  0
   20.6804  -15.7922   25.7939 H   0  0  0  0  0  0
   16.7840  -13.8281   18.2381 H   0  0  0  0  0  0
   15.5956  -14.0448   19.4888 H   0  0  0  0  0  0
   16.1072  -11.3717   19.9035 H   0  0  0  0  0  0
   16.5664  -11.4807   18.2377 H   0  0  0  0  0  0
  1  3  1  0  0  0
  1  7  2  0  0  0
  1 19  1  0  0  0
  2 18  1  0  0  0
  2  6  1  0  0  0
  2 11  2  0  0  0
  3  4  1  0  0  0
  3 12  2  0  0  0
  4  5  2  0  0  0
  4 27  1  0  0  0
  5 21  1  0  0  0
  5 10  1  0  0  0
  6 13  2  0  0  0
  6 14  1  0  0  0
  7 28  1  0  0  0
  8  9  1  0  0  0
  8 22  1  0  0  0
  8 23  1  0  0  0
  8 24  1  0  0  0
  9 16  1  0  0  0
  9 17  2  0  0  0
 10 15  2  0  0  0
 10 20  1  0  0  0
 12 15  1  0  0  0
 12 29  1  0  0  0
 13 17  1  0  0  0
 13 30  1  0  0  0
 14 16  2  0  0  0
 14 31  1  0  0  0
 15 32  1  0  0  0
 16 33  1  0  0  0
 17 34  1  0  0  0
 18 25  1  0  0  0
 18 35  1  0  0  0
 19 36  1  0  0  0
 19 37  1  0  0  0
 20 38  1  0  0  0
 21 26  1  0  0  0
 21 39  1  0  0  0
 21 40  1  0  0  0
 22 41  1  0  0  0
 22 42  1  0  0  0
 22 43  1  0  0  0
 23 44  1  0  0  0
 23 45  1  0  0  0
 23 46  1  0  0  0
 24 47  1  0  0  0
 24 48  1  0  0  0
 24 49  1  0  0  0
 25 26  1  0  0  0
 25 50  1  0  0  0
 25 51  1  0  0  0
 26 52  1  0  0  0
 26 53  1  0  0  0
M  END
> <s_m_entry_id>
35492

> <s_m_entry_name>
dock_pv.342

> <s_m_Source_Path>
/home/csk/Desktop/cluster/DUD-E-result/thrb

> <s_m_Source_File>
dock_pv.maegz

> <i_m_Source_File_Index>
342

> <chembl_id>
CHEMBL70741

> <chembl_pref_name>
None

> <i_lp_mmshare_version>
53161

> <r_lp_tautomer_probability>
1

> <s_lp_Force_Field>
OPLS_2005

> <r_lp_Energy>
13.646632

> <b_lp_Chiralities_Consistent>
1

> <s_lp_Variant>
CHEMBL204_lig3452-1

> <s_i_glide_gridfile>
glide-grid_1ype

> <i_i_glide_lignum>
4807

> <i_i_glide_rotatable_bonds>
9

> <r_i_docking_score>
-6.97414342829269

> <r_i_glide_ligand_efficiency>
-0.268236285703565

> <r_i_glide_ligand_efficiency_sa>
-0.794648940937993

> <r_i_glide_ligand_efficiency_ln>
-1.63785470010344

> <r_i_glide_gscore>
-6.97414342829269

> <r_i_glide_lipo>
-3.25193065493191

> <r_i_glide_hbond>
-0.019379186124481

> <r_i_glide_metal>
0

> <r_i_glide_rewards>
-1.81822937839643

> <r_i_glide_evdw>
-43.1298332214355

> <r_i_glide_ecoul>
-4.30178022384644

> <r_i_glide_erotb>
0.917154485808873

> <r_i_glide_esite>
0

> <r_i_glide_emodel>
-66.5539693295302

> <r_i_glide_energy>
-47.431613445282

> <r_i_glide_einternal>
3.76206254959106

> <i_i_glide_confnum>
51

> <i_i_glide_posenum>
91

> <r_i_glide_eff_state_penalty>
0

> <s_user_duplicate_titles>
CHEMBL204_lig3452

> <i_f3d_flags>
0

> <s_m_subgroup_title>
dock_pv

> <s_m_subgroupid>
dock_pv

> <b_m_subgroup_collapsed>
1

$$$$
CHEMBL204_lig1771
                    3D
 Schrodinger Suite 2021-1.
 61 64  0  0  1  0            999 V2000
   21.4965  -11.9447   18.7865 C   0  0  0  0  0  0
   20.2181  -11.7471   19.3664 O   0  0  0  0  0  0
   19.8042  -12.6442   20.3269 C   0  0  0  0  0  0
   20.5484  -13.6972   20.8852 C   0  0  0  0  0  0
   19.9843  -14.5905   21.8108 C   0  0  0  0  0  0
   18.6464  -14.4443   22.2228 C   0  0  0  0  0  0
   17.8879  -13.3948   21.6807 C   0  0  0  0  0  0
   16.5729  -13.0545   21.8467 N   0  0  0  0  0  0
   16.4237  -12.0168   21.0483 C   0  0  0  0  0  0
   15.2720  -11.3576   20.7215 N   0  0  0  0  0  0
   13.9188  -11.9068   20.8104 C   0  0  2  0  0  0
   13.2370  -11.8743   19.4360 C   0  0  0  0  0  0
   13.2160  -10.6529   18.9013 F   0  0  0  0  0  0
   13.0453  -11.2552   21.8874 C   0  0  0  0  0  0
   12.0100  -12.0137   22.4445 C   0  0  0  0  0  0
   11.1967  -11.4809   23.4442 C   0  0  0  0  0  0
   11.4017  -10.1840   23.9005 C   0  0  0  0  0  0
   12.4175   -9.4125   23.3432 C   0  0  0  0  0  0
   12.7561   -7.8530   23.9889 Cl  0  0  0  0  0  0
   13.2165   -9.9315   22.3210 C   0  0  0  0  0  0
   17.5421  -11.6061   20.3859 O   0  0  0  0  0  0
   18.4830  -12.5154   20.7643 C   0  0  0  0  0  0
   20.7967  -15.7638   22.3027 C   0  0  0  0  0  0
   20.6829  -16.8304   21.6920 O   0  0  0  0  0  0
   21.6092  -15.6062   23.3904 N   0  0  0  0  0  0
   22.2657  -16.8185   23.9469 C   0  0  0  0  0  0
   23.5969  -16.4525   24.6587 C   0  0  1  0  0  0
   24.8300  -16.3644   23.7372 C   0  0  0  0  0  0
   23.4566  -15.2949   25.4729 O   0  0  0  0  0  0
   22.9738  -14.1553   24.7739 C   0  0  0  0  0  0
   21.5297  -14.4151   24.2710 C   0  0  2  0  0  0
   20.4887  -14.5831   25.4092 C   0  0  0  0  0  0
   20.0097  -13.2842   26.0674 C   0  0  0  0  0  0
   21.0673  -12.6313   26.7212 O   0  0  0  0  0  0
   21.6156  -11.2957   17.9211 H   0  0  0  0  0  0
   22.2806  -11.7119   19.5074 H   0  0  0  0  0  0
   21.6160  -12.9687   18.4298 H   0  0  0  0  0  0
   21.5741  -13.8523   20.5793 H   0  0  0  0  0  0
   18.1922  -15.1421   22.9116 H   0  0  0  0  0  0
   15.3245  -10.5699   20.0925 H   0  0  0  0  0  0
   14.0161  -12.9578   21.0917 H   0  0  0  0  0  0
   13.7585  -12.5177   18.7256 H   0  0  0  0  0  0
   12.2079  -12.2290   19.5011 H   0  0  0  0  0  0
   11.8335  -13.0299   22.1223 H   0  0  0  0  0  0
   10.4017  -12.0781   23.8717 H   0  0  0  0  0  0
   10.7784   -9.7907   24.6924 H   0  0  0  0  0  0
   14.0046   -9.3177   21.9097 H   0  0  0  0  0  0
   22.5229  -17.5412   23.1706 H   0  0  0  0  0  0
   21.5957  -17.2863   24.6695 H   0  0  0  0  0  0
   23.8355  -17.2735   25.3356 H   0  0  0  0  0  0
   24.9007  -17.2327   23.0805 H   0  0  0  0  0  0
   24.8225  -15.4734   23.1182 H   0  0  0  0  0  0
   25.7453  -16.3250   24.3296 H   0  0  0  0  0  0
   23.6226  -13.8945   23.9394 H   0  0  0  0  0  0
   23.0335  -13.2903   25.4303 H   0  0  0  0  0  0
   21.2459  -13.5401   23.6849 H   0  0  0  0  0  0
   20.8689  -15.2623   26.1725 H   0  0  0  0  0  0
   19.6059  -15.0763   25.0059 H   0  0  0  0  0  0
   19.2161  -13.4825   26.7849 H   0  0  0  0  0  0
   19.6223  -12.6011   25.3116 H   0  0  0  0  0  0
   20.7680  -11.7677   27.0280 H   0  0  0  0  0  0
  1  2  1  0  0  0
  1 35  1  0  0  0
  1 36  1  0  0  0
  1 37  1  0  0  0
  2  3  1  0  0  0
  3  4  2  0  0  0
  3 22  1  0  0  0
  4  5  1  0  0  0
  4 38  1  0  0  0
  5  6  2  0  0  0
  5 23  1  0  0  0
  6  7  1  0  0  0
  6 39  1  0  0  0
  7  8  1  0  0  0
  7 22  2  0  0  0
  8  9  2  0  0  0
  9 10  1  0  0  0
  9 21  1  0  0  0
 10 11  1  0  0  0
 10 40  1  0  0  0
 11 12  1  0  0  0
 11 14  1  0  0  0
 11 41  1  0  0  0
 12 13  1  0  0  0
 12 42  1  0  0  0
 12 43  1  0  0  0
 14 15  2  0  0  0
 14 20  1  0  0  0
 15 16  1  0  0  0
 15 44  1  0  0  0
 16 17  2  0  0  0
 16 45  1  0  0  0
 17 18  1  0  0  0
 17 46  1  0  0  0
 18 19  1  0  0  0
 18 20  2  0  0  0
 20 47  1  0  0  0
 21 22  1  0  0  0
 23 24  2  0  0  0
 23 25  1  0  0  0
 25 26  1  0  0  0
 25 31  1  0  0  0
 26 27  1  0  0  0
 26 48  1  0  0  0
 26 49  1  0  0  0
 27 28  1  0  0  0
 27 29  1  0  0  0
 27 50  1  0  0  0
 28 51  1  0  0  0
 28 52  1  0  0  0
 28 53  1  0  0  0
 29 30  1  0  0  0
 30 31  1  0  0  0
 30 54  1  0  0  0
 30 55  1  0  0  0
 31 32  1  0  0  0
 31 56  1  0  0  0
 32 33  1  0  0  0
 32 57  1  0  0  0
 32 58  1  0  0  0
 33 34  1  0  0  0
 33 59  1  0  0  0
 33 60  1  0  0  0
 34 61  1  0  0  0
M  END
> <s_m_entry_id>
35493

> <s_m_entry_name>
dock_pv.343

> <s_m_Source_Path>
/home/csk/Desktop/cluster/DUD-E-result/thrb

> <s_m_Source_File>
dock_pv.maegz

> <i_m_Source_File_Index>
343

> <chembl_id>
CHEMBL3941250

> <chembl_pref_name>
None

> <i_lp_mmshare_version>
53161

> <r_lp_tautomer_probability>
1

> <s_lp_Force_Field>
OPLS_2005

> <r_lp_Energy>
42.575856

> <b_lp_Chiralities_Consistent>
1

> <s_lp_Variant>
CHEMBL204_lig1771-7

> <s_i_glide_gridfile>
glide-grid_1ype

> <i_i_glide_lignum>
2603

> <i_i_glide_rotatable_bonds>
10

> <r_i_docking_score>
-6.97364440344083

> <r_i_glide_ligand_efficiency>
-0.205107188336495

> <r_i_glide_ligand_efficiency_sa>
-0.664467667080702

> <r_i_glide_ligand_efficiency_ln>
-1.54067365282004

> <r_i_glide_gscore>
-6.97364440344083

> <r_i_glide_lipo>
-3.96225521858726

> <r_i_glide_hbond>
0

> <r_i_glide_metal>
0

> <r_i_glide_rewards>
-0.226686024851672

> <r_i_glide_evdw>
-50.550968170166

> <r_i_glide_ecoul>
-5.36360311508179

> <r_i_glide_erotb>
0.588945756328861

> <r_i_glide_esite>
-0.0415600405601916

> <r_i_glide_emodel>
-73.4101206230925

> <r_i_glide_energy>
-55.9145712852478

> <r_i_glide_einternal>
12.2993154525757

> <i_i_glide_confnum>
55

> <i_i_glide_posenum>
368

> <r_i_glide_eff_state_penalty>
0

> <s_user_duplicate_titles>
CHEMBL204_lig1771

> <i_f3d_flags>
0

> <s_m_subgroup_title>
dock_pv

> <s_m_subgroupid>
dock_pv

> <b_m_subgroup_collapsed>
1

$$$$
CHEMBL204_lig4082
                    3D
 Schrodinger Suite 2021-1.
 57 59  0  0  1  0            999 V2000
   15.8335  -12.6087   19.0928 C   0  0  2  0  0  0
   17.2046  -12.4612   19.8115 C   0  0  0  0  0  0
   16.0255  -12.7254   17.5932 C   0  0  0  0  0  0
   11.2500  -10.7889   23.6764 C   0  0  0  0  0  0
   15.0211  -11.4535   19.4358 N   0  0  0  0  0  0
   16.5260  -11.6643   16.8221 C   0  0  0  0  0  0
   17.7137  -13.5716   20.3763 N   0  0  0  0  0  0
   16.7198  -11.7964   15.4365 C   0  0  0  0  0  0
   12.2238  -10.9925   22.5642 C   0  0  0  0  0  0
   11.2161   -9.7080   24.3205 N   0  0  0  0  0  0
   16.4111  -13.0138   14.8114 C   0  0  0  0  0  0
   15.6930  -13.9196   16.9495 C   0  0  0  0  0  0
   17.7936  -11.3771   19.8045 O   0  0  0  0  0  0
   15.8831  -14.0655   15.5782 C   0  0  0  0  0  0
   13.0510   -9.9350   22.1435 C   0  0  0  0  0  0
   12.3623  -12.2260   21.8993 C   0  0  0  0  0  0
   14.1000  -11.3346   20.4839 C   0  0  0  0  0  0
   10.4195  -11.8530   23.9208 N   0  0  0  0  0  0
   19.0384  -13.6558   21.0056 C   0  0  0  0  0  0
   13.9796  -10.1030   21.1209 C   0  0  0  0  0  0
   13.2837  -12.3961   20.8701 C   0  0  0  0  0  0
   17.2144  -10.7846   14.6312 O   0  0  0  0  0  0
   16.6439  -13.0997   13.4498 O   0  0  0  0  0  0
   19.0521  -13.8867   22.5185 C   0  0  0  0  0  0
   17.2750   -9.4537   15.1277 C   0  0  0  0  0  0
   16.2832  -14.2870   12.7516 C   0  0  0  0  0  0
   17.9626  -14.4544   23.1922 C   0  0  0  0  0  0
   20.1828  -13.4965   23.2459 C   0  0  0  0  0  0
   20.2290  -13.6752   24.6257 C   0  0  0  0  0  0
   18.0162  -14.6489   24.5709 C   0  0  0  0  0  0
   19.1463  -14.2540   25.2821 C   0  0  0  0  0  0
   15.3589  -13.5080   19.4876 H   0  0  0  0  0  0
   15.5403  -10.5924   19.3168 H   0  0  0  0  0  0
   16.7696  -10.7392   17.3200 H   0  0  0  0  0  0
   17.1777  -14.4263   20.3382 H   0  0  0  0  0  0
   10.4686   -9.7341   25.0050 H   0  0  0  0  0  0
   15.2876  -14.7492   17.5106 H   0  0  0  0  0  0
   15.6107  -15.0072   15.1256 H   0  0  0  0  0  0
   12.9885   -8.9658   22.6187 H   0  0  0  0  0  0
   11.7520  -13.0760   22.1649 H   0  0  0  0  0  0
    9.6498  -11.7477   24.5823 H   0  0  0  0  0  0
   10.5678  -12.7718   23.5208 H   0  0  0  0  0  0
   19.5913  -14.4682   20.5321 H   0  0  0  0  0  0
   19.6234  -12.7555   20.8009 H   0  0  0  0  0  0
   14.6028   -9.2689   20.8315 H   0  0  0  0  0  0
   13.3424  -13.3526   20.3744 H   0  0  0  0  0  0
   17.5783   -8.7908   14.3175 H   0  0  0  0  0  0
   16.3049   -9.1118   15.4861 H   0  0  0  0  0  0
   18.0137   -9.3512   15.9211 H   0  0  0  0  0  0
   16.5084  -14.1657   11.6921 H   0  0  0  0  0  0
   16.8446  -15.1498   13.1125 H   0  0  0  0  0  0
   15.2162  -14.4928   12.8376 H   0  0  0  0  0  0
   17.0731  -14.7550   22.6586 H   0  0  0  0  0  0
   21.0319  -13.0547   22.7445 H   0  0  0  0  0  0
   21.1003  -13.3681   25.1848 H   0  0  0  0  0  0
   17.1771  -15.0911   25.0890 H   0  0  0  0  0  0
   19.1811  -14.3939   26.3527 H   0  0  0  0  0  0
  1  2  1  0  0  0
  1  3  1  0  0  0
  1  5  1  0  0  0
  1 32  1  0  0  0
  2  7  1  0  0  0
  2 13  2  0  0  0
  3  6  1  0  0  0
  3 12  2  0  0  0
  4  9  1  0  0  0
  4 10  2  0  0  0
  4 18  1  0  0  0
  5 17  1  0  0  0
  5 33  1  0  0  0
  6  8  2  0  0  0
  6 34  1  0  0  0
  7 19  1  0  0  0
  7 35  1  0  0  0
  8 22  1  0  0  0
  8 11  1  0  0  0
  9 16  1  0  0  0
  9 15  2  0  0  0
 10 36  1  0  0  0
 11 14  2  0  0  0
 11 23  1  0  0  0
 12 14  1  0  0  0
 12 37  1  0  0  0
 14 38  1  0  0  0
 15 20  1  0  0  0
 15 39  1  0  0  0
 16 21  2  0  0  0
 16 40  1  0  0  0
 17 20  2  0  0  0
 17 21  1  0  0  0
 18 41  1  0  0  0
 18 42  1  0  0  0
 19 24  1  0  0  0
 19 43  1  0  0  0
 19 44  1  0  0  0
 20 45  1  0  0  0
 21 46  1  0  0  0
 22 25  1  0  0  0
 23 26  1  0  0  0
 24 27  1  0  0  0
 24 28  2  0  0  0
 25 47  1  0  0  0
 25 48  1  0  0  0
 25 49  1  0  0  0
 26 50  1  0  0  0
 26 51  1  0  0  0
 26 52  1  0  0  0
 27 30  2  0  0  0
 27 53  1  0  0  0
 28 29  1  0  0  0
 28 54  1  0  0  0
 29 31  2  0  0  0
 29 55  1  0  0  0
 30 31  1  0  0  0
 30 56  1  0  0  0
 31 57  1  0  0  0
M  END
> <s_m_entry_id>
35494

> <s_m_entry_name>
dock_pv.344

> <s_m_Source_Path>
/home/csk/Desktop/cluster/DUD-E-result/thrb

> <s_m_Source_File>
dock_pv.maegz

> <i_m_Source_File_Index>
344

> <chembl_id>
CHEMBL179983

> <chembl_pref_name>
None

> <i_lp_mmshare_version>
53161

> <r_lp_tautomer_probability>
1

> <s_lp_Force_Field>
OPLS_2005

> <r_lp_Energy>
16.695721

> <b_lp_Chiralities_Consistent>
1

> <s_lp_Variant>
CHEMBL204_lig4082-1

> <s_i_glide_gridfile>
glide-grid_1ype

> <i_i_glide_lignum>
5673

> <i_i_glide_rotatable_bonds>
10

> <r_i_docking_score>
-6.97209238975459

> <r_i_glide_ligand_efficiency>
-0.224906206121116

> <r_i_glide_ligand_efficiency_sa>
-0.706516003702902

> <r_i_glide_ligand_efficiency_ln>
-1.57242050286073

> <r_i_glide_gscore>
-6.97209238975459

> <r_i_glide_lipo>
-2.74875793499221

> <r_i_glide_hbond>
-0.368273666395507

> <r_i_glide_metal>
0

> <r_i_glide_rewards>
-0.690859458212036

> <r_i_glide_evdw>
-44.3506736755371

> <r_i_glide_ecoul>
-9.93234062194824

> <r_i_glide_erotb>
0.6774779519414

> <r_i_glide_esite>
-0.134294505027143

> <r_i_glide_emodel>
-72.1380619813964

> <r_i_glide_energy>
-54.2830142974854

> <r_i_glide_einternal>
12.6736221313477

> <i_i_glide_confnum>
17

> <i_i_glide_posenum>
338

> <r_i_glide_eff_state_penalty>
0

> <s_user_duplicate_titles>
CHEMBL204_lig4082,303013

> <i_f3d_flags>
0

> <s_m_subgroup_title>
dock_pv

> <s_m_subgroupid>
dock_pv

> <b_m_subgroup_collapsed>
1

$$$$
CHEMBL204_lig3601
                    3D
 Schrodinger Suite 2021-1.
 92 97  0  0  1  0            999 V2000
   13.2055  -11.7515   21.4123 C   0  0  1  0  0  0
   14.7657  -11.5362   19.7925 B   0  0  0  0  0  0
   14.5876  -11.8068   21.1281 O   0  0  0  0  0  0
   12.9451  -10.8347   22.6554 C   0  0  1  0  0  0
   18.8110  -14.0805   21.4213 N   0  0  0  0  0  0
   12.5726  -11.1506   20.1269 C   0  0  2  0  0  0
   17.7500  -14.2612   22.2434 C   0  0  0  0  0  0
   13.6164  -11.1048   19.1863 O   0  0  0  0  0  0
   13.3140   -9.3095   22.5323 C   0  0  0  0  0  0
   18.4567  -12.2139   19.7953 C   0  0  0  0  0  0
   16.4445  -15.8054   15.0555 C   0  0  0  0  0  0
   12.0117   -9.2333   21.7748 C   0  0  2  0  0  0
   17.1289  -12.1921   19.9667 N   0  0  0  0  0  0
   19.2794  -12.7523   20.9871 C   0  0  2  0  0  0
   17.3900  -15.6956   22.6701 C   0  0  2  0  0  0
   16.1396  -11.6785   19.0280 C   0  0  1  0  0  0
   15.7499  -14.7075   15.5268 N   0  0  0  0  0  0
   11.4820  -10.3750   22.6652 C   0  0  0  0  0  0
   17.1348  -15.5488   13.9690 N   0  0  0  0  0  0
   11.9824   -9.7188   20.3271 C   0  0  0  0  0  0
   15.9887  -15.9136   22.3207 N   0  0  0  0  0  0
   16.8852  -14.2803   13.6920 C   0  0  0  0  0  0
   15.4995  -16.9668   21.6478 C   0  0  0  0  0  0
   16.0388  -13.7081   14.6286 C   0  0  0  0  0  0
   17.0401  -13.3406   22.6499 O   0  0  0  0  0  0
   19.0194  -11.8531   18.7618 O   0  0  0  0  0  0
   17.5774  -15.9120   24.1932 C   0  0  0  0  0  0
   16.4158  -17.0274   15.6695 N   0  0  0  0  0  0
   16.1956  -17.8981   21.2388 O   0  0  0  0  0  0
   19.6772  -15.1289   20.8803 C   0  0  0  0  0  0
   12.7839  -13.2165   21.6648 C   0  0  0  0  0  0
   18.9404  -15.5110   24.7459 C   0  0  0  0  0  0
   14.8736  -14.6167   16.6928 C   0  0  0  0  0  0
   14.5201   -8.8465   21.6945 C   0  0  0  0  0  0
   13.1938   -8.4377   23.8221 C   0  0  0  0  0  0
   20.7555  -13.0271   20.6470 C   0  0  0  0  0  0
   15.9864  -12.5055   17.7246 C   0  0  0  0  0  0
   15.5574  -13.9780   17.9236 C   0  0  0  0  0  0
   20.6820  -14.3981   20.0028 C   0  0  0  0  0  0
   13.9925  -16.9773   21.4017 C   0  0  0  0  0  0
   19.1405  -14.2237   25.2929 C   0  0  0  0  0  0
   20.0598  -16.3500   24.5576 C   0  0  0  0  0  0
   21.3232  -15.9275   24.9559 C   0  0  0  0  0  0
   20.4084  -13.8195   25.6886 C   0  0  0  0  0  0
   21.4964  -14.6692   25.5236 C   0  0  0  0  0  0
   11.8146  -11.8428   19.7637 H   0  0  0  0  0  0
   13.2160  -11.3793   23.5211 H   0  0  0  0  0  0
   11.5991   -8.2531   21.8161 H   0  0  0  0  0  0
   16.7716  -12.4695   20.8761 H   0  0  0  0  0  0
   19.2156  -12.0314   21.8025 H   0  0  0  0  0  0
   18.0072  -16.4373   22.1662 H   0  0  0  0  0  0
   16.4176  -10.6527   18.7783 H   0  0  0  0  0  0
   11.0522  -10.0883   23.6260 H   0  0  0  0  0  0
   10.7596  -11.0752   22.2529 H   0  0  0  0  0  0
   10.8993   -9.7607   20.3211 H   0  0  0  0  0  0
   12.3288   -8.9730   19.6070 H   0  0  0  0  0  0
   15.3629  -15.1857   22.6509 H   0  0  0  0  0  0
   17.3015  -13.7968   12.8200 H   0  0  0  0  0  0
   15.6097  -12.7225   14.7225 H   0  0  0  0  0  0
   16.8166  -15.3692   24.7564 H   0  0  0  0  0  0
   17.4128  -16.9667   24.4200 H   0  0  0  0  0  0
   17.1418  -17.6720   15.3938 H   0  0  0  0  0  0
   15.5249  -17.4978   15.7191 H   0  0  0  0  0  0
   19.1262  -15.8811   20.3160 H   0  0  0  0  0  0
   20.1950  -15.6182   21.7052 H   0  0  0  0  0  0
   11.7149  -13.2883   21.8752 H   0  0  0  0  0  0
   12.9937  -13.8521   20.8026 H   0  0  0  0  0  0
   13.3133  -13.6453   22.5181 H   0  0  0  0  0  0
   14.4906  -15.6098   16.9275 H   0  0  0  0  0  0
   14.0163  -14.0173   16.3928 H   0  0  0  0  0  0
   14.3769   -8.8986   20.6234 H   0  0  0  0  0  0
   15.3747   -9.4465   21.9116 H   0  0  0  0  0  0
   14.8163   -7.8298   21.9204 H   0  0  0  0  0  0
   12.5124   -8.8371   24.5726 H   0  0  0  0  0  0
   14.1212   -8.2529   24.3206 H   0  0  0  0  0  0
   12.8269   -7.4535   23.5712 H   0  0  0  0  0  0
   21.2200  -12.2788   20.0039 H   0  0  0  0  0  0
   21.3471  -13.0725   21.5636 H   0  0  0  0  0  0
   15.2470  -12.0020   17.1004 H   0  0  0  0  0  0
   16.9168  -12.4784   17.1568 H   0  0  0  0  0  0
   16.4160  -14.5751   18.2312 H   0  0  0  0  0  0
   14.8502  -14.0437   18.7502 H   0  0  0  0  0  0
   20.3059  -14.2591   18.9902 H   0  0  0  0  0  0
   21.6158  -14.9377   19.9352 H   0  0  0  0  0  0
   13.7856  -16.9484   20.3298 H   0  0  0  0  0  0
   13.5546  -17.8888   21.8105 H   0  0  0  0  0  0
   13.4996  -16.1211   21.8679 H   0  0  0  0  0  0
   18.3085  -13.5423   25.3980 H   0  0  0  0  0  0
   19.9383  -17.3201   24.0970 H   0  0  0  0  0  0
   22.1769  -16.5755   24.8185 H   0  0  0  0  0  0
   20.5512  -12.8384   26.1204 H   0  0  0  0  0  0
   22.4814  -14.3490   25.8316 H   0  0  0  0  0  0
  1  3  1  0  0  0
  1  4  1  0  0  0
  1  6  1  0  0  0
  1 31  1  0  0  0
  2  3  1  0  0  0
  2 16  1  0  0  0
  2  8  1  0  0  0
  4  9  1  0  0  0
  4 18  1  0  0  0
  4 47  1  0  0  0
  5 14  1  0  0  0
  5  7  1  0  0  0
  5 30  1  0  0  0
  6  8  1  0  0  0
  6 20  1  0  0  0
  6 46  1  0  0  0
  7 15  1  0  0  0
  7 25  2  0  0  0
  9 34  1  0  0  0
  9 35  1  0  0  0
  9 12  1  0  0  0
 10 13  1  0  0  0
 10 14  1  0  0  0
 10 26  2  0  0  0
 11 17  1  0  0  0
 11 19  2  0  0  0
 11 28  1  0  0  0
 12 20  1  0  0  0
 12 18  1  0  0  0
 12 48  1  0  0  0
 13 16  1  0  0  0
 13 49  1  0  0  0
 14 36  1  0  0  0
 14 50  1  0  0  0
 15 21  1  0  0  0
 15 27  1  0  0  0
 15 51  1  0  0  0
 16 37  1  0  0  0
 16 52  1  0  0  0
 17 33  1  0  0  0
 17 24  1  0  0  0
 18 53  1  0  0  0
 18 54  1  0  0  0
 19 22  1  0  0  0
 20 55  1  0  0  0
 20 56  1  0  0  0
 21 23  1  0  0  0
 21 57  1  0  0  0
 22 24  2  0  0  0
 22 58  1  0  0  0
 23 29  2  0  0  0
 23 40  1  0  0  0
 24 59  1  0  0  0
 27 32  1  0  0  0
 27 60  1  0  0  0
 27 61  1  0  0  0
 28 62  1  0  0  0
 28 63  1  0  0  0
 30 39  1  0  0  0
 30 64  1  0  0  0
 30 65  1  0  0  0
 31 66  1  0  0  0
 31 67  1  0  0  0
 31 68  1  0  0  0
 32 41  1  0  0  0
 32 42  2  0  0  0
 33 38  1  0  0  0
 33 69  1  0  0  0
 33 70  1  0  0  0
 34 71  1  0  0  0
 34 72  1  0  0  0
 34 73  1  0  0  0
 35 74  1  0  0  0
 35 75  1  0  0  0
 35 76  1  0  0  0
 36 39  1  0  0  0
 36 77  1  0  0  0
 36 78  1  0  0  0
 37 38  1  0  0  0
 37 79  1  0  0  0
 37 80  1  0  0  0
 38 81  1  0  0  0
 38 82  1  0  0  0
 39 83  1  0  0  0
 39 84  1  0  0  0
 40 85  1  0  0  0
 40 86  1  0  0  0
 40 87  1  0  0  0
 41 44  2  0  0  0
 41 88  1  0  0  0
 42 43  1  0  0  0
 42 89  1  0  0  0
 43 45  2  0  0  0
 43 90  1  0  0  0
 44 45  1  0  0  0
 44 91  1  0  0  0
 45 92  1  0  0  0
M  END
> <s_m_entry_id>
35495

> <s_m_entry_name>
dock_pv.345

> <s_m_Source_Path>
/home/csk/Desktop/cluster/DUD-E-result/thrb

> <s_m_Source_File>
dock_pv.maegz

> <i_m_Source_File_Index>
345

> <chembl_id>
CHEMBL353712

> <chembl_pref_name>
None

> <i_lp_mmshare_version>
53161

> <r_lp_tautomer_probability>
0.999996246217491

> <s_lp_Force_Field>
OPLS_2005

> <r_lp_Energy>
60.935768

> <b_lp_Chiralities_Consistent>
1

> <s_lp_Variant>
CHEMBL204_lig3601-2

> <s_i_glide_gridfile>
glide-grid_1ype

> <i_i_glide_lignum>
5024

> <i_i_glide_rotatable_bonds>
14

> <r_i_docking_score>
-6.96992081052133

> <r_i_glide_ligand_efficiency>
-0.154887129122696

> <r_i_glide_ligand_efficiency_sa>
-0.550916991829154

> <r_i_glide_ligand_efficiency_ln>
-1.45005413326917

> <r_i_glide_gscore>
-6.96992081052133

> <r_i_glide_lipo>
-3.67546583907076

> <r_i_glide_hbond>
-0.291848429115764

> <r_i_glide_metal>
0

> <r_i_glide_rewards>
-0.666949492491854

> <r_i_glide_evdw>
-36.7984352111816

> <r_i_glide_ecoul>
-6.32430219650269

> <r_i_glide_erotb>
0.530715045951132

> <r_i_glide_esite>
-0.077805005759595

> <r_i_glide_emodel>
-40.428099967694

> <r_i_glide_energy>
-43.1227374076843

> <r_i_glide_einternal>
12.677604675293

> <i_i_glide_confnum>
42

> <i_i_glide_posenum>
192

> <r_i_glide_eff_state_penalty>
0

> <s_user_duplicate_titles>
CHEMBL204_lig3601

> <i_f3d_flags>
0

> <s_m_subgroup_title>
dock_pv

> <s_m_subgroupid>
dock_pv

> <b_m_subgroup_collapsed>
1

$$$$
CHEMBL204_lig4852
                    3D
 Schrodinger Suite 2021-1.
 68 70  0  0  1  0            999 V2000
   19.5186  -16.9184   25.6437 O   0  0  0  0  0  0
   19.3396  -15.5368   25.1895 S   0  0  0  0  0  0
   18.0331  -14.8829   25.3128 O   0  0  0  0  0  0
   24.0490  -13.5482   24.6916 C   0  0  0  0  0  0
   24.5880  -14.8032   24.4147 C   0  0  0  0  0  0
   23.8749  -15.9606   24.7222 C   0  0  0  0  0  0
   22.6000  -15.8630   25.2778 C   0  0  0  0  0  0
   22.0372  -14.6045   25.5166 C   0  0  0  0  0  0
   22.7827  -13.4555   25.2597 C   0  0  0  0  0  0
   20.6174  -14.4484   26.0553 C   0  0  0  0  0  0
   19.8407  -15.4796   23.5034 N   0  0  2  0  0  0
   18.8413  -15.1784   22.4553 C   0  0  1  0  0  0
   19.6631  -14.7951   21.1839 C   0  0  0  0  0  0
   17.8817  -16.3982   22.2191 C   0  0  0  0  0  0
   20.4575  -15.6205   20.7235 O   0  0  0  0  0  0
   19.5432  -13.5471   20.6562 N   0  0  0  0  0  0
   20.3858  -13.1039   19.5430 C   0  0  0  0  0  0
   20.5356  -11.6030   19.7433 C   0  0  0  0  0  0
   19.1850  -11.2132   20.3220 C   0  0  0  0  0  0
   18.7231  -12.4253   21.1578 C   0  0  1  0  0  0
   17.2034  -12.6423   21.0490 C   0  0  0  0  0  0
   16.6920  -12.8086   19.8117 N   0  0  0  0  0  0
   16.5437  -12.6530   22.0861 O   0  0  0  0  0  0
   15.2913  -13.1065   19.4682 C   0  0  0  0  0  0
   14.2185  -12.4138   20.3097 C   0  0  0  0  0  0
   14.3038  -11.0497   20.5894 C   0  0  0  0  0  0
   13.4458  -10.4771   21.5217 C   0  0  0  0  0  0
   12.4819  -11.2484   22.1972 C   0  0  0  0  0  0
   12.3526  -12.5991   21.8211 C   0  0  0  0  0  0
   13.2117  -13.1777   20.8950 C   0  0  0  0  0  0
   11.6800  -10.6514   23.3029 C   0  0  0  0  0  0
   10.8157  -11.5142   23.9219 N   0  0  0  0  0  0
   11.8351   -9.4532   23.6446 N   0  0  0  0  0  0
   18.5478  -17.7131   21.7605 C   0  0  0  0  0  0
   16.6922  -16.0669   21.3038 C   0  0  0  0  0  0
   24.6204  -12.6546   24.4868 H   0  0  0  0  0  0
   25.5793  -14.8770   23.9914 H   0  0  0  0  0  0
   24.3074  -16.9311   24.5278 H   0  0  0  0  0  0
   22.0526  -16.7662   25.5024 H   0  0  0  0  0  0
   22.3761  -12.4912   25.5215 H   0  0  0  0  0  0
   20.5565  -14.6556   27.1195 H   0  0  0  0  0  0
   20.2699  -13.4238   25.9089 H   0  0  0  0  0  0
   20.4338  -16.2762   23.2501 H   0  0  0  0  0  0
   18.2566  -14.3453   22.8339 H   0  0  0  0  0  0
   17.4390  -16.6244   23.1899 H   0  0  0  0  0  0
   21.3617  -13.5886   19.5110 H   0  0  0  0  0  0
   19.8709  -13.3238   18.6077 H   0  0  0  0  0  0
   21.3308  -11.4184   20.4640 H   0  0  0  0  0  0
   20.7910  -11.0593   18.8337 H   0  0  0  0  0  0
   19.2163  -10.2899   20.9032 H   0  0  0  0  0  0
   18.5017  -11.0397   19.4926 H   0  0  0  0  0  0
   18.9948  -12.2568   22.2017 H   0  0  0  0  0  0
   17.3427  -12.8297   19.0413 H   0  0  0  0  0  0
   15.1355  -12.8208   18.4257 H   0  0  0  0  0  0
   15.1604  -14.1918   19.5007 H   0  0  0  0  0  0
   15.0854  -10.4506   20.1477 H   0  0  0  0  0  0
   13.5804   -9.4317   21.7602 H   0  0  0  0  0  0
   11.6215  -13.2417   22.2840 H   0  0  0  0  0  0
   13.1259  -14.2348   20.6891 H   0  0  0  0  0  0
   10.1291  -11.1721   24.5863 H   0  0  0  0  0  0
   10.7076  -12.4654   23.6006 H   0  0  0  0  0  0
   11.2297   -9.2238   24.4182 H   0  0  0  0  0  0
   18.9103  -17.6522   20.7343 H   0  0  0  0  0  0
   19.3886  -17.9783   22.4002 H   0  0  0  0  0  0
   17.8389  -18.5405   21.7979 H   0  0  0  0  0  0
   17.0222  -15.7503   20.3164 H   0  0  0  0  0  0
   16.0381  -16.9301   21.1742 H   0  0  0  0  0  0
   16.0850  -15.2718   21.7338 H   0  0  0  0  0  0
  1  2  2  0  0  0
  2  3  2  0  0  0
  2 10  1  0  0  0
  2 11  1  0  0  0
  4  9  1  0  0  0
  4  5  2  0  0  0
  4 36  1  0  0  0
  5  6  1  0  0  0
  5 37  1  0  0  0
  6  7  2  0  0  0
  6 38  1  0  0  0
  7  8  1  0  0  0
  7 39  1  0  0  0
  8 10  1  0  0  0
  8  9  2  0  0  0
  9 40  1  0  0  0
 10 41  1  0  0  0
 10 42  1  0  0  0
 11 12  1  0  0  0
 11 43  1  0  0  0
 12 13  1  0  0  0
 12 14  1  0  0  0
 12 44  1  0  0  0
 13 15  2  0  0  0
 13 16  1  0  0  0
 14 34  1  0  0  0
 14 35  1  0  0  0
 14 45  1  0  0  0
 16 20  1  0  0  0
 16 17  1  0  0  0
 17 18  1  0  0  0
 17 46  1  0  0  0
 17 47  1  0  0  0
 18 19  1  0  0  0
 18 48  1  0  0  0
 18 49  1  0  0  0
 19 20  1  0  0  0
 19 50  1  0  0  0
 19 51  1  0  0  0
 20 21  1  0  0  0
 20 52  1  0  0  0
 21 22  1  0  0  0
 21 23  2  0  0  0
 22 24  1  0  0  0
 22 53  1  0  0  0
 24 25  1  0  0  0
 24 54  1  0  0  0
 24 55  1  0  0  0
 25 26  2  0  0  0
 25 30  1  0  0  0
 26 27  1  0  0  0
 26 56  1  0  0  0
 27 28  2  0  0  0
 27 57  1  0  0  0
 28 29  1  0  0  0
 28 31  1  0  0  0
 29 30  2  0  0  0
 29 58  1  0  0  0
 30 59  1  0  0  0
 31 32  1  0  0  0
 31 33  2  0  0  0
 32 60  1  0  0  0
 32 61  1  0  0  0
 33 62  1  0  0  0
 34 63  1  0  0  0
 34 64  1  0  0  0
 34 65  1  0  0  0
 35 66  1  0  0  0
 35 67  1  0  0  0
 35 68  1  0  0  0
M  END
> <s_m_entry_id>
35496

> <s_m_entry_name>
dock_pv.346

> <s_m_Source_Path>
/home/csk/Desktop/cluster/DUD-E-result/thrb

> <s_m_Source_File>
dock_pv.maegz

> <i_m_Source_File_Index>
346

> <chembl_id>
CHEMBL1809219

> <chembl_pref_name>
None

> <i_lp_mmshare_version>
53161

> <r_lp_tautomer_probability>
1

> <s_lp_Force_Field>
OPLS_2005

> <r_lp_Energy>
16.520267

> <b_lp_Chiralities_Consistent>
1

> <s_lp_Variant>
CHEMBL204_lig4852-1

> <s_i_glide_gridfile>
glide-grid_1ype

> <i_i_glide_lignum>
6636

> <i_i_glide_rotatable_bonds>
12

> <r_i_docking_score>
-6.96765025844969

> <r_i_glide_ligand_efficiency>
-0.199075721669991

> <r_i_glide_ligand_efficiency_sa>
-0.651189885559453

> <r_i_glide_ligand_efficiency_ln>
-1.52955387039548

> <r_i_glide_gscore>
-6.96765025844969

> <r_i_glide_lipo>
-3.28922974027861

> <r_i_glide_hbond>
-0.104621530528862

> <r_i_glide_metal>
0

> <r_i_glide_rewards>
-0.867718325442102

> <r_i_glide_evdw>
-51.8876152038574

> <r_i_glide_ecoul>
-5.14721059799194

> <r_i_glide_erotb>
0.736007296119796

> <r_i_glide_esite>
-0.0756256084282527

> <r_i_glide_emodel>
-73.0118900190306

> <r_i_glide_energy>
-57.0348258018494

> <r_i_glide_einternal>
17.5725631713867

> <i_i_glide_confnum>
152

> <i_i_glide_posenum>
280

> <r_i_glide_eff_state_penalty>
0

> <s_user_duplicate_titles>
CHEMBL204_lig4852

> <i_f3d_flags>
0

> <s_m_subgroup_title>
dock_pv

> <s_m_subgroupid>
dock_pv

> <b_m_subgroup_collapsed>
1

$$$$
CHEMBL204_lig3003
                    3D
 Schrodinger Suite 2021-1.
 49 52  0  0  1  0            999 V2000
   20.3336  -13.2588   23.7672 N   0  0  0  0  0  0
   20.0078  -13.7467   24.8842 C   0  0  0  0  0  0
   20.4156  -13.2272   26.0883 N   0  0  0  0  0  0
   19.1274  -14.9514   24.9727 C   0  0  0  0  0  0
   18.5565  -15.5245   23.8171 C   0  0  0  0  0  0
   17.7255  -16.6496   23.8724 C   0  0  0  0  0  0
   17.4581  -17.2389   25.1088 C   0  0  0  0  0  0
   18.0152  -16.7063   26.2669 C   0  0  0  0  0  0
   18.8312  -15.5789   26.1975 C   0  0  0  0  0  0
   17.1583  -17.2682   22.5959 C   0  0  0  0  0  0
   16.1462  -16.4412   21.9189 N   0  0  0  0  0  0
   14.8134  -16.6256   22.2136 C   0  0  0  0  0  0
   14.4218  -17.4568   23.0371 O   0  0  0  0  0  0
   13.7741  -15.6781   21.5299 C   0  0  0  0  0  0
   14.3638  -14.8795   20.4171 N   0  0  2  0  0  0
   15.6890  -14.3362   20.7216 C   0  0  0  0  0  0
   16.6343  -15.5281   20.8612 C   0  0  0  0  0  0
   13.2666  -13.8206   19.5095 S   0  0  0  0  0  0
   14.0060  -13.2275   18.3874 O   0  0  0  0  0  0
   11.9940  -14.5226   19.3095 O   0  0  0  0  0  0
   12.9584  -12.4956   20.7063 C   0  0  0  0  0  0
   12.0161  -12.5450   21.7100 C   0  0  0  0  0  0
   12.0044  -11.3751   22.5109 C   0  0  0  0  0  0
   12.9519  -10.4047   22.0706 C   0  0  0  0  0  0
   13.8689  -11.0020   20.6959 S   0  0  0  0  0  0
   13.0900   -9.1659   22.7208 C   0  0  0  0  0  0
   12.2809   -8.9101   23.8284 C   0  0  0  0  0  0
   12.4158   -7.4115   24.6747 Cl  0  0  0  0  0  0
   11.3614   -9.8528   24.2701 C   0  0  0  0  0  0
   11.2157  -11.0763   23.6258 C   0  0  0  0  0  0
   19.9472  -13.7703   22.9909 H   0  0  0  0  0  0
   20.9720  -12.3853   26.0919 H   0  0  0  0  0  0
   20.0197  -13.5533   26.9556 H   0  0  0  0  0  0
   18.7644  -15.0997   22.8478 H   0  0  0  0  0  0
   16.8218  -18.1106   25.1724 H   0  0  0  0  0  0
   17.8095  -17.1627   27.2225 H   0  0  0  0  0  0
   19.2411  -15.2108   27.1218 H   0  0  0  0  0  0
   17.9868  -17.4588   21.9133 H   0  0  0  0  0  0
   16.7549  -18.2570   22.8228 H   0  0  0  0  0  0
   12.9814  -16.3099   21.1277 H   0  0  0  0  0  0
   13.3624  -15.0224   22.2989 H   0  0  0  0  0  0
   15.6273  -13.8073   21.6758 H   0  0  0  0  0  0
   16.0091  -13.6525   19.9332 H   0  0  0  0  0  0
   17.6271  -15.1507   21.0957 H   0  0  0  0  0  0
   16.6967  -16.1004   19.9326 H   0  0  0  0  0  0
   11.3575  -13.3841   21.8876 H   0  0  0  0  0  0
   13.8188   -8.4390   22.3957 H   0  0  0  0  0  0
   10.7360   -9.6330   25.1210 H   0  0  0  0  0  0
   10.4728  -11.7787   23.9799 H   0  0  0  0  0  0
  1  2  2  0  0  0
  1 31  1  0  0  0
  2  3  1  0  0  0
  2  4  1  0  0  0
  3 32  1  0  0  0
  3 33  1  0  0  0
  4  5  2  0  0  0
  4  9  1  0  0  0
  5  6  1  0  0  0
  5 34  1  0  0  0
  6  7  2  0  0  0
  6 10  1  0  0  0
  7  8  1  0  0  0
  7 35  1  0  0  0
  8  9  2  0  0  0
  8 36  1  0  0  0
  9 37  1  0  0  0
 10 11  1  0  0  0
 10 38  1  0  0  0
 10 39  1  0  0  0
 11 12  1  0  0  0
 11 17  1  0  0  0
 12 13  2  0  0  0
 12 14  1  0  0  0
 14 15  1  0  0  0
 14 40  1  0  0  0
 14 41  1  0  0  0
 15 16  1  0  0  0
 15 18  1  0  0  0
 16 17  1  0  0  0
 16 42  1  0  0  0
 16 43  1  0  0  0
 17 44  1  0  0  0
 17 45  1  0  0  0
 18 19  2  0  0  0
 18 20  2  0  0  0
 18 21  1  0  0  0
 21 22  2  0  0  0
 21 25  1  0  0  0
 22 23  1  0  0  0
 22 46  1  0  0  0
 23 24  2  0  0  0
 23 30  1  0  0  0
 24 25  1  0  0  0
 24 26  1  0  0  0
 26 27  2  0  0  0
 26 47  1  0  0  0
 27 28  1  0  0  0
 27 29  1  0  0  0
 29 30  2  0  0  0
 29 48  1  0  0  0
 30 49  1  0  0  0
M  END
> <s_m_entry_id>
35497

> <s_m_entry_name>
dock_pv.347

> <s_m_Source_Path>
/home/csk/Desktop/cluster/DUD-E-result/thrb

> <s_m_Source_File>
dock_pv.maegz

> <i_m_Source_File_Index>
347

> <chembl_id>
CHEMBL351298

> <chembl_pref_name>
None

> <i_lp_mmshare_version>
53161

> <r_lp_tautomer_probability>
1

> <s_lp_Force_Field>
OPLS_2005

> <r_lp_Energy>
4.8405

> <b_lp_Chiralities_Consistent>
1

> <s_lp_Variant>
CHEMBL204_lig3003-1

> <s_i_glide_gridfile>
glide-grid_1ype

> <i_i_glide_lignum>
4276

> <i_i_glide_rotatable_bonds>
5

> <r_i_docking_score>
-6.96711695751313

> <r_i_glide_ligand_efficiency>
-0.232237231917104

> <r_i_glide_ligand_efficiency_sa>
-0.721615075287454

> <r_i_glide_ligand_efficiency_ln>
-1.58300488556638

> <r_i_glide_gscore>
-6.96711695751313

> <r_i_glide_lipo>
-2.79838018524623

> <r_i_glide_hbond>
-0.32

> <r_i_glide_metal>
0

> <r_i_glide_rewards>
-0.782159594485615

> <r_i_glide_evdw>
-48.9472045898438

> <r_i_glide_ecoul>
-6.41698455810547

> <r_i_glide_erotb>
0.375993362175183

> <r_i_glide_esite>
-0.0326626267484626

> <r_i_glide_emodel>
-78.3505818413536

> <r_i_glide_energy>
-55.3641891479492

> <r_i_glide_einternal>
0.893320441246033

> <i_i_glide_confnum>
36

> <i_i_glide_posenum>
360

> <r_i_glide_eff_state_penalty>
0

> <s_user_duplicate_titles>
CHEMBL204_lig3003

> <i_f3d_flags>
0

> <s_m_subgroup_title>
dock_pv

> <s_m_subgroupid>
dock_pv

> <b_m_subgroup_collapsed>
1

$$$$
CHEMBL204_lig1904
                    3D
 Schrodinger Suite 2021-1.
 58 61  0  0  1  0            999 V2000
   20.3558  -14.0251   24.8060 S   0  0  0  0  0  0
   15.7431  -13.7196   21.5127 C   0  0  0  0  0  0
   14.4396  -13.4969   21.1192 N   0  0  0  0  0  0
   16.3528  -14.8676   21.0445 N   0  0  0  0  0  0
   22.1376  -14.3250   24.7406 C   0  0  0  0  0  0
   19.8401  -15.2008   23.5807 N   0  0  3  0  0  0
   13.9145  -12.2040   21.3516 C   0  0  0  0  0  0
   11.3623  -10.6531   23.7106 C   0  0  0  0  0  0
   11.2157   -9.5606   24.3208 N   0  0  0  0  0  0
   22.8938  -15.6779   25.5211 S   0  0  0  0  0  0
   17.5939  -15.3166   21.7285 C   0  0  0  0  0  0
   20.1308  -12.6616   24.3077 O   0  0  0  0  0  0
   19.8864  -14.4542   26.1294 O   0  0  0  0  0  0
   12.8716  -12.0609   22.2717 C   0  0  0  0  0  0
   12.4039  -10.7981   22.6658 C   0  0  0  0  0  0
   16.3403  -12.9337   22.2634 O   0  0  0  0  0  0
   20.1361  -14.9850   22.1514 C   0  0  0  0  0  0
   18.7744  -16.1773   23.8655 C   0  0  0  0  0  0
   18.8794  -14.4893   21.4080 C   0  0  0  0  0  0
   17.4529  -15.7046   23.2352 C   0  0  0  0  0  0
   23.0596  -13.5334   24.0741 C   0  0  0  0  0  0
   24.4491  -15.1658   24.9454 C   0  0  0  0  0  0
   24.3696  -14.0026   24.1918 C   0  0  0  0  0  0
   10.6058  -11.7817   23.9220 N   0  0  0  0  0  0
   13.4945  -14.5911   20.8196 C   0  0  0  0  0  0
   15.9190  -15.7466   19.9265 C   0  0  0  0  0  0
   14.4659  -11.0646   20.7479 C   0  0  0  0  0  0
   13.0008   -9.6713   22.0702 C   0  0  0  0  0  0
   14.0137   -9.8012   21.1213 C   0  0  0  0  0  0
   14.9889  -15.1658   18.8432 C   0  0  0  0  0  0
   13.5483  -15.0075   19.3459 C   0  0  0  0  0  0
   10.4387   -9.6188   24.9704 H   0  0  0  0  0  0
   17.8256  -16.2856   21.2810 H   0  0  0  0  0  0
   12.4888  -12.9514   22.7507 H   0  0  0  0  0  0
   20.4975  -15.9243   21.7290 H   0  0  0  0  0  0
   20.9459  -14.2595   22.0577 H   0  0  0  0  0  0
   19.0738  -17.1440   23.4601 H   0  0  0  0  0  0
   18.6689  -16.2968   24.9434 H   0  0  0  0  0  0
   19.0751  -14.4908   20.3348 H   0  0  0  0  0  0
   18.7347  -13.4475   21.6963 H   0  0  0  0  0  0
   17.1144  -14.8439   23.8119 H   0  0  0  0  0  0
   16.6920  -16.4766   23.3587 H   0  0  0  0  0  0
   22.7862  -12.6530   23.5197 H   0  0  0  0  0  0
   25.3374  -15.7257   25.2035 H   0  0  0  0  0  0
   25.2193  -13.5099   23.7459 H   0  0  0  0  0  0
    9.7922  -11.7241   24.5324 H   0  0  0  0  0  0
   10.8160  -12.6852   23.5098 H   0  0  0  0  0  0
   13.7332  -15.4425   21.4597 H   0  0  0  0  0  0
   12.4699  -14.3093   21.0636 H   0  0  0  0  0  0
   16.8159  -16.0305   19.3844 H   0  0  0  0  0  0
   15.5483  -16.6855   20.3381 H   0  0  0  0  0  0
   15.2856  -11.1557   20.0503 H   0  0  0  0  0  0
   12.6883   -8.6759   22.3558 H   0  0  0  0  0  0
   14.4755   -8.9118   20.7208 H   0  0  0  0  0  0
   15.3816  -14.2079   18.4906 H   0  0  0  0  0  0
   14.9798  -15.8258   17.9752 H   0  0  0  0  0  0
   12.9939  -15.9398   19.2208 H   0  0  0  0  0  0
   13.0234  -14.2726   18.7325 H   0  0  0  0  0  0
  1  5  1  0  0  0
  1  6  1  0  0  0
  1 12  2  0  0  0
  1 13  2  0  0  0
  2  4  1  0  0  0
  2  3  1  0  0  0
  2 16  2  0  0  0
  3  7  1  0  0  0
  3 25  1  0  0  0
  4 11  1  0  0  0
  4 26  1  0  0  0
  5 10  1  0  0  0
  5 21  2  0  0  0
  6 17  1  0  0  0
  6 18  1  0  0  0
  7 14  2  0  0  0
  7 27  1  0  0  0
  8 15  1  0  0  0
  8  9  2  0  0  0
  8 24  1  0  0  0
  9 32  1  0  0  0
 10 22  1  0  0  0
 11 20  1  0  0  0
 11 19  1  0  0  0
 11 33  1  0  0  0
 14 15  1  0  0  0
 14 34  1  0  0  0
 15 28  2  0  0  0
 17 19  1  0  0  0
 17 35  1  0  0  0
 17 36  1  0  0  0
 18 20  1  0  0  0
 18 37  1  0  0  0
 18 38  1  0  0  0
 19 39  1  0  0  0
 19 40  1  0  0  0
 20 41  1  0  0  0
 20 42  1  0  0  0
 21 23  1  0  0  0
 21 43  1  0  0  0
 22 23  2  0  0  0
 22 44  1  0  0  0
 23 45  1  0  0  0
 24 46  1  0  0  0
 24 47  1  0  0  0
 25 31  1  0  0  0
 25 48  1  0  0  0
 25 49  1  0  0  0
 26 30  1  0  0  0
 26 50  1  0  0  0
 26 51  1  0  0  0
 27 29  2  0  0  0
 27 52  1  0  0  0
 28 29  1  0  0  0
 28 53  1  0  0  0
 29 54  1  0  0  0
 30 31  1  0  0  0
 30 55  1  0  0  0
 30 56  1  0  0  0
 31 57  1  0  0  0
 31 58  1  0  0  0
M  END
> <s_m_entry_id>
35498

> <s_m_entry_name>
dock_pv.348

> <s_m_Source_Path>
/home/csk/Desktop/cluster/DUD-E-result/thrb

> <s_m_Source_File>
dock_pv.maegz

> <i_m_Source_File_Index>
348

> <chembl_id>
CHEMBL104995

> <chembl_pref_name>
None

> <i_lp_mmshare_version>
53161

> <r_lp_tautomer_probability>
1

> <s_lp_Force_Field>
OPLS_2005

> <r_lp_Energy>
60.137918

> <b_lp_Chiralities_Consistent>
1

> <s_lp_Variant>
CHEMBL204_lig1904-1

> <s_i_glide_gridfile>
glide-grid_1ype

> <i_i_glide_lignum>
2846

> <i_i_glide_rotatable_bonds>
5

> <r_i_docking_score>
-6.96671349155712

> <r_i_glide_ligand_efficiency>
-0.224732693276036

> <r_i_glide_ligand_efficiency_sa>
-0.705970933809051

> <r_i_glide_ligand_efficiency_ln>
-1.57120739647377

> <r_i_glide_gscore>
-6.96671349155712

> <r_i_glide_lipo>
-2.55387344920926

> <r_i_glide_hbond>
-0.683014278473782

> <r_i_glide_metal>
0

> <r_i_glide_rewards>
-0.455463012296852

> <r_i_glide_evdw>
-46.5926170349121

> <r_i_glide_ecoul>
-8.12057018280029

> <r_i_glide_erotb>
0.378031866919847

> <r_i_glide_esite>
-0.104678239331421

> <r_i_glide_emodel>
-73.794282552475

> <r_i_glide_energy>
-54.7131872177124

> <r_i_glide_einternal>
6.92495393753052

> <i_i_glide_confnum>
72

> <i_i_glide_posenum>
203

> <r_i_glide_eff_state_penalty>
0

> <s_user_duplicate_titles>
CHEMBL204_lig1904

> <i_f3d_flags>
0

> <s_m_subgroup_title>
dock_pv

> <s_m_subgroupid>
dock_pv

> <b_m_subgroup_collapsed>
1

$$$$
CHEMBL204_lig4181
                    3D
 Schrodinger Suite 2021-1.
 61 65  0  0  1  0            999 V2000
   17.9648  -12.6381   20.7002 C   0  0  0  0  0  0
   16.6266  -12.5180   20.9627 N   0  0  0  0  0  0
   16.1286  -12.0772   19.8246 C   0  0  0  0  0  0
   12.5458  -13.5502   20.7140 N   0  0  0  0  0  0
   17.0294  -11.9091   18.8086 O   0  0  0  0  0  0
   18.2162  -12.2517   19.3742 C   0  0  0  0  0  0
   13.7815  -11.4211   20.6618 C   0  0  0  0  0  0
   12.4827  -15.7484   20.6090 N   0  0  0  0  0  0
   20.6967  -16.2349   25.4857 N   0  0  1  0  0  0
   12.7505  -12.2364   21.1719 C   0  0  0  0  0  0
   12.0168  -13.8287   19.5205 N   0  0  0  0  0  0
   23.0776  -15.4116   25.3660 C   0  0  0  0  0  0
   19.0602  -13.0472   21.4818 C   0  0  0  0  0  0
   12.8150  -14.7278   21.3552 C   0  0  0  0  0  0
   12.0206  -15.1451   19.5251 C   0  0  0  0  0  0
   14.6701  -11.8433   19.4849 C   0  0  0  0  0  0
   21.8607  -15.9862   24.6092 C   0  0  0  0  0  0
   20.3210  -13.0527   20.9573 N   0  0  0  0  0  0
   11.9339  -11.7695   22.2084 C   0  0  0  0  0  0
   14.0093  -10.1730   21.2566 C   0  0  0  0  0  0
   19.4832  -15.4508   25.1349 C   0  0  2  0  0  0
   18.8544  -13.4528   22.8094 N   0  0  0  0  0  0
   24.0918  -15.2278   24.5190 F   0  0  0  0  0  0
   23.5044  -16.2393   26.3209 F   0  0  0  0  0  0
   22.8173  -14.2309   25.9256 F   0  0  0  0  0  0
   19.4960  -12.2559   18.8103 C   0  0  0  0  0  0
   13.2165   -9.7315   22.3176 C   0  0  0  0  0  0
   12.1596  -10.5162   22.7724 C   0  0  0  0  0  0
   20.5176  -12.6669   19.6685 C   0  0  0  0  0  0
   19.6307  -13.8997   25.1568 C   0  0  0  0  0  0
   19.9031  -13.2236   23.7986 C   0  0  0  0  0  0
   13.6061   -8.2533   23.1209 Cl  0  0  0  0  0  0
   20.4892  -17.6906   25.5801 C   0  0  0  0  0  0
   18.2792  -15.8495   26.0387 C   0  0  0  0  0  0
   19.3321  -18.0685   26.5158 C   0  0  0  0  0  0
   18.0385  -17.3630   26.1057 C   0  0  0  0  0  0
   13.2303  -14.7330   22.3487 H   0  0  0  0  0  0
   11.6434  -15.7103   18.6840 H   0  0  0  0  0  0
   14.5994  -11.0539   18.7387 H   0  0  0  0  0  0
   14.2831  -12.7195   18.9700 H   0  0  0  0  0  0
   21.6090  -15.3237   23.7889 H   0  0  0  0  0  0
   22.1926  -16.8988   24.1103 H   0  0  0  0  0  0
   11.1259  -12.3722   22.5963 H   0  0  0  0  0  0
   14.8248   -9.5507   20.9177 H   0  0  0  0  0  0
   19.1998  -15.7907   24.1368 H   0  0  0  0  0  0
   17.9055  -13.3505   23.1367 H   0  0  0  0  0  0
   19.6818  -11.9714   17.7861 H   0  0  0  0  0  0
   11.5368  -10.1780   23.5887 H   0  0  0  0  0  0
   21.5389  -12.6965   19.3206 H   0  0  0  0  0  0
   18.7246  -13.4461   25.5596 H   0  0  0  0  0  0
   20.4026  -13.6148   25.8699 H   0  0  0  0  0  0
   20.0166  -12.1462   23.9220 H   0  0  0  0  0  0
   20.8523  -13.5510   23.3821 H   0  0  0  0  0  0
   20.3130  -18.0993   24.5839 H   0  0  0  0  0  0
   21.4076  -18.1545   25.9455 H   0  0  0  0  0  0
   17.3646  -15.3742   25.6771 H   0  0  0  0  0  0
   18.4505  -15.4825   27.0531 H   0  0  0  0  0  0
   19.1792  -19.1464   26.4799 H   0  0  0  0  0  0
   19.6083  -17.8531   27.5487 H   0  0  0  0  0  0
   17.7133  -17.7253   25.1288 H   0  0  0  0  0  0
   17.2323  -17.5945   26.8012 H   0  0  0  0  0  0
  1  2  1  0  0  0
  1  6  2  0  0  0
  1 13  1  0  0  0
  2  3  2  0  0  0
  3 16  1  0  0  0
  3  5  1  0  0  0
  4 10  1  0  0  0
  4 11  1  0  0  0
  4 14  1  0  0  0
  5  6  1  0  0  0
  6 26  1  0  0  0
  7 16  1  0  0  0
  7 10  1  0  0  0
  7 20  2  0  0  0
  8 14  2  0  0  0
  8 15  1  0  0  0
  9 21  1  0  0  0
  9 17  1  0  0  0
  9 33  1  0  0  0
 10 19  2  0  0  0
 11 15  2  0  0  0
 12 17  1  0  0  0
 12 23  1  0  0  0
 12 24  1  0  0  0
 12 25  1  0  0  0
 13 18  2  0  0  0
 13 22  1  0  0  0
 14 37  1  0  0  0
 15 38  1  0  0  0
 16 39  1  0  0  0
 16 40  1  0  0  0
 17 41  1  0  0  0
 17 42  1  0  0  0
 18 29  1  0  0  0
 19 28  1  0  0  0
 19 43  1  0  0  0
 20 27  1  0  0  0
 20 44  1  0  0  0
 21 30  1  0  0  0
 21 34  1  0  0  0
 21 45  1  0  0  0
 22 31  1  0  0  0
 22 46  1  0  0  0
 26 29  2  0  0  0
 26 47  1  0  0  0
 27 28  2  0  0  0
 27 32  1  0  0  0
 28 48  1  0  0  0
 29 49  1  0  0  0
 30 31  1  0  0  0
 30 50  1  0  0  0
 30 51  1  0  0  0
 31 52  1  0  0  0
 31 53  1  0  0  0
 33 35  1  0  0  0
 33 54  1  0  0  0
 33 55  1  0  0  0
 34 36  1  0  0  0
 34 56  1  0  0  0
 34 57  1  0  0  0
 35 36  1  0  0  0
 35 58  1  0  0  0
 35 59  1  0  0  0
 36 60  1  0  0  0
 36 61  1  0  0  0
M  END
> <s_m_entry_id>
35499

> <s_m_entry_name>
dock_pv.349

> <s_m_Source_Path>
/home/csk/Desktop/cluster/DUD-E-result/thrb

> <s_m_Source_File>
dock_pv.maegz

> <i_m_Source_File_Index>
349

> <chembl_id>
CHEMBL194670

> <chembl_pref_name>
None

> <i_lp_mmshare_version>
53161

> <r_lp_tautomer_probability>
1

> <s_lp_Force_Field>
OPLS_2005

> <r_lp_Energy>
40.658205

> <b_lp_Chiralities_Consistent>
1

> <s_lp_Variant>
CHEMBL204_lig4181-1

> <s_i_glide_gridfile>
glide-grid_1ype

> <i_i_glide_lignum>
5811

> <i_i_glide_rotatable_bonds>
9

> <r_i_docking_score>
-6.96500812374697

> <r_i_glide_ligand_efficiency>
-0.19347244788186

> <r_i_glide_ligand_efficiency_sa>
-0.638831946808371

> <r_i_glide_ligand_efficiency_ln>
-1.51957659982813

> <r_i_glide_gscore>
-6.96500812374697

> <r_i_glide_lipo>
-3.73761923627299

> <r_i_glide_hbond>
0

> <r_i_glide_metal>
0

> <r_i_glide_rewards>
-0.913495413615817

> <r_i_glide_evdw>
-53.0049514770508

> <r_i_glide_ecoul>
-1.70855128765106

> <r_i_glide_erotb>
0.608048999975874

> <r_i_glide_esite>
-0.015412206833833

> <r_i_glide_emodel>
-72.1404512230331

> <r_i_glide_energy>
-54.7135027647018

> <r_i_glide_einternal>
7.32199048995972

> <i_i_glide_confnum>
51

> <i_i_glide_posenum>
223

> <r_i_glide_eff_state_penalty>
0

> <s_user_duplicate_titles>
CHEMBL204_lig4181

> <i_f3d_flags>
0

> <s_m_subgroup_title>
dock_pv

> <s_m_subgroupid>
dock_pv

> <b_m_subgroup_collapsed>
1

$$$$
CHEMBL204_lig135
                    3D
 Schrodinger Suite 2021-1.
 48 51  0  0  1  0            999 V2000
   20.4997  -14.8756   23.2954 S   0  0  0  0  0  0
   19.5050  -15.4322   24.2206 O   0  0  0  0  0  0
   21.5521  -15.7261   22.7275 O   0  0  0  0  0  0
   15.5271  -13.0529   22.2940 O   0  0  0  0  0  0
   21.8377  -13.4530   26.7746 O   0  0  0  0  0  0
   13.6871  -11.0530   19.0441 O   0  0  0  0  0  0
   13.0110   -9.4561   22.2242 O   0  0  0  0  0  0
   21.2545  -13.4544   24.0435 N   0  0  0  0  0  0
   17.6658  -12.2626   18.7649 N   0  0  0  0  0  0
   13.3605  -12.0250   21.0478 N   0  0  0  0  0  0
   17.5688  -13.1774   21.0215 C   0  0  0  0  0  0
   19.6170  -14.1539   21.9228 C   0  0  0  0  0  0
   18.2682  -12.8793   19.8130 C   0  0  0  0  0  0
   16.1986  -12.7976   21.1183 C   0  0  0  0  0  0
   18.2743  -13.8194   22.0731 C   0  0  0  0  0  0
   15.5762  -12.1600   20.0189 C   0  0  0  0  0  0
   20.2903  -13.8618   20.7399 C   0  0  0  0  0  0
   19.6339  -13.2281   19.6902 C   0  0  0  0  0  0
   16.3611  -11.9282   18.8833 C   0  0  0  0  0  0
   14.1264  -11.7050   19.9938 C   0  0  0  0  0  0
   20.4025  -12.7055   25.0059 C   0  0  0  0  0  0
   22.6397  -13.6400   24.5353 C   0  0  0  0  0  0
   20.4647  -13.3313   26.4107 C   0  0  0  0  0  0
   22.6116  -14.3000   25.9212 C   0  0  0  0  0  0
   12.0292  -11.4903   21.3163 C   0  0  0  0  0  0
   12.0989  -10.4476   22.4048 C   0  0  0  0  0  0
   11.4405  -10.2537   23.6108 C   0  0  0  0  0  0
   12.9431   -8.6530   23.3092 C   0  0  0  0  0  0
   11.9800   -9.1019   24.1819 C   0  0  0  0  0  0
   15.8304  -13.8199   22.7928 H   0  0  0  0  0  0
   13.8104  -12.5437   21.7927 H   0  0  0  0  0  0
   17.7738  -14.0356   23.0057 H   0  0  0  0  0  0
   21.3331  -14.1186   20.6375 H   0  0  0  0  0  0
   20.1640  -13.0056   18.7752 H   0  0  0  0  0  0
   15.9425  -11.4509   18.0080 H   0  0  0  0  0  0
   20.8136  -11.7074   25.1210 H   0  0  0  0  0  0
   19.3997  -12.5936   24.5997 H   0  0  0  0  0  0
   23.2458  -14.1445   23.7830 H   0  0  0  0  0  0
   23.0812  -12.6543   24.6714 H   0  0  0  0  0  0
   19.9736  -14.3038   26.4577 H   0  0  0  0  0  0
   19.9773  -12.6847   27.1396 H   0  0  0  0  0  0
   22.1808  -15.3027   25.8835 H   0  0  0  0  0  0
   23.6167  -14.3946   26.3247 H   0  0  0  0  0  0
   11.3627  -12.3071   21.5980 H   0  0  0  0  0  0
   11.6163  -11.0361   20.4186 H   0  0  0  0  0  0
   10.6567  -10.8732   24.0261 H   0  0  0  0  0  0
   13.6361   -7.8302   23.3400 H   0  0  0  0  0  0
   11.7111   -8.6464   25.1202 H   0  0  0  0  0  0
  1  2  2  0  0  0
  1  3  2  0  0  0
  1  8  1  0  0  0
  1 12  1  0  0  0
  4 14  1  0  0  0
  4 30  1  0  0  0
  5 23  1  0  0  0
  5 24  1  0  0  0
  6 20  2  0  0  0
  7 26  1  0  0  0
  7 28  1  0  0  0
  8 21  1  0  0  0
  8 22  1  0  0  0
  9 13  1  0  0  0
  9 19  2  0  0  0
 10 20  1  0  0  0
 10 25  1  0  0  0
 10 31  1  0  0  0
 11 13  1  0  0  0
 11 14  1  0  0  0
 11 15  2  0  0  0
 12 15  1  0  0  0
 12 17  2  0  0  0
 13 18  2  0  0  0
 14 16  2  0  0  0
 15 32  1  0  0  0
 16 19  1  0  0  0
 16 20  1  0  0  0
 17 18  1  0  0  0
 17 33  1  0  0  0
 18 34  1  0  0  0
 19 35  1  0  0  0
 21 23  1  0  0  0
 21 36  1  0  0  0
 21 37  1  0  0  0
 22 24  1  0  0  0
 22 38  1  0  0  0
 22 39  1  0  0  0
 23 40  1  0  0  0
 23 41  1  0  0  0
 24 42  1  0  0  0
 24 43  1  0  0  0
 25 26  1  0  0  0
 25 44  1  0  0  0
 25 45  1  0  0  0
 26 27  2  0  0  0
 27 29  1  0  0  0
 27 46  1  0  0  0
 28 29  2  0  0  0
 28 47  1  0  0  0
 29 48  1  0  0  0
M  END
> <s_m_entry_id>
35500

> <s_m_entry_name>
dock_pv.350

> <s_m_Source_Path>
/home/csk/Desktop/cluster/DUD-E-result/thrb

> <s_m_Source_File>
dock_pv.maegz

> <i_m_Source_File_Index>
350

> <chembl_id>
CHEMBL1385344

> <chembl_pref_name>
None

> <i_lp_mmshare_version>
53161

> <r_lp_tautomer_probability>
1

> <s_lp_Force_Field>
OPLS_2005

> <r_lp_Energy>
9.757924

> <b_lp_Chiralities_Consistent>
1

> <s_lp_Variant>
CHEMBL204_lig135-1

> <s_i_glide_gridfile>
glide-grid_1ype

> <i_i_glide_lignum>
157

> <i_i_glide_rotatable_bonds>
7

> <r_i_docking_score>
-6.9645651099771

> <r_i_glide_ligand_efficiency>
-0.240157417585417

> <r_i_glide_ligand_efficiency_sa>
-0.737839674032765

> <r_i_glide_ligand_efficiency_ln>
-1.59470880405156

> <r_i_glide_gscore>
-6.9645651099771

> <r_i_glide_lipo>
-3.17357365323217

> <r_i_glide_hbond>
-0.518297731149917

> <r_i_glide_metal>
0

> <r_i_glide_rewards>
-0.729238999756468

> <r_i_glide_evdw>
-41.9655723571777

> <r_i_glide_ecoul>
-6.74875688552856

> <r_i_glide_erotb>
0.56713742484963

> <r_i_glide_esite>
0

> <r_i_glide_emodel>
-63.9661218610877

> <r_i_glide_energy>
-48.7143292427063

> <r_i_glide_einternal>
10.5869121551514

> <i_i_glide_confnum>
30

> <i_i_glide_posenum>
109

> <r_i_glide_eff_state_penalty>
0

> <s_user_duplicate_titles>
CHEMBL204_lig135

> <i_f3d_flags>
0

> <s_m_subgroup_title>
dock_pv

> <s_m_subgroupid>
dock_pv

> <b_m_subgroup_collapsed>
1

$$$$
CHEMBL204_lig3004
                    3D
 Schrodinger Suite 2021-1.
 49 52  0  0  1  0            999 V2000
   21.4533  -13.0872   26.6531 N   0  0  0  0  0  0
   21.9964  -13.8147   25.7782 C   0  0  0  0  0  0
   23.2160  -14.4261   25.9218 N   0  0  0  0  0  0
   21.3501  -14.0582   24.4602 C   0  0  0  0  0  0
   21.8040  -15.0560   23.5748 C   0  0  0  0  0  0
   21.2154  -15.2401   22.3295 C   0  0  0  0  0  0
   20.1666  -14.4231   21.9259 C   0  0  0  0  0  0
   19.6746  -13.4528   22.8008 C   0  0  0  0  0  0
   20.2570  -13.2760   24.0498 C   0  0  0  0  0  0
   19.5521  -14.6522   20.5505 C   0  0  0  0  0  0
   18.1561  -14.2129   20.4261 N   0  0  0  0  0  0
   17.8687  -13.1128   19.6532 C   0  0  0  0  0  0
   18.7377  -12.4192   19.1200 O   0  0  0  0  0  0
   16.3760  -12.7175   19.4969 C   0  0  0  0  0  0
   15.4557  -13.7673   20.0104 N   0  0  1  0  0  0
   15.8426  -14.3272   21.3034 C   0  0  0  0  0  0
   17.1444  -15.0916   21.0669 C   0  0  0  0  0  0
   13.7334  -13.6167   19.6378 S   0  0  0  0  0  0
   13.6160  -13.0264   18.3062 O   0  0  0  0  0  0
   13.0472  -14.8610   20.0044 O   0  0  0  0  0  0
   13.1906  -12.3448   20.7985 C   0  0  0  0  0  0
   12.2451  -12.5311   21.7811 C   0  0  0  0  0  0
   12.0471  -11.3702   22.5688 C   0  0  0  0  0  0
   12.8579  -10.2833   22.1316 C   0  0  0  0  0  0
   13.7932  -10.7079   20.7201 S   0  0  0  0  0  0
   12.8624   -9.0534   22.7975 C   0  0  0  0  0  0
   12.0350   -8.8978   23.9036 C   0  0  0  0  0  0
   12.0160   -7.3852   24.7311 Cl  0  0  0  0  0  0
   11.2159   -9.9377   24.3211 C   0  0  0  0  0  0
   11.2154  -11.1684   23.6723 C   0  0  0  0  0  0
   20.5577  -12.7213   26.3695 H   0  0  0  0  0  0
   23.7601  -14.2744   26.7637 H   0  0  0  0  0  0
   23.6386  -14.9291   25.1590 H   0  0  0  0  0  0
   22.6217  -15.7122   23.8326 H   0  0  0  0  0  0
   21.5964  -16.0081   21.6711 H   0  0  0  0  0  0
   18.8530  -12.8136   22.5151 H   0  0  0  0  0  0
   19.8602  -12.4923   24.6788 H   0  0  0  0  0  0
   20.2057  -14.2033   19.8004 H   0  0  0  0  0  0
   19.5779  -15.7232   20.3453 H   0  0  0  0  0  0
   16.2387  -11.7776   20.0245 H   0  0  0  0  0  0
   16.1889  -12.5669   18.4337 H   0  0  0  0  0  0
   15.0491  -14.9771   21.6761 H   0  0  0  0  0  0
   16.0021  -13.5067   22.0049 H   0  0  0  0  0  0
   16.9876  -15.9489   20.4101 H   0  0  0  0  0  0
   17.5176  -15.4420   22.0304 H   0  0  0  0  0  0
   11.7232  -13.4635   21.9461 H   0  0  0  0  0  0
   13.5080   -8.2530   22.4761 H   0  0  0  0  0  0
   10.5476   -9.7935   25.1547 H   0  0  0  0  0  0
   10.5565  -11.9543   24.0180 H   0  0  0  0  0  0
  1  2  2  0  0  0
  1 31  1  0  0  0
  2  3  1  0  0  0
  2  4  1  0  0  0
  3 32  1  0  0  0
  3 33  1  0  0  0
  4  5  2  0  0  0
  4  9  1  0  0  0
  5  6  1  0  0  0
  5 34  1  0  0  0
  6  7  2  0  0  0
  6 35  1  0  0  0
  7  8  1  0  0  0
  7 10  1  0  0  0
  8  9  2  0  0  0
  8 36  1  0  0  0
  9 37  1  0  0  0
 10 11  1  0  0  0
 10 38  1  0  0  0
 10 39  1  0  0  0
 11 12  1  0  0  0
 11 17  1  0  0  0
 12 13  2  0  0  0
 12 14  1  0  0  0
 14 15  1  0  0  0
 14 40  1  0  0  0
 14 41  1  0  0  0
 15 16  1  0  0  0
 15 18  1  0  0  0
 16 17  1  0  0  0
 16 42  1  0  0  0
 16 43  1  0  0  0
 17 44  1  0  0  0
 17 45  1  0  0  0
 18 19  2  0  0  0
 18 20  2  0  0  0
 18 21  1  0  0  0
 21 22  2  0  0  0
 21 25  1  0  0  0
 22 23  1  0  0  0
 22 46  1  0  0  0
 23 24  2  0  0  0
 23 30  1  0  0  0
 24 25  1  0  0  0
 24 26  1  0  0  0
 26 27  2  0  0  0
 26 47  1  0  0  0
 27 28  1  0  0  0
 27 29  1  0  0  0
 29 30  2  0  0  0
 29 48  1  0  0  0
 30 49  1  0  0  0
M  END
> <s_m_entry_id>
35501

> <s_m_entry_name>
dock_pv.351

> <s_m_Source_Path>
/home/csk/Desktop/cluster/DUD-E-result/thrb

> <s_m_Source_File>
dock_pv.maegz

> <i_m_Source_File_Index>
351

> <chembl_id>
CHEMBL48813

> <chembl_pref_name>
None

> <i_lp_mmshare_version>
53161

> <r_lp_tautomer_probability>
1

> <s_lp_Force_Field>
OPLS_2005

> <r_lp_Energy>
6.79519

> <b_lp_Chiralities_Consistent>
1

> <s_lp_Variant>
CHEMBL204_lig3004-1

> <s_i_glide_gridfile>
glide-grid_1ype

> <i_i_glide_lignum>
4277

> <i_i_glide_rotatable_bonds>
5

> <r_i_docking_score>
-6.96382894033142

> <r_i_glide_ligand_efficiency>
-0.232127631344381

> <r_i_glide_ligand_efficiency_sa>
-0.721274520825602

> <r_i_glide_ligand_efficiency_ln>
-1.58225781223687

> <r_i_glide_gscore>
-6.96382894033142

> <r_i_glide_lipo>
-3.11396944495563

> <r_i_glide_hbond>
-0.32

> <r_i_glide_metal>
0

> <r_i_glide_rewards>
-0.417753568610546

> <r_i_glide_evdw>
-48.4709167480469

> <r_i_glide_ecoul>
-7.09702301025391

> <r_i_glide_erotb>
0.375993362175183

> <r_i_glide_esite>
0

> <r_i_glide_emodel>
-73.7947189433866

> <r_i_glide_energy>
-55.5679397583008

> <r_i_glide_einternal>
3.11732625961304

> <i_i_glide_confnum>
29

> <i_i_glide_posenum>
106

> <r_i_glide_eff_state_penalty>
0

> <s_user_duplicate_titles>
CHEMBL204_lig3004

> <i_f3d_flags>
0

> <s_m_subgroup_title>
dock_pv

> <s_m_subgroupid>
dock_pv

> <b_m_subgroup_collapsed>
1

$$$$
CHEMBL204_lig3419
                    3D
 Schrodinger Suite 2021-1.
 54 58  0  0  1  0            999 V2000
   13.2255  -13.6674   19.5022 S   0  0  0  0  0  0
   12.9321  -12.3587   20.7117 C   0  0  0  0  0  0
   14.4811  -14.6095   20.3156 N   0  0  2  0  0  0
   19.6168  -15.1622   22.8460 N   0  0  0  0  0  0
   18.4541  -15.8715   23.1537 C   0  0  0  0  0  0
   13.8290  -10.8601   20.6918 S   0  0  0  0  0  0
   16.5286  -16.0112   21.6029 N   0  0  0  0  0  0
   15.2505  -16.3213   22.0107 C   0  0  0  0  0  0
   14.0792  -15.4293   21.4890 C   0  0  0  0  0  0
   18.1657  -15.6551   24.4901 C   0  0  0  0  0  0
   20.0912  -14.5260   23.9881 C   0  0  0  0  0  0
   12.0162  -12.4314   21.7343 C   0  0  0  0  0  0
   19.1785  -14.8149   25.0352 C   0  0  0  0  0  0
   12.9382  -10.2878   22.0907 C   0  0  0  0  0  0
   17.6818  -16.7349   22.1599 C   0  0  0  0  0  0
   11.9998  -11.2646   22.5369 C   0  0  0  0  0  0
   15.7865  -13.9673   20.4656 C   0  0  0  0  0  0
   20.2763  -15.0595   21.5345 C   0  0  0  0  0  0
   13.8180  -13.0313   18.3207 O   0  0  0  0  0  0
   12.0027  -14.4724   19.4267 O   0  0  0  0  0  0
   13.0825   -9.0530   22.7450 C   0  0  0  0  0  0
   20.1090  -13.6990   20.8355 C   0  0  0  0  0  0
   16.8111  -15.0886   20.4876 C   0  0  0  0  0  0
   15.0136  -17.2104   22.8320 O   0  0  0  0  0  0
   20.5342  -13.4907   26.5350 N   0  0  0  0  0  0
   19.3247  -12.8487   21.2480 O   0  0  0  0  0  0
   11.2159  -10.9692   23.6564 C   0  0  0  0  0  0
   12.2824   -8.7997   23.8593 C   0  0  0  0  0  0
   21.2265  -13.7299   24.2133 C   0  0  0  0  0  0
   20.8166  -13.4908   19.7286 N   0  0  0  0  0  0
   19.4462  -14.2605   26.2940 C   0  0  0  0  0  0
   11.3586   -9.7432   24.2923 C   0  0  0  0  0  0
   12.4159   -7.3063   24.7174 Cl  0  0  0  0  0  0
   21.3934  -13.2556   25.5170 C   0  0  0  0  0  0
   13.2704  -16.0936   21.1888 H   0  0  0  0  0  0
   13.7444  -14.7947   22.3137 H   0  0  0  0  0  0
   17.3083  -16.0685   25.0054 H   0  0  0  0  0  0
   11.3685  -13.2792   21.9177 H   0  0  0  0  0  0
   18.3053  -17.0986   21.3467 H   0  0  0  0  0  0
   17.3572  -17.6460   22.6636 H   0  0  0  0  0  0
   15.8006  -13.4367   21.4191 H   0  0  0  0  0  0
   15.9676  -13.2646   19.6515 H   0  0  0  0  0  0
   21.3401  -15.2489   21.6875 H   0  0  0  0  0  0
   19.9190  -15.8440   20.8716 H   0  0  0  0  0  0
   13.8123   -8.3272   22.4143 H   0  0  0  0  0  0
   17.7859  -14.6422   20.6081 H   0  0  0  0  0  0
   16.8014  -15.6703   19.5656 H   0  0  0  0  0  0
   10.4736  -11.6718   24.0103 H   0  0  0  0  0  0
   21.9356  -13.4952   23.4361 H   0  0  0  0  0  0
   20.7093  -12.6197   19.2378 H   0  0  0  0  0  0
   21.4849  -14.1737   19.4055 H   0  0  0  0  0  0
   18.7830  -14.4370   27.1256 H   0  0  0  0  0  0
   10.7142   -9.5106   25.1213 H   0  0  0  0  0  0
   22.2535  -12.6515   25.7692 H   0  0  0  0  0  0
  1  2  1  0  0  0
  1  3  1  0  0  0
  1 19  2  0  0  0
  1 20  2  0  0  0
  2  6  1  0  0  0
  2 12  2  0  0  0
  3  9  1  0  0  0
  3 17  1  0  0  0
  4  5  1  0  0  0
  4 11  1  0  0  0
  4 18  1  0  0  0
  5 15  1  0  0  0
  5 10  2  0  0  0
  6 14  1  0  0  0
  7 23  1  0  0  0
  7 15  1  0  0  0
  7  8  1  0  0  0
  8  9  1  0  0  0
  8 24  2  0  0  0
  9 35  1  0  0  0
  9 36  1  0  0  0
 10 13  1  0  0  0
 10 37  1  0  0  0
 11 29  1  0  0  0
 11 13  2  0  0  0
 12 16  1  0  0  0
 12 38  1  0  0  0
 13 31  1  0  0  0
 14 21  1  0  0  0
 14 16  2  0  0  0
 15 39  1  0  0  0
 15 40  1  0  0  0
 16 27  1  0  0  0
 17 23  1  0  0  0
 17 41  1  0  0  0
 17 42  1  0  0  0
 18 22  1  0  0  0
 18 43  1  0  0  0
 18 44  1  0  0  0
 21 28  2  0  0  0
 21 45  1  0  0  0
 22 26  2  0  0  0
 22 30  1  0  0  0
 23 46  1  0  0  0
 23 47  1  0  0  0
 25 31  2  0  0  0
 25 34  1  0  0  0
 27 32  2  0  0  0
 27 48  1  0  0  0
 28 33  1  0  0  0
 28 32  1  0  0  0
 29 34  2  0  0  0
 29 49  1  0  0  0
 30 50  1  0  0  0
 30 51  1  0  0  0
 31 52  1  0  0  0
 32 53  1  0  0  0
 34 54  1  0  0  0
M  END
> <s_m_entry_id>
35502

> <s_m_entry_name>
dock_pv.352

> <s_m_Source_Path>
/home/csk/Desktop/cluster/DUD-E-result/thrb

> <s_m_Source_File>
dock_pv.maegz

> <i_m_Source_File_Index>
352

> <chembl_id>
CHEMBL422365

> <chembl_pref_name>
None

> <i_lp_mmshare_version>
53161

> <r_lp_tautomer_probability>
1

> <s_lp_Force_Field>
OPLS_2005

> <r_lp_Energy>
7.907882

> <b_lp_Chiralities_Consistent>
1

> <s_lp_Variant>
CHEMBL204_lig3419-1

> <s_i_glide_gridfile>
glide-grid_1ype

> <i_i_glide_lignum>
4771

> <i_i_glide_rotatable_bonds>
6

> <r_i_docking_score>
-6.96340300088097

> <r_i_glide_ligand_efficiency>
-0.204805970614146

> <r_i_glide_ligand_efficiency_sa>
-0.663491838593774

> <r_i_glide_ligand_efficiency_ln>
-1.53841103973296

> <r_i_glide_gscore>
-6.96340300088097

> <r_i_glide_lipo>
-3.32697893379902

> <r_i_glide_hbond>
0

> <r_i_glide_metal>
0

> <r_i_glide_rewards>
-0.561935844318841

> <r_i_glide_evdw>
-54.0118064880371

> <r_i_glide_ecoul>
-4.87676620483398

> <r_i_glide_erotb>
0.382650638660269

> <r_i_glide_esite>
-0.0250336062964224

> <r_i_glide_emodel>
-81.944839372523

> <r_i_glide_energy>
-58.8885726928711

> <r_i_glide_einternal>
2.09219098091125

> <i_i_glide_confnum>
76

> <i_i_glide_posenum>
355

> <r_i_glide_eff_state_penalty>
0

> <s_user_duplicate_titles>
CHEMBL204_lig3419

> <i_f3d_flags>
0

> <s_m_subgroup_title>
dock_pv

> <s_m_subgroupid>
dock_pv

> <b_m_subgroup_collapsed>
1

$$$$
CHEMBL204_lig4642
                    3D
 Schrodinger Suite 2021-1.
 65 68  0  0  1  0            999 V2000
   18.5162  -15.3449   21.6598 C   0  0  0  0  0  0
   18.2544  -16.7290   21.6228 C   0  0  0  0  0  0
   16.9703  -17.2195   21.3644 C   0  0  0  0  0  0
   17.4450  -14.4675   21.4358 C   0  0  0  0  0  0
   16.2013  -14.9640   21.0785 C   0  0  0  0  0  0
   15.9228  -16.3353   21.0713 C   0  0  0  0  0  0
   14.5777  -16.7208   20.8319 N   0  0  0  0  0  0
   13.6444  -15.9174   20.2332 C   0  0  0  0  0  0
   14.3265  -14.6034   19.7247 C   0  0  2  0  0  0
   15.2087  -14.0737   20.7415 O   0  0  0  0  0  0
   14.1639  -18.0620   21.2704 C   0  0  0  0  0  0
   12.4474  -16.1754   20.0940 O   0  0  0  0  0  0
   13.3326  -13.5324   19.2007 C   0  0  0  0  0  0
   12.9368  -12.5233   20.2677 C   0  0  0  0  0  0
   12.0159  -12.8745   21.2452 C   0  0  0  0  0  0
   11.7011  -11.9769   22.2585 C   0  0  0  0  0  0
   12.3097  -10.7108   22.3324 C   0  0  0  0  0  0
   13.2359  -10.3773   21.3267 C   0  0  0  0  0  0
   13.5489  -11.2710   20.3074 C   0  0  0  0  0  0
   12.0159   -9.7548   23.4362 C   0  0  0  0  0  0
   12.6167   -8.6535   23.5217 N   0  0  0  0  0  0
   11.0558  -10.1754   24.3208 N   0  0  0  0  0  0
   19.8250  -14.8670   21.9606 N   0  0  0  0  0  0
   20.5862  -15.5712   23.0240 C   0  0  0  0  0  0
   20.8528  -14.7180   24.2571 C   0  0  0  0  0  0
   19.7899  -14.3237   25.0712 C   0  0  0  0  0  0
   20.0301  -13.4932   26.1589 C   0  0  0  0  0  0
   21.3228  -13.0530   26.4216 C   0  0  0  0  0  0
   22.3894  -13.4605   25.6239 C   0  0  0  0  0  0
   22.1560  -14.3066   24.5467 C   0  0  0  0  0  0
   20.4471  -13.8287   21.3086 C   0  0  0  0  0  0
   19.7730  -13.1222   20.1069 C   0  0  0  0  0  0
   21.5732  -13.4530   21.6375 O   0  0  0  0  0  0
   20.6397  -12.2527   19.1901 C   0  0  0  0  0  0
   20.2988  -12.3864   17.8984 O   0  0  0  0  0  0
   21.4711  -11.4558   19.6288 O   0  0  0  0  0  0
   21.0242  -11.7216   16.8796 C   0  0  0  0  0  0
   19.0465  -17.4439   21.7916 H   0  0  0  0  0  0
   16.8097  -18.2866   21.3667 H   0  0  0  0  0  0
   17.5486  -13.3993   21.5224 H   0  0  0  0  0  0
   14.9185  -14.9351   18.8664 H   0  0  0  0  0  0
   13.0823  -18.2032   21.2747 H   0  0  0  0  0  0
   14.5922  -18.8189   20.6141 H   0  0  0  0  0  0
   14.5166  -18.2526   22.2835 H   0  0  0  0  0  0
   13.8233  -12.9879   18.3921 H   0  0  0  0  0  0
   12.4541  -13.9702   18.7258 H   0  0  0  0  0  0
   11.5504  -13.8495   21.2391 H   0  0  0  0  0  0
   10.9781  -12.3027   22.9921 H   0  0  0  0  0  0
   13.7408   -9.4225   21.3373 H   0  0  0  0  0  0
   14.2844  -10.9985   19.5669 H   0  0  0  0  0  0
   12.3171   -8.1306   24.3284 H   0  0  0  0  0  0
   10.6890   -9.5493   25.0224 H   0  0  0  0  0  0
   10.4629  -10.9592   24.0871 H   0  0  0  0  0  0
   21.5262  -15.9381   22.6097 H   0  0  0  0  0  0
   20.0584  -16.4533   23.3821 H   0  0  0  0  0  0
   18.7817  -14.6425   24.8485 H   0  0  0  0  0  0
   19.2174  -13.1813   26.7915 H   0  0  0  0  0  0
   21.5008  -12.3874   27.2548 H   0  0  0  0  0  0
   23.3936  -13.1235   25.8378 H   0  0  0  0  0  0
   22.9777  -14.6104   23.9160 H   0  0  0  0  0  0
   19.2401  -13.8569   19.5028 H   0  0  0  0  0  0
   19.0468  -12.4127   20.4955 H   0  0  0  0  0  0
   20.5100  -11.8527   15.9280 H   0  0  0  0  0  0
   21.1278  -10.6541   17.0800 H   0  0  0  0  0  0
   22.0160  -12.1551   16.7771 H   0  0  0  0  0  0
  1 23  1  0  0  0
  1  2  2  0  0  0
  1  4  1  0  0  0
  2  3  1  0  0  0
  2 38  1  0  0  0
  3  6  2  0  0  0
  3 39  1  0  0  0
  4  5  2  0  0  0
  4 40  1  0  0  0
  5  6  1  0  0  0
  5 10  1  0  0  0
  6  7  1  0  0  0
  7  8  1  0  0  0
  7 11  1  0  0  0
  8  9  1  0  0  0
  8 12  2  0  0  0
  9 10  1  0  0  0
  9 13  1  0  0  0
  9 41  1  0  0  0
 11 42  1  0  0  0
 11 43  1  0  0  0
 11 44  1  0  0  0
 13 14  1  0  0  0
 13 45  1  0  0  0
 13 46  1  0  0  0
 14 19  1  0  0  0
 14 15  2  0  0  0
 15 16  1  0  0  0
 15 47  1  0  0  0
 16 17  2  0  0  0
 16 48  1  0  0  0
 17 18  1  0  0  0
 17 20  1  0  0  0
 18 19  2  0  0  0
 18 49  1  0  0  0
 19 50  1  0  0  0
 20 21  2  0  0  0
 20 22  1  0  0  0
 21 51  1  0  0  0
 22 52  1  0  0  0
 22 53  1  0  0  0
 23 24  1  0  0  0
 23 31  1  0  0  0
 24 25  1  0  0  0
 24 54  1  0  0  0
 24 55  1  0  0  0
 25 26  2  0  0  0
 25 30  1  0  0  0
 26 27  1  0  0  0
 26 56  1  0  0  0
 27 28  2  0  0  0
 27 57  1  0  0  0
 28 29  1  0  0  0
 28 58  1  0  0  0
 29 30  2  0  0  0
 29 59  1  0  0  0
 30 60  1  0  0  0
 31 32  1  0  0  0
 31 33  2  0  0  0
 32 34  1  0  0  0
 32 61  1  0  0  0
 32 62  1  0  0  0
 34 35  1  0  0  0
 34 36  2  0  0  0
 35 37  1  0  0  0
 37 63  1  0  0  0
 37 64  1  0  0  0
 37 65  1  0  0  0
M  END
> <s_m_entry_id>
35503

> <s_m_entry_name>
dock_pv.353

> <s_m_Source_Path>
/home/csk/Desktop/cluster/DUD-E-result/thrb

> <s_m_Source_File>
dock_pv.maegz

> <i_m_Source_File_Index>
353

> <chembl_id>
CHEMBL468812

> <chembl_pref_name>
None

> <i_lp_mmshare_version>
53161

> <r_lp_tautomer_probability>
1

> <s_lp_Force_Field>
OPLS_2005

> <r_lp_Energy>
40.367831

> <b_lp_Chiralities_Consistent>
1

> <s_lp_Variant>
CHEMBL204_lig4642-1

> <s_i_glide_gridfile>
glide-grid_1ype

> <i_i_glide_lignum>
6339

> <i_i_glide_rotatable_bonds>
10

> <r_i_docking_score>
-6.96149378027782

> <r_i_glide_ligand_efficiency>
-0.188148480548049

> <r_i_glide_ligand_efficiency_sa>
-0.626952477481568

> <r_i_glide_ligand_efficiency_ln>
-1.50978480037299

> <r_i_glide_gscore>
-6.96149378027782

> <r_i_glide_lipo>
-3.37548347746626

> <r_i_glide_hbond>
-0.00747399034615322

> <r_i_glide_metal>
0

> <r_i_glide_rewards>
-1.07686414120701

> <r_i_glide_evdw>
-55.6512680053711

> <r_i_glide_ecoul>
-2.02931952476501

> <r_i_glide_erotb>
0.652027995433002

> <r_i_glide_esite>
-0.0667388377080881

> <r_i_glide_emodel>
-77.0160377335954

> <r_i_glide_energy>
-57.6805875301361

> <r_i_glide_einternal>
9.24425601959229

> <i_i_glide_confnum>
25

> <i_i_glide_posenum>
169

> <r_i_glide_eff_state_penalty>
0

> <s_user_duplicate_titles>
CHEMBL204_lig4642,487964

> <i_f3d_flags>
0

> <s_m_subgroup_title>
dock_pv

> <s_m_subgroupid>
dock_pv

> <b_m_subgroup_collapsed>
1

$$$$
CHEMBL204_lig57
                    3D
 Schrodinger Suite 2021-1.
 54 58  0  0  1  0            999 V2000
   20.9042  -13.7737   24.6756 S   0  0  0  0  0  0
   22.3380  -13.4562   24.6992 O   0  0  0  0  0  0
   19.9623  -13.0530   25.5392 O   0  0  0  0  0  0
   16.1938  -13.0817   22.0867 O   0  0  0  0  0  0
   13.2156   -8.2538   23.2105 O   0  0  0  0  0  0
   15.1342  -11.8453   18.1645 O   0  0  0  0  0  0
   11.6159   -9.0940   24.5838 O   0  0  0  0  0  0
   20.1926  -18.2593   24.9182 O   0  0  0  0  0  0
   20.7154  -15.5032   25.0071 N   0  0  0  0  0  0
   19.1164  -12.6557   19.0994 N   0  0  0  0  0  0
   14.3802  -12.5219   20.1743 N   0  0  0  0  0  0
   18.5073  -13.1128   21.4161 C   0  0  0  0  0  0
   20.3358  -13.5388   22.9891 C   0  0  0  0  0  0
   19.4666  -12.9825   20.3690 C   0  0  0  0  0  0
   17.1314  -12.9200   21.0895 C   0  0  0  0  0  0
   18.9730  -13.4013   22.7313 C   0  0  0  0  0  0
   16.7755  -12.5668   19.7631 C   0  0  0  0  0  0
   21.2542  -13.4567   21.9460 C   0  0  0  0  0  0
   20.8340  -13.1893   20.6479 C   0  0  0  0  0  0
   17.8089  -12.4545   18.8280 C   0  0  0  0  0  0
   15.3585  -12.2864   19.2938 C   0  0  0  0  0  0
   19.3182  -15.9999   25.0637 C   0  0  0  0  0  0
   21.6351  -16.4112   24.2814 C   0  0  0  0  0  0
   12.7569   -9.4286   22.7057 C   0  0  0  0  0  0
   11.8123   -9.9421   23.5456 C   0  0  0  0  0  0
   12.5687  -11.3490   21.2909 C   0  0  0  0  0  0
   13.1562  -10.0985   21.5564 C   0  0  0  0  0  0
   12.9819  -12.1420   20.0640 C   0  0  0  0  0  0
   19.3099  -17.4181   25.6666 C   0  0  0  0  0  0
   21.5517  -17.8160   24.9127 C   0  0  0  0  0  0
   11.2178  -11.1749   23.3183 C   0  0  0  0  0  0
   11.6152  -11.8805   22.1767 C   0  0  0  0  0  0
   12.4231   -7.9782   24.3362 C   0  0  0  0  0  0
   16.4983  -13.6171   22.8234 H   0  0  0  0  0  0
   14.6605  -12.9573   21.0458 H   0  0  0  0  0  0
   18.2751  -13.4707   23.5511 H   0  0  0  0  0  0
   22.3090  -13.5797   22.1423 H   0  0  0  0  0  0
   21.5620  -13.1026   19.8538 H   0  0  0  0  0  0
   17.6016  -12.1955   17.7979 H   0  0  0  0  0  0
   18.6993  -15.3319   25.6647 H   0  0  0  0  0  0
   18.9472  -16.1224   24.0437 H   0  0  0  0  0  0
   21.2764  -16.5276   23.2558 H   0  0  0  0  0  0
   22.6569  -16.0399   24.3383 H   0  0  0  0  0  0
   13.9121   -9.6897   20.9024 H   0  0  0  0  0  0
   12.3745  -13.0420   19.9523 H   0  0  0  0  0  0
   12.7925  -11.5377   19.1750 H   0  0  0  0  0  0
   18.3040  -17.8374   25.6323 H   0  0  0  0  0  0
   19.6140  -17.3977   26.7154 H   0  0  0  0  0  0
   22.1586  -18.5251   24.3521 H   0  0  0  0  0  0
   21.9370  -17.8066   25.9340 H   0  0  0  0  0  0
   10.4671  -11.5767   23.9851 H   0  0  0  0  0  0
   11.1652  -12.8440   21.9839 H   0  0  0  0  0  0
   13.0813   -7.8360   25.1924 H   0  0  0  0  0  0
   11.7911   -7.1057   24.1713 H   0  0  0  0  0  0
  1  2  2  0  0  0
  1  3  2  0  0  0
  1  9  1  0  0  0
  1 13  1  0  0  0
  4 15  1  0  0  0
  4 34  1  0  0  0
  5 24  1  0  0  0
  5 33  1  0  0  0
  6 21  2  0  0  0
  7 25  1  0  0  0
  7 33  1  0  0  0
  8 29  1  0  0  0
  8 30  1  0  0  0
  9 22  1  0  0  0
  9 23  1  0  0  0
 10 14  1  0  0  0
 10 20  2  0  0  0
 11 21  1  0  0  0
 11 28  1  0  0  0
 11 35  1  0  0  0
 12 14  1  0  0  0
 12 15  1  0  0  0
 12 16  2  0  0  0
 13 16  1  0  0  0
 13 18  2  0  0  0
 14 19  2  0  0  0
 15 17  2  0  0  0
 16 36  1  0  0  0
 17 20  1  0  0  0
 17 21  1  0  0  0
 18 19  1  0  0  0
 18 37  1  0  0  0
 19 38  1  0  0  0
 20 39  1  0  0  0
 22 29  1  0  0  0
 22 40  1  0  0  0
 22 41  1  0  0  0
 23 30  1  0  0  0
 23 42  1  0  0  0
 23 43  1  0  0  0
 24 25  1  0  0  0
 24 27  2  0  0  0
 25 31  2  0  0  0
 26 27  1  0  0  0
 26 28  1  0  0  0
 26 32  2  0  0  0
 27 44  1  0  0  0
 28 45  1  0  0  0
 28 46  1  0  0  0
 29 47  1  0  0  0
 29 48  1  0  0  0
 30 49  1  0  0  0
 30 50  1  0  0  0
 31 32  1  0  0  0
 31 51  1  0  0  0
 32 52  1  0  0  0
 33 53  1  0  0  0
 33 54  1  0  0  0
M  END
> <s_m_entry_id>
35504

> <s_m_entry_name>
dock_pv.354

> <s_m_Source_Path>
/home/csk/Desktop/cluster/DUD-E-result/thrb

> <s_m_Source_File>
dock_pv.maegz

> <i_m_Source_File_Index>
354

> <chembl_id>
CHEMBL1594934

> <chembl_pref_name>
None

> <i_lp_mmshare_version>
53161

> <r_lp_tautomer_probability>
1

> <s_lp_Force_Field>
OPLS_2005

> <r_lp_Energy>
28.762431

> <b_lp_Chiralities_Consistent>
1

> <s_lp_Variant>
CHEMBL204_lig57-1

> <s_i_glide_gridfile>
glide-grid_1ype

> <i_i_glide_lignum>
64

> <i_i_glide_rotatable_bonds>
7

> <r_i_docking_score>
-6.96045299506597

> <r_i_glide_ligand_efficiency>
-0.210922818032302

> <r_i_glide_ligand_efficiency_sa>
-0.67654217902956

> <r_i_glide_ligand_efficiency_ln>
-1.54796870680584

> <r_i_glide_gscore>
-6.96045299506597

> <r_i_glide_lipo>
-3.06930972357662

> <r_i_glide_hbond>
-0.0886330953888714

> <r_i_glide_metal>
0

> <r_i_glide_rewards>
-1.28500507995636

> <r_i_glide_evdw>
-51.6232528686523

> <r_i_glide_ecoul>
-2.60653114318848

> <r_i_glide_erotb>
0.45463721876677

> <r_i_glide_esite>
0

> <r_i_glide_emodel>
-71.7566865104155

> <r_i_glide_energy>
-54.2297840118408

> <r_i_glide_einternal>
10.6010789871216

> <i_i_glide_confnum>
16

> <i_i_glide_posenum>
236

> <r_i_glide_eff_state_penalty>
0

> <s_user_duplicate_titles>
CHEMBL204_lig57

> <i_f3d_flags>
0

> <s_m_subgroup_title>
dock_pv

> <s_m_subgroupid>
dock_pv

> <b_m_subgroup_collapsed>
1

$$$$
CHEMBL204_lig5089
                    3D
 Schrodinger Suite 2021-1.
 59 62  0  0  1  0            999 V2000
   22.0951  -14.2391   25.9408 N   0  0  0  0  0  0
   20.8169  -13.7600   26.4399 C   0  0  0  0  0  0
   19.6622  -14.5296   25.8050 C   0  0  0  0  0  0
   19.0431  -15.5637   26.5165 C   0  0  0  0  0  0
   18.0308  -16.3234   25.9400 C   0  0  0  0  0  0
   17.6120  -16.0461   24.6448 C   0  0  0  0  0  0
   16.3862  -17.0163   23.9151 Cl  0  0  0  0  0  0
   18.1830  -14.9865   23.9432 C   0  0  0  0  0  0
   19.2135  -14.2178   24.5108 C   0  0  0  0  0  0
   19.8869  -13.0844   23.7259 C   0  0  0  0  0  0
   19.6147  -13.0563   22.2959 N   0  0  0  0  0  0
   20.2040  -13.8899   21.4277 C   0  0  0  0  0  0
   21.0433  -14.7303   21.7448 O   0  0  0  0  0  0
   19.8070  -13.7430   19.9579 C   0  0  2  0  0  0
   20.8089  -12.8322   19.2245 C   0  0  0  0  0  0
   19.9660  -12.0029   18.2772 C   0  0  0  0  0  0
   18.6476  -11.8506   19.0280 C   0  0  0  0  0  0
   18.4808  -13.1177   19.7331 N   0  0  0  0  0  0
   17.3067  -13.7263   20.0623 C   0  0  0  0  0  0
   17.2491  -14.8921   20.4563 O   0  0  0  0  0  0
   16.0811  -12.9694   19.9581 C   0  0  0  0  0  0
   15.7696  -11.6711   20.3697 C   0  0  0  0  0  0
   14.3808  -11.4426   20.2851 C   0  0  0  0  0  0
   13.8651  -12.6347   19.7831 C   0  0  0  0  0  0
   14.8761  -13.5506   19.6597 N   0  0  0  0  0  0
   13.6357  -10.1731   20.6846 C   0  0  1  0  0  0
   12.8227   -9.7314   19.6181 O   0  0  0  0  0  0
   12.8165  -10.2691   21.9657 C   0  0  0  0  0  0
   12.0133  -11.3813   22.2623 C   0  0  0  0  0  0
   11.2160  -11.3768   23.4056 C   0  0  0  0  0  0
   11.2339  -10.2509   24.2259 C   0  0  0  0  0  0
   12.0157   -9.1689   23.9716 N   0  0  0  0  0  0
   12.7888   -9.1908   22.8578 C   0  0  0  0  0  0
   22.2983  -15.1571   26.3088 H   0  0  0  0  0  0
   22.0854  -14.3190   24.9338 H   0  0  0  0  0  0
   20.7168  -12.6949   26.2295 H   0  0  0  0  0  0
   20.7954  -13.8527   27.5204 H   0  0  0  0  0  0
   19.3453  -15.8060   27.5201 H   0  0  0  0  0  0
   17.5793  -17.1321   26.4961 H   0  0  0  0  0  0
   17.8217  -14.7829   22.9470 H   0  0  0  0  0  0
   19.6158  -12.1293   24.1693 H   0  0  0  0  0  0
   20.9690  -13.1454   23.8463 H   0  0  0  0  0  0
   18.9068  -12.4179   21.9646 H   0  0  0  0  0  0
   19.8110  -14.7370   19.5207 H   0  0  0  0  0  0
   21.3131  -12.1635   19.9248 H   0  0  0  0  0  0
   21.5902  -13.3997   18.7164 H   0  0  0  0  0  0
   20.4371  -11.0562   18.0188 H   0  0  0  0  0  0
   19.8008  -12.5640   17.3586 H   0  0  0  0  0  0
   18.7138  -11.0530   19.7690 H   0  0  0  0  0  0
   17.8293  -11.6225   18.3431 H   0  0  0  0  0  0
   16.4779  -10.9481   20.7492 H   0  0  0  0  0  0
   12.8493  -12.9286   19.5593 H   0  0  0  0  0  0
   14.7599  -14.5159   19.3831 H   0  0  0  0  0  0
   14.3794   -9.3861   20.8250 H   0  0  0  0  0  0
   12.0278  -10.2704   19.5837 H   0  0  0  0  0  0
   11.9749  -12.2414   21.6133 H   0  0  0  0  0  0
   10.5740  -12.2142   23.6402 H   0  0  0  0  0  0
   10.6082  -10.2123   25.1064 H   0  0  0  0  0  0
   13.3839   -8.3059   22.6867 H   0  0  0  0  0  0
  1  2  1  0  0  0
  1 34  1  0  0  0
  1 35  1  0  0  0
  2  3  1  0  0  0
  2 36  1  0  0  0
  2 37  1  0  0  0
  3  4  2  0  0  0
  3  9  1  0  0  0
  4  5  1  0  0  0
  4 38  1  0  0  0
  5  6  2  0  0  0
  5 39  1  0  0  0
  6  7  1  0  0  0
  6  8  1  0  0  0
  8  9  2  0  0  0
  8 40  1  0  0  0
  9 10  1  0  0  0
 10 11  1  0  0  0
 10 41  1  0  0  0
 10 42  1  0  0  0
 11 12  1  0  0  0
 11 43  1  0  0  0
 12 13  2  0  0  0
 12 14  1  0  0  0
 14 15  1  0  0  0
 14 18  1  0  0  0
 14 44  1  0  0  0
 15 16  1  0  0  0
 15 45  1  0  0  0
 15 46  1  0  0  0
 16 17  1  0  0  0
 16 47  1  0  0  0
 16 48  1  0  0  0
 17 18  1  0  0  0
 17 49  1  0  0  0
 17 50  1  0  0  0
 18 19  1  0  0  0
 19 20  2  0  0  0
 19 21  1  0  0  0
 21 22  2  0  0  0
 21 25  1  0  0  0
 22 23  1  0  0  0
 22 51  1  0  0  0
 23 24  2  0  0  0
 23 26  1  0  0  0
 24 25  1  0  0  0
 24 52  1  0  0  0
 25 53  1  0  0  0
 26 27  1  0  0  0
 26 28  1  0  0  0
 26 54  1  0  0  0
 27 55  1  0  0  0
 28 29  2  0  0  0
 28 33  1  0  0  0
 29 30  1  0  0  0
 29 56  1  0  0  0
 30 31  2  0  0  0
 30 57  1  0  0  0
 31 32  1  0  0  0
 31 58  1  0  0  0
 32 33  2  0  0  0
 33 59  1  0  0  0
M  END
> <s_m_entry_id>
35505

> <s_m_entry_name>
dock_pv.355

> <s_m_Source_Path>
/home/csk/Desktop/cluster/DUD-E-result/thrb

> <s_m_Source_File>
dock_pv.maegz

> <i_m_Source_File_Index>
355

> <chembl_id>
CHEMBL3974192

> <chembl_pref_name>
None

> <i_lp_mmshare_version>
53161

> <r_lp_tautomer_probability>
1

> <s_lp_Force_Field>
OPLS_2005

> <r_lp_Energy>
28.381523

> <b_lp_Chiralities_Consistent>
1

> <s_lp_Variant>
CHEMBL204_lig5089-2

> <s_i_glide_gridfile>
glide-grid_1ype

> <i_i_glide_lignum>
6966

> <i_i_glide_rotatable_bonds>
10

> <r_i_docking_score>
-6.95910275173946

> <r_i_glide_ligand_efficiency>
-0.210881901567862

> <r_i_glide_ligand_efficiency_sa>
-0.67641093806536

> <r_i_glide_ligand_efficiency_ln>
-1.54766841968121

> <r_i_glide_gscore>
-6.95910275173946

> <r_i_glide_lipo>
-3.61485425459827

> <r_i_glide_hbond>
-0.424512728949322

> <r_i_glide_metal>
0

> <r_i_glide_rewards>
-0.734134675004025

> <r_i_glide_evdw>
-46.6058006286621

> <r_i_glide_ecoul>
-3.95194339752197

> <r_i_glide_erotb>
0.737480447873561

> <r_i_glide_esite>
0

> <r_i_glide_emodel>
-67.8514413823757

> <r_i_glide_energy>
-50.5577440261841

> <r_i_glide_einternal>
8.16365909576416

> <i_i_glide_confnum>
123

> <i_i_glide_posenum>
6

> <r_i_glide_eff_state_penalty>
0

> <s_user_duplicate_titles>
CHEMBL204_lig5089

> <i_f3d_flags>
0

> <s_m_subgroup_title>
dock_pv

> <s_m_subgroupid>
dock_pv

> <b_m_subgroup_collapsed>
1

$$$$
CHEMBL204_lig5015
                    3D
 Schrodinger Suite 2021-1.
 50 51  0  0  1  0            999 V2000
   19.0992  -13.2096   21.0590 N   0  0  0  0  0  0
   18.7744  -12.0825   20.1508 C   0  0  1  0  0  0
   20.0920  -11.8454   19.3889 C   0  0  0  0  0  0
   20.8153  -13.1745   19.4137 C   0  0  0  0  0  0
   20.4179  -13.7710   20.7561 C   0  0  0  0  0  0
   18.3367  -13.5627   22.1242 C   0  0  0  0  0  0
   18.8184  -14.6523   23.1069 C   0  0  0  0  0  0
   17.5396  -12.2277   19.2219 C   0  0  0  0  0  0
   16.5999  -13.1287   19.5493 N   0  0  0  0  0  0
   17.4287  -11.4639   18.2604 O   0  0  0  0  0  0
   15.2308  -13.1511   19.0326 C   0  0  0  0  0  0
   14.2500  -12.5562   20.0415 C   0  0  0  0  0  0
   14.3976  -11.2397   20.4825 C   0  0  0  0  0  0
   13.5483  -10.7287   21.4608 C   0  0  0  0  0  0
   12.5263  -11.5124   22.0302 C   0  0  0  0  0  0
   12.3715  -12.8205   21.5360 C   0  0  0  0  0  0
   13.2168  -13.3379   20.5581 C   0  0  0  0  0  0
   11.6672  -10.9574   23.1212 C   0  0  0  0  0  0
   11.7446   -9.7484   23.4579 N   0  0  0  0  0  0
   10.8160  -11.8529   23.7175 N   0  0  0  0  0  0
   17.2363  -13.0479   22.3251 O   0  0  0  0  0  0
   18.7358  -14.2458   24.6027 C   0  0  0  0  0  0
   19.7539  -13.1456   24.9705 C   0  0  0  0  0  0
   18.9131  -15.4684   25.5214 C   0  0  0  0  0  0
   18.5738  -11.1979   20.7598 H   0  0  0  0  0  0
   20.6816  -11.1014   19.9277 H   0  0  0  0  0  0
   19.9722  -11.4902   18.3666 H   0  0  0  0  0  0
   21.8911  -13.0527   19.2926 H   0  0  0  0  0  0
   20.4478  -13.8141   18.6119 H   0  0  0  0  0  0
   21.1198  -13.4570   21.5302 H   0  0  0  0  0  0
   20.4156  -14.8607   20.7096 H   0  0  0  0  0  0
   19.8324  -14.9884   22.9005 H   0  0  0  0  0  0
   18.1939  -15.5288   22.9326 H   0  0  0  0  0  0
   16.7552  -13.6704   20.3906 H   0  0  0  0  0  0
   15.1380  -12.5867   18.1017 H   0  0  0  0  0  0
   14.9644  -14.1828   18.7951 H   0  0  0  0  0  0
   15.1914  -10.6189   20.0907 H   0  0  0  0  0  0
   13.7137   -9.7137   21.7951 H   0  0  0  0  0  0
   11.5937  -13.4662   21.9150 H   0  0  0  0  0  0
   13.0767  -14.3561   20.2243 H   0  0  0  0  0  0
   11.0907   -9.5471   24.2024 H   0  0  0  0  0  0
   10.1089  -11.5219   24.3652 H   0  0  0  0  0  0
   10.8148  -12.8447   23.5008 H   0  0  0  0  0  0
   17.7337  -13.8587   24.8026 H   0  0  0  0  0  0
   20.7787  -13.4969   24.8474 H   0  0  0  0  0  0
   19.6356  -12.8314   26.0078 H   0  0  0  0  0  0
   19.6363  -12.2557   24.3520 H   0  0  0  0  0  0
   19.8944  -15.9278   25.3924 H   0  0  0  0  0  0
   18.8130  -15.1898   26.5716 H   0  0  0  0  0  0
   18.1591  -16.2302   25.3186 H   0  0  0  0  0  0
  1  2  1  0  0  0
  1  5  1  0  0  0
  1  6  1  0  0  0
  2  3  1  0  0  0
  2  8  1  0  0  0
  2 25  1  0  0  0
  3  4  1  0  0  0
  3 26  1  0  0  0
  3 27  1  0  0  0
  4  5  1  0  0  0
  4 28  1  0  0  0
  4 29  1  0  0  0
  5 30  1  0  0  0
  5 31  1  0  0  0
  6  7  1  0  0  0
  6 21  2  0  0  0
  7 22  1  0  0  0
  7 32  1  0  0  0
  7 33  1  0  0  0
  8  9  1  0  0  0
  8 10  2  0  0  0
  9 11  1  0  0  0
  9 34  1  0  0  0
 11 12  1  0  0  0
 11 35  1  0  0  0
 11 36  1  0  0  0
 12 13  2  0  0  0
 12 17  1  0  0  0
 13 14  1  0  0  0
 13 37  1  0  0  0
 14 15  2  0  0  0
 14 38  1  0  0  0
 15 16  1  0  0  0
 15 18  1  0  0  0
 16 17  2  0  0  0
 16 39  1  0  0  0
 17 40  1  0  0  0
 18 19  2  0  0  0
 18 20  1  0  0  0
 19 41  1  0  0  0
 20 42  1  0  0  0
 20 43  1  0  0  0
 22 23  1  0  0  0
 22 24  1  0  0  0
 22 44  1  0  0  0
 23 45  1  0  0  0
 23 46  1  0  0  0
 23 47  1  0  0  0
 24 48  1  0  0  0
 24 49  1  0  0  0
 24 50  1  0  0  0
M  END
> <s_m_entry_id>
35506

> <s_m_entry_name>
dock_pv.356

> <s_m_Source_Path>
/home/csk/Desktop/cluster/DUD-E-result/thrb

> <s_m_Source_File>
dock_pv.maegz

> <i_m_Source_File_Index>
356

> <chembl_id>
CHEMBL3423004

> <chembl_pref_name>
None

> <i_lp_mmshare_version>
53161

> <r_lp_tautomer_probability>
1

> <s_lp_Force_Field>
OPLS_2005

> <r_lp_Energy>
10.053596

> <b_lp_Chiralities_Consistent>
1

> <s_lp_Variant>
CHEMBL204_lig5015-1

> <s_i_glide_gridfile>
glide-grid_1ype

> <i_i_glide_lignum>
6862

> <i_i_glide_rotatable_bonds>
8

> <r_i_docking_score>
-6.95884395876682

> <r_i_glide_ligand_efficiency>
-0.289951831615284

> <r_i_glide_ligand_efficiency_sa>
-0.836365808227974

> <r_i_glide_ligand_efficiency_ln>
-1.66557067987496

> <r_i_glide_gscore>
-6.95884395876682

> <r_i_glide_lipo>
-2.54863953767687

> <r_i_glide_hbond>
-0.388437004197271

> <r_i_glide_metal>
0

> <r_i_glide_rewards>
-1.80930366591019

> <r_i_glide_evdw>
-38.5149230957031

> <r_i_glide_ecoul>
-8.12922477722168

> <r_i_glide_erotb>
1.03358877547275

> <r_i_glide_esite>
-0.100922655086831

> <r_i_glide_emodel>
-61.648282925472

> <r_i_glide_energy>
-46.6441478729248

> <r_i_glide_einternal>
7.7229323387146

> <i_i_glide_confnum>
61

> <i_i_glide_posenum>
51

> <r_i_glide_eff_state_penalty>
0

> <s_user_duplicate_titles>
CHEMBL204_lig5015,CHEMBL204_lig5170,CHEMBL204_lig4699

> <i_f3d_flags>
0

> <s_m_subgroup_title>
dock_pv

> <s_m_subgroupid>
dock_pv

> <b_m_subgroup_collapsed>
1

$$$$
CHEMBL204_lig569
                    3D
 Schrodinger Suite 2021-1.
 60 62  0  0  1  0            999 V2000
   22.4185  -14.4008   23.6599 S   0  0  0  0  0  0
   18.7160  -12.8368   20.8992 N   0  0  0  0  0  0
   20.0552  -12.8769   20.6985 C   0  0  0  0  0  0
   20.5724  -14.0326   21.5655 C   0  0  1  0  0  0
   12.9468  -11.8526   21.8838 C   0  0  1  0  0  0
   21.2212  -13.4664   22.7763 N   0  0  2  0  0  0
   13.0350  -11.3285   20.4060 C   0  0  2  0  0  0
   11.8707  -11.1139   22.7247 C   0  0  0  0  0  0
   16.7016  -12.0834   19.6944 C   0  0  0  0  0  0
   15.5057  -11.6697   20.1462 N   0  0  0  0  0  0
   14.1809  -12.0428   19.6218 C   0  0  1  0  0  0
   17.9130  -11.6548   20.5346 C   0  0  0  0  0  0
   19.3544  -14.8932   21.8203 C   0  0  0  0  0  0
   22.4090  -15.7724   23.1419 O   0  0  0  0  0  0
   23.6528  -13.6101   23.6528 O   0  0  0  0  0  0
   18.2043  -13.9065   21.7620 C   0  0  0  0  0  0
   12.0148   -9.8755   22.9027 N   0  0  0  0  0  0
   21.7723  -14.4379   25.4360 C   0  0  0  0  0  0
   20.7520  -12.0823   20.0638 O   0  0  0  0  0  0
   16.8496  -12.7783   18.6900 O   0  0  0  0  0  0
   10.8299  -11.8522   23.2251 N   0  0  0  0  0  0
   13.2155   -9.9201   20.3429 O   0  0  0  0  0  0
   12.8036  -13.4070   21.9100 C   0  0  0  0  0  0
   20.4769  -15.2212   25.5862 C   0  0  0  0  0  0
   13.8986  -13.5692   19.6396 C   0  0  0  0  0  0
   13.8703  -14.1340   21.0729 C   0  0  0  0  0  0
   20.4843  -16.6094   25.4222 C   0  0  0  0  0  0
   19.2862  -14.5614   25.8991 C   0  0  0  0  0  0
   18.1086  -15.2899   26.0347 C   0  0  0  0  0  0
   19.3043  -17.3351   25.5575 C   0  0  0  0  0  0
   18.1204  -16.6716   25.8694 C   0  0  0  0  0  0
   21.3539  -14.5678   21.0225 H   0  0  0  0  0  0
   13.9023  -11.6254   22.3546 H   0  0  0  0  0  0
   21.4503  -12.4735   22.6991 H   0  0  0  0  0  0
   12.0844  -11.5277   19.9100 H   0  0  0  0  0  0
   15.4914  -10.9655   20.8668 H   0  0  0  0  0  0
   14.1626  -11.7110   18.5812 H   0  0  0  0  0  0
   18.4889  -10.9330   19.9580 H   0  0  0  0  0  0
   17.5890  -11.1460   21.4440 H   0  0  0  0  0  0
   19.3862  -15.4462   22.7574 H   0  0  0  0  0  0
   19.2608  -15.6238   21.0187 H   0  0  0  0  0  0
   17.9700  -13.5133   22.7479 H   0  0  0  0  0  0
   17.3075  -14.3643   21.3460 H   0  0  0  0  0  0
   11.2633   -9.5076   23.4694 H   0  0  0  0  0  0
   22.5544  -14.8899   26.0452 H   0  0  0  0  0  0
   21.6622  -13.4030   25.7573 H   0  0  0  0  0  0
   10.0725  -11.4049   23.7275 H   0  0  0  0  0  0
   10.8183  -12.8643   23.1669 H   0  0  0  0  0  0
   12.7600   -9.5477   21.1122 H   0  0  0  0  0  0
   12.8148  -13.7713   22.9390 H   0  0  0  0  0  0
   11.8111  -13.6900   21.5530 H   0  0  0  0  0  0
   12.9441  -13.7696   19.1499 H   0  0  0  0  0  0
   14.6412  -14.1050   19.0461 H   0  0  0  0  0  0
   13.6589  -15.2037   21.0499 H   0  0  0  0  0  0
   14.8474  -14.0269   21.5453 H   0  0  0  0  0  0
   21.4008  -17.1266   25.1799 H   0  0  0  0  0  0
   19.2690  -13.4897   26.0482 H   0  0  0  0  0  0
   17.1889  -14.7844   26.2727 H   0  0  0  0  0  0
   19.3098  -18.4062   25.4278 H   0  0  0  0  0  0
   17.2028  -17.2303   25.9802 H   0  0  0  0  0  0
  1  6  1  0  0  0
  1 14  2  0  0  0
  1 15  2  0  0  0
  1 18  1  0  0  0
  2  3  1  0  0  0
  2 12  1  0  0  0
  2 16  1  0  0  0
  3  4  1  0  0  0
  3 19  2  0  0  0
  4  6  1  0  0  0
  4 13  1  0  0  0
  4 32  1  0  0  0
  5  7  1  0  0  0
  5  8  1  0  0  0
  5 23  1  0  0  0
  5 33  1  0  0  0
  6 34  1  0  0  0
  7 11  1  0  0  0
  7 22  1  0  0  0
  7 35  1  0  0  0
  8 17  2  0  0  0
  8 21  1  0  0  0
  9 12  1  0  0  0
  9 10  1  0  0  0
  9 20  2  0  0  0
 10 11  1  0  0  0
 10 36  1  0  0  0
 11 25  1  0  0  0
 11 37  1  0  0  0
 12 38  1  0  0  0
 12 39  1  0  0  0
 13 16  1  0  0  0
 13 40  1  0  0  0
 13 41  1  0  0  0
 16 42  1  0  0  0
 16 43  1  0  0  0
 17 44  1  0  0  0
 18 24  1  0  0  0
 18 45  1  0  0  0
 18 46  1  0  0  0
 21 47  1  0  0  0
 21 48  1  0  0  0
 22 49  1  0  0  0
 23 26  1  0  0  0
 23 50  1  0  0  0
 23 51  1  0  0  0
 24 27  2  0  0  0
 24 28  1  0  0  0
 25 26  1  0  0  0
 25 52  1  0  0  0
 25 53  1  0  0  0
 26 54  1  0  0  0
 26 55  1  0  0  0
 27 30  1  0  0  0
 27 56  1  0  0  0
 28 29  2  0  0  0
 28 57  1  0  0  0
 29 31  1  0  0  0
 29 58  1  0  0  0
 30 31  2  0  0  0
 30 59  1  0  0  0
 31 60  1  0  0  0
M  END
> <s_m_entry_id>
35508

> <s_m_entry_name>
dock_pv.358

> <s_m_Source_Path>
/home/csk/Desktop/cluster/DUD-E-result/thrb

> <s_m_Source_File>
dock_pv.maegz

> <i_m_Source_File_Index>
358

> <chembl_id>
CHEMBL421760

> <chembl_pref_name>
None

> <i_lp_mmshare_version>
53161

> <r_lp_tautomer_probability>
1

> <s_lp_Force_Field>
OPLS_2005

> <r_lp_Energy>
21.079459

> <b_lp_Chiralities_Consistent>
1

> <s_lp_Variant>
CHEMBL204_lig569-6

> <s_i_glide_gridfile>
glide-grid_1ype

> <i_i_glide_lignum>
783

> <i_i_glide_rotatable_bonds>
10

> <r_i_docking_score>
-6.95858818437473

> <r_i_glide_ligand_efficiency>
-0.224470586592733

> <r_i_glide_ligand_efficiency_sa>
-0.705147556946204

> <r_i_glide_ligand_efficiency_ln>
-1.56937489069338

> <r_i_glide_gscore>
-6.95858818437473

> <r_i_glide_lipo>
-2.36639112711596

> <r_i_glide_hbond>
-0.436537532666459

> <r_i_glide_metal>
0

> <r_i_glide_rewards>
-1.27840521597912

> <r_i_glide_evdw>
-45.9211616516113

> <r_i_glide_ecoul>
-8.12129211425781

> <r_i_glide_erotb>
0.688635728621891

> <r_i_glide_esite>
-0.0516381375158486

> <r_i_glide_emodel>
-68.1104332229527

> <r_i_glide_energy>
-54.0424537658691

> <r_i_glide_einternal>
18.7700099945068

> <i_i_glide_confnum>
19

> <i_i_glide_posenum>
165

> <r_i_glide_eff_state_penalty>
0

> <s_user_duplicate_titles>
CHEMBL204_lig569

> <i_f3d_flags>
0

> <s_m_subgroup_title>
dock_pv

> <s_m_subgroupid>
dock_pv

> <b_m_subgroup_collapsed>
1

$$$$
CHEMBL204_lig4173
                    3D
 Schrodinger Suite 2021-1.
 67 71  0  0  1  0            999 V2000
   14.4675  -15.4029   20.8065 C   0  0  0  0  0  0
   13.7291  -14.5479   21.5728 N   0  0  0  0  0  0
   12.7634  -14.1819   20.7679 C   0  0  0  0  0  0
   14.1956  -11.6312   19.8141 N   0  0  0  0  0  0
   12.7350  -14.8027   19.5472 O   0  0  0  0  0  0
   13.8643  -15.5599   19.5542 C   0  0  0  0  0  0
   12.3506  -11.7334   21.4877 C   0  0  0  0  0  0
   15.8504  -12.2043   18.4730 N   0  0  0  0  0  0
   20.5015  -13.6727   21.8128 N   0  0  2  0  0  0
   13.4590  -11.0875   20.8823 C   0  0  0  0  0  0
   13.6165  -12.1191   18.7211 N   0  0  0  0  0  0
   15.6716  -16.0753   21.0482 C   0  0  0  0  0  0
   15.5521  -11.6709   19.6299 C   0  0  0  0  0  0
   14.6507  -12.4614   17.9845 C   0  0  0  0  0  0
   11.7665  -13.0749   21.0139 C   0  0  0  0  0  0
   21.3555  -14.6355   22.5361 C   0  0  0  0  0  0
   16.2638  -16.8186   20.0697 N   0  0  0  0  0  0
   22.1679  -13.9851   23.6584 C   0  0  0  0  0  0
   13.8736   -9.8346   21.3417 C   0  0  0  0  0  0
   11.7157  -11.0976   22.5624 C   0  0  0  0  0  0
   19.1807  -14.2417   21.4770 C   0  0  1  0  0  0
   23.3921  -13.8530   23.5738 O   0  0  0  0  0  0
   16.2420  -15.9694   22.3213 N   0  0  0  0  0  0
   14.4185  -16.3440   18.5397 C   0  0  0  0  0  0
   12.1524   -9.8557   23.0206 C   0  0  0  0  0  0
   13.2159   -9.2171   22.3902 C   0  0  0  0  0  0
   15.6395  -16.9471   18.8646 C   0  0  0  0  0  0
   18.3411  -14.6954   22.7097 C   0  0  0  0  0  0
   17.6717  -16.0765   22.5561 C   0  0  0  0  0  0
   21.3917  -13.6238   24.7008 O   0  0  0  0  0  0
   11.4055   -9.1211   24.3886 Cl  0  0  0  0  0  0
   21.2570  -13.1408   20.6630 C   0  0  0  0  0  0
   18.3571  -13.2291   20.6371 C   0  0  0  0  0  0
   21.9492  -13.0538   25.8732 C   0  0  0  0  0  0
   20.4691  -12.1331   19.8123 C   0  0  0  0  0  0
   20.8322  -12.3135   26.6109 C   0  0  0  0  0  0
   19.1004  -12.6770   19.4088 C   0  0  0  0  0  0
   16.2256  -11.2837   20.3792 H   0  0  0  0  0  0
   14.5231  -12.9361   17.0217 H   0  0  0  0  0  0
   11.2172  -12.8821   20.0966 H   0  0  0  0  0  0
   11.0309  -13.4354   21.7305 H   0  0  0  0  0  0
   22.0158  -15.1690   21.8586 H   0  0  0  0  0  0
   20.7801  -15.4323   23.0021 H   0  0  0  0  0  0
   14.7123   -9.3244   20.8917 H   0  0  0  0  0  0
   10.8752  -11.5688   23.0565 H   0  0  0  0  0  0
   19.3932  -15.0874   20.8197 H   0  0  0  0  0  0
   15.7135  -15.4239   22.9953 H   0  0  0  0  0  0
   13.9514  -16.4527   17.5713 H   0  0  0  0  0  0
   13.5645   -8.2533   22.7265 H   0  0  0  0  0  0
   16.1505  -17.5581   18.1335 H   0  0  0  0  0  0
   18.9492  -14.7312   23.6111 H   0  0  0  0  0  0
   17.6011  -13.9381   22.9737 H   0  0  0  0  0  0
   18.1772  -16.7035   21.8212 H   0  0  0  0  0  0
   17.7812  -16.6252   23.4912 H   0  0  0  0  0  0
   22.1522  -12.6538   21.0467 H   0  0  0  0  0  0
   21.6041  -13.9639   20.0343 H   0  0  0  0  0  0
   18.0885  -12.3830   21.2722 H   0  0  0  0  0  0
   17.4264  -13.7004   20.3172 H   0  0  0  0  0  0
   22.7569  -12.3633   25.6308 H   0  0  0  0  0  0
   22.3686  -13.8407   26.5018 H   0  0  0  0  0  0
   20.3860  -11.1758   20.3223 H   0  0  0  0  0  0
   21.0453  -11.9122   18.9134 H   0  0  0  0  0  0
   21.2136  -11.8533   27.5210 H   0  0  0  0  0  0
   20.0217  -12.9855   26.8930 H   0  0  0  0  0  0
   20.4164  -11.5184   25.9909 H   0  0  0  0  0  0
   18.5189  -11.8896   18.9307 H   0  0  0  0  0  0
   19.2225  -13.4568   18.6609 H   0  0  0  0  0  0
  1  2  1  0  0  0
  1  6  2  0  0  0
  1 12  1  0  0  0
  2  3  2  0  0  0
  3 15  1  0  0  0
  3  5  1  0  0  0
  4 10  1  0  0  0
  4 11  1  0  0  0
  4 13  1  0  0  0
  5  6  1  0  0  0
  6 24  1  0  0  0
  7 15  1  0  0  0
  7 10  1  0  0  0
  7 20  2  0  0  0
  8 13  2  0  0  0
  8 14  1  0  0  0
  9 21  1  0  0  0
  9 16  1  0  0  0
  9 32  1  0  0  0
 10 19  2  0  0  0
 11 14  2  0  0  0
 12 17  2  0  0  0
 12 23  1  0  0  0
 13 38  1  0  0  0
 14 39  1  0  0  0
 15 40  1  0  0  0
 15 41  1  0  0  0
 16 18  1  0  0  0
 16 42  1  0  0  0
 16 43  1  0  0  0
 17 27  1  0  0  0
 18 22  2  0  0  0
 18 30  1  0  0  0
 19 26  1  0  0  0
 19 44  1  0  0  0
 20 25  1  0  0  0
 20 45  1  0  0  0
 21 28  1  0  0  0
 21 33  1  0  0  0
 21 46  1  0  0  0
 23 29  1  0  0  0
 23 47  1  0  0  0
 24 27  2  0  0  0
 24 48  1  0  0  0
 25 26  2  0  0  0
 25 31  1  0  0  0
 26 49  1  0  0  0
 27 50  1  0  0  0
 28 29  1  0  0  0
 28 51  1  0  0  0
 28 52  1  0  0  0
 29 53  1  0  0  0
 29 54  1  0  0  0
 30 34  1  0  0  0
 32 35  1  0  0  0
 32 55  1  0  0  0
 32 56  1  0  0  0
 33 37  1  0  0  0
 33 57  1  0  0  0
 33 58  1  0  0  0
 34 36  1  0  0  0
 34 59  1  0  0  0
 34 60  1  0  0  0
 35 37  1  0  0  0
 35 61  1  0  0  0
 35 62  1  0  0  0
 36 63  1  0  0  0
 36 64  1  0  0  0
 36 65  1  0  0  0
 37 66  1  0  0  0
 37 67  1  0  0  0
M  END
> <s_m_entry_id>
35510

> <s_m_entry_name>
dock_pv.360

> <s_m_Source_Path>
/home/csk/Desktop/cluster/DUD-E-result/thrb

> <s_m_Source_File>
dock_pv.maegz

> <i_m_Source_File_Index>
360

> <chembl_id>
CHEMBL372194

> <chembl_pref_name>
None

> <i_lp_mmshare_version>
53161

> <r_lp_tautomer_probability>
1

> <s_lp_Force_Field>
OPLS_2005

> <r_lp_Energy>
42.233673

> <b_lp_Chiralities_Consistent>
1

> <s_lp_Variant>
CHEMBL204_lig4173-2

> <s_i_glide_gridfile>
glide-grid_1ype

> <i_i_glide_lignum>
5800

> <i_i_glide_rotatable_bonds>
11

> <r_i_docking_score>
-6.95196504939121

> <r_i_glide_ligand_efficiency>
-0.187890947280843

> <r_i_glide_ligand_efficiency_sa>
-0.626094319502092

> <r_i_glide_ligand_efficiency_ln>
-1.50771824202883

> <r_i_glide_gscore>
-6.95196504939121

> <r_i_glide_lipo>
-3.02180386662923

> <r_i_glide_hbond>
-0.325869982186053

> <r_i_glide_metal>
0

> <r_i_glide_rewards>
-0.828947449233595

> <r_i_glide_evdw>
-52.8299522399902

> <r_i_glide_ecoul>
-5.73450708389282

> <r_i_glide_erotb>
0.749253112841237

> <r_i_glide_esite>
-0.0229231896001262

> <r_i_glide_emodel>
-75.3877429939218

> <r_i_glide_energy>
-58.5644593238831

> <r_i_glide_einternal>
15.9637641906738

> <i_i_glide_confnum>
50

> <i_i_glide_posenum>
283

> <r_i_glide_eff_state_penalty>
0

> <s_user_duplicate_titles>
CHEMBL204_lig4173,329845

> <i_f3d_flags>
0

> <s_m_subgroup_title>
dock_pv

> <s_m_subgroupid>
dock_pv

> <b_m_subgroup_collapsed>
1

$$$$
CHEMBL204_lig4386
                    3D
 Schrodinger Suite 2021-1.
 55 58  0  0  1  0            999 V2000
   20.6750  -15.9260   21.9996 C   0  0  0  0  0  0
   19.6854  -14.8436   21.6075 C   0  0  0  0  0  0
   20.0288  -13.5153   21.3617 C   0  0  0  0  0  0
   18.6722  -12.4936   21.0218 S   0  0  0  0  0  0
   17.6161  -13.8648   21.1089 C   0  0  0  0  0  0
   18.2999  -15.0375   21.4447 C   0  0  0  0  0  0
   17.5337  -16.5726   21.6561 Cl  0  0  0  0  0  0
   16.2072  -13.6901   20.9427 C   0  0  0  0  0  0
   15.7414  -14.4130   19.9005 N   0  0  0  0  0  0
   15.5670  -12.9964   21.7313 O   0  0  0  0  0  0
   14.4338  -14.8200   19.5398 C   0  0  0  0  0  0
   13.2318  -14.0828   19.7106 C   0  0  0  0  0  0
   12.0143  -14.6870   19.3775 C   0  0  0  0  0  0
   11.9629  -15.9682   18.8487 C   0  0  0  0  0  0
   13.1411  -16.6664   18.6211 C   0  0  0  0  0  0
   14.3847  -16.1034   18.9508 C   0  0  0  0  0  0
   13.1885  -12.6416   20.1327 C   0  0  0  0  0  0
   13.7877  -11.7875   19.4764 O   0  0  0  0  0  0
   12.4545  -12.4205   21.2438 N   0  0  0  0  0  0
   10.4377  -16.6708   18.4461 Cl  0  0  0  0  0  0
   12.3624  -11.2602   22.0191 C   0  0  0  0  0  0
   11.3998  -11.3153   22.9757 N   0  0  0  0  0  0
   11.2306  -10.2426   23.7903 C   0  0  0  0  0  0
   12.0235   -9.0965   23.6920 C   0  0  0  0  0  0
   13.0227   -9.0548   22.7210 C   0  0  0  0  0  0
   13.1997  -10.1413   21.8686 C   0  0  0  0  0  0
   11.7724   -7.7361   24.7198 Cl  0  0  0  0  0  0
   15.5875  -16.7662   18.7397 O   0  0  0  0  0  0
   15.5935  -18.0459   18.1156 C   0  0  0  0  0  0
   20.9227  -15.9811   23.4463 N   0  0  0  0  0  0
   20.0868  -16.8763   24.2448 C   0  0  0  0  0  0
   21.8941  -15.1788   24.0470 C   0  0  0  0  0  0
   22.6951  -14.3620   23.4920 N   0  0  0  0  0  0
   23.4822  -13.8515   24.4843 C   0  0  0  0  0  0
   23.0241  -14.4236   25.8054 C   0  0  0  0  0  0
   22.0075  -15.2951   25.4021 O   0  0  0  0  0  0
   24.4051  -13.0544   24.3362 O   0  0  0  0  0  0
   21.6175  -15.7684   21.4756 H   0  0  0  0  0  0
   20.3428  -16.9024   21.6444 H   0  0  0  0  0  0
   21.0213  -13.0885   21.4106 H   0  0  0  0  0  0
   16.4445  -14.9742   19.4435 H   0  0  0  0  0  0
   11.0877  -14.1426   19.4805 H   0  0  0  0  0  0
   13.0675  -17.6495   18.1830 H   0  0  0  0  0  0
   11.9521  -13.2085   21.6260 H   0  0  0  0  0  0
   10.4306  -10.3109   24.5165 H   0  0  0  0  0  0
   13.6749   -8.1995   22.6498 H   0  0  0  0  0  0
   13.9937  -10.1012   21.1407 H   0  0  0  0  0  0
   16.6231  -18.3873   18.0100 H   0  0  0  0  0  0
   15.0614  -18.7860   18.7155 H   0  0  0  0  0  0
   15.1557  -18.0076   17.1168 H   0  0  0  0  0  0
   19.4747  -16.3047   24.9438 H   0  0  0  0  0  0
   19.4155  -17.4729   23.6279 H   0  0  0  0  0  0
   20.7031  -17.5685   24.8204 H   0  0  0  0  0  0
   23.8268  -14.9522   26.3202 H   0  0  0  0  0  0
   22.6275  -13.6329   26.4391 H   0  0  0  0  0  0
  1 30  1  0  0  0
  1  2  1  0  0  0
  1 38  1  0  0  0
  1 39  1  0  0  0
  2  3  2  0  0  0
  2  6  1  0  0  0
  3  4  1  0  0  0
  3 40  1  0  0  0
  4  5  1  0  0  0
  5  8  1  0  0  0
  5  6  2  0  0  0
  6  7  1  0  0  0
  8  9  1  0  0  0
  8 10  2  0  0  0
  9 11  1  0  0  0
  9 41  1  0  0  0
 11 12  2  0  0  0
 11 16  1  0  0  0
 12 13  1  0  0  0
 12 17  1  0  0  0
 13 14  2  0  0  0
 13 42  1  0  0  0
 14 15  1  0  0  0
 14 20  1  0  0  0
 15 16  2  0  0  0
 15 43  1  0  0  0
 16 28  1  0  0  0
 17 18  2  0  0  0
 17 19  1  0  0  0
 19 21  1  0  0  0
 19 44  1  0  0  0
 21 22  2  0  0  0
 21 26  1  0  0  0
 22 23  1  0  0  0
 23 24  2  0  0  0
 23 45  1  0  0  0
 24 25  1  0  0  0
 24 27  1  0  0  0
 25 26  2  0  0  0
 25 46  1  0  0  0
 26 47  1  0  0  0
 28 29  1  0  0  0
 29 48  1  0  0  0
 29 49  1  0  0  0
 29 50  1  0  0  0
 30 31  1  0  0  0
 30 32  1  0  0  0
 31 51  1  0  0  0
 31 52  1  0  0  0
 31 53  1  0  0  0
 32 33  2  0  0  0
 32 36  1  0  0  0
 33 34  1  0  0  0
 34 35  1  0  0  0
 34 37  2  0  0  0
 35 36  1  0  0  0
 35 54  1  0  0  0
 35 55  1  0  0  0
M  END
> <s_m_entry_id>
35511

> <s_m_entry_name>
dock_pv.361

> <s_m_Source_Path>
/home/csk/Desktop/cluster/DUD-E-result/thrb

> <s_m_Source_File>
dock_pv.maegz

> <i_m_Source_File_Index>
361

> <chembl_id>
CHEMBL226668

> <chembl_pref_name>
None

> <i_lp_mmshare_version>
53161

> <r_lp_tautomer_probability>
1

> <s_lp_Force_Field>
OPLS_2005

> <r_lp_Energy>
34.539523

> <b_lp_Chiralities_Consistent>
1

> <s_lp_Variant>
CHEMBL204_lig4386-1

> <s_i_glide_gridfile>
glide-grid_1ype

> <i_i_glide_lignum>
6044

> <i_i_glide_rotatable_bonds>
10

> <r_i_docking_score>
-6.94889375438921

> <r_i_glide_ligand_efficiency>
-0.187807939307816

> <r_i_glide_ligand_efficiency_sa>
-0.625817718520844

> <r_i_glide_ligand_efficiency_ln>
-1.50705215014427

> <r_i_glide_gscore>
-6.94889375438921

> <r_i_glide_lipo>
-2.98995232409403

> <r_i_glide_hbond>
0

> <r_i_glide_metal>
0

> <r_i_glide_rewards>
-0.92734778327765

> <r_i_glide_evdw>
-57.1310272216797

> <r_i_glide_ecoul>
-4.18052768707275

> <r_i_glide_erotb>
0.452036867127366

> <r_i_glide_esite>
0

> <r_i_glide_emodel>
-80.8449023484103

> <r_i_glide_energy>
-61.3115549087524

> <r_i_glide_einternal>
17.4341411590576

> <i_i_glide_confnum>
28

> <i_i_glide_posenum>
149

> <r_i_glide_eff_state_penalty>
0

> <s_user_duplicate_titles>
CHEMBL204_lig4386

> <i_f3d_flags>
0

> <s_m_subgroup_title>
dock_pv

> <s_m_subgroupid>
dock_pv

> <b_m_subgroup_collapsed>
1

$$$$
CHEMBL204_lig571
                    3D
 Schrodinger Suite 2021-1.
 68 70  0  0  1  0            999 V2000
   17.9365  -15.6062   24.4551 S   0  0  0  0  0  0
   17.8236  -13.2359   21.5694 C   0  0  0  0  0  0
   18.2556  -12.5408   20.4666 N   0  0  0  0  0  0
   18.6804  -14.4722   21.9547 C   0  0  1  0  0  0
   12.7736  -11.6486   22.1387 C   0  0  1  0  0  0
   17.8927  -15.4797   22.7027 N   0  0  3  0  0  0
   12.8020  -10.9249   20.7438 C   0  0  2  0  0  0
   11.7394  -11.0231   23.1196 C   0  0  0  0  0  0
   16.2823  -11.4740   19.3924 C   0  0  0  0  0  0
   15.1876  -11.4139   20.1639 N   0  0  0  0  0  0
   13.7915  -11.5912   19.7442 C   0  0  1  0  0  0
   19.6260  -15.9393   24.7959 N   0  0  2  0  0  0
   17.6126  -11.2598   20.1226 C   0  0  0  0  0  0
   17.6171  -14.2953   25.0263 O   0  0  0  0  0  0
   17.1624  -16.7962   24.8193 O   0  0  0  0  0  0
   11.8112   -9.7899   23.3510 N   0  0  0  0  0  0
   16.8700  -12.8597   22.2584 O   0  0  0  0  0  0
   16.2656  -11.6614   18.1762 O   0  0  0  0  0  0
   10.8160  -11.8530   23.6930 N   0  0  0  0  0  0
   13.1034   -9.5418   20.8645 O   0  0  0  0  0  0
   19.2710  -13.0207   19.4928 C   0  0  0  0  0  0
   12.6607  -13.2039   22.0029 C   0  0  0  0  0  0
   19.3470  -15.1811   20.7738 C   0  0  0  0  0  0
   20.5474  -14.7841   24.8153 C   0  0  0  0  0  0
   13.3937  -13.0702   19.5672 C   0  0  0  0  0  0
   20.1700  -14.1552   20.0073 C   0  0  0  0  0  0
   13.5103  -13.8442   20.8905 C   0  0  0  0  0  0
   20.8691  -14.4891   26.2808 C   0  0  0  0  0  0
   21.8277  -15.1368   24.0380 C   0  0  0  0  0  0
   22.7839  -13.9245   24.0659 C   0  0  0  0  0  0
   21.7799  -13.2525   26.3509 C   0  0  0  0  0  0
   23.0703  -13.4694   25.5183 C   0  0  0  0  0  0
   19.4585  -14.0503   22.5750 H   0  0  0  0  0  0
   13.6771  -11.0809   18.7837 H   0  0  0  0  0  0
   13.7527  -11.4723   22.5829 H   0  0  0  0  0  0
   17.1599  -15.9999   22.2056 H   0  0  0  0  0  0
   11.7999  -10.9649   20.3197 H   0  0  0  0  0  0
   15.3418  -11.4004   21.1619 H   0  0  0  0  0  0
   19.9760  -16.7006   24.2118 H   0  0  0  0  0  0
   18.2799  -10.6531   19.5215 H   0  0  0  0  0  0
   17.4592  -10.6599   21.0224 H   0  0  0  0  0  0
   11.0908   -9.5131   24.0055 H   0  0  0  0  0  0
   10.0865  -11.4838   24.2938 H   0  0  0  0  0  0
   10.8158  -12.8549   23.5209 H   0  0  0  0  0  0
   12.7133   -9.2504   21.7000 H   0  0  0  0  0  0
   18.6684  -13.4533   18.6920 H   0  0  0  0  0  0
   19.8117  -12.1983   19.0236 H   0  0  0  0  0  0
   12.8099  -13.6961   22.9645 H   0  0  0  0  0  0
   11.6254  -13.4449   21.7528 H   0  0  0  0  0  0
   18.6001  -15.6477   20.1294 H   0  0  0  0  0  0
   19.9971  -15.9834   21.1264 H   0  0  0  0  0  0
   20.0769  -13.8616   24.4818 H   0  0  0  0  0  0
   12.3743  -13.1391   19.1882 H   0  0  0  0  0  0
   14.0217  -13.5371   18.8062 H   0  0  0  0  0  0
   20.7094  -14.6158   19.1782 H   0  0  0  0  0  0
   20.9443  -13.7384   20.6550 H   0  0  0  0  0  0
   13.2057  -14.8823   20.7449 H   0  0  0  0  0  0
   14.5520  -13.8822   21.2110 H   0  0  0  0  0  0
   19.9572  -14.3314   26.8600 H   0  0  0  0  0  0
   21.3835  -15.3461   26.7136 H   0  0  0  0  0  0
   22.3230  -16.0025   24.4839 H   0  0  0  0  0  0
   21.5958  -15.4102   23.0081 H   0  0  0  0  0  0
   22.3460  -13.0974   23.5052 H   0  0  0  0  0  0
   23.7192  -14.1706   23.5635 H   0  0  0  0  0  0
   21.2460  -12.3721   25.9887 H   0  0  0  0  0  0
   22.0160  -13.0513   27.3939 H   0  0  0  0  0  0
   23.6767  -12.5641   25.5102 H   0  0  0  0  0  0
   23.6797  -14.2299   26.0093 H   0  0  0  0  0  0
  1  6  1  0  0  0
  1 12  1  0  0  0
  1 14  2  0  0  0
  1 15  2  0  0  0
  2  4  1  0  0  0
  2  3  1  0  0  0
  2 17  2  0  0  0
  3 13  1  0  0  0
  3 21  1  0  0  0
  4  6  1  0  0  0
  4 23  1  0  0  0
  4 33  1  0  0  0
  5  7  1  0  0  0
  5  8  1  0  0  0
  5 22  1  0  0  0
  5 35  1  0  0  0
  6 36  1  0  0  0
  7 11  1  0  0  0
  7 20  1  0  0  0
  7 37  1  0  0  0
  8 16  2  0  0  0
  8 19  1  0  0  0
  9 13  1  0  0  0
  9 10  1  0  0  0
  9 18  2  0  0  0
 10 11  1  0  0  0
 10 38  1  0  0  0
 11 25  1  0  0  0
 11 34  1  0  0  0
 12 24  1  0  0  0
 12 39  1  0  0  0
 13 40  1  0  0  0
 13 41  1  0  0  0
 16 42  1  0  0  0
 19 43  1  0  0  0
 19 44  1  0  0  0
 20 45  1  0  0  0
 21 26  1  0  0  0
 21 46  1  0  0  0
 21 47  1  0  0  0
 22 27  1  0  0  0
 22 48  1  0  0  0
 22 49  1  0  0  0
 23 26  1  0  0  0
 23 50  1  0  0  0
 23 51  1  0  0  0
 24 28  1  0  0  0
 24 29  1  0  0  0
 24 52  1  0  0  0
 25 27  1  0  0  0
 25 53  1  0  0  0
 25 54  1  0  0  0
 26 55  1  0  0  0
 26 56  1  0  0  0
 27 57  1  0  0  0
 27 58  1  0  0  0
 28 31  1  0  0  0
 28 59  1  0  0  0
 28 60  1  0  0  0
 29 30  1  0  0  0
 29 61  1  0  0  0
 29 62  1  0  0  0
 30 32  1  0  0  0
 30 63  1  0  0  0
 30 64  1  0  0  0
 31 32  1  0  0  0
 31 65  1  0  0  0
 31 66  1  0  0  0
 32 67  1  0  0  0
 32 68  1  0  0  0
M  END
> <s_m_entry_id>
35512

> <s_m_entry_name>
dock_pv.362

> <s_m_Source_Path>
/home/csk/Desktop/cluster/DUD-E-result/thrb

> <s_m_Source_File>
dock_pv.maegz

> <i_m_Source_File_Index>
362

> <chembl_id>
CHEMBL422470

> <chembl_pref_name>
None

> <i_lp_mmshare_version>
53161

> <r_lp_tautomer_probability>
1

> <s_lp_Force_Field>
OPLS_2005

> <r_lp_Energy>
23.976591

> <b_lp_Chiralities_Consistent>
1

> <s_lp_Variant>
CHEMBL204_lig571-2

> <s_i_glide_gridfile>
glide-grid_1ype

> <i_i_glide_lignum>
791

> <i_i_glide_rotatable_bonds>
10

> <r_i_docking_score>
-6.94798874710679

> <r_i_glide_ligand_efficiency>
-0.217124648347087

> <r_i_glide_ligand_efficiency_sa>
-0.689327789592441

> <r_i_glide_ligand_efficiency_ln>
-1.55584407549736

> <r_i_glide_gscore>
-6.94798874710679

> <r_i_glide_lipo>
-2.80357231120447

> <r_i_glide_hbond>
-0.380915234512913

> <r_i_glide_metal>
0

> <r_i_glide_rewards>
-0.884616000284845

> <r_i_glide_evdw>
-45.8173561096191

> <r_i_glide_ecoul>
-7.47442197799683

> <r_i_glide_erotb>
0.63374415093623

> <r_i_glide_esite>
-0.100598249860311

> <r_i_glide_emodel>
-70.3155725611593

> <r_i_glide_energy>
-53.291778087616

> <r_i_glide_einternal>
11.3956384658813

> <i_i_glide_confnum>
98

> <i_i_glide_posenum>
255

> <r_i_glide_eff_state_penalty>
0

> <s_user_duplicate_titles>
CHEMBL204_lig571

> <i_f3d_flags>
0

> <s_m_subgroup_title>
dock_pv

> <s_m_subgroupid>
dock_pv

> <b_m_subgroup_collapsed>
1

$$$$
CHEMBL204_lig1729
                    3D
 Schrodinger Suite 2021-1.
 70 73  0  0  1  0            999 V2000
   20.3235  -12.7612   20.0120 C   0  0  0  0  0  0
   20.8121  -13.3205   21.3522 C   0  0  0  0  0  0
   20.5931  -14.8369   21.5719 C   0  0  0  0  0  0
   19.5897  -11.7794   19.9208 O   0  0  0  0  0  0
   20.8160  -13.4533   18.9525 O   0  0  0  0  0  0
   20.4462  -15.2369   22.9938 N   0  0  0  0  0  0
   21.6494  -15.2799   23.7406 C   0  0  0  0  0  0
   21.9654  -14.2763   24.6877 C   0  0  0  0  0  0
   23.1922  -14.3249   25.3554 C   0  0  0  0  0  0
   24.0930  -15.3576   25.1176 C   0  0  0  0  0  0
   23.7740  -16.3624   24.2122 C   0  0  0  0  0  0
   22.5599  -16.3394   23.5213 C   0  0  0  0  0  0
   22.2563  -17.5051   22.5828 C   0  0  0  0  0  0
   21.0106  -13.1383   25.0363 C   0  0  0  0  0  0
   19.2644  -15.6054   23.5903 C   0  0  0  0  0  0
   19.1984  -16.0260   24.7501 O   0  0  0  0  0  0
   14.9603  -14.0152   19.8640 C   0  0  0  0  0  0
   16.0144  -13.4816   20.4333 N   0  0  0  0  0  0
   16.4843  -14.4478   21.2705 C   0  0  0  0  0  0
   15.6990  -15.6207   21.2020 C   0  0  0  0  0  0
   14.7027  -15.3098   20.2934 N   0  0  0  0  0  0
   17.6000  -14.3969   22.1078 C   0  0  0  0  0  0
   17.9812  -15.5597   22.7909 C   0  0  0  0  0  0
   17.1654  -16.6997   22.7357 C   0  0  0  0  0  0
   16.0073  -16.7599   21.9543 C   0  0  0  0  0  0
   13.5988  -16.1839   19.8987 C   0  0  0  0  0  0
   12.5492  -16.2741   21.0192 C   0  0  0  0  0  0
   14.1243  -13.2711   18.8280 C   0  0  0  0  0  0
   14.0172  -11.8313   19.0680 N   0  0  0  0  0  0
   13.4146  -11.4035   20.2662 C   0  0  0  0  0  0
   12.2815  -12.0012   20.8379 C   0  0  0  0  0  0
   11.7382  -11.4943   22.0145 C   0  0  0  0  0  0
   12.2853  -10.3719   22.6634 C   0  0  0  0  0  0
   13.4148   -9.7830   22.0664 C   0  0  0  0  0  0
   13.9725  -10.2928   20.8968 C   0  0  0  0  0  0
   11.6626  -13.0538   20.2596 F   0  0  0  0  0  0
   11.6987   -9.8149   23.9136 C   0  0  0  0  0  0
   10.8160  -10.6525   24.5415 N   0  0  0  0  0  0
   12.0159   -8.6621   24.3209 N   0  0  0  0  0  0
   20.1992  -12.7989   22.0825 H   0  0  0  0  0  0
   21.8218  -13.0142   21.6243 H   0  0  0  0  0  0
   21.3478  -15.4162   21.0395 H   0  0  0  0  0  0
   19.6840  -15.1323   21.0513 H   0  0  0  0  0  0
   21.4180  -14.1511   19.2205 H   0  0  0  0  0  0
   23.4532  -13.5647   26.0760 H   0  0  0  0  0  0
   25.0336  -15.3864   25.6493 H   0  0  0  0  0  0
   24.4766  -17.1682   24.0545 H   0  0  0  0  0  0
   21.1855  -17.7076   22.5155 H   0  0  0  0  0  0
   22.6484  -17.3147   21.5818 H   0  0  0  0  0  0
   22.7081  -18.4270   22.9559 H   0  0  0  0  0  0
   20.0591  -13.5296   25.3933 H   0  0  0  0  0  0
   21.4040  -12.4895   25.8199 H   0  0  0  0  0  0
   20.8064  -12.5249   24.1642 H   0  0  0  0  0  0
   18.1710  -13.4865   22.1756 H   0  0  0  0  0  0
   17.4479  -17.5802   23.2975 H   0  0  0  0  0  0
   15.4040  -17.6547   21.9136 H   0  0  0  0  0  0
   13.1498  -15.8248   18.9734 H   0  0  0  0  0  0
   14.0078  -17.1701   19.6757 H   0  0  0  0  0  0
   11.7018  -16.8872   20.7096 H   0  0  0  0  0  0
   12.9666  -16.7210   21.9211 H   0  0  0  0  0  0
   12.1592  -15.2923   21.2916 H   0  0  0  0  0  0
   14.5974  -13.3881   17.8527 H   0  0  0  0  0  0
   13.1334  -13.6928   18.6813 H   0  0  0  0  0  0
   14.9088  -11.3789   18.9261 H   0  0  0  0  0  0
   10.8562  -11.9901   22.3957 H   0  0  0  0  0  0
   13.8965   -8.9254   22.5148 H   0  0  0  0  0  0
   14.8532   -9.8180   20.4896 H   0  0  0  0  0  0
   10.1720  -10.2542   25.2189 H   0  0  0  0  0  0
   10.5133  -11.5059   24.0994 H   0  0  0  0  0  0
   12.6847   -8.2070   23.7229 H   0  0  0  0  0  0
  1  2  1  0  0  0
  1  4  2  0  0  0
  1  5  1  0  0  0
  2  3  1  0  0  0
  2 40  1  0  0  0
  2 41  1  0  0  0
  3  6  1  0  0  0
  3 42  1  0  0  0
  3 43  1  0  0  0
  5 44  1  0  0  0
  6  7  1  0  0  0
  6 15  1  0  0  0
  7  8  1  0  0  0
  7 12  2  0  0  0
  8  9  2  0  0  0
  8 14  1  0  0  0
  9 10  1  0  0  0
  9 45  1  0  0  0
 10 11  2  0  0  0
 10 46  1  0  0  0
 11 12  1  0  0  0
 11 47  1  0  0  0
 12 13  1  0  0  0
 13 48  1  0  0  0
 13 49  1  0  0  0
 13 50  1  0  0  0
 14 51  1  0  0  0
 14 52  1  0  0  0
 14 53  1  0  0  0
 15 16  2  0  0  0
 15 23  1  0  0  0
 17 18  2  0  0  0
 17 21  1  0  0  0
 17 28  1  0  0  0
 18 19  1  0  0  0
 19 20  1  0  0  0
 19 22  2  0  0  0
 20 21  1  0  0  0
 20 25  2  0  0  0
 21 26  1  0  0  0
 22 23  1  0  0  0
 22 54  1  0  0  0
 23 24  2  0  0  0
 24 25  1  0  0  0
 24 55  1  0  0  0
 25 56  1  0  0  0
 26 27  1  0  0  0
 26 57  1  0  0  0
 26 58  1  0  0  0
 27 59  1  0  0  0
 27 60  1  0  0  0
 27 61  1  0  0  0
 28 29  1  0  0  0
 28 62  1  0  0  0
 28 63  1  0  0  0
 29 30  1  0  0  0
 29 64  1  0  0  0
 30 31  1  0  0  0
 30 35  2  0  0  0
 31 32  2  0  0  0
 31 36  1  0  0  0
 32 33  1  0  0  0
 32 65  1  0  0  0
 33 34  2  0  0  0
 33 37  1  0  0  0
 34 35  1  0  0  0
 34 66  1  0  0  0
 35 67  1  0  0  0
 37 38  1  0  0  0
 37 39  2  0  0  0
 38 68  1  0  0  0
 38 69  1  0  0  0
 39 70  1  0  0  0
M  END
> <s_m_entry_id>
35513

> <s_m_entry_name>
dock_pv.363

> <s_m_Source_Path>
/home/csk/Desktop/cluster/DUD-E-result/thrb

> <s_m_Source_File>
dock_pv.maegz

> <i_m_Source_File_Index>
363

> <chembl_id>
CHEMBL3799876

> <chembl_pref_name>
None

> <i_lp_mmshare_version>
53161

> <r_lp_tautomer_probability>
1

> <s_lp_Force_Field>
OPLS_2005

> <r_lp_Energy>
39.917599

> <b_lp_Chiralities_Consistent>
1

> <s_lp_Variant>
CHEMBL204_lig1729-1

> <s_i_glide_gridfile>
glide-grid_1ype

> <i_i_glide_lignum>
2512

> <i_i_glide_rotatable_bonds>
12

> <r_i_docking_score>
-6.94460573580957

> <r_i_glide_ligand_efficiency>
-0.178066813738707

> <r_i_glide_ligand_efficiency_sa>
-0.603862215634347

> <r_i_glide_ligand_efficiency_ln>
-1.48912060411445

> <r_i_glide_gscore>
-6.94460573580957

> <r_i_glide_lipo>
-2.86394046823952

> <r_i_glide_hbond>
-0.150371919327692

> <r_i_glide_metal>
0

> <r_i_glide_rewards>
-0.810712204673669

> <r_i_glide_evdw>
-52.0708465576172

> <r_i_glide_ecoul>
-7.18627548217773

> <r_i_glide_erotb>
0.659018438751401

> <r_i_glide_esite>
-0.097115932112569

> <r_i_glide_emodel>
-78.2872605687009

> <r_i_glide_energy>
-59.2571220397949

> <r_i_glide_einternal>
12.2615699768066

> <i_i_glide_confnum>
101

> <i_i_glide_posenum>
178

> <r_i_glide_eff_state_penalty>
0

> <s_user_duplicate_titles>
CHEMBL204_lig1729

> <i_f3d_flags>
0

> <s_m_subgroup_title>
dock_pv

> <s_m_subgroupid>
dock_pv

> <b_m_subgroup_collapsed>
1

$$$$
CHEMBL204_lig5106
                    3D
 Schrodinger Suite 2021-1.
 55 58  0  0  1  0            999 V2000
   20.8161  -15.1559   20.9803 N   0  0  0  0  0  0
   20.0641  -14.0689   21.5860 C   0  0  0  0  0  0
   19.5270  -14.4506   22.9636 C   0  0  0  0  0  0
   20.0761  -13.8200   24.0886 C   0  0  0  0  0  0
   19.6147  -14.1168   25.3715 C   0  0  0  0  0  0
   18.5963  -15.0514   25.5432 C   0  0  0  0  0  0
   18.0179  -15.4432   27.1213 Cl  0  0  0  0  0  0
   18.0384  -15.6783   24.4340 C   0  0  0  0  0  0
   18.4867  -15.3894   23.1375 C   0  0  0  0  0  0
   17.8108  -16.1085   21.9675 C   0  0  0  0  0  0
   16.3577  -15.9642   22.0034 N   0  0  0  0  0  0
   15.5508  -15.9049   20.9358 C   0  0  0  0  0  0
   15.9232  -16.0232   19.7688 O   0  0  0  0  0  0
   14.0696  -15.6317   21.2592 C   0  0  2  0  0  0
   13.1163  -16.6288   20.5798 C   0  0  0  0  0  0
   11.8115  -15.8641   20.4869 C   0  0  0  0  0  0
   12.2791  -14.4562   20.1561 C   0  0  0  0  0  0
   13.5671  -14.3017   20.8402 N   0  0  0  0  0  0
   14.1699  -13.1288   21.1907 C   0  0  0  0  0  0
   15.1644  -13.1365   21.9209 O   0  0  0  0  0  0
   13.6152  -11.7268   20.7577 C   0  0  2  0  0  0
   12.8511  -11.7523   19.5651 O   0  0  0  0  0  0
   14.7571  -10.7001   20.5604 C   0  0  0  0  0  0
   14.2503   -9.3678   21.1209 C   0  0  0  0  0  0
   13.2145   -9.7929   22.1345 C   0  0  0  0  0  0
   12.5867   -9.0529   23.1369 C   0  0  0  0  0  0
   11.6159   -9.6796   23.9205 C   0  0  0  0  0  0
   11.2161  -10.9571   23.7137 N   0  0  0  0  0  0
   11.8140  -11.6540   22.7166 C   0  0  0  0  0  0
   12.8260  -11.1166   21.9092 C   0  0  0  0  0  0
   20.9742  -14.9610   20.0018 H   0  0  0  0  0  0
   21.7435  -15.2126   21.3847 H   0  0  0  0  0  0
   19.2275  -13.7987   20.9402 H   0  0  0  0  0  0
   20.6994  -13.1838   21.6467 H   0  0  0  0  0  0
   20.8656  -13.0914   23.9737 H   0  0  0  0  0  0
   20.0460  -13.6217   26.2298 H   0  0  0  0  0  0
   17.2461  -16.3967   24.5870 H   0  0  0  0  0  0
   18.2058  -15.7956   20.9999 H   0  0  0  0  0  0
   18.0572  -17.1687   22.0401 H   0  0  0  0  0  0
   15.9431  -15.8417   22.9172 H   0  0  0  0  0  0
   13.9156  -15.6905   22.3380 H   0  0  0  0  0  0
   13.4596  -16.8819   19.5747 H   0  0  0  0  0  0
   13.0118  -17.5603   21.1368 H   0  0  0  0  0  0
   11.1090  -16.2731   19.7596 H   0  0  0  0  0  0
   11.3255  -15.8530   21.4627 H   0  0  0  0  0  0
   12.4331  -14.3521   19.0807 H   0  0  0  0  0  0
   11.5314  -13.7331   20.4793 H   0  0  0  0  0  0
   12.0855  -12.3123   19.7068 H   0  0  0  0  0  0
   15.6603  -10.9460   21.1209 H   0  0  0  0  0  0
   15.0830  -10.6527   19.5209 H   0  0  0  0  0  0
   15.0601   -8.7680   21.5357 H   0  0  0  0  0  0
   13.7763   -8.7744   20.3388 H   0  0  0  0  0  0
   12.8637   -8.0307   23.3422 H   0  0  0  0  0  0
   11.1127   -9.1526   24.7191 H   0  0  0  0  0  0
   11.4539  -12.6626   22.5940 H   0  0  0  0  0  0
  1  2  1  0  0  0
  1 31  1  0  0  0
  1 32  1  0  0  0
  2  3  1  0  0  0
  2 33  1  0  0  0
  2 34  1  0  0  0
  3  4  2  0  0  0
  3  9  1  0  0  0
  4  5  1  0  0  0
  4 35  1  0  0  0
  5  6  2  0  0  0
  5 36  1  0  0  0
  6  7  1  0  0  0
  6  8  1  0  0  0
  8  9  2  0  0  0
  8 37  1  0  0  0
  9 10  1  0  0  0
 10 11  1  0  0  0
 10 38  1  0  0  0
 10 39  1  0  0  0
 11 12  1  0  0  0
 11 40  1  0  0  0
 12 13  2  0  0  0
 12 14  1  0  0  0
 14 15  1  0  0  0
 14 18  1  0  0  0
 14 41  1  0  0  0
 15 16  1  0  0  0
 15 42  1  0  0  0
 15 43  1  0  0  0
 16 17  1  0  0  0
 16 44  1  0  0  0
 16 45  1  0  0  0
 17 18  1  0  0  0
 17 46  1  0  0  0
 17 47  1  0  0  0
 18 19  1  0  0  0
 19 20  2  0  0  0
 19 21  1  0  0  0
 21 22  1  0  0  0
 21 23  1  0  0  0
 21 30  1  0  0  0
 22 48  1  0  0  0
 23 24  1  0  0  0
 23 49  1  0  0  0
 23 50  1  0  0  0
 24 25  1  0  0  0
 24 51  1  0  0  0
 24 52  1  0  0  0
 25 26  2  0  0  0
 25 30  1  0  0  0
 26 27  1  0  0  0
 26 53  1  0  0  0
 27 28  2  0  0  0
 27 54  1  0  0  0
 28 29  1  0  0  0
 29 30  2  0  0  0
 29 55  1  0  0  0
M  END
> <s_m_entry_id>
35514

> <s_m_entry_name>
dock_pv.364

> <s_m_Source_Path>
/home/csk/Desktop/cluster/DUD-E-result/thrb

> <s_m_Source_File>
dock_pv.maegz

> <i_m_Source_File_Index>
364

> <chembl_id>
CHEMBL3980582

> <chembl_pref_name>
None

> <i_lp_mmshare_version>
53161

> <r_lp_tautomer_probability>
1

> <s_lp_Force_Field>
OPLS_2005

> <r_lp_Energy>
38.204259

> <b_lp_Chiralities_Consistent>
1

> <s_lp_Variant>
CHEMBL204_lig5106-2

> <s_i_glide_gridfile>
glide-grid_1ype

> <i_i_glide_lignum>
6994

> <i_i_glide_rotatable_bonds>
8

> <r_i_docking_score>
-6.94104991496265

> <r_i_glide_ligand_efficiency>
-0.231368330498755

> <r_i_glide_ligand_efficiency_sa>
-0.718915196558949

> <r_i_glide_ligand_efficiency_ln>
-1.57708216947573

> <r_i_glide_gscore>
-6.94104991496265

> <r_i_glide_lipo>
-3.50735632444576

> <r_i_glide_hbond>
-0.339550824772934

> <r_i_glide_metal>
0

> <r_i_glide_rewards>
-0.745868745596905

> <r_i_glide_evdw>
-44.6822280883789

> <r_i_glide_ecoul>
-4.9910774230957

> <r_i_glide_erotb>
0.647987235276376

> <r_i_glide_esite>
-0.01348823754012

> <r_i_glide_emodel>
-67.210697799483

> <r_i_glide_energy>
-49.6733055114746

> <r_i_glide_einternal>
6.61811637878418

> <i_i_glide_confnum>
55

> <i_i_glide_posenum>
247

> <r_i_glide_eff_state_penalty>
0

> <s_user_duplicate_titles>
CHEMBL204_lig5106

> <i_f3d_flags>
0

> <s_m_subgroup_title>
dock_pv

> <s_m_subgroupid>
dock_pv

> <b_m_subgroup_collapsed>
1

$$$$
CHEMBL204_lig3578
                    3D
 Schrodinger Suite 2021-1.
 54 56  0  0  1  0            999 V2000
   19.4693  -14.6131   22.7437 S   0  0  0  0  0  0
   20.8534  -14.3012   23.8426 C   0  0  0  0  0  0
   19.3648  -13.0530   22.1737 O   0  0  0  0  0  0
   11.6654  -11.0181   23.0258 C   0  0  0  0  0  0
   19.1772  -12.8588   20.8372 C   0  0  0  0  0  0
   18.2474  -14.9136   23.4945 O   0  0  0  0  0  0
   19.9429  -15.4945   21.6679 O   0  0  0  0  0  0
   20.7515  -14.1273   25.2357 C   0  0  0  0  0  0
   11.6318   -9.7679   23.1048 N   0  0  0  0  0  0
   17.8933  -12.9533   20.3157 C   0  0  0  0  0  0
   12.7212  -11.7278   22.1496 C   0  0  2  0  0  0
   17.6406  -12.6414   18.9740 C   0  0  0  0  0  0
   20.0175  -12.2246   18.6660 C   0  0  0  0  0  0
   20.2447  -12.5104   20.0127 C   0  0  0  0  0  0
   16.3880  -12.6662   18.3942 O   0  0  0  0  0  0
   13.7787  -10.7733   21.5280 C   0  0  0  0  0  0
   12.0761  -12.4761   20.9627 C   0  0  0  0  0  0
   10.8160  -11.8530   23.6953 N   0  0  0  0  0  0
   18.7111  -12.2530   18.1666 C   0  0  0  0  0  0
   19.2644  -14.2520   26.1097 Cl  0  0  0  0  0  0
   15.3372  -13.4138   19.0123 C   0  0  0  0  0  0
   22.0979  -14.1492   23.2230 C   0  0  0  0  0  0
   14.8813  -11.6034   20.8409 C   0  0  0  0  0  0
   13.1189  -13.3654   20.2639 C   0  0  0  0  0  0
   14.2978  -12.5127   19.7178 C   0  0  2  0  0  0
   21.8983  -13.8234   25.9706 C   0  0  0  0  0  0
   21.1704  -11.8365   17.7604 C   0  0  0  0  0  0
   23.2371  -13.8536   23.9665 C   0  0  0  0  0  0
   23.1356  -13.6959   25.3431 C   0  0  0  0  0  0
   10.8871   -9.4762   23.7214 H   0  0  0  0  0  0
   17.1086  -13.2504   20.9889 H   0  0  0  0  0  0
   13.2180  -12.4469   22.8033 H   0  0  0  0  0  0
   21.2408  -12.4533   20.4275 H   0  0  0  0  0  0
   13.3179  -10.0318   20.8725 H   0  0  0  0  0  0
   14.2209  -10.1633   22.3153 H   0  0  0  0  0  0
   11.2580  -13.1101   21.3091 H   0  0  0  0  0  0
   11.6161  -11.7661   20.2834 H   0  0  0  0  0  0
   10.0611  -11.4724   24.2545 H   0  0  0  0  0  0
   10.8161  -12.8532   23.5215 H   0  0  0  0  0  0
   18.5221  -12.0115   17.1315 H   0  0  0  0  0  0
   15.6908  -14.2134   19.6659 H   0  0  0  0  0  0
   14.8347  -13.9370   18.1972 H   0  0  0  0  0  0
   22.1781  -14.2513   22.1510 H   0  0  0  0  0  0
   15.3658  -12.2166   21.5990 H   0  0  0  0  0  0
   15.6651  -10.9574   20.4433 H   0  0  0  0  0  0
   13.4921  -14.1192   20.9606 H   0  0  0  0  0  0
   12.6547  -13.9314   19.4546 H   0  0  0  0  0  0
   13.8722  -11.8396   18.9719 H   0  0  0  0  0  0
   21.8266  -13.6769   27.0378 H   0  0  0  0  0  0
   22.0160  -11.4536   18.3330 H   0  0  0  0  0  0
   21.4934  -12.6918   17.1689 H   0  0  0  0  0  0
   20.8729  -11.0456   17.0726 H   0  0  0  0  0  0
   24.1940  -13.7333   23.4807 H   0  0  0  0  0  0
   24.0157  -13.4619   25.9211 H   0  0  0  0  0  0
  1  2  1  0  0  0
  1  3  1  0  0  0
  1  6  2  0  0  0
  1  7  2  0  0  0
  2  8  2  0  0  0
  2 22  1  0  0  0
  3  5  1  0  0  0
  4 11  1  0  0  0
  4  9  2  0  0  0
  4 18  1  0  0  0
  5 10  2  0  0  0
  5 14  1  0  0  0
  8 20  1  0  0  0
  8 26  1  0  0  0
  9 30  1  0  0  0
 10 12  1  0  0  0
 10 31  1  0  0  0
 11 17  1  0  0  0
 11 16  1  0  0  0
 11 32  1  0  0  0
 12 15  1  0  0  0
 12 19  2  0  0  0
 13 14  2  0  0  0
 13 19  1  0  0  0
 13 27  1  0  0  0
 14 33  1  0  0  0
 15 21  1  0  0  0
 16 23  1  0  0  0
 16 34  1  0  0  0
 16 35  1  0  0  0
 17 24  1  0  0  0
 17 36  1  0  0  0
 17 37  1  0  0  0
 18 38  1  0  0  0
 18 39  1  0  0  0
 19 40  1  0  0  0
 21 25  1  0  0  0
 21 41  1  0  0  0
 21 42  1  0  0  0
 22 28  2  0  0  0
 22 43  1  0  0  0
 23 25  1  0  0  0
 23 44  1  0  0  0
 23 45  1  0  0  0
 24 25  1  0  0  0
 24 46  1  0  0  0
 24 47  1  0  0  0
 25 48  1  0  0  0
 26 29  2  0  0  0
 26 49  1  0  0  0
 27 50  1  0  0  0
 27 51  1  0  0  0
 27 52  1  0  0  0
 28 29  1  0  0  0
 28 53  1  0  0  0
 29 54  1  0  0  0
M  END
> <s_m_entry_id>
35515

> <s_m_entry_name>
dock_pv.365

> <s_m_Source_Path>
/home/csk/Desktop/cluster/DUD-E-result/thrb

> <s_m_Source_File>
dock_pv.maegz

> <i_m_Source_File_Index>
365

> <chembl_id>
CHEMBL169159

> <chembl_pref_name>
None

> <i_lp_mmshare_version>
53161

> <r_lp_tautomer_probability>
1

> <s_lp_Force_Field>
OPLS_2005

> <r_lp_Energy>
19.028887

> <b_lp_Chiralities_Consistent>
1

> <s_lp_Variant>
CHEMBL204_lig3578-1

> <s_i_glide_gridfile>
glide-grid_1ype

> <i_i_glide_lignum>
4994

> <i_i_glide_rotatable_bonds>
7

> <r_i_docking_score>
-6.94092675562251

> <r_i_glide_ligand_efficiency>
-0.239342301918018

> <r_i_glide_ligand_efficiency_sa>
-0.735335380455743

> <r_i_glide_ligand_efficiency_ln>
-1.58929622032131

> <r_i_glide_gscore>
-6.94092675562251

> <r_i_glide_lipo>
-3.6548855592557

> <r_i_glide_hbond>
-0.381150596815246

> <r_i_glide_metal>
0

> <r_i_glide_rewards>
-0.594398279107652

> <r_i_glide_evdw>
-43.4038124084473

> <r_i_glide_ecoul>
-4.42858791351318

> <r_i_glide_erotb>
0.626536701617538

> <r_i_glide_esite>
-0.102550214612106

> <r_i_glide_emodel>
-61.8670861413911

> <r_i_glide_energy>
-47.8324003219604

> <r_i_glide_einternal>
12.9472141265869

> <i_i_glide_confnum>
3

> <i_i_glide_posenum>
134

> <r_i_glide_eff_state_penalty>
0

> <s_user_duplicate_titles>
CHEMBL204_lig3578

> <i_f3d_flags>
0

> <s_m_subgroup_title>
dock_pv

> <s_m_subgroupid>
dock_pv

> <b_m_subgroup_collapsed>
1

$$$$
CHEMBL204_lig4570
                    3D
 Schrodinger Suite 2021-1.
 54 56  0  0  1  0            999 V2000
   25.2158  -15.4463   24.5424 C   0  0  0  0  0  0
   24.8294  -14.1254   24.3208 C   0  0  0  0  0  0
   23.5964  -13.6551   24.6328 N   0  0  0  0  0  0
   22.6997  -14.5210   25.1854 C   0  0  0  0  0  0
   23.0191  -15.8611   25.4445 C   0  0  0  0  0  0
   24.2962  -16.3217   25.1182 C   0  0  0  0  0  0
   21.2960  -13.9604   25.4452 C   0  0  0  0  0  0
   20.6254  -13.4649   24.1462 C   0  0  0  0  0  0
   21.4090  -12.9621   26.3211 F   0  0  0  0  0  0
   20.5204  -14.8831   26.0207 F   0  0  0  0  0  0
   20.4447  -14.5020   23.1295 N   0  0  0  0  0  0
   19.8707  -14.0379   21.9407 C   0  0  0  0  0  0
   18.5367  -14.3360   21.6501 C   0  0  0  0  0  0
   17.9243  -13.8177   20.4987 C   0  0  0  0  0  0
   18.6713  -12.9784   19.6392 C   0  0  0  0  0  0
   20.0162  -12.7167   19.9229 C   0  0  0  0  0  0
   20.6121  -13.2464   21.0642 C   0  0  0  0  0  0
   16.4453  -14.1539   20.2414 C   0  0  0  0  0  0
   15.5264  -12.9665   20.5402 C   0  0  0  0  0  0
   14.5284  -12.7656   19.6636 N   0  0  0  0  0  0
   15.7398  -12.2538   21.5205 O   0  0  0  0  0  0
   13.6250  -11.6170   19.6183 C   0  0  0  0  0  0
   13.0040  -11.1877   20.9443 C   0  0  0  0  0  0
   17.8274  -15.1136   22.5066 F   0  0  0  0  0  0
   18.0882  -12.3510   18.4541 C   0  0  0  0  0  0
   17.6257  -11.8540   17.5157 N   0  0  0  0  0  0
   12.0162  -11.9864   21.5328 C   0  0  0  0  0  0
   11.4108  -11.5736   22.7179 C   0  0  0  0  0  0
   11.7976  -10.3551   23.2679 C   0  0  0  0  0  0
   12.7508   -9.5687   22.7285 N   0  0  0  0  0  0
   13.3588   -9.9926   21.5965 C   0  0  0  0  0  0
   11.2160   -9.8909   24.4308 N   0  0  0  0  0  0
   14.4617   -9.0693   21.1212 C   0  0  0  0  0  0
   26.2136  -15.7814   24.2984 H   0  0  0  0  0  0
   25.5319  -13.4119   23.9208 H   0  0  0  0  0  0
   22.2989  -16.5398   25.8779 H   0  0  0  0  0  0
   24.5688  -17.3496   25.3111 H   0  0  0  0  0  0
   21.2119  -12.6530   23.7203 H   0  0  0  0  0  0
   19.6569  -13.0149   24.3739 H   0  0  0  0  0  0
   19.9565  -15.3079   23.4974 H   0  0  0  0  0  0
   20.6135  -12.0916   19.2724 H   0  0  0  0  0  0
   21.6479  -13.0248   21.2797 H   0  0  0  0  0  0
   16.1128  -14.9868   20.8619 H   0  0  0  0  0  0
   16.3259  -14.4937   19.2123 H   0  0  0  0  0  0
   14.4563  -13.4080   18.8894 H   0  0  0  0  0  0
   12.8160  -11.8727   18.9362 H   0  0  0  0  0  0
   14.1375  -10.7898   19.1279 H   0  0  0  0  0  0
   11.7158  -12.9186   21.0786 H   0  0  0  0  0  0
   10.6478  -12.1818   23.1834 H   0  0  0  0  0  0
   10.3255  -10.2855   24.7205 H   0  0  0  0  0  0
   11.4744   -8.9630   24.7218 H   0  0  0  0  0  0
   14.0720   -8.4470   20.3211 H   0  0  0  0  0  0
   14.8158   -8.4130   21.9155 H   0  0  0  0  0  0
   15.3241   -9.6262   20.7544 H   0  0  0  0  0  0
  1  6  1  0  0  0
  1  2  2  0  0  0
  1 34  1  0  0  0
  2  3  1  0  0  0
  2 35  1  0  0  0
  3  4  2  0  0  0
  4  5  1  0  0  0
  4  7  1  0  0  0
  5  6  2  0  0  0
  5 36  1  0  0  0
  6 37  1  0  0  0
  7  8  1  0  0  0
  7  9  1  0  0  0
  7 10  1  0  0  0
  8 11  1  0  0  0
  8 38  1  0  0  0
  8 39  1  0  0  0
 11 12  1  0  0  0
 11 40  1  0  0  0
 12 17  1  0  0  0
 12 13  2  0  0  0
 13 24  1  0  0  0
 13 14  1  0  0  0
 14 18  1  0  0  0
 14 15  2  0  0  0
 15 25  1  0  0  0
 15 16  1  0  0  0
 16 17  2  0  0  0
 16 41  1  0  0  0
 17 42  1  0  0  0
 18 19  1  0  0  0
 18 43  1  0  0  0
 18 44  1  0  0  0
 19 20  1  0  0  0
 19 21  2  0  0  0
 20 22  1  0  0  0
 20 45  1  0  0  0
 22 23  1  0  0  0
 22 46  1  0  0  0
 22 47  1  0  0  0
 23 27  2  0  0  0
 23 31  1  0  0  0
 25 26  3  0  0  0
 27 28  1  0  0  0
 27 48  1  0  0  0
 28 29  2  0  0  0
 28 49  1  0  0  0
 29 30  1  0  0  0
 29 32  1  0  0  0
 30 31  2  0  0  0
 31 33  1  0  0  0
 32 50  1  0  0  0
 32 51  1  0  0  0
 33 52  1  0  0  0
 33 53  1  0  0  0
 33 54  1  0  0  0
M  END
> <s_m_entry_id>
35516

> <s_m_entry_name>
dock_pv.366

> <s_m_Source_Path>
/home/csk/Desktop/cluster/DUD-E-result/thrb

> <s_m_Source_File>
dock_pv.maegz

> <i_m_Source_File_Index>
366

> <chembl_id>
CHEMBL258018

> <chembl_pref_name>
None

> <i_lp_mmshare_version>
53161

> <r_lp_tautomer_probability>
0.999999772200052

> <s_lp_Force_Field>
OPLS_2005

> <r_lp_Energy>
18.527004

> <b_lp_Chiralities_Consistent>
1

> <s_lp_Variant>
CHEMBL204_lig4570-1

> <s_i_glide_gridfile>
glide-grid_1ype

> <i_i_glide_lignum>
6241

> <i_i_glide_rotatable_bonds>
9

> <r_i_docking_score>
-6.93874267281509

> <r_i_glide_ligand_efficiency>
-0.210264929479245

> <r_i_glide_ligand_efficiency_sa>
-0.674431978912778

> <r_i_glide_ligand_efficiency_ln>
-1.54314044354728

> <r_i_glide_gscore>
-6.93874267281509

> <r_i_glide_lipo>
-3.27780321071917

> <r_i_glide_hbond>
-0.0509490360843277

> <r_i_glide_metal>
0

> <r_i_glide_rewards>
-1.20730606844902

> <r_i_glide_evdw>
-51.6579246520996

> <r_i_glide_ecoul>
-3.46468162536621

> <r_i_glide_erotb>
0.777878313667622

> <r_i_glide_esite>
-0.0779641948202847

> <r_i_glide_emodel>
-77.1568498514679

> <r_i_glide_energy>
-55.1226062774658

> <r_i_glide_einternal>
2.72809720039368

> <i_i_glide_confnum>
41

> <i_i_glide_posenum>
244

> <r_i_glide_eff_state_penalty>
0

> <s_user_duplicate_titles>
CHEMBL204_lig4570

> <i_f3d_flags>
0

> <s_m_subgroup_title>
dock_pv

> <s_m_subgroupid>
dock_pv

> <b_m_subgroup_collapsed>
1

$$$$
CHEMBL204_lig4110
                    3D
 Schrodinger Suite 2021-1.
 59 63  0  0  1  0            999 V2000
   19.4170  -15.2190   22.5771 C   0  0  2  0  0  0
   18.8742  -13.9549   21.8178 C   0  0  0  0  0  0
   19.5398  -13.3673   20.7831 N   0  0  0  0  0  0
   18.2811  -16.0816   23.1091 C   0  0  0  0  0  0
   20.0349  -14.7170   23.8787 C   0  0  0  0  0  0
   18.2300  -16.0467   24.5001 C   0  0  0  0  0  0
   19.2924  -15.1509   24.9810 C   0  0  0  0  0  0
   19.0934  -12.0888   20.1890 C   0  0  2  0  0  0
   17.7081  -12.1231   19.5255 C   0  0  0  0  0  0
   17.4388  -16.8386   22.3538 N   0  0  0  0  0  0
   16.7414  -11.4947   20.2021 N   0  0  0  0  0  0
   14.3424  -12.2344   20.2697 C   0  0  0  0  0  0
   17.8403  -13.4339   22.2511 O   0  0  0  0  0  0
   20.3217  -16.0198   21.8253 O   0  0  0  0  0  0
   15.3902  -11.2779   19.7100 C   0  0  0  0  0  0
   13.2279  -11.7832   21.0100 C   0  0  0  0  0  0
   17.5543  -12.6668   18.4313 O   0  0  0  0  0  0
   14.4782  -13.6005   19.9901 C   0  0  0  0  0  0
   12.2739  -12.7132   21.4381 C   0  0  0  0  0  0
   20.8383  -13.7495   20.2254 C   0  0  0  0  0  0
   13.5257  -14.5148   20.4316 C   0  0  0  0  0  0
   21.1390  -13.8777   24.0798 C   0  0  0  0  0  0
   12.4178  -14.0674   21.1427 C   0  0  0  0  0  0
   13.7193  -16.1980   20.1013 Cl  0  0  0  0  0  0
   12.8121   -9.4530   20.2676 N   0  0  0  0  0  0
   19.6141  -14.7173   26.2673 C   0  0  0  0  0  0
   17.2786  -16.8270   25.1592 C   0  0  0  0  0  0
   20.1873  -11.7123   19.1823 C   0  0  0  0  0  0
   21.3990  -12.4939   19.5888 C   0  0  0  0  0  0
   13.0331  -10.3222   21.4119 C   0  0  0  0  0  0
   16.5204  -17.5938   23.0088 C   0  0  0  0  0  0
   16.4165  -17.6258   24.4021 C   0  0  0  0  0  0
   21.4678  -13.4527   25.3670 C   0  0  0  0  0  0
   20.6930  -13.8526   26.4531 C   0  0  0  0  0  0
   19.0964  -11.3463   20.9898 H   0  0  0  0  0  0
   16.9497  -11.1438   21.1265 H   0  0  0  0  0  0
   21.0281  -15.4684   21.4852 H   0  0  0  0  0  0
   15.3355  -11.3309   18.6200 H   0  0  0  0  0  0
   15.1679  -10.2527   19.9656 H   0  0  0  0  0  0
   15.3289  -13.9577   19.4275 H   0  0  0  0  0  0
   11.4144  -12.3975   22.0137 H   0  0  0  0  0  0
   20.6906  -14.5319   19.4792 H   0  0  0  0  0  0
   21.5572  -14.0934   20.9671 H   0  0  0  0  0  0
   21.7293  -13.5233   23.2483 H   0  0  0  0  0  0
   11.6726  -14.7694   21.4881 H   0  0  0  0  0  0
   11.9237   -9.6778   19.8309 H   0  0  0  0  0  0
   12.7062   -8.5052   20.6023 H   0  0  0  0  0  0
   19.0301  -15.0304   27.1199 H   0  0  0  0  0  0
   17.2152  -16.8346   26.2371 H   0  0  0  0  0  0
   19.9219  -11.9798   18.1585 H   0  0  0  0  0  0
   20.4159  -10.6536   19.2059 H   0  0  0  0  0  0
   22.0160  -12.6952   18.7226 H   0  0  0  0  0  0
   21.9801  -11.9302   20.3208 H   0  0  0  0  0  0
   12.1915  -10.2231   22.1007 H   0  0  0  0  0  0
   13.9166   -9.9845   21.9567 H   0  0  0  0  0  0
   15.8649  -18.1879   22.3896 H   0  0  0  0  0  0
   15.6812  -18.2517   24.8852 H   0  0  0  0  0  0
   22.3082  -12.7918   25.5219 H   0  0  0  0  0  0
   20.9336  -13.4955   27.4446 H   0  0  0  0  0  0
  1  2  1  0  0  0
  1  4  1  0  0  0
  1  5  1  0  0  0
  1 14  1  0  0  0
  2  3  1  0  0  0
  2 13  2  0  0  0
  3  8  1  0  0  0
  3 20  1  0  0  0
  4  6  2  0  0  0
  4 10  1  0  0  0
  5  7  2  0  0  0
  5 22  1  0  0  0
  6 27  1  0  0  0
  6  7  1  0  0  0
  7 26  1  0  0  0
  8  9  1  0  0  0
  8 28  1  0  0  0
  8 35  1  0  0  0
  9 11  1  0  0  0
  9 17  2  0  0  0
 10 31  2  0  0  0
 11 15  1  0  0  0
 11 36  1  0  0  0
 12 15  1  0  0  0
 12 16  1  0  0  0
 12 18  2  0  0  0
 14 37  1  0  0  0
 15 38  1  0  0  0
 15 39  1  0  0  0
 16 19  2  0  0  0
 16 30  1  0  0  0
 18 21  1  0  0  0
 18 40  1  0  0  0
 19 23  1  0  0  0
 19 41  1  0  0  0
 20 29  1  0  0  0
 20 42  1  0  0  0
 20 43  1  0  0  0
 21 23  2  0  0  0
 21 24  1  0  0  0
 22 33  2  0  0  0
 22 44  1  0  0  0
 23 45  1  0  0  0
 25 30  1  0  0  0
 25 46  1  0  0  0
 25 47  1  0  0  0
 26 34  2  0  0  0
 26 48  1  0  0  0
 27 32  2  0  0  0
 27 49  1  0  0  0
 28 29  1  0  0  0
 28 50  1  0  0  0
 28 51  1  0  0  0
 29 52  1  0  0  0
 29 53  1  0  0  0
 30 54  1  0  0  0
 30 55  1  0  0  0
 31 32  1  0  0  0
 31 56  1  0  0  0
 32 57  1  0  0  0
 33 34  1  0  0  0
 33 58  1  0  0  0
 34 59  1  0  0  0
M  END
> <s_m_entry_id>
35517

> <s_m_entry_name>
dock_pv.367

> <s_m_Source_Path>
/home/csk/Desktop/cluster/DUD-E-result/thrb

> <s_m_Source_File>
dock_pv.maegz

> <i_m_Source_File_Index>
367

> <chembl_id>
CHEMBL192378

> <chembl_pref_name>
None

> <i_lp_mmshare_version>
53161

> <r_lp_tautomer_probability>
1

> <s_lp_Force_Field>
OPLS_2005

> <r_lp_Energy>
50.666391

> <b_lp_Chiralities_Consistent>
1

> <s_lp_Variant>
CHEMBL204_lig4110-1

> <s_i_glide_gridfile>
glide-grid_1ype

> <i_i_glide_lignum>
5712

> <i_i_glide_rotatable_bonds>
8

> <r_i_docking_score>
-6.93865262046755

> <r_i_glide_ligand_efficiency>
-0.204078018249046

> <r_i_glide_ligand_efficiency_sa>
-0.661133555523798

> <r_i_glide_ligand_efficiency_ln>
-1.53294298647498

> <r_i_glide_gscore>
-6.93865262046755

> <r_i_glide_lipo>
-3.27777580727909

> <r_i_glide_hbond>
-0.390767870895447

> <r_i_glide_metal>
0

> <r_i_glide_rewards>
-0.839502392539424

> <r_i_glide_evdw>
-44.8453140258789

> <r_i_glide_ecoul>
-4.81689882278442

> <r_i_glide_erotb>
0.534193974958018

> <r_i_glide_esite>
0

> <r_i_glide_emodel>
-66.146790544978

> <r_i_glide_energy>
-49.6622128486633

> <r_i_glide_einternal>
5.00346565246582

> <i_i_glide_confnum>
94

> <i_i_glide_posenum>
188

> <r_i_glide_eff_state_penalty>
0

> <s_user_duplicate_titles>
CHEMBL204_lig4110,319876

> <i_f3d_flags>
0

> <s_m_subgroup_title>
dock_pv

> <s_m_subgroupid>
dock_pv

> <b_m_subgroup_collapsed>
1

$$$$
CHEMBL204_lig3423
                    3D
 Schrodinger Suite 2021-1.
 48 52  0  0  1  0            999 V2000
   13.7892  -13.5902   19.6001 S   0  0  0  0  0  0
   13.2032  -12.3303   20.7564 C   0  0  0  0  0  0
   21.7009  -13.6981   23.7246 C   0  0  0  0  0  0
   15.5272  -13.6574   19.9551 N   0  0  1  0  0  0
   20.3522  -13.6430   24.1380 C   0  0  0  0  0  0
   13.7506  -10.6719   20.6768 S   0  0  0  0  0  0
   17.9145  -12.8440   19.6399 C   0  0  0  0  0  0
   16.4000  -12.5878   19.3951 C   0  0  0  0  0  0
   18.2604  -13.8741   20.4833 N   0  0  0  0  0  0
   19.5126  -13.7690   23.0790 N   0  0  0  0  0  0
   20.2684  -13.9188   22.0080 C   0  0  0  0  0  0
   12.2693  -12.5446   21.7448 C   0  0  0  0  0  0
   22.7131  -13.6467   24.6914 C   0  0  0  0  0  0
   21.6136  -13.8010   22.3206 C   0  0  0  0  0  0
   12.8282  -10.2855   22.1062 C   0  0  0  0  0  0
   12.0448  -11.3915   22.5388 C   0  0  0  0  0  0
   20.0293  -13.4930   25.4971 C   0  0  0  0  0  0
   22.3614  -13.5389   25.9832 N   0  0  0  0  0  0
   15.9374  -14.1493   21.2682 C   0  0  0  0  0  0
   19.6814  -14.2256   20.6366 C   0  0  0  0  0  0
   13.6181  -13.0327   18.2592 O   0  0  0  0  0  0
   13.1665  -14.8600   19.9970 O   0  0  0  0  0  0
   12.8210   -9.0644   22.7895 C   0  0  0  0  0  0
   21.0844  -13.4510   26.4099 C   0  0  0  0  0  0
   17.2900  -14.8295   21.0688 C   0  0  0  0  0  0
   18.7455  -12.1060   19.1055 O   0  0  0  0  0  0
   24.0477  -13.7132   24.3953 O   0  0  0  0  0  0
   11.2157  -11.2177   23.6489 C   0  0  0  0  0  0
   12.0166   -8.9418   23.9149 C   0  0  0  0  0  0
   11.2145   -9.9990   24.3210 C   0  0  0  0  0  0
   12.0124   -7.4528   24.7859 Cl  0  0  0  0  0  0
   16.1744  -11.6206   19.8339 H   0  0  0  0  0  0
   16.2527  -12.5391   18.3156 H   0  0  0  0  0  0
   11.7713  -13.4885   21.9210 H   0  0  0  0  0  0
   22.4159  -13.8529   21.6072 H   0  0  0  0  0  0
   19.0013  -13.4422   25.8260 H   0  0  0  0  0  0
   23.0945  -13.5331   26.6777 H   0  0  0  0  0  0
   15.1922  -14.8381   21.6668 H   0  0  0  0  0  0
   16.0469  -13.2955   21.9388 H   0  0  0  0  0  0
   20.2968  -13.7612   19.8648 H   0  0  0  0  0  0
   19.7781  -15.2939   20.4409 H   0  0  0  0  0  0
   13.4541   -8.2531   22.4717 H   0  0  0  0  0  0
   20.9467  -13.3566   27.4795 H   0  0  0  0  0  0
   17.2134  -15.6797   20.3905 H   0  0  0  0  0  0
   17.6462  -15.1915   22.0329 H   0  0  0  0  0  0
   24.6072  -13.7272   25.1743 H   0  0  0  0  0  0
   10.5738  -12.0178   23.9936 H   0  0  0  0  0  0
   10.5646   -9.8781   25.1736 H   0  0  0  0  0  0
  1  2  1  0  0  0
  1  4  1  0  0  0
  1 21  2  0  0  0
  1 22  2  0  0  0
  2  6  1  0  0  0
  2 12  2  0  0  0
  3 14  1  0  0  0
  3 13  2  0  0  0
  3  5  1  0  0  0
  4  8  1  0  0  0
  4 19  1  0  0  0
  5 10  2  0  0  0
  5 17  1  0  0  0
  6 15  1  0  0  0
  7  8  1  0  0  0
  7 26  2  0  0  0
  7  9  1  0  0  0
  8 32  1  0  0  0
  8 33  1  0  0  0
  9 25  1  0  0  0
  9 20  1  0  0  0
 10 11  1  0  0  0
 11 20  1  0  0  0
 11 14  2  0  0  0
 12 16  1  0  0  0
 12 34  1  0  0  0
 13 18  1  0  0  0
 13 27  1  0  0  0
 14 35  1  0  0  0
 15 23  1  0  0  0
 15 16  2  0  0  0
 16 28  1  0  0  0
 17 24  2  0  0  0
 17 36  1  0  0  0
 18 24  1  0  0  0
 18 37  1  0  0  0
 19 25  1  0  0  0
 19 38  1  0  0  0
 19 39  1  0  0  0
 20 40  1  0  0  0
 20 41  1  0  0  0
 23 29  2  0  0  0
 23 42  1  0  0  0
 24 43  1  0  0  0
 25 44  1  0  0  0
 25 45  1  0  0  0
 27 46  1  0  0  0
 28 30  2  0  0  0
 28 47  1  0  0  0
 29 31  1  0  0  0
 29 30  1  0  0  0
 30 48  1  0  0  0
M  END
> <s_m_entry_id>
35518

> <s_m_entry_name>
dock_pv.368

> <s_m_Source_Path>
/home/csk/Desktop/cluster/DUD-E-result/thrb

> <s_m_Source_File>
dock_pv.maegz

> <i_m_Source_File_Index>
368

> <chembl_id>
CHEMBL351100

> <chembl_pref_name>
None

> <i_lp_mmshare_version>
53161

> <r_lp_tautomer_probability>
1

> <s_lp_Force_Field>
OPLS_2005

> <r_lp_Energy>
14.625473

> <b_lp_Chiralities_Consistent>
1

> <s_lp_Variant>
CHEMBL204_lig3423-1

> <s_i_glide_gridfile>
glide-grid_1ype

> <i_i_glide_lignum>
4776

> <i_i_glide_rotatable_bonds>
5

> <r_i_docking_score>
-6.93857028821898

> <r_i_glide_ligand_efficiency>
-0.223824848007064

> <r_i_glide_ligand_efficiency_sa>
-0.703119046249001

> <r_i_glide_ligand_efficiency_ln>
-1.56486024163542

> <r_i_glide_gscore>
-6.93857028821898

> <r_i_glide_lipo>
-3.79373413082169

> <r_i_glide_hbond>
0

> <r_i_glide_metal>
0

> <r_i_glide_rewards>
0.0513061190829238

> <r_i_glide_evdw>
-51.6240310668945

> <r_i_glide_ecoul>
-6.47376680374146

> <r_i_glide_erotb>
0.356124297425727

> <r_i_glide_esite>
0

> <r_i_glide_emodel>
-78.866019191917

> <r_i_glide_energy>
-58.097797870636

> <r_i_glide_einternal>
3.54225778579712

> <i_i_glide_confnum>
31

> <i_i_glide_posenum>
121

> <r_i_glide_eff_state_penalty>
0

> <s_user_duplicate_titles>
CHEMBL204_lig3423

> <i_f3d_flags>
0

> <s_m_subgroup_title>
dock_pv

> <s_m_subgroupid>
dock_pv

> <b_m_subgroup_collapsed>
1

$$$$
CHEMBL204_lig3567
                    3D
 Schrodinger Suite 2021-1.
 54 56  0  0  1  0            999 V2000
   21.0756  -15.2929   22.7708 S   0  0  0  0  0  0
   19.9876  -15.2604   24.1935 C   0  0  0  0  0  0
   11.3430  -10.6624   23.6841 C   0  0  0  0  0  0
   12.0179  -10.8028   22.4313 N   0  0  0  0  0  0
   19.9380  -15.4033   21.5504 O   0  0  0  0  0  0
   19.4639  -14.2524   20.9861 C   0  0  0  0  0  0
   21.8148  -16.5584   22.8295 O   0  0  0  0  0  0
   21.7694  -14.0001   22.6873 O   0  0  0  0  0  0
   11.2160   -9.5849   24.3187 N   0  0  0  0  0  0
   18.9686  -16.2112   24.3829 C   0  0  0  0  0  0
   18.2600  -13.6862   21.4165 C   0  0  0  0  0  0
   12.1890  -12.0667   21.6910 C   0  0  0  0  0  0
   12.4064   -9.6384   21.6266 C   0  0  0  0  0  0
   17.7428  -12.5513   20.7855 C   0  0  0  0  0  0
   10.8160  -11.8530   24.2092 N   0  0  0  0  0  0
   19.6759  -12.5399   19.2924 C   0  0  0  0  0  0
   20.1675  -13.6824   19.9252 C   0  0  0  0  0  0
   16.5168  -12.0645   21.2070 O   0  0  0  0  0  0
   18.4808  -11.9741   19.7411 C   0  0  0  0  0  0
   18.6580  -17.4801   23.2485 Cl  0  0  0  0  0  0
   15.8023  -11.1923   20.3210 C   0  0  0  0  0  0
   13.6869  -12.2645   21.3824 C   0  0  0  0  0  0
   13.9148   -9.7366   21.3623 C   0  0  0  0  0  0
   20.2129  -14.2843   25.1694 C   0  0  0  0  0  0
   14.2946  -11.0526   20.6393 C   0  0  0  0  0  0
   21.2160  -12.6530   17.3376 O   0  0  0  0  0  0
   20.4144  -11.8530   18.1548 C   0  0  0  0  0  0
   18.1812  -16.1585   25.5344 C   0  0  0  0  0  0
   19.4337  -14.2530   26.3210 C   0  0  0  0  0  0
   18.4160  -15.1863   26.5036 C   0  0  0  0  0  0
   10.6258   -9.7226   25.1290 H   0  0  0  0  0  0
   17.7088  -14.1498   22.2210 H   0  0  0  0  0  0
   11.8152  -12.9362   22.2316 H   0  0  0  0  0  0
   11.6162  -12.0122   20.7647 H   0  0  0  0  0  0
   12.1709   -8.6954   22.1224 H   0  0  0  0  0  0
   11.8443   -9.6495   20.6912 H   0  0  0  0  0  0
   10.1592  -11.8298   24.9812 H   0  0  0  0  0  0
   10.8157  -12.7253   23.6944 H   0  0  0  0  0  0
   21.0906  -14.1417   19.6031 H   0  0  0  0  0  0
   18.1223  -11.0788   19.2583 H   0  0  0  0  0  0
   15.8736  -11.5774   19.3011 H   0  0  0  0  0  0
   16.2798  -10.2105   20.3191 H   0  0  0  0  0  0
   14.2183  -12.4545   22.3167 H   0  0  0  0  0  0
   13.8375  -13.1742   20.7995 H   0  0  0  0  0  0
   14.2496   -8.8795   20.7771 H   0  0  0  0  0  0
   14.4160   -9.6277   22.3203 H   0  0  0  0  0  0
   21.0001  -13.5532   25.0493 H   0  0  0  0  0  0
   13.7648  -11.0025   19.6856 H   0  0  0  0  0  0
   21.8999  -13.0639   17.8767 H   0  0  0  0  0  0
   19.6804  -11.4530   17.4595 H   0  0  0  0  0  0
   21.0171  -11.0530   18.5587 H   0  0  0  0  0  0
   17.3926  -16.8813   25.6843 H   0  0  0  0  0  0
   19.6160  -13.4978   27.0730 H   0  0  0  0  0  0
   17.8094  -15.1536   27.3971 H   0  0  0  0  0  0
  1  2  1  0  0  0
  1  5  1  0  0  0
  1  7  2  0  0  0
  1  8  2  0  0  0
  2 10  1  0  0  0
  2 24  2  0  0  0
  3  4  1  0  0  0
  3  9  2  0  0  0
  3 15  1  0  0  0
  4 13  1  0  0  0
  4 12  1  0  0  0
  5  6  1  0  0  0
  6 11  2  0  0  0
  6 17  1  0  0  0
  9 31  1  0  0  0
 10 20  1  0  0  0
 10 28  2  0  0  0
 11 14  1  0  0  0
 11 32  1  0  0  0
 12 22  1  0  0  0
 12 33  1  0  0  0
 12 34  1  0  0  0
 13 23  1  0  0  0
 13 35  1  0  0  0
 13 36  1  0  0  0
 14 18  1  0  0  0
 14 19  2  0  0  0
 15 37  1  0  0  0
 15 38  1  0  0  0
 16 17  2  0  0  0
 16 19  1  0  0  0
 16 27  1  0  0  0
 17 39  1  0  0  0
 18 21  1  0  0  0
 19 40  1  0  0  0
 21 25  1  0  0  0
 21 41  1  0  0  0
 21 42  1  0  0  0
 22 25  1  0  0  0
 22 43  1  0  0  0
 22 44  1  0  0  0
 23 25  1  0  0  0
 23 45  1  0  0  0
 23 46  1  0  0  0
 24 29  1  0  0  0
 24 47  1  0  0  0
 25 48  1  0  0  0
 26 27  1  0  0  0
 26 49  1  0  0  0
 27 50  1  0  0  0
 27 51  1  0  0  0
 28 30  1  0  0  0
 28 52  1  0  0  0
 29 30  2  0  0  0
 29 53  1  0  0  0
 30 54  1  0  0  0
M  END
> <s_m_entry_id>
35519

> <s_m_entry_name>
dock_pv.369

> <s_m_Source_Path>
/home/csk/Desktop/cluster/DUD-E-result/thrb

> <s_m_Source_File>
dock_pv.maegz

> <i_m_Source_File_Index>
369

> <chembl_id>
CHEMBL166613

> <chembl_pref_name>
None

> <i_lp_mmshare_version>
53161

> <r_lp_tautomer_probability>
1

> <s_lp_Force_Field>
OPLS_2005

> <r_lp_Energy>
22.555218

> <b_lp_Chiralities_Consistent>
1

> <s_lp_Variant>
CHEMBL204_lig3567-1

> <s_i_glide_gridfile>
glide-grid_1ype

> <i_i_glide_lignum>
4975

> <i_i_glide_rotatable_bonds>
9

> <r_i_docking_score>
-6.93562632748776

> <r_i_glide_ligand_efficiency>
-0.231187544249592

> <r_i_glide_ligand_efficiency_sa>
-0.718353451649558

> <r_i_glide_ligand_efficiency_ln>
-1.57584987130672

> <r_i_glide_gscore>
-6.93562632748776

> <r_i_glide_lipo>
-3.54459749508746

> <r_i_glide_hbond>
-0.132013076104095

> <r_i_glide_metal>
0

> <r_i_glide_rewards>
-0.699553503702887

> <r_i_glide_evdw>
-42.3490905761719

> <r_i_glide_ecoul>
-7.03499221801758

> <r_i_glide_erotb>
0.682028177705896

> <r_i_glide_esite>
-0.0687870687879822

> <r_i_glide_emodel>
-65.3371552720924

> <r_i_glide_energy>
-49.3840827941895

> <r_i_glide_einternal>
9.39327812194824

> <i_i_glide_confnum>
25

> <i_i_glide_posenum>
109

> <r_i_glide_eff_state_penalty>
0

> <s_user_duplicate_titles>
CHEMBL204_lig3567,279265

> <i_f3d_flags>
0

> <s_m_subgroup_title>
dock_pv

> <s_m_subgroupid>
dock_pv

> <b_m_subgroup_collapsed>
1

$$$$
CHEMBL204_lig5083
                    3D
 Schrodinger Suite 2021-1.
 49 51  0  0  1  0            999 V2000
   14.6064  -15.3945   21.5209 N   0  0  0  0  0  0
   13.4342  -15.0930   20.7222 C   0  0  0  0  0  0
   13.3078  -13.5878   20.5307 C   0  0  0  0  0  0
   12.3888  -12.9027   21.3317 C   0  0  0  0  0  0
   12.2502  -11.5202   21.2420 C   0  0  0  0  0  0
   13.0110  -10.8079   20.3201 C   0  0  0  0  0  0
   12.8160   -9.0989   20.1734 Cl  0  0  0  0  0  0
   13.9149  -11.4832   19.5018 C   0  0  0  0  0  0
   14.0943  -12.8672   19.6081 C   0  0  0  0  0  0
   15.1111  -13.5370   18.6769 C   0  0  0  0  0  0
   16.4857  -13.3704   19.1498 N   0  0  0  0  0  0
   17.2573  -12.3027   18.8891 C   0  0  0  0  0  0
   16.9768  -11.4499   18.0475 O   0  0  0  0  0  0
   18.5735  -12.1317   19.6784 C   0  0  2  0  0  0
   19.7803  -12.3459   18.7494 C   0  0  0  0  0  0
   20.8765  -12.8828   19.6383 C   0  0  0  0  0  0
   20.1181  -13.7177   20.6526 C   0  0  0  0  0  0
   18.8408  -13.0157   20.8455 N   0  0  0  0  0  0
   18.0097  -13.1335   21.9211 C   0  0  0  0  0  0
   16.8798  -12.6476   21.9665 O   0  0  0  0  0  0
   18.4771  -13.8570   23.0743 C   0  0  0  0  0  0
   17.8359  -14.8632   23.7881 C   0  0  0  0  0  0
   18.5987  -15.2243   24.9135 C   0  0  0  0  0  0
   19.7059  -14.3832   24.8730 C   0  0  0  0  0  0
   19.6161  -13.5611   23.7810 N   0  0  0  0  0  0
   18.2777  -16.2753   25.9578 C   0  0  0  0  0  0
   17.2176  -17.0064   25.6110 F   0  0  0  0  0  0
   19.3033  -17.1093   26.1286 F   0  0  0  0  0  0
   18.0168  -15.7079   27.1339 F   0  0  0  0  0  0
   15.4009  -14.8918   21.1568 H   0  0  0  0  0  0
   14.4703  -15.0547   22.4692 H   0  0  0  0  0  0
   12.5500  -15.4876   21.2262 H   0  0  0  0  0  0
   13.4842  -15.6043   19.7617 H   0  0  0  0  0  0
   11.7713  -13.4488   22.0267 H   0  0  0  0  0  0
   11.5351  -11.0096   21.8715 H   0  0  0  0  0  0
   14.5016  -10.9319   18.7855 H   0  0  0  0  0  0
   14.9096  -14.5991   18.5524 H   0  0  0  0  0  0
   14.9928  -13.1111   17.6770 H   0  0  0  0  0  0
   16.7939  -13.9996   19.8755 H   0  0  0  0  0  0
   18.5984  -11.1093   20.0608 H   0  0  0  0  0  0
   19.5416  -13.0744   17.9788 H   0  0  0  0  0  0
   20.0974  -11.4528   18.2236 H   0  0  0  0  0  0
   21.6138  -13.4542   19.0832 H   0  0  0  0  0  0
   21.3854  -12.0597   20.1424 H   0  0  0  0  0  0
   19.9051  -14.7086   20.2488 H   0  0  0  0  0  0
   20.7247  -13.8486   21.5456 H   0  0  0  0  0  0
   16.8807  -15.2982   23.5265 H   0  0  0  0  0  0
   20.5436  -14.2933   25.5499 H   0  0  0  0  0  0
   20.2778  -12.8361   23.5413 H   0  0  0  0  0  0
  1  2  1  0  0  0
  1 30  1  0  0  0
  1 31  1  0  0  0
  2  3  1  0  0  0
  2 32  1  0  0  0
  2 33  1  0  0  0
  3  4  2  0  0  0
  3  9  1  0  0  0
  4  5  1  0  0  0
  4 34  1  0  0  0
  5  6  2  0  0  0
  5 35  1  0  0  0
  6  7  1  0  0  0
  6  8  1  0  0  0
  8  9  2  0  0  0
  8 36  1  0  0  0
  9 10  1  0  0  0
 10 11  1  0  0  0
 10 37  1  0  0  0
 10 38  1  0  0  0
 11 12  1  0  0  0
 11 39  1  0  0  0
 12 13  2  0  0  0
 12 14  1  0  0  0
 14 15  1  0  0  0
 14 18  1  0  0  0
 14 40  1  0  0  0
 15 16  1  0  0  0
 15 41  1  0  0  0
 15 42  1  0  0  0
 16 17  1  0  0  0
 16 43  1  0  0  0
 16 44  1  0  0  0
 17 18  1  0  0  0
 17 45  1  0  0  0
 17 46  1  0  0  0
 18 19  1  0  0  0
 19 20  2  0  0  0
 19 21  1  0  0  0
 21 22  2  0  0  0
 21 25  1  0  0  0
 22 23  1  0  0  0
 22 47  1  0  0  0
 23 24  2  0  0  0
 23 26  1  0  0  0
 24 25  1  0  0  0
 24 48  1  0  0  0
 25 49  1  0  0  0
 26 27  1  0  0  0
 26 28  1  0  0  0
 26 29  1  0  0  0
M  END
> <s_m_entry_id>
35520

> <s_m_entry_name>
dock_pv.370

> <s_m_Source_Path>
/home/csk/Desktop/cluster/DUD-E-result/thrb

> <s_m_Source_File>
dock_pv.maegz

> <i_m_Source_File_Index>
370

> <chembl_id>
CHEMBL3974377

> <chembl_pref_name>
None

> <i_lp_mmshare_version>
53161

> <r_lp_tautomer_probability>
1

> <s_lp_Force_Field>
OPLS_2005

> <r_lp_Energy>
20.965943

> <b_lp_Chiralities_Consistent>
1

> <s_lp_Variant>
CHEMBL204_lig5083-1

> <s_i_glide_gridfile>
glide-grid_1ype

> <i_i_glide_lignum>
6959

> <i_i_glide_rotatable_bonds>
8

> <r_i_docking_score>
-6.93531665287492

> <r_i_glide_ligand_efficiency>
-0.239148850099135

> <r_i_glide_ligand_efficiency_sa>
-0.734741035178299

> <r_i_glide_ligand_efficiency_ln>
-1.58801164905204

> <r_i_glide_gscore>
-6.93531665287492

> <r_i_glide_lipo>
-2.64462278907486

> <r_i_glide_hbond>
-0.30236061565435

> <r_i_glide_metal>
0

> <r_i_glide_rewards>
-1.73778337778831

> <r_i_glide_evdw>
-39.4321937561035

> <r_i_glide_ecoul>
-6.1809024810791

> <r_i_glide_erotb>
0.648195189609639

> <r_i_glide_esite>
0

> <r_i_glide_emodel>
-61.1894927991197

> <r_i_glide_energy>
-45.6130962371826

> <r_i_glide_einternal>
7.15985631942749

> <i_i_glide_confnum>
69

> <i_i_glide_posenum>
339

> <r_i_glide_eff_state_penalty>
0

> <s_user_duplicate_titles>
CHEMBL204_lig5083

> <i_f3d_flags>
0

> <s_m_subgroup_title>
dock_pv

> <s_m_subgroupid>
dock_pv

> <b_m_subgroup_collapsed>
1

$$$$
CHEMBL204_lig4461
                    3D
 Schrodinger Suite 2021-1.
 47 50  0  0  1  0            999 V2000
   18.3711  -12.0667   20.0742 C   0  0  0  0  0  0
   18.2405  -12.1242   18.6886 C   0  0  0  0  0  0
   16.9849  -12.0329   18.0883 C   0  0  0  0  0  0
   15.8520  -11.8528   18.8786 C   0  0  0  0  0  0
   15.9857  -11.7562   20.2700 C   0  0  0  0  0  0
   17.2409  -11.8905   20.8662 C   0  0  0  0  0  0
   19.6558  -12.2530   17.7085 Cl  0  0  0  0  0  0
   14.8934  -11.5535   21.1212 N   0  0  0  0  0  0
   13.8430  -10.7341   20.9181 C   0  0  0  0  0  0
   12.8658  -10.6562   22.0332 C   0  0  0  0  0  0
   13.6160  -10.0676   19.9207 O   0  0  0  0  0  0
   12.8160   -9.4357   22.7201 C   0  0  0  0  0  0
   12.0159   -9.2816   23.8440 C   0  0  0  0  0  0
   11.2138  -10.3364   24.2532 C   0  0  0  0  0  0
   11.2149  -11.5353   23.5434 C   0  0  0  0  0  0
   12.0454  -11.7363   22.4409 C   0  0  0  0  0  0
   12.0160   -7.7922   24.7189 Cl  0  0  0  0  0  0
   12.0199  -13.0530   21.9186 N   0  0  0  0  0  0
   12.2586  -13.5197   20.6657 C   0  0  0  0  0  0
   12.4299  -14.9451   20.5533 C   0  0  0  0  0  0
   12.3653  -12.8347   19.6527 O   0  0  0  0  0  0
   11.9006  -15.8159   19.5873 C   0  0  0  0  0  0
   13.4983  -15.7784   21.6399 S   0  0  0  0  0  0
   13.1943  -17.2686   20.8273 C   0  0  0  0  0  0
   12.3506  -17.1455   19.7285 C   0  0  0  0  0  0
   10.8159  -15.3419   18.3272 Cl  0  0  0  0  0  0
   11.9970  -18.2997   18.8091 C   0  0  0  0  0  0
   13.0120  -18.4949   17.7838 N   0  0  0  0  0  0
   12.9134  -18.2519   16.4356 C   0  0  0  0  0  0
   14.0193  -18.4958   15.7739 N   0  0  0  0  0  0
   14.8753  -18.9017   16.6934 C   0  0  0  0  0  0
   14.3042  -18.9226   17.9567 C   0  0  0  0  0  0
   19.3457  -12.1403   20.5341 H   0  0  0  0  0  0
   16.8869  -12.0884   17.0141 H   0  0  0  0  0  0
   14.8802  -11.7806   18.4113 H   0  0  0  0  0  0
   17.3543  -11.8304   21.9387 H   0  0  0  0  0  0
   14.9386  -12.0088   22.0178 H   0  0  0  0  0  0
   13.4418   -8.6081   22.4164 H   0  0  0  0  0  0
   10.5629  -10.2315   25.1101 H   0  0  0  0  0  0
   10.5554  -12.3171   23.8912 H   0  0  0  0  0  0
   11.6631  -13.7454   22.5721 H   0  0  0  0  0  0
   13.6844  -18.1679   21.1689 H   0  0  0  0  0  0
   11.0337  -18.1562   18.3170 H   0  0  0  0  0  0
   11.9080  -19.2332   19.3635 H   0  0  0  0  0  0
   11.9969  -17.8617   16.0151 H   0  0  0  0  0  0
   15.8933  -19.1622   16.4432 H   0  0  0  0  0  0
   14.6917  -19.1763   18.9317 H   0  0  0  0  0  0
  1  6  1  0  0  0
  1  2  2  0  0  0
  1 33  1  0  0  0
  2  3  1  0  0  0
  2  7  1  0  0  0
  3  4  2  0  0  0
  3 34  1  0  0  0
  4  5  1  0  0  0
  4 35  1  0  0  0
  5  8  1  0  0  0
  5  6  2  0  0  0
  6 36  1  0  0  0
  8  9  1  0  0  0
  8 37  1  0  0  0
  9 10  1  0  0  0
  9 11  2  0  0  0
 10 16  1  0  0  0
 10 12  2  0  0  0
 12 13  1  0  0  0
 12 38  1  0  0  0
 13 17  1  0  0  0
 13 14  2  0  0  0
 14 15  1  0  0  0
 14 39  1  0  0  0
 15 16  2  0  0  0
 15 40  1  0  0  0
 16 18  1  0  0  0
 18 19  1  0  0  0
 18 41  1  0  0  0
 19 20  1  0  0  0
 19 21  2  0  0  0
 20 22  2  0  0  0
 20 23  1  0  0  0
 22 25  1  0  0  0
 22 26  1  0  0  0
 23 24  1  0  0  0
 24 25  2  0  0  0
 24 42  1  0  0  0
 25 27  1  0  0  0
 27 28  1  0  0  0
 27 43  1  0  0  0
 27 44  1  0  0  0
 28 29  1  0  0  0
 28 32  1  0  0  0
 29 30  2  0  0  0
 29 45  1  0  0  0
 30 31  1  0  0  0
 31 32  2  0  0  0
 31 46  1  0  0  0
 32 47  1  0  0  0
M  END
> <s_m_entry_id>
35521

> <s_m_entry_name>
dock_pv.371

> <s_m_Source_Path>
/home/csk/Desktop/cluster/DUD-E-result/thrb

> <s_m_Source_File>
dock_pv.maegz

> <i_m_Source_File_Index>
371

> <chembl_id>
CHEMBL242091

> <chembl_pref_name>
None

> <i_lp_mmshare_version>
53161

> <r_lp_tautomer_probability>
1

> <s_lp_Force_Field>
OPLS_2005

> <r_lp_Energy>
36.420754

> <b_lp_Chiralities_Consistent>
1

> <s_lp_Variant>
CHEMBL204_lig4461-1

> <s_i_glide_gridfile>
glide-grid_1ype

> <i_i_glide_lignum>
6128

> <i_i_glide_rotatable_bonds>
8

> <r_i_docking_score>
-6.93477409150223

> <r_i_glide_ligand_efficiency>
-0.216711690359445

> <r_i_glide_ligand_efficiency_sa>
-0.68801672970595

> <r_i_glide_ligand_efficiency_ln>
-1.55288495388959

> <r_i_glide_gscore>
-6.93477409150223

> <r_i_glide_lipo>
-3.01678626794747

> <r_i_glide_hbond>
-0.475768740909277

> <r_i_glide_metal>
0

> <r_i_glide_rewards>
-0.440364733821708

> <r_i_glide_evdw>
-45.8144493103027

> <r_i_glide_ecoul>
-8.59293079376221

> <r_i_glide_erotb>
0.639648462284994

> <r_i_glide_esite>
-0.0618407265292922

> <r_i_glide_emodel>
-71.3114060364094

> <r_i_glide_energy>
-54.4073801040649

> <r_i_glide_einternal>
16.3348083496094

> <i_i_glide_confnum>
113

> <i_i_glide_posenum>
185

> <r_i_glide_eff_state_penalty>
0

> <s_user_duplicate_titles>
CHEMBL204_lig4461

> <i_f3d_flags>
0

> <s_m_subgroup_title>
dock_pv

> <s_m_subgroupid>
dock_pv

> <b_m_subgroup_collapsed>
1

$$$$
CHEMBL204_lig4174
                    3D
 Schrodinger Suite 2021-1.
 49 53  0  0  1  0            999 V2000
   18.4405  -12.5463   20.8985 C   0  0  0  0  0  0
   17.2084  -12.2520   21.4042 N   0  0  0  0  0  0
   16.5545  -11.7903   20.3611 C   0  0  0  0  0  0
   12.4637  -11.3788   21.8088 N   0  0  0  0  0  0
   17.2450  -11.7709   19.1798 O   0  0  0  0  0  0
   18.4681  -12.2516   19.5272 C   0  0  0  0  0  0
   20.6058  -13.8484   25.1132 C   0  0  0  0  0  0
   11.6148  -10.2490   23.5055 N   0  0  0  0  0  0
   19.6079  -13.0535   21.4893 C   0  0  0  0  0  0
   12.6222  -10.0831   21.4952 N   0  0  0  0  0  0
   12.8697  -12.4426   20.9587 C   0  0  0  0  0  0
   11.8064  -11.4413   23.0101 C   0  0  0  0  0  0
   14.0824  -12.4497   20.2339 C   0  0  0  0  0  0
   12.1350   -9.4841   22.5612 C   0  0  0  0  0  0
   19.6004  -13.3375   22.8609 N   0  0  0  0  0  0
   15.1169  -11.3312   20.3491 C   0  0  0  0  0  0
   20.7350  -13.2437   20.7424 N   0  0  0  0  0  0
   19.7572  -15.1085   25.3391 C   0  0  0  0  0  0
   20.8324  -13.5543   23.6151 C   0  0  0  0  0  0
   18.4042  -14.9382   25.3344 N   0  0  0  0  0  0
   20.0185  -12.8100   25.7137 F   0  0  0  0  0  0
   21.7900  -14.0056   25.7105 F   0  0  0  0  0  0
   19.6011  -12.4454   18.7360 C   0  0  0  0  0  0
   20.7122  -12.9498   19.4143 C   0  0  0  0  0  0
   14.3495  -13.5218   19.3673 C   0  0  0  0  0  0
   12.0160  -13.5451   20.8655 C   0  0  0  0  0  0
   17.6170  -16.0279   25.5221 C   0  0  0  0  0  0
   20.3468  -16.3661   25.5210 C   0  0  0  0  0  0
   13.4669  -14.5932   19.2557 C   0  0  0  0  0  0
   12.3077  -14.6130   20.0188 C   0  0  0  0  0  0
   18.1343  -17.3088   25.7215 C   0  0  0  0  0  0
   19.5209  -17.4744   25.7178 C   0  0  0  0  0  0
   11.5300  -12.3872   23.4550 H   0  0  0  0  0  0
   12.1542   -8.4104   22.6657 H   0  0  0  0  0  0
   18.7749  -13.0780   23.3792 H   0  0  0  0  0  0
   14.9718  -10.7608   21.2632 H   0  0  0  0  0  0
   14.9427  -10.6530   19.5210 H   0  0  0  0  0  0
   21.4483  -12.6567   23.5177 H   0  0  0  0  0  0
   21.4092  -14.3534   23.1484 H   0  0  0  0  0  0
   19.6147  -12.2311   17.6800 H   0  0  0  0  0  0
   21.6226  -13.1397   18.8724 H   0  0  0  0  0  0
   15.2539  -13.5346   18.7754 H   0  0  0  0  0  0
   11.1142  -13.5772   21.4581 H   0  0  0  0  0  0
   16.5496  -15.8539   25.5127 H   0  0  0  0  0  0
   21.4213  -16.4835   25.5153 H   0  0  0  0  0  0
   13.6905  -15.4105   18.5888 H   0  0  0  0  0  0
   11.6253  -15.4477   19.9511 H   0  0  0  0  0  0
   17.4784  -18.1536   25.8733 H   0  0  0  0  0  0
   19.9538  -18.4518   25.8682 H   0  0  0  0  0  0
  1  2  1  0  0  0
  1  6  2  0  0  0
  1  9  1  0  0  0
  2  3  2  0  0  0
  3 16  1  0  0  0
  3  5  1  0  0  0
  4 11  1  0  0  0
  4 10  1  0  0  0
  4 12  1  0  0  0
  5  6  1  0  0  0
  6 23  1  0  0  0
  7 19  1  0  0  0
  7 18  1  0  0  0
  7 21  1  0  0  0
  7 22  1  0  0  0
  8 12  2  0  0  0
  8 14  1  0  0  0
  9 15  1  0  0  0
  9 17  2  0  0  0
 10 14  2  0  0  0
 11 13  1  0  0  0
 11 26  2  0  0  0
 12 33  1  0  0  0
 13 16  1  0  0  0
 13 25  2  0  0  0
 14 34  1  0  0  0
 15 19  1  0  0  0
 15 35  1  0  0  0
 16 36  1  0  0  0
 16 37  1  0  0  0
 17 24  1  0  0  0
 18 20  1  0  0  0
 18 28  2  0  0  0
 19 38  1  0  0  0
 19 39  1  0  0  0
 20 27  2  0  0  0
 23 24  2  0  0  0
 23 40  1  0  0  0
 24 41  1  0  0  0
 25 29  1  0  0  0
 25 42  1  0  0  0
 26 30  1  0  0  0
 26 43  1  0  0  0
 27 31  1  0  0  0
 27 44  1  0  0  0
 28 32  1  0  0  0
 28 45  1  0  0  0
 29 30  2  0  0  0
 29 46  1  0  0  0
 30 47  1  0  0  0
 31 32  2  0  0  0
 31 48  1  0  0  0
 32 49  1  0  0  0
M  END
> <s_m_entry_id>
35522

> <s_m_entry_name>
dock_pv.372

> <s_m_Source_Path>
/home/csk/Desktop/cluster/DUD-E-result/thrb

> <s_m_Source_File>
dock_pv.maegz

> <i_m_Source_File_Index>
372

> <chembl_id>
CHEMBL197128

> <chembl_pref_name>
None

> <i_lp_mmshare_version>
53161

> <r_lp_tautomer_probability>
1

> <s_lp_Force_Field>
OPLS_2005

> <r_lp_Energy>
22.21029

> <b_lp_Chiralities_Consistent>
1

> <s_lp_Variant>
CHEMBL204_lig4174-1

> <s_i_glide_gridfile>
glide-grid_1ype

> <i_i_glide_lignum>
5801

> <i_i_glide_rotatable_bonds>
7

> <r_i_docking_score>
-6.92210131640537

> <r_i_glide_ligand_efficiency>
-0.216315666137668

> <r_i_glide_ligand_efficiency_sa>
-0.686759431174896

> <r_i_glide_ligand_efficiency_ln>
-1.5500471740986

> <r_i_glide_gscore>
-6.92210131640537

> <r_i_glide_lipo>
-2.89466700770213

> <r_i_glide_hbond>
0

> <r_i_glide_metal>
0

> <r_i_glide_rewards>
-2.06414182364982

> <r_i_glide_evdw>
-48.1898956298828

> <r_i_glide_ecoul>
-1.26428139209747

> <r_i_glide_erotb>
0.635844505255341

> <r_i_glide_esite>
0

> <r_i_glide_emodel>
-68.6128859608315

> <r_i_glide_energy>
-49.4541770219803

> <r_i_glide_einternal>
5.75782012939453

> <i_i_glide_confnum>
20

> <i_i_glide_posenum>
301

> <r_i_glide_eff_state_penalty>
0

> <s_user_duplicate_titles>
CHEMBL204_lig4174,329853

> <i_f3d_flags>
0

> <s_m_subgroup_title>
dock_pv

> <s_m_subgroupid>
dock_pv

> <b_m_subgroup_collapsed>
1

$$$$
CHEMBL204_lig4404
                    3D
 Schrodinger Suite 2021-1.
 58 60  0  0  1  0            999 V2000
   19.8874  -13.1972   24.3926 C   0  0  0  0  0  0
   18.8962  -14.3407   24.1692 C   0  0  0  0  0  0
   18.7078  -15.3791   25.0731 C   0  0  0  0  0  0
   17.5694  -16.5613   24.5549 S   0  0  0  0  0  0
   17.2174  -15.6364   23.1204 C   0  0  0  0  0  0
   18.0381  -14.4889   23.0538 C   0  0  0  0  0  0
   18.0371  -13.3405   21.7626 Cl  0  0  0  0  0  0
   16.1789  -16.1294   22.2245 C   0  0  0  0  0  0
   15.6513  -15.1995   21.3941 N   0  0  0  0  0  0
   15.7848  -17.2977   22.2857 O   0  0  0  0  0  0
   14.5091  -15.3440   20.5668 C   0  0  0  0  0  0
   13.4975  -14.3457   20.6020 C   0  0  0  0  0  0
   12.3342  -14.5433   19.8437 C   0  0  0  0  0  0
   12.1734  -15.6634   19.0429 C   0  0  0  0  0  0
   13.1936  -16.5992   18.9507 C   0  0  0  0  0  0
   14.3784  -16.4490   19.6896 C   0  0  0  0  0  0
   13.6357  -13.0540   21.3888 C   0  0  0  0  0  0
   14.7413  -12.5211   21.5230 O   0  0  0  0  0  0
   12.4887  -12.5515   21.9017 N   0  0  0  0  0  0
   10.7231  -15.8623   18.1297 Cl  0  0  0  0  0  0
   12.3233  -11.3114   22.5336 C   0  0  0  0  0  0
   13.0934  -10.2375   22.1859 N   0  0  0  0  0  0
   12.9271   -9.0788   22.8718 C   0  0  0  0  0  0
   12.0166   -8.9459   23.9186 C   0  0  0  0  0  0
   11.2077  -10.0363   24.2375 C   0  0  0  0  0  0
   11.3369  -11.2258   23.5209 C   0  0  0  0  0  0
   11.8791   -7.4490   24.7592 Cl  0  0  0  0  0  0
   15.4522  -17.3142   19.5481 O   0  0  0  0  0  0
   15.3315  -18.4734   18.7361 C   0  0  0  0  0  0
   21.2962  -13.5301   24.1188 N   0  0  1  0  0  0
   21.8299  -14.5671   25.0188 C   0  0  0  0  0  0
   21.5043  -13.8241   22.6975 C   0  0  0  0  0  0
   23.3246  -14.4204   25.3942 C   0  0  1  0  0  0
   23.6158  -15.4530   26.3203 O   0  0  0  0  0  0
   24.3528  -14.5066   24.2537 C   0  0  0  0  0  0
   19.8145  -12.8497   25.4244 H   0  0  0  0  0  0
   19.6180  -12.3289   23.7901 H   0  0  0  0  0  0
   19.2080  -15.5142   26.0197 H   0  0  0  0  0  0
   15.9501  -14.2444   21.5403 H   0  0  0  0  0  0
   11.5374  -13.8130   19.8442 H   0  0  0  0  0  0
   13.0530  -17.4310   18.2779 H   0  0  0  0  0  0
   11.6930  -13.1719   21.9456 H   0  0  0  0  0  0
   13.5699   -8.2563   22.5936 H   0  0  0  0  0  0
   10.4519   -9.9652   25.0089 H   0  0  0  0  0  0
   10.7055  -12.0696   23.7644 H   0  0  0  0  0  0
   16.2545  -19.0501   18.7949 H   0  0  0  0  0  0
   14.5213  -19.1155   19.0778 H   0  0  0  0  0  0
   15.1721  -18.2140   17.6886 H   0  0  0  0  0  0
   21.6357  -15.5569   24.6012 H   0  0  0  0  0  0
   21.2775  -14.5234   25.9606 H   0  0  0  0  0  0
   21.0565  -13.0515   22.0739 H   0  0  0  0  0  0
   22.5576  -13.8591   22.4375 H   0  0  0  0  0  0
   21.0580  -14.7798   22.4161 H   0  0  0  0  0  0
   23.4579  -13.4746   25.9205 H   0  0  0  0  0  0
   24.3463  -15.1520   26.8809 H   0  0  0  0  0  0
   24.3401  -13.6058   23.6421 H   0  0  0  0  0  0
   24.1613  -15.3672   23.6135 H   0  0  0  0  0  0
   25.3686  -14.6048   24.6425 H   0  0  0  0  0  0
  1 30  1  0  0  0
  1  2  1  0  0  0
  1 36  1  0  0  0
  1 37  1  0  0  0
  2  6  1  0  0  0
  2  3  2  0  0  0
  3  4  1  0  0  0
  3 38  1  0  0  0
  4  5  1  0  0  0
  5  8  1  0  0  0
  5  6  2  0  0  0
  6  7  1  0  0  0
  8  9  1  0  0  0
  8 10  2  0  0  0
  9 11  1  0  0  0
  9 39  1  0  0  0
 11 12  2  0  0  0
 11 16  1  0  0  0
 12 13  1  0  0  0
 12 17  1  0  0  0
 13 14  2  0  0  0
 13 40  1  0  0  0
 14 15  1  0  0  0
 14 20  1  0  0  0
 15 16  2  0  0  0
 15 41  1  0  0  0
 16 28  1  0  0  0
 17 18  2  0  0  0
 17 19  1  0  0  0
 19 21  1  0  0  0
 19 42  1  0  0  0
 21 22  2  0  0  0
 21 26  1  0  0  0
 22 23  1  0  0  0
 23 24  2  0  0  0
 23 43  1  0  0  0
 24 25  1  0  0  0
 24 27  1  0  0  0
 25 26  2  0  0  0
 25 44  1  0  0  0
 26 45  1  0  0  0
 28 29  1  0  0  0
 29 46  1  0  0  0
 29 47  1  0  0  0
 29 48  1  0  0  0
 30 31  1  0  0  0
 30 32  1  0  0  0
 31 33  1  0  0  0
 31 49  1  0  0  0
 31 50  1  0  0  0
 32 51  1  0  0  0
 32 52  1  0  0  0
 32 53  1  0  0  0
 33 34  1  0  0  0
 33 35  1  0  0  0
 33 54  1  0  0  0
 34 55  1  0  0  0
 35 56  1  0  0  0
 35 57  1  0  0  0
 35 58  1  0  0  0
M  END
> <s_m_entry_id>
35523

> <s_m_entry_name>
dock_pv.373

> <s_m_Source_Path>
/home/csk/Desktop/cluster/DUD-E-result/thrb

> <s_m_Source_File>
dock_pv.maegz

> <i_m_Source_File_Index>
373

> <chembl_id>
CHEMBL227248

> <chembl_pref_name>
None

> <i_lp_mmshare_version>
53161

> <r_lp_tautomer_probability>
1

> <s_lp_Force_Field>
OPLS_2005

> <r_lp_Energy>
46.565978

> <b_lp_Chiralities_Consistent>
1

> <s_lp_Variant>
CHEMBL204_lig4404-2

> <s_i_glide_gridfile>
glide-grid_1ype

> <i_i_glide_lignum>
6066

> <i_i_glide_rotatable_bonds>
12

> <r_i_docking_score>
-6.92081027551074

> <r_i_glide_ligand_efficiency>
-0.197737436443164

> <r_i_glide_ligand_efficiency_sa>
-0.646812265845744

> <r_i_glide_ligand_efficiency_ln>
-1.51927145458297

> <r_i_glide_gscore>
-6.92081027551074

> <r_i_glide_lipo>
-3.2310465011216

> <r_i_glide_hbond>
-0.326363051730647

> <r_i_glide_metal>
0

> <r_i_glide_rewards>
-0.159983658772089

> <r_i_glide_evdw>
-50.9765434265137

> <r_i_glide_ecoul>
-8.09885215759277

> <r_i_glide_erotb>
0.590276502780289

> <r_i_glide_esite>
-0.0300385717021009

> <r_i_glide_emodel>
-75.3137269459116

> <r_i_glide_energy>
-59.0753955841064

> <r_i_glide_einternal>
15.1223068237305

> <i_i_glide_confnum>
281

> <i_i_glide_posenum>
209

> <r_i_glide_eff_state_penalty>
0

> <s_user_duplicate_titles>
CHEMBL204_lig4404

> <i_f3d_flags>
0

> <s_m_subgroup_title>
dock_pv

> <s_m_subgroupid>
dock_pv

> <b_m_subgroup_collapsed>
1

$$$$
CHEMBL204_lig5027
                    3D
 Schrodinger Suite 2021-1.
 57 59  0  0  1  0            999 V2000
   17.8976  -14.7274   21.3500 N   0  0  1  0  0  0
   16.5903  -14.8317   20.6907 C   0  0  1  0  0  0
   15.7215  -15.6613   21.6596 C   0  0  0  0  0  0
   16.7253  -16.4542   22.4985 C   0  0  0  0  0  0
   18.0961  -16.0317   21.9738 C   0  0  0  0  0  0
   15.9200  -13.4597   20.4103 C   0  0  0  0  0  0
   14.8803  -13.4733   19.5546 N   0  0  0  0  0  0
   16.3179  -12.4247   20.9518 O   0  0  0  0  0  0
   14.0776  -12.3021   19.1988 C   0  0  0  0  0  0
   13.4054  -11.6410   20.3963 C   0  0  0  0  0  0
   13.8082  -10.3759   20.8179 C   0  0  0  0  0  0
   13.2281   -9.7988   21.9392 C   0  0  0  0  0  0
   12.2471  -10.4743   22.6849 C   0  0  0  0  0  0
   11.8447  -11.7446   22.2270 C   0  0  0  0  0  0
   12.4125  -12.3197   21.0963 C   0  0  0  0  0  0
   18.9843  -14.2555   20.4762 C   0  0  0  0  0  0
   20.0471  -13.4449   21.2523 C   0  0  2  0  0  0
   20.8157  -12.6527   20.3017 N   0  0  0  0  0  0
   21.0257  -14.3086   22.0932 C   0  0  0  0  0  0
   21.1349  -13.9314   23.5686 C   0  0  0  0  0  0
   22.3956  -13.8530   24.1687 C   0  0  0  0  0  0
   22.5080  -13.5403   25.5204 C   0  0  0  0  0  0
   21.3587  -13.3114   26.2734 C   0  0  0  0  0  0
   20.1000  -13.4004   25.6873 C   0  0  0  0  0  0
   19.9860  -13.7106   24.3351 C   0  0  0  0  0  0
   11.6866   -9.8522   23.9173 C   0  0  0  0  0  0
   12.0160   -8.6853   24.2709 N   0  0  0  0  0  0
   10.8160  -10.6527   24.6033 N   0  0  0  0  0  0
   16.6762  -15.3492   19.7324 H   0  0  0  0  0  0
   15.0742  -16.3494   21.1155 H   0  0  0  0  0  0
   15.0980  -15.0523   22.3197 H   0  0  0  0  0  0
   16.5794  -17.5315   22.4008 H   0  0  0  0  0  0
   16.6241  -16.2078   23.5573 H   0  0  0  0  0  0
   18.5227  -16.7652   21.2867 H   0  0  0  0  0  0
   18.8080  -15.9446   22.7929 H   0  0  0  0  0  0
   14.5988  -14.3539   19.1503 H   0  0  0  0  0  0
   14.6870  -11.5871   18.6413 H   0  0  0  0  0  0
   13.2987  -12.6331   18.5094 H   0  0  0  0  0  0
   14.6097   -9.8528   20.3211 H   0  0  0  0  0  0
   13.5842   -8.8270   22.2512 H   0  0  0  0  0  0
   11.0872  -12.3189   22.7396 H   0  0  0  0  0  0
   12.0918  -13.3031   20.7845 H   0  0  0  0  0  0
   18.5590  -13.5979   19.7166 H   0  0  0  0  0  0
   19.4405  -15.0798   19.9271 H   0  0  0  0  0  0
   19.5258  -12.7247   21.8845 H   0  0  0  0  0  0
   21.4914  -12.1028   20.8121 H   0  0  0  0  0  0
   21.3534  -13.2702   19.7092 H   0  0  0  0  0  0
   22.0162  -14.2771   21.6528 H   0  0  0  0  0  0
   20.7635  -15.3630   22.0429 H   0  0  0  0  0  0
   23.2910  -14.0329   23.5928 H   0  0  0  0  0  0
   23.4849  -13.4733   25.9757 H   0  0  0  0  0  0
   21.4442  -13.0597   27.3198 H   0  0  0  0  0  0
   19.2162  -13.2255   26.2809 H   0  0  0  0  0  0
   19.0041  -13.7816   23.8885 H   0  0  0  0  0  0
   11.5433   -8.4183   25.1209 H   0  0  0  0  0  0
   10.1657  -10.2367   25.2641 H   0  0  0  0  0  0
   10.4956  -11.5126   24.1851 H   0  0  0  0  0  0
  1  2  1  0  0  0
  1  5  1  0  0  0
  1 16  1  0  0  0
  2  3  1  0  0  0
  2  6  1  0  0  0
  2 29  1  0  0  0
  3  4  1  0  0  0
  3 30  1  0  0  0
  3 31  1  0  0  0
  4  5  1  0  0  0
  4 32  1  0  0  0
  4 33  1  0  0  0
  5 34  1  0  0  0
  5 35  1  0  0  0
  6  7  1  0  0  0
  6  8  2  0  0  0
  7  9  1  0  0  0
  7 36  1  0  0  0
  9 10  1  0  0  0
  9 37  1  0  0  0
  9 38  1  0  0  0
 10 11  2  0  0  0
 10 15  1  0  0  0
 11 12  1  0  0  0
 11 39  1  0  0  0
 12 13  2  0  0  0
 12 40  1  0  0  0
 13 14  1  0  0  0
 13 26  1  0  0  0
 14 15  2  0  0  0
 14 41  1  0  0  0
 15 42  1  0  0  0
 16 17  1  0  0  0
 16 43  1  0  0  0
 16 44  1  0  0  0
 17 18  1  0  0  0
 17 19  1  0  0  0
 17 45  1  0  0  0
 18 46  1  0  0  0
 18 47  1  0  0  0
 19 20  1  0  0  0
 19 48  1  0  0  0
 19 49  1  0  0  0
 20 21  2  0  0  0
 20 25  1  0  0  0
 21 22  1  0  0  0
 21 50  1  0  0  0
 22 23  2  0  0  0
 22 51  1  0  0  0
 23 24  1  0  0  0
 23 52  1  0  0  0
 24 25  2  0  0  0
 24 53  1  0  0  0
 25 54  1  0  0  0
 26 27  2  0  0  0
 26 28  1  0  0  0
 27 55  1  0  0  0
 28 56  1  0  0  0
 28 57  1  0  0  0
M  END
> <s_m_entry_id>
35524

> <s_m_entry_name>
dock_pv.374

> <s_m_Source_Path>
/home/csk/Desktop/cluster/DUD-E-result/thrb

> <s_m_Source_File>
dock_pv.maegz

> <i_m_Source_File_Index>
374

> <chembl_id>
CHEMBL3423216

> <chembl_pref_name>
None

> <i_lp_mmshare_version>
53161

> <r_lp_tautomer_probability>
1

> <s_lp_Force_Field>
OPLS_2005

> <r_lp_Energy>
45.177463

> <b_lp_Chiralities_Consistent>
1

> <s_lp_Variant>
CHEMBL204_lig5027-1

> <s_i_glide_gridfile>
glide-grid_1ype

> <i_i_glide_lignum>
6874

> <i_i_glide_rotatable_bonds>
9

> <r_i_docking_score>
-6.9207812243029

> <r_i_glide_ligand_efficiency>
-0.247170758010818

> <r_i_glide_ligand_efficiency_sa>
-0.750555997112129

> <r_i_glide_ligand_efficiency_ln>
-1.59751950953558

> <r_i_glide_gscore>
-6.9207812243029

> <r_i_glide_lipo>
-3.61328547111596

> <r_i_glide_hbond>
-0.149371639134633

> <r_i_glide_metal>
0

> <r_i_glide_rewards>
-1.10226257567177

> <r_i_glide_evdw>
-44.3999862670898

> <r_i_glide_ecoul>
-4.56233644485474

> <r_i_glide_erotb>
0.942468155060811

> <r_i_glide_esite>
-0.0939799133586433

> <r_i_glide_emodel>
-67.271853102198

> <r_i_glide_energy>
-48.9623227119446

> <r_i_glide_einternal>
5.15595102310181

> <i_i_glide_confnum>
64

> <i_i_glide_posenum>
338

> <r_i_glide_eff_state_penalty>
0

> <s_user_duplicate_titles>
CHEMBL204_lig5027

> <i_f3d_flags>
0

> <s_m_subgroup_title>
dock_pv

> <s_m_subgroupid>
dock_pv

> <b_m_subgroup_collapsed>
1

$$$$
CHEMBL204_lig4598
                    3D
 Schrodinger Suite 2021-1.
 48 49  0  0  1  0            999 V2000
   12.9982   -9.8769   22.0897 C   0  0  0  0  0  0
   12.3211  -10.9725   22.6522 C   0  0  0  0  0  0
   12.6847  -12.2536   22.2015 C   0  0  0  0  0  0
   13.6897  -12.4468   21.2497 C   0  0  0  0  0  0
   14.3305  -11.3324   20.6950 C   0  0  0  0  0  0
   13.9842  -10.0527   21.1215 C   0  0  0  0  0  0
   11.2909  -10.7687   23.7025 C   0  0  0  0  0  0
   11.2148   -9.6742   24.3190 N   0  0  0  0  0  0
   10.4752  -11.8527   23.9210 N   0  0  0  0  0  0
   14.1319  -14.1327   20.8063 S   0  0  0  0  0  0
   15.7278  -14.4002   21.5020 N   0  0  1  0  0  0
   14.2479  -14.1909   19.3450 O   0  0  0  0  0  0
   13.2137  -15.0325   21.5131 O   0  0  0  0  0  0
   16.9198  -13.8097   20.8575 C   0  0  0  0  0  0
   18.1595  -14.7051   21.0186 C   0  0  0  0  0  0
   18.9232  -14.4869   22.3182 C   0  0  0  0  0  0
   18.4012  -14.9308   23.5357 C   0  0  0  0  0  0
   19.1338  -14.7615   24.7088 C   0  0  0  0  0  0
   20.3953  -14.1578   24.6711 C   0  0  0  0  0  0
   20.9014  -13.6929   23.4530 C   0  0  0  0  0  0
   20.1691  -13.8570   22.2827 C   0  0  0  0  0  0
   15.3047  -11.4514   19.7411 O   0  0  0  0  0  0
   21.2154  -14.0310   25.9572 C   0  0  0  0  0  0
   21.0418  -12.6479   26.6000 C   0  0  0  0  0  0
   22.7066  -14.3778   25.7631 C   0  0  0  0  0  0
   12.7636   -8.8697   22.4063 H   0  0  0  0  0  0
   12.2091  -13.1257   22.6253 H   0  0  0  0  0  0
   14.4863   -9.1843   20.7219 H   0  0  0  0  0  0
   10.4407   -9.6932   24.9742 H   0  0  0  0  0  0
    9.6804  -11.7587   24.5538 H   0  0  0  0  0  0
   10.6337  -12.7658   23.5102 H   0  0  0  0  0  0
   15.7480  -14.5120   22.5208 H   0  0  0  0  0  0
   17.0925  -12.8101   21.2589 H   0  0  0  0  0  0
   16.6916  -13.7176   19.7949 H   0  0  0  0  0  0
   18.8333  -14.5150   20.1819 H   0  0  0  0  0  0
   17.8947  -15.7592   20.9191 H   0  0  0  0  0  0
   17.4381  -15.4190   23.5754 H   0  0  0  0  0  0
   18.7255  -15.1169   25.6440 H   0  0  0  0  0  0
   21.8652  -13.2090   23.4035 H   0  0  0  0  0  0
   20.5833  -13.5061   21.3486 H   0  0  0  0  0  0
   15.6138  -10.5972   19.4302 H   0  0  0  0  0  0
   20.8272  -14.7693   26.6613 H   0  0  0  0  0  0
   20.0021  -12.4579   26.8537 H   0  0  0  0  0  0
   21.3651  -11.8529   25.9293 H   0  0  0  0  0  0
   21.6155  -12.5593   27.5206 H   0  0  0  0  0  0
   22.8290  -15.3351   25.2551 H   0  0  0  0  0  0
   23.2344  -13.6199   25.1833 H   0  0  0  0  0  0
   23.2161  -14.4558   26.7216 H   0  0  0  0  0  0
  1  6  1  0  0  0
  1  2  2  0  0  0
  1 26  1  0  0  0
  2  7  1  0  0  0
  2  3  1  0  0  0
  3  4  2  0  0  0
  3 27  1  0  0  0
  4  5  1  0  0  0
  4 10  1  0  0  0
  5 22  1  0  0  0
  5  6  2  0  0  0
  6 28  1  0  0  0
  7  8  2  0  0  0
  7  9  1  0  0  0
  8 29  1  0  0  0
  9 30  1  0  0  0
  9 31  1  0  0  0
 10 13  2  0  0  0
 10 11  1  0  0  0
 10 12  2  0  0  0
 11 14  1  0  0  0
 11 32  1  0  0  0
 14 15  1  0  0  0
 14 33  1  0  0  0
 14 34  1  0  0  0
 15 16  1  0  0  0
 15 35  1  0  0  0
 15 36  1  0  0  0
 16 17  2  0  0  0
 16 21  1  0  0  0
 17 18  1  0  0  0
 17 37  1  0  0  0
 18 19  2  0  0  0
 18 38  1  0  0  0
 19 20  1  0  0  0
 19 23  1  0  0  0
 20 21  2  0  0  0
 20 39  1  0  0  0
 21 40  1  0  0  0
 22 41  1  0  0  0
 23 24  1  0  0  0
 23 25  1  0  0  0
 23 42  1  0  0  0
 24 43  1  0  0  0
 24 44  1  0  0  0
 24 45  1  0  0  0
 25 46  1  0  0  0
 25 47  1  0  0  0
 25 48  1  0  0  0
M  END
> <s_m_entry_id>
35525

> <s_m_entry_name>
dock_pv.375

> <s_m_Source_Path>
/home/csk/Desktop/cluster/DUD-E-result/thrb

> <s_m_Source_File>
dock_pv.maegz

> <i_m_Source_File_Index>
375

> <chembl_id>
CHEMBL463581

> <chembl_pref_name>
None

> <i_lp_mmshare_version>
53161

> <r_lp_tautomer_probability>
1

> <s_lp_Force_Field>
OPLS_2005

> <r_lp_Energy>
6.514263

> <b_lp_Chiralities_Consistent>
1

> <s_lp_Variant>
CHEMBL204_lig4598-1

> <s_i_glide_gridfile>
glide-grid_1ype

> <i_i_glide_lignum>
6269

> <i_i_glide_rotatable_bonds>
8

> <r_i_docking_score>
-6.92019501565037

> <r_i_glide_ligand_efficiency>
-0.276807800626015

> <r_i_glide_ligand_efficiency_sa>
-0.809390918237715

> <r_i_glide_ligand_efficiency_ln>
-1.6402936002191

> <r_i_glide_gscore>
-6.92019501565037

> <r_i_glide_lipo>
-2.98967268443999

> <r_i_glide_hbond>
-0.497524085544835

> <r_i_glide_metal>
0

> <r_i_glide_rewards>
-0.746565763279621

> <r_i_glide_evdw>
-38.2350425720215

> <r_i_glide_ecoul>
-9.14918613433838

> <r_i_glide_erotb>
0.734417152159505

> <r_i_glide_esite>
-0.136719585793599

> <r_i_glide_emodel>
-64.284735921955

> <r_i_glide_energy>
-47.3842287063599

> <r_i_glide_einternal>
3.80386543273926

> <i_i_glide_confnum>
136

> <i_i_glide_posenum>
207

> <r_i_glide_eff_state_penalty>
0

> <s_user_duplicate_titles>
CHEMBL204_lig4598

> <i_f3d_flags>
0

> <s_m_subgroup_title>
dock_pv

> <s_m_subgroupid>
dock_pv

> <b_m_subgroup_collapsed>
1

$$$$
CHEMBL204_lig3482
                    3D
 Schrodinger Suite 2021-1.
 53 56  0  0  1  0            999 V2000
   14.6557  -12.6916   18.3709 S   0  0  0  0  0  0
   19.2226  -12.1933   20.3041 N   0  0  0  0  0  0
   18.5686  -12.1258   19.1242 C   0  0  0  0  0  0
   17.1031  -11.8606   19.4659 C   0  0  1  0  0  0
   16.2737  -12.9893   18.9839 N   0  0  1  0  0  0
   21.5580  -14.8083   23.2508 C   0  0  0  0  0  0
   20.8761  -13.6666   21.4021 C   0  0  0  0  0  0
   13.6883  -12.1825   19.7923 C   0  0  0  0  0  0
   21.4877  -13.5574   22.6554 C   0  0  0  0  0  0
   20.9922  -15.7039   22.3949 O   0  0  0  0  0  0
   22.1220  -15.2827   24.5146 C   0  0  0  0  0  0
   20.6409  -12.5672   20.3857 C   0  0  0  0  0  0
   20.5881  -15.0195   21.2934 C   0  0  0  0  0  0
   13.2238  -10.5259   21.5250 C   0  0  0  0  0  0
   17.0330  -11.5840   20.9556 C   0  0  0  0  0  0
   13.9175  -10.9297   20.3602 C   0  0  0  0  0  0
   14.7349  -11.5420   17.4612 O   0  0  0  0  0  0
   14.1245  -13.9816   17.9209 O   0  0  0  0  0  0
   18.4309  -11.8296   21.4767 C   0  0  0  0  0  0
   23.1028  -14.6555   24.9981 N   0  0  0  0  0  0
   19.0260  -12.2531   17.9857 O   0  0  0  0  0  0
   12.2406  -11.3935   22.0815 C   0  0  0  0  0  0
   13.4997   -9.2985   22.1690 C   0  0  0  0  0  0
   12.7383  -13.0377   20.3517 C   0  0  0  0  0  0
   12.0159  -12.6535   21.4801 C   0  0  0  0  0  0
   21.4589  -16.3654   25.0268 N   0  0  0  0  0  0
   11.5265  -10.9778   23.2286 C   0  0  0  0  0  0
   12.8145   -8.9209   23.3204 C   0  0  0  0  0  0
   11.8126   -9.7558   23.8314 C   0  0  0  0  0  0
   13.2117   -7.7428   23.9209 O   0  0  0  0  0  0
   12.2759   -7.0467   24.7353 C   0  0  0  0  0  0
   16.7730  -10.9884   18.9027 H   0  0  0  0  0  0
   16.3660  -13.8560   19.5164 H   0  0  0  0  0  0
   21.8753  -12.6528   23.0948 H   0  0  0  0  0  0
   21.2224  -11.6836   20.6521 H   0  0  0  0  0  0
   21.0131  -12.8831   19.4093 H   0  0  0  0  0  0
   20.1343  -15.6102   20.5119 H   0  0  0  0  0  0
   16.3112  -12.2231   21.4681 H   0  0  0  0  0  0
   16.7425  -10.5447   21.1211 H   0  0  0  0  0  0
   14.6567  -10.2673   19.9365 H   0  0  0  0  0  0
   18.4531  -12.6056   22.2428 H   0  0  0  0  0  0
   18.8147  -10.9119   21.9216 H   0  0  0  0  0  0
   23.4181  -15.0374   25.8780 H   0  0  0  0  0  0
   14.2705   -8.6539   21.7740 H   0  0  0  0  0  0
   12.5557  -14.0117   19.9224 H   0  0  0  0  0  0
   11.2859  -13.3203   21.9203 H   0  0  0  0  0  0
   21.7484  -16.7868   25.8948 H   0  0  0  0  0  0
   20.6990  -16.7761   24.5050 H   0  0  0  0  0  0
   10.7607  -11.6166   23.6473 H   0  0  0  0  0  0
   11.2652   -9.4860   24.7209 H   0  0  0  0  0  0
   12.5985   -6.0115   24.8396 H   0  0  0  0  0  0
   11.2678   -7.0339   24.3207 H   0  0  0  0  0  0
   12.2389   -7.4757   25.7331 H   0  0  0  0  0  0
  1  5  1  0  0  0
  1  8  1  0  0  0
  1 17  2  0  0  0
  1 18  2  0  0  0
  2  3  1  0  0  0
  2 12  1  0  0  0
  2 19  1  0  0  0
  3  4  1  0  0  0
  3 21  2  0  0  0
  4  5  1  0  0  0
  4 15  1  0  0  0
  4 32  1  0  0  0
  5 33  1  0  0  0
  6  9  2  0  0  0
  6 11  1  0  0  0
  6 10  1  0  0  0
  7 12  1  0  0  0
  7  9  1  0  0  0
  7 13  2  0  0  0
  8 16  2  0  0  0
  8 24  1  0  0  0
  9 34  1  0  0  0
 10 13  1  0  0  0
 11 20  2  0  0  0
 11 26  1  0  0  0
 12 35  1  0  0  0
 12 36  1  0  0  0
 13 37  1  0  0  0
 14 16  1  0  0  0
 14 23  1  0  0  0
 14 22  2  0  0  0
 15 19  1  0  0  0
 15 38  1  0  0  0
 15 39  1  0  0  0
 16 40  1  0  0  0
 19 41  1  0  0  0
 19 42  1  0  0  0
 20 43  1  0  0  0
 22 25  1  0  0  0
 22 27  1  0  0  0
 23 28  2  0  0  0
 23 44  1  0  0  0
 24 25  2  0  0  0
 24 45  1  0  0  0
 25 46  1  0  0  0
 26 47  1  0  0  0
 26 48  1  0  0  0
 27 29  2  0  0  0
 27 49  1  0  0  0
 28 30  1  0  0  0
 28 29  1  0  0  0
 29 50  1  0  0  0
 30 31  1  0  0  0
 31 51  1  0  0  0
 31 52  1  0  0  0
 31 53  1  0  0  0
M  END
> <s_m_entry_id>
35526

> <s_m_entry_name>
dock_pv.376

> <s_m_Source_Path>
/home/csk/Desktop/cluster/DUD-E-result/thrb

> <s_m_Source_File>
dock_pv.maegz

> <i_m_Source_File_Index>
376

> <chembl_id>
CHEMBL120749

> <chembl_pref_name>
None

> <i_lp_mmshare_version>
53161

> <r_lp_tautomer_probability>
1

> <s_lp_Force_Field>
OPLS_2005

> <r_lp_Energy>
16.53273

> <b_lp_Chiralities_Consistent>
1

> <s_lp_Variant>
CHEMBL204_lig3482-1

> <s_i_glide_gridfile>
glide-grid_1ype

> <i_i_glide_lignum>
4848

> <i_i_glide_rotatable_bonds>
7

> <r_i_docking_score>
-6.92015726169141

> <r_i_glide_ligand_efficiency>
-0.2232308794094

> <r_i_glide_ligand_efficiency_sa>
-0.701253164790308

> <r_i_glide_ligand_efficiency_ln>
-1.56070753986196

> <r_i_glide_gscore>
-6.92015726169141

> <r_i_glide_lipo>
-3.36921571089501

> <r_i_glide_hbond>
0

> <r_i_glide_metal>
0

> <r_i_glide_rewards>
-0.792316770962873

> <r_i_glide_evdw>
-48.9513397216797

> <r_i_glide_ecoul>
-5.47585010528564

> <r_i_glide_erotb>
0.510319722043301

> <r_i_glide_esite>
0

> <r_i_glide_emodel>
-71.3344490924178

> <r_i_glide_energy>
-54.4271898269653

> <r_i_glide_einternal>
8.99953365325928

> <i_i_glide_confnum>
8

> <i_i_glide_posenum>
148

> <r_i_glide_eff_state_penalty>
0

> <s_user_duplicate_titles>
CHEMBL204_lig3482

> <i_f3d_flags>
0

> <s_m_subgroup_title>
dock_pv

> <s_m_subgroupid>
dock_pv

> <b_m_subgroup_collapsed>
1

$$$$
CHEMBL204_lig4495
                    3D
 Schrodinger Suite 2021-1.
 46 49  0  0  1  0            999 V2000
   13.1114  -13.2407   20.9400 N   0  0  0  0  0  0
   12.6070  -14.9952   19.8352 C   0  0  0  0  0  0
   12.1075  -13.8735   20.3087 N   0  0  0  0  0  0
   11.7179  -15.9975   19.1097 C   0  0  0  0  0  0
   11.0581  -16.7573   19.9827 F   0  0  0  0  0  0
   10.8202  -15.4044   18.3236 F   0  0  0  0  0  0
   12.4380  -16.8110   18.3362 F   0  0  0  0  0  0
   12.8688  -11.9751   21.5268 C   0  0  0  0  0  0
   11.8535  -11.8210   22.4767 C   0  0  0  0  0  0
   11.7027  -10.6066   23.1445 C   0  0  0  0  0  0
   12.5596   -9.5327   22.8510 C   0  0  0  0  0  0
   13.5143   -9.6752   21.8433 C   0  0  0  0  0  0
   13.6740  -10.8865   21.1819 C   0  0  0  0  0  0
   13.9697  -15.1013   20.1556 C   0  0  0  0  0  0
   14.2843  -13.9786   20.9087 C   0  0  0  0  0  0
   15.5698  -13.6763   21.5208 C   0  0  0  0  0  0
   16.4933  -14.6722   21.3001 N   0  0  0  0  0  0
   16.0913  -16.0755   21.0239 C   0  0  0  0  0  0
   15.0129  -16.1661   19.9152 C   0  0  0  0  0  0
   15.8576  -12.6530   22.1394 O   0  0  0  0  0  0
   17.7979  -14.5293   21.8063 C   0  0  0  0  0  0
   18.8479  -14.2980   20.9144 C   0  0  0  0  0  0
   20.1405  -14.1026   21.3997 C   0  0  0  0  0  0
   20.3734  -14.1370   22.7745 C   0  0  0  0  0  0
   19.3320  -14.3860   23.6676 C   0  0  0  0  0  0
   18.0427  -14.5893   23.1843 C   0  0  0  0  0  0
   21.6566  -13.9061   23.2587 N   0  0  0  0  0  0
   12.5656   -8.3173   23.5077 O   0  0  0  0  0  0
   11.8618   -8.1597   24.7246 C   0  0  0  0  0  0
   11.2075  -12.6510   22.7338 H   0  0  0  0  0  0
   10.9372  -10.5332   23.9031 H   0  0  0  0  0  0
   14.1717   -8.8501   21.6149 H   0  0  0  0  0  0
   14.4553  -10.9856   20.4377 H   0  0  0  0  0  0
   16.9614  -16.6655   20.7290 H   0  0  0  0  0  0
   15.7220  -16.5118   21.9546 H   0  0  0  0  0  0
   14.5764  -17.1651   19.8960 H   0  0  0  0  0  0
   15.4699  -16.0274   18.9344 H   0  0  0  0  0  0
   18.6624  -14.2502   19.8508 H   0  0  0  0  0  0
   20.9465  -13.9112   20.7087 H   0  0  0  0  0  0
   19.5140  -14.4125   24.7333 H   0  0  0  0  0  0
   17.2256  -14.7638   23.8740 H   0  0  0  0  0  0
   22.3765  -13.6269   22.6100 H   0  0  0  0  0  0
   21.7788  -13.7712   24.2536 H   0  0  0  0  0  0
   11.8236   -7.0991   24.9801 H   0  0  0  0  0  0
   12.4155   -8.6539   25.5187 H   0  0  0  0  0  0
   10.8363   -8.5250   24.7199 H   0  0  0  0  0  0
  1  3  1  0  0  0
  1 15  1  0  0  0
  1  8  1  0  0  0
  2  3  2  0  0  0
  2  4  1  0  0  0
  2 14  1  0  0  0
  4  6  1  0  0  0
  4  7  1  0  0  0
  4  5  1  0  0  0
  8  9  2  0  0  0
  8 13  1  0  0  0
  9 10  1  0  0  0
  9 30  1  0  0  0
 10 11  2  0  0  0
 10 31  1  0  0  0
 11 12  1  0  0  0
 11 28  1  0  0  0
 12 13  2  0  0  0
 12 32  1  0  0  0
 13 33  1  0  0  0
 14 15  2  0  0  0
 14 19  1  0  0  0
 15 16  1  0  0  0
 16 17  1  0  0  0
 16 20  2  0  0  0
 17 18  1  0  0  0
 17 21  1  0  0  0
 18 19  1  0  0  0
 18 34  1  0  0  0
 18 35  1  0  0  0
 19 36  1  0  0  0
 19 37  1  0  0  0
 21 22  2  0  0  0
 21 26  1  0  0  0
 22 23  1  0  0  0
 22 38  1  0  0  0
 23 24  2  0  0  0
 23 39  1  0  0  0
 24 25  1  0  0  0
 24 27  1  0  0  0
 25 26  2  0  0  0
 25 40  1  0  0  0
 26 41  1  0  0  0
 27 42  1  0  0  0
 27 43  1  0  0  0
 28 29  1  0  0  0
 29 44  1  0  0  0
 29 45  1  0  0  0
 29 46  1  0  0  0
M  END
> <s_m_entry_id>
35527

> <s_m_entry_name>
dock_pv.377

> <s_m_Source_Path>
/home/csk/Desktop/cluster/DUD-E-result/thrb

> <s_m_Source_File>
dock_pv.maegz

> <i_m_Source_File_Index>
377

> <chembl_id>
CHEMBL393727

> <chembl_pref_name>
None

> <i_lp_mmshare_version>
53161

> <r_lp_tautomer_probability>
1

> <s_lp_Force_Field>
OPLS_2005

> <r_lp_Energy>
50.087894

> <b_lp_Chiralities_Consistent>
1

> <s_lp_Variant>
CHEMBL204_lig4495-1

> <s_i_glide_gridfile>
glide-grid_1ype

> <i_i_glide_lignum>
6162

> <i_i_glide_rotatable_bonds>
4

> <r_i_docking_score>
-6.91962816592377

> <r_i_glide_ligand_efficiency>
-0.238607867790475

> <r_i_glide_ligand_efficiency_sa>
-0.733078966130868

> <r_i_glide_ligand_efficiency_ln>
-1.58441938336593

> <r_i_glide_gscore>
-6.91962816592377

> <r_i_glide_lipo>
-2.77379489219655

> <r_i_glide_hbond>
-0.27868476655512

> <r_i_glide_metal>
0

> <r_i_glide_rewards>
-1.34966754107202

> <r_i_glide_evdw>
-41.9793281555176

> <r_i_glide_ecoul>
-4.32690334320068

> <r_i_glide_erotb>
0.242408140647257

> <r_i_glide_esite>
-0.0118871974913526

> <r_i_glide_emodel>
-63.949274518946

> <r_i_glide_energy>
-46.3062314987183

> <r_i_glide_einternal>
2.26050782203674

> <i_i_glide_confnum>
5

> <i_i_glide_posenum>
85

> <r_i_glide_eff_state_penalty>
0

> <s_user_duplicate_titles>
CHEMBL204_lig4495

> <i_f3d_flags>
0

> <s_m_subgroup_title>
dock_pv

> <s_m_subgroupid>
dock_pv

> <b_m_subgroup_collapsed>
1

$$$$
CHEMBL204_lig4439
                    3D
 Schrodinger Suite 2021-1.
 45 47  0  0  1  0            999 V2000
   11.2158  -10.0722   24.2249 C   0  0  0  0  0  0
   12.0161   -8.9873   23.8744 C   0  0  0  0  0  0
   12.8862   -9.0792   22.7927 C   0  0  0  0  0  0
   13.0018  -10.2715   22.0960 C   0  0  0  0  0  0
   12.2611  -11.3907   22.5008 C   0  0  0  0  0  0
   11.3156  -11.2682   23.5207 C   0  0  0  0  0  0
   11.9079   -7.4962   24.7361 Cl  0  0  0  0  0  0
   12.4604  -12.6706   21.9606 N   0  0  0  0  0  0
   13.6353  -13.1793   21.5150 C   0  0  0  0  0  0
   13.6101  -14.6303   21.0626 C   0  0  0  0  0  0
   14.6868  -12.5359   21.5187 O   0  0  0  0  0  0
   12.4072  -15.1822   20.5874 C   0  0  0  0  0  0
   12.3118  -16.5216   20.2184 C   0  0  0  0  0  0
   13.4213  -17.3524   20.3259 C   0  0  0  0  0  0
   14.6312  -16.8348   20.7769 C   0  0  0  0  0  0
   14.7454  -15.4838   21.1192 C   0  0  0  0  0  0
   10.8160  -17.1491   19.6330 Cl  0  0  0  0  0  0
   16.0211  -15.0724   21.5320 N   0  0  0  0  0  0
   16.9154  -14.4549   20.7324 C   0  0  0  0  0  0
   18.1949  -14.1347   21.3501 C   0  0  0  0  0  0
   16.6823  -14.1870   19.5484 O   0  0  0  0  0  0
   18.6142  -14.1590   22.7003 C   0  0  0  0  0  0
   19.4837  -13.5757   20.3208 S   0  0  0  0  0  0
   17.6166  -14.5850   24.0462 Cl  0  0  0  0  0  0
   20.5493  -13.4530   21.6615 C   0  0  0  0  0  0
   19.9691  -13.7835   22.8790 C   0  0  0  0  0  0
   20.7035  -13.6970   24.2065 C   0  0  0  0  0  0
   22.3661  -14.5246   24.1922 S   0  0  2  0  0  0
   22.9734  -13.8517   25.8011 C   0  0  0  0  0  0
   23.2252  -13.8506   23.1215 O   0  0  0  0  0  0
   10.5117   -9.9952   25.0406 H   0  0  0  0  0  0
   13.5161   -8.2528   22.5170 H   0  0  0  0  0  0
   13.7076  -10.3257   21.2810 H   0  0  0  0  0  0
   10.7045  -12.1096   23.8241 H   0  0  0  0  0  0
   11.6931  -13.3158   22.0825 H   0  0  0  0  0  0
   11.5177  -14.5772   20.4930 H   0  0  0  0  0  0
   13.3495  -18.3923   20.0430 H   0  0  0  0  0  0
   15.4898  -17.4876   20.8340 H   0  0  0  0  0  0
   16.2752  -15.2651   22.4887 H   0  0  0  0  0  0
   21.5641  -13.1227   21.4960 H   0  0  0  0  0  0
   20.1347  -14.1443   25.0203 H   0  0  0  0  0  0
   20.8392  -12.6518   24.4808 H   0  0  0  0  0  0
   22.3921  -14.2400   26.6357 H   0  0  0  0  0  0
   22.9145  -12.7645   25.7992 H   0  0  0  0  0  0
   24.0158  -14.1407   25.9240 H   0  0  0  0  0  0
  1  6  2  0  0  0
  1  2  1  0  0  0
  1 31  1  0  0  0
  2  3  2  0  0  0
  2  7  1  0  0  0
  3  4  1  0  0  0
  3 32  1  0  0  0
  4  5  2  0  0  0
  4 33  1  0  0  0
  5  8  1  0  0  0
  5  6  1  0  0  0
  6 34  1  0  0  0
  8  9  1  0  0  0
  8 35  1  0  0  0
  9 10  1  0  0  0
  9 11  2  0  0  0
 10 16  2  0  0  0
 10 12  1  0  0  0
 12 13  2  0  0  0
 12 36  1  0  0  0
 13 17  1  0  0  0
 13 14  1  0  0  0
 14 15  2  0  0  0
 14 37  1  0  0  0
 15 16  1  0  0  0
 15 38  1  0  0  0
 16 18  1  0  0  0
 18 19  1  0  0  0
 18 39  1  0  0  0
 19 20  1  0  0  0
 19 21  2  0  0  0
 20 22  2  0  0  0
 20 23  1  0  0  0
 22 26  1  0  0  0
 22 24  1  0  0  0
 23 25  1  0  0  0
 25 26  2  0  0  0
 25 40  1  0  0  0
 26 27  1  0  0  0
 27 28  1  0  0  0
 27 41  1  0  0  0
 27 42  1  0  0  0
 28 29  1  0  0  0
 28 30  2  0  0  0
 29 43  1  0  0  0
 29 44  1  0  0  0
 29 45  1  0  0  0
M  END
> <s_m_entry_id>
35528

> <s_m_entry_name>
dock_pv.378

> <s_m_Source_Path>
/home/csk/Desktop/cluster/DUD-E-result/thrb

> <s_m_Source_File>
dock_pv.maegz

> <i_m_Source_File_Index>
378

> <chembl_id>
CHEMBL243841

> <chembl_pref_name>
None

> <i_lp_mmshare_version>
53161

> <r_lp_tautomer_probability>
1

> <s_lp_Force_Field>
OPLS_2005

> <r_lp_Energy>
30.517571

> <b_lp_Chiralities_Consistent>
1

> <s_lp_Variant>
CHEMBL204_lig4439-2

> <s_i_glide_gridfile>
glide-grid_1ype

> <i_i_glide_lignum>
6104

> <i_i_glide_rotatable_bonds>
8

> <r_i_docking_score>
-6.91505989126359

> <r_i_glide_ligand_efficiency>
-0.230501996375453

> <r_i_glide_ligand_efficiency_sa>
-0.716223295013061

> <r_i_glide_ligand_efficiency_ln>
-1.57117695290731

> <r_i_glide_gscore>
-6.91505989126359

> <r_i_glide_lipo>
-3.21439381561112

> <r_i_glide_hbond>
-0.197898408528904

> <r_i_glide_metal>
0

> <r_i_glide_rewards>
-0.491188325102714

> <r_i_glide_evdw>
-50.4799346923828

> <r_i_glide_ecoul>
-6.96445035934448

> <r_i_glide_erotb>
0.567840093557956

> <r_i_glide_esite>
-0.0107551470579939

> <r_i_glide_emodel>
-76.6644177970356

> <r_i_glide_energy>
-57.4443850517273

> <r_i_glide_einternal>
8.13518238067627

> <i_i_glide_confnum>
45

> <i_i_glide_posenum>
313

> <r_i_glide_eff_state_penalty>
0

> <s_user_duplicate_titles>
CHEMBL204_lig4439

> <i_f3d_flags>
0

> <s_m_subgroup_title>
dock_pv

> <s_m_subgroupid>
dock_pv

> <b_m_subgroup_collapsed>
1

$$$$
CHEMBL204_lig1767
                    3D
 Schrodinger Suite 2021-1.
 64 67  0  0  1  0            999 V2000
   21.1076  -12.6238   18.0854 C   0  0  0  0  0  0
   19.7351  -12.2513   18.1047 O   0  0  0  0  0  0
   18.9828  -12.5316   19.2288 C   0  0  0  0  0  0
   17.7799  -11.8537   19.4411 C   0  0  0  0  0  0
   16.9654  -12.1041   20.5565 C   0  0  0  0  0  0
   17.3463  -13.0549   21.5146 C   0  0  0  0  0  0
   18.5245  -13.7677   21.3126 C   0  0  0  0  0  0
   19.0815  -14.7480   22.0693 N   0  0  0  0  0  0
   20.2011  -15.0073   21.4404 C   0  0  0  0  0  0
   21.2161  -15.8215   21.8494 N   0  0  0  0  0  0
   21.3251  -16.5324   23.1231 C   0  0  1  0  0  0
   22.6685  -17.2750   23.2562 C   0  0  0  0  0  0
   22.7471  -18.0380   24.3468 F   0  0  0  0  0  0
   21.0477  -15.5819   24.2940 C   0  0  0  0  0  0
   21.9016  -14.5080   24.5840 C   0  0  0  0  0  0
   21.5739  -13.6024   25.5946 C   0  0  0  0  0  0
   20.3958  -13.7655   26.3225 C   0  0  0  0  0  0
   19.5532  -14.8451   26.0533 C   0  0  0  0  0  0
   18.0983  -15.0717   26.9518 Cl  0  0  0  0  0  0
   19.8810  -15.7493   25.0464 C   0  0  0  0  0  0
   20.4158  -14.3148   20.2847 O   0  0  0  0  0  0
   19.3265  -13.4991   20.1942 C   0  0  0  0  0  0
   15.7155  -11.2884   20.7653 C   0  0  0  0  0  0
   15.8049  -10.0663   20.6990 O   0  0  0  0  0  0
   14.5702  -11.9065   21.1699 N   0  0  0  0  0  0
   14.3254  -13.3436   20.9314 C   0  0  0  0  0  0
   13.4252  -13.5141   19.6716 C   0  0  1  0  0  0
   14.2282  -13.1734   18.3907 C   0  0  0  0  0  0
   12.8580  -14.9582   19.6019 C   0  0  0  0  0  0
   12.0164  -15.4515   20.7951 C   0  0  0  0  0  0
   12.8161  -15.7518   21.9207 O   0  0  0  0  0  0
   12.2838  -12.6549   19.8126 O   0  0  0  0  0  0
   12.5436  -11.2706   20.0720 C   0  0  0  0  0  0
   13.3371  -11.1132   21.3728 C   0  0  1  0  0  0
   12.4857  -11.4257   22.6204 C   0  0  0  0  0  0
   21.5994  -12.1539   17.2344 H   0  0  0  0  0  0
   21.6314  -12.3017   18.9864 H   0  0  0  0  0  0
   21.2158  -13.7020   17.9707 H   0  0  0  0  0  0
   17.4792  -11.1037   18.7235 H   0  0  0  0  0  0
   16.7489  -13.2453   22.3955 H   0  0  0  0  0  0
   22.0665  -15.8526   21.2989 H   0  0  0  0  0  0
   20.5505  -17.3017   23.1114 H   0  0  0  0  0  0
   22.8300  -17.9419   22.4085 H   0  0  0  0  0  0
   23.5119  -16.5848   23.2947 H   0  0  0  0  0  0
   22.8049  -14.3580   24.0095 H   0  0  0  0  0  0
   22.2260  -12.7680   25.8086 H   0  0  0  0  0  0
   20.1387  -13.0571   27.0982 H   0  0  0  0  0  0
   19.2072  -16.5664   24.8322 H   0  0  0  0  0  0
   13.7858  -13.6435   21.8226 H   0  0  0  0  0  0
   15.1896  -14.0018   20.9400 H   0  0  0  0  0  0
   15.0900  -13.8325   18.2816 H   0  0  0  0  0  0
   13.6161  -13.2925   17.5016 H   0  0  0  0  0  0
   14.6021  -12.1517   18.3705 H   0  0  0  0  0  0
   13.6646  -15.6690   19.4146 H   0  0  0  0  0  0
   12.2265  -15.0192   18.7158 H   0  0  0  0  0  0
   11.4058  -16.3116   20.5207 H   0  0  0  0  0  0
   11.3159  -14.6745   21.0985 H   0  0  0  0  0  0
   12.3284  -15.4501   22.6935 H   0  0  0  0  0  0
   11.6161  -10.7263   20.2078 H   0  0  0  0  0  0
   13.0466  -10.8010   19.2273 H   0  0  0  0  0  0
   13.5865  -10.0569   21.4921 H   0  0  0  0  0  0
   11.5281  -10.9069   22.5667 H   0  0  0  0  0  0
   12.2466  -12.4836   22.7298 H   0  0  0  0  0  0
   12.9567  -11.0531   23.5212 H   0  0  0  0  0  0
  1  2  1  0  0  0
  1 36  1  0  0  0
  1 37  1  0  0  0
  1 38  1  0  0  0
  2  3  1  0  0  0
  3  4  2  0  0  0
  3 22  1  0  0  0
  4  5  1  0  0  0
  4 39  1  0  0  0
  5  6  2  0  0  0
  5 23  1  0  0  0
  6  7  1  0  0  0
  6 40  1  0  0  0
  7  8  1  0  0  0
  7 22  2  0  0  0
  8  9  2  0  0  0
  9 10  1  0  0  0
  9 21  1  0  0  0
 10 11  1  0  0  0
 10 41  1  0  0  0
 11 12  1  0  0  0
 11 14  1  0  0  0
 11 42  1  0  0  0
 12 13  1  0  0  0
 12 43  1  0  0  0
 12 44  1  0  0  0
 14 15  2  0  0  0
 14 20  1  0  0  0
 15 16  1  0  0  0
 15 45  1  0  0  0
 16 17  2  0  0  0
 16 46  1  0  0  0
 17 18  1  0  0  0
 17 47  1  0  0  0
 18 19  1  0  0  0
 18 20  2  0  0  0
 20 48  1  0  0  0
 21 22  1  0  0  0
 23 24  2  0  0  0
 23 25  1  0  0  0
 25 26  1  0  0  0
 25 34  1  0  0  0
 26 27  1  0  0  0
 26 49  1  0  0  0
 26 50  1  0  0  0
 27 28  1  0  0  0
 27 29  1  0  0  0
 27 32  1  0  0  0
 28 51  1  0  0  0
 28 52  1  0  0  0
 28 53  1  0  0  0
 29 30  1  0  0  0
 29 54  1  0  0  0
 29 55  1  0  0  0
 30 31  1  0  0  0
 30 56  1  0  0  0
 30 57  1  0  0  0
 31 58  1  0  0  0
 32 33  1  0  0  0
 33 34  1  0  0  0
 33 59  1  0  0  0
 33 60  1  0  0  0
 34 35  1  0  0  0
 34 61  1  0  0  0
 35 62  1  0  0  0
 35 63  1  0  0  0
 35 64  1  0  0  0
M  END
> <s_m_entry_id>
35529

> <s_m_entry_name>
dock_pv.379

> <s_m_Source_Path>
/home/csk/Desktop/cluster/DUD-E-result/thrb

> <s_m_Source_File>
dock_pv.maegz

> <i_m_Source_File_Index>
379

> <chembl_id>
CHEMBL4107222

> <chembl_pref_name>
None

> <i_lp_mmshare_version>
53161

> <r_lp_tautomer_probability>
1

> <s_lp_Force_Field>
OPLS_2005

> <r_lp_Energy>
44.033877

> <b_lp_Chiralities_Consistent>
1

> <s_lp_Variant>
CHEMBL204_lig1767-2

> <s_i_glide_gridfile>
glide-grid_1ype

> <i_i_glide_lignum>
2582

> <i_i_glide_rotatable_bonds>
10

> <r_i_docking_score>
-6.91411401033242

> <r_i_glide_ligand_efficiency>
-0.197546114580926

> <r_i_glide_ligand_efficiency_sa>
-0.646186439348517

> <r_i_glide_ligand_efficiency_ln>
-1.51780147576073

> <r_i_glide_gscore>
-6.91411401033242

> <r_i_glide_lipo>
-3.5759282717581

> <r_i_glide_hbond>
-0.651570457295622

> <r_i_glide_metal>
0

> <r_i_glide_rewards>
-0.527187498010677

> <r_i_glide_evdw>
-41.4408798217773

> <r_i_glide_ecoul>
-4.20350027084351

> <r_i_glide_erotb>
0.559364102076778

> <r_i_glide_esite>
-0.0162228536294022

> <r_i_glide_emodel>
-49.4702430532394

> <r_i_glide_energy>
-45.6443800926208

> <r_i_glide_einternal>
13.9998121261597

> <i_i_glide_confnum>
40

> <i_i_glide_posenum>
23

> <r_i_glide_eff_state_penalty>
0

> <s_user_duplicate_titles>
CHEMBL204_lig1767,CHEMBL204_lig1769

> <i_f3d_flags>
0

> <s_m_subgroup_title>
dock_pv

> <s_m_subgroupid>
dock_pv

> <b_m_subgroup_collapsed>
1

$$$$
CHEMBL204_lig3864
                    3D
 Schrodinger Suite 2021-1.
 59 62  0  0  1  0            999 V2000
   18.3315  -15.3608   22.4346 N   0  0  0  0  0  0
   18.8522  -13.5352   21.4626 N   0  0  0  0  0  0
   18.0345  -14.0517   22.3894 C   0  0  0  0  0  0
   19.3059  -15.6878   21.5637 C   0  0  0  0  0  0
   19.4905  -14.5931   20.8037 N   0  0  0  0  0  0
   17.3468  -16.3181   23.0173 C   0  0  2  0  0  0
   18.7331  -12.2199   20.7617 C   0  0  2  0  0  0
   17.3617  -11.9420   20.1129 C   0  0  0  0  0  0
   12.4444  -12.4288   21.8609 N   0  0  0  0  0  0
   17.7529  -16.5845   24.4855 C   0  0  0  0  0  0
   17.0435  -17.6257   22.2227 C   0  0  0  0  0  0
   13.5201  -12.0975   21.0988 C   0  0  0  0  0  0
   17.2166  -13.4532   23.0876 O   0  0  0  0  0  0
   19.9462  -16.7395   21.5188 O   0  0  0  0  0  0
   16.6042  -11.0261   20.7339 N   0  0  0  0  0  0
   14.1166  -10.8279   21.1432 C   0  0  0  0  0  0
   11.8941  -11.4740   22.6494 C   0  0  0  0  0  0
   19.8894  -12.0040   19.7973 C   0  0  0  0  0  0
   15.3327  -10.4668   20.3013 C   0  0  0  0  0  0
   16.4906  -17.4688   20.4923 S   0  0  0  0  0  0
   20.8163  -12.9312   19.5503 C   0  0  0  0  0  0
   20.8247  -14.2807   20.2369 C   0  0  0  0  0  0
   17.0385  -12.5024   19.0662 O   0  0  0  0  0  0
   18.0905  -17.6692   24.9090 O   0  0  0  0  0  0
   13.5041   -9.8484   21.9365 C   0  0  0  0  0  0
   10.8205  -11.8528   23.4450 N   0  0  0  0  0  0
   12.3788  -10.1688   22.6981 C   0  0  0  0  0  0
   17.6145  -15.4502   25.2344 O   0  0  0  0  0  0
   14.7832  -17.0008   20.4412 C   0  0  0  0  0  0
   14.0127  -13.1975   20.1756 C   0  0  0  0  0  0
   14.1449  -16.4705   21.5622 C   0  0  0  0  0  0
   14.0864  -17.1348   19.2385 C   0  0  0  0  0  0
   12.7500  -16.7455   19.1608 C   0  0  0  0  0  0
   12.8335  -16.0317   21.4696 C   0  0  0  0  0  0
   12.1277  -16.1934   20.2792 C   0  0  0  0  0  0
   16.4018  -15.7901   23.1067 H   0  0  0  0  0  0
   18.8315  -11.4764   21.5549 H   0  0  0  0  0  0
   16.2902  -18.2148   22.7480 H   0  0  0  0  0  0
   17.9324  -18.2583   22.2053 H   0  0  0  0  0  0
   16.9883  -10.5957   21.5632 H   0  0  0  0  0  0
   19.9877  -11.0533   19.2976 H   0  0  0  0  0  0
   15.4752   -9.3884   20.3379 H   0  0  0  0  0  0
   15.1223  -10.7128   19.2607 H   0  0  0  0  0  0
   21.6169  -12.6892   18.8656 H   0  0  0  0  0  0
   21.5930  -14.3013   21.0134 H   0  0  0  0  0  0
   21.0859  -15.0572   19.5171 H   0  0  0  0  0  0
   13.9043   -8.8462   21.9865 H   0  0  0  0  0  0
   10.2310  -11.1618   23.8919 H   0  0  0  0  0  0
   10.5430  -12.8305   23.4334 H   0  0  0  0  0  0
   11.9141   -9.4302   23.3340 H   0  0  0  0  0  0
   17.3044  -14.7021   24.7113 H   0  0  0  0  0  0
   14.4474  -12.8092   19.2579 H   0  0  0  0  0  0
   14.7606  -13.8093   20.6795 H   0  0  0  0  0  0
   13.1869  -13.8292   19.8584 H   0  0  0  0  0  0
   14.6389  -16.3539   22.5071 H   0  0  0  0  0  0
   14.5767  -17.5408   18.3655 H   0  0  0  0  0  0
   12.2066  -16.8499   18.2324 H   0  0  0  0  0  0
   12.3978  -15.5355   22.3209 H   0  0  0  0  0  0
   11.1036  -15.8543   20.2131 H   0  0  0  0  0  0
  1  3  1  0  0  0
  1  4  1  0  0  0
  1  6  1  0  0  0
  2  3  1  0  0  0
  2  7  1  0  0  0
  2  5  1  0  0  0
  3 13  2  0  0  0
  4  5  1  0  0  0
  4 14  2  0  0  0
  5 22  1  0  0  0
  6 10  1  0  0  0
  6 11  1  0  0  0
  6 36  1  0  0  0
  7  8  1  0  0  0
  7 18  1  0  0  0
  7 37  1  0  0  0
  8 15  1  0  0  0
  8 23  2  0  0  0
  9 12  1  0  0  0
  9 17  2  0  0  0
 10 24  2  0  0  0
 10 28  1  0  0  0
 11 20  1  0  0  0
 11 38  1  0  0  0
 11 39  1  0  0  0
 12 16  2  0  0  0
 12 30  1  0  0  0
 15 19  1  0  0  0
 15 40  1  0  0  0
 16 19  1  0  0  0
 16 25  1  0  0  0
 17 27  1  0  0  0
 17 26  1  0  0  0
 18 21  2  0  0  0
 18 41  1  0  0  0
 19 42  1  0  0  0
 19 43  1  0  0  0
 20 29  1  0  0  0
 21 22  1  0  0  0
 21 44  1  0  0  0
 22 45  1  0  0  0
 22 46  1  0  0  0
 25 27  2  0  0  0
 25 47  1  0  0  0
 26 48  1  0  0  0
 26 49  1  0  0  0
 27 50  1  0  0  0
 28 51  1  0  0  0
 29 31  2  0  0  0
 29 32  1  0  0  0
 30 52  1  0  0  0
 30 53  1  0  0  0
 30 54  1  0  0  0
 31 34  1  0  0  0
 31 55  1  0  0  0
 32 33  2  0  0  0
 32 56  1  0  0  0
 33 35  1  0  0  0
 33 57  1  0  0  0
 34 35  2  0  0  0
 34 58  1  0  0  0
 35 59  1  0  0  0
M  END
> <s_m_entry_id>
35531

> <s_m_entry_name>
dock_pv.381

> <s_m_Source_Path>
/home/csk/Desktop/cluster/DUD-E-result/thrb

> <s_m_Source_File>
dock_pv.maegz

> <i_m_Source_File_Index>
381

> <chembl_id>
CHEMBL284129

> <chembl_pref_name>
None

> <i_lp_mmshare_version>
53161

> <r_lp_tautomer_probability>
0.999999772200052

> <s_lp_Force_Field>
OPLS_2005

> <r_lp_Energy>
13.865221

> <b_lp_Chiralities_Consistent>
1

> <s_lp_Variant>
CHEMBL204_lig3864-1

> <s_i_glide_gridfile>
glide-grid_1ype

> <i_i_glide_lignum>
5321

> <i_i_glide_rotatable_bonds>
10

> <r_i_docking_score>
-6.91377328617559

> <r_i_glide_ligand_efficiency>
-0.197536379605017

> <r_i_glide_ligand_efficiency_sa>
-0.646154595596827

> <r_i_glide_ligand_efficiency_ln>
-1.51772667924634

> <r_i_glide_gscore>
-6.91377328617559

> <r_i_glide_lipo>
-2.42425519308776

> <r_i_glide_hbond>
-0.456028477662741

> <r_i_glide_metal>
0

> <r_i_glide_rewards>
-0.992453096409352

> <r_i_glide_evdw>
-45.2787895202637

> <r_i_glide_ecoul>
-9.11899757385254

> <r_i_glide_erotb>
0.661702058882621

> <r_i_glide_esite>
-0.0709494658072958

> <r_i_glide_emodel>
-72.741251033212

> <r_i_glide_energy>
-54.3977870941162

> <r_i_glide_einternal>
9.91847801208496

> <i_i_glide_confnum>
2

> <i_i_glide_posenum>
209

> <r_i_glide_eff_state_penalty>
0

> <s_user_duplicate_titles>
CHEMBL204_lig3864

> <i_f3d_flags>
0

> <s_m_subgroup_title>
dock_pv

> <s_m_subgroupid>
dock_pv

> <b_m_subgroup_collapsed>
1

$$$$
CHEMBL204_lig2217
                    3D
 Schrodinger Suite 2021-1.
 53 55  0  0  1  0            999 V2000
   18.7121  -14.2377   22.9177 C   0  0  0  0  0  0
   18.8124  -12.7049   21.0358 N   0  0  0  0  0  0
   18.0193  -13.2985   22.0108 C   0  0  0  0  0  0
   17.9356  -14.7208   23.9399 N   0  0  0  0  0  0
   20.0202  -14.5629   22.7671 C   0  0  0  0  0  0
   20.1583  -13.0524   20.8883 C   0  0  0  0  0  0
   18.3829  -15.3508   25.0505 C   0  0  0  0  0  0
   20.7647  -13.9497   21.6890 C   0  0  0  0  0  0
   16.1100  -12.6337   13.9536 N   0  0  0  0  0  0
   20.6498  -15.5249   23.7630 C   0  0  0  0  0  0
   18.1389  -11.6650   20.2097 C   0  0  0  0  0  0
   15.9625  -13.2870   15.1358 C   0  0  0  0  0  0
   19.9362  -15.4789   25.1511 C   0  0  1  0  0  0
   15.7945  -12.6108   16.3583 C   0  0  0  0  0  0
   17.6371  -12.2573   18.8873 C   0  0  0  0  0  0
   16.0716  -11.2826   13.9533 C   0  0  0  0  0  0
   16.8110  -13.0537   22.1379 O   0  0  0  0  0  0
   16.3770  -12.7223   18.8578 N   0  0  0  0  0  0
   17.6162  -15.7442   25.9220 O   0  0  0  0  0  0
   15.7188  -13.3554   17.7013 C   0  0  0  0  0  0
   18.3795  -12.2528   17.9082 O   0  0  0  0  0  0
   15.7475  -11.2102   16.3211 C   0  0  0  0  0  0
   16.2356  -10.6530   12.7276 N   0  0  0  0  0  0
   15.8891  -10.5319   15.1109 C   0  0  0  0  0  0
   20.9638  -12.3394   19.8089 C   0  0  0  0  0  0
   15.9488  -14.8032   15.0276 C   0  0  0  0  0  0
   20.4937  -14.4054   26.1311 C   0  0  0  0  0  0
   20.3770  -12.9370   25.6835 C   0  0  0  0  0  0
   20.1076  -16.4440   25.6345 H   0  0  0  0  0  0
   16.9301  -14.6002   23.9122 H   0  0  0  0  0  0
   21.8115  -14.1864   21.5599 H   0  0  0  0  0  0
   20.5338  -16.5271   23.3457 H   0  0  0  0  0  0
   21.7229  -15.3535   23.8527 H   0  0  0  0  0  0
   18.7962  -10.8181   20.0214 H   0  0  0  0  0  0
   17.3112  -11.1910   20.7408 H   0  0  0  0  0  0
   15.8795  -12.7721   19.7356 H   0  0  0  0  0  0
   14.6639  -13.4838   17.9467 H   0  0  0  0  0  0
   16.1213  -14.3651   17.6142 H   0  0  0  0  0  0
   15.6203  -10.6528   17.2343 H   0  0  0  0  0  0
   16.0169   -9.6627   12.6479 H   0  0  0  0  0  0
   16.2129  -11.2453   11.9108 H   0  0  0  0  0  0
   15.8632   -9.4518   15.0757 H   0  0  0  0  0  0
   22.0154  -12.6223   19.8508 H   0  0  0  0  0  0
   20.6226  -12.6094   18.8087 H   0  0  0  0  0  0
   20.9317  -11.2545   19.9303 H   0  0  0  0  0  0
   15.0531  -15.2097   15.5006 H   0  0  0  0  0  0
   15.9386  -15.1384   13.9879 H   0  0  0  0  0  0
   16.8241  -15.2341   15.5129 H   0  0  0  0  0  0
   20.0054  -14.5097   27.1015 H   0  0  0  0  0  0
   21.5451  -14.6226   26.3183 H   0  0  0  0  0  0
   20.7860  -12.2662   26.4386 H   0  0  0  0  0  0
   20.9194  -12.7531   24.7567 H   0  0  0  0  0  0
   19.3382  -12.6529   25.5249 H   0  0  0  0  0  0
  1  3  1  0  0  0
  1  4  1  0  0  0
  1  5  2  0  0  0
  2  3  1  0  0  0
  2 11  1  0  0  0
  2  6  1  0  0  0
  3 17  2  0  0  0
  4  7  1  0  0  0
  4 30  1  0  0  0
  5  8  1  0  0  0
  5 10  1  0  0  0
  6  8  2  0  0  0
  6 25  1  0  0  0
  7 19  2  0  0  0
  7 13  1  0  0  0
  8 31  1  0  0  0
  9 12  1  0  0  0
  9 16  2  0  0  0
 10 13  1  0  0  0
 10 32  1  0  0  0
 10 33  1  0  0  0
 11 15  1  0  0  0
 11 34  1  0  0  0
 11 35  1  0  0  0
 12 14  2  0  0  0
 12 26  1  0  0  0
 13 27  1  0  0  0
 13 29  1  0  0  0
 14 20  1  0  0  0
 14 22  1  0  0  0
 15 18  1  0  0  0
 15 21  2  0  0  0
 16 24  1  0  0  0
 16 23  1  0  0  0
 18 20  1  0  0  0
 18 36  1  0  0  0
 20 37  1  0  0  0
 20 38  1  0  0  0
 22 24  2  0  0  0
 22 39  1  0  0  0
 23 40  1  0  0  0
 23 41  1  0  0  0
 24 42  1  0  0  0
 25 43  1  0  0  0
 25 44  1  0  0  0
 25 45  1  0  0  0
 26 46  1  0  0  0
 26 47  1  0  0  0
 26 48  1  0  0  0
 27 28  1  0  0  0
 27 49  1  0  0  0
 27 50  1  0  0  0
 28 51  1  0  0  0
 28 52  1  0  0  0
 28 53  1  0  0  0
M  END
> <s_m_entry_id>
35533

> <s_m_entry_name>
dock_pv.383

> <s_m_Source_Path>
/home/csk/Desktop/cluster/DUD-E-result/thrb

> <s_m_Source_File>
dock_pv.maegz

> <i_m_Source_File_Index>
383

> <chembl_id>
CHEMBL10657

> <chembl_pref_name>
None

> <i_lp_mmshare_version>
53161

> <r_lp_tautomer_probability>
0.999999772200052

> <s_lp_Force_Field>
OPLS_2005

> <r_lp_Energy>
24.641976

> <b_lp_Chiralities_Consistent>
1

> <s_lp_Variant>
CHEMBL204_lig2217-1

> <s_i_glide_gridfile>
glide-grid_1ype

> <i_i_glide_lignum>
3257

> <i_i_glide_rotatable_bonds>
6

> <r_i_docking_score>
-6.9106579737011

> <r_i_glide_ligand_efficiency>
-0.246809213346468

> <r_i_glide_ligand_efficiency_sa>
-0.749458134572742

> <r_i_glide_ligand_efficiency_ln>
-1.59518276606513

> <r_i_glide_gscore>
-6.9106579737011

> <r_i_glide_lipo>
-2.25892400318065

> <r_i_glide_hbond>
-0.498679772310075

> <r_i_glide_metal>
0

> <r_i_glide_rewards>
-1.46180438002542

> <r_i_glide_evdw>
-38.8261566162109

> <r_i_glide_ecoul>
-9.06219387054443

> <r_i_glide_erotb>
0.660826668921926

> <r_i_glide_esite>
-0.0514395757146674

> <r_i_glide_emodel>
-65.4354251117011

> <r_i_glide_energy>
-47.8883504867554

> <r_i_glide_einternal>
5.63786840438843

> <i_i_glide_confnum>
94

> <i_i_glide_posenum>
143

> <r_i_glide_eff_state_penalty>
0

> <s_user_duplicate_titles>
CHEMBL204_lig2217

> <i_f3d_flags>
0

> <s_m_subgroup_title>
dock_pv

> <s_m_subgroupid>
dock_pv

> <b_m_subgroup_collapsed>
1

$$$$
CHEMBL204_lig4443
                    3D
 Schrodinger Suite 2021-1.
 47 50  0  0  1  0            999 V2000
   12.9477   -9.2104   22.6900 C   0  0  0  0  0  0
   12.0191   -9.1775   23.7263 C   0  0  0  0  0  0
   11.2110  -10.2797   23.9748 C   0  0  0  0  0  0
   11.3289  -11.4204   23.1880 C   0  0  0  0  0  0
   12.2908  -11.4827   22.1773 C   0  0  0  0  0  0
   13.0862  -10.3562   21.9118 C   0  0  0  0  0  0
   11.9016   -7.7708   24.7210 Cl  0  0  0  0  0  0
   12.3929  -12.7100   21.4927 N   0  0  0  0  0  0
   13.4274  -13.1838   20.7606 C   0  0  0  0  0  0
   13.2535  -14.5947   20.2162 C   0  0  0  0  0  0
   14.4779  -12.5729   20.5620 O   0  0  0  0  0  0
   12.0157  -14.9570   19.6750 C   0  0  0  0  0  0
   11.7785  -16.2372   19.1836 C   0  0  0  0  0  0
   12.7969  -17.1833   19.2043 C   0  0  0  0  0  0
   14.0481  -16.8461   19.7125 C   0  0  0  0  0  0
   14.2953  -15.5585   20.2223 C   0  0  0  0  0  0
   10.2239  -16.6508   18.5592 Cl  0  0  0  0  0  0
   15.5418  -15.1815   20.7540 N   0  0  0  0  0  0
   16.7051  -15.8465   20.9252 C   0  0  0  0  0  0
   17.7734  -15.0344   21.4968 C   0  0  0  0  0  0
   16.8896  -17.0273   20.6289 O   0  0  0  0  0  0
   19.1049  -15.4059   21.7875 C   0  0  0  0  0  0
   17.5076  -13.3527   21.9110 S   0  0  0  0  0  0
   19.7622  -16.9824   21.5276 Cl  0  0  0  0  0  0
   19.1338  -13.1949   22.4104 C   0  0  0  0  0  0
   19.8849  -14.3523   22.3227 C   0  0  0  0  0  0
   21.3540  -14.4162   22.7228 C   0  0  0  0  0  0
   21.6195  -14.2022   24.1494 N   0  0  0  0  0  0
   20.9058  -13.4824   25.0835 C   0  0  0  0  0  0
   21.6545  -13.5195   26.2394 C   0  0  0  0  0  0
   22.7936  -14.2534   25.8997 C   0  0  0  0  0  0
   22.7860  -14.6397   24.6462 N   0  0  0  0  0  0
   13.5798   -8.3528   22.5053 H   0  0  0  0  0  0
   10.4711  -10.2528   24.7633 H   0  0  0  0  0  0
   10.6763  -12.2543   23.3978 H   0  0  0  0  0  0
   13.8196  -10.3497   21.1207 H   0  0  0  0  0  0
   11.6359  -13.3545   21.6716 H   0  0  0  0  0  0
   11.2160  -14.2346   19.6269 H   0  0  0  0  0  0
   12.6167  -18.1771   18.8227 H   0  0  0  0  0  0
   14.8083  -17.6100   19.6980 H   0  0  0  0  0  0
   15.5629  -14.2091   21.0354 H   0  0  0  0  0  0
   19.4644  -12.2532   22.7962 H   0  0  0  0  0  0
   21.9207  -13.6589   22.1793 H   0  0  0  0  0  0
   21.8013  -15.3686   22.4362 H   0  0  0  0  0  0
   19.9541  -13.0234   24.8695 H   0  0  0  0  0  0
   21.4145  -13.0734   27.1928 H   0  0  0  0  0  0
   23.6156  -14.4944   26.5577 H   0  0  0  0  0  0
  1  6  1  0  0  0
  1  2  2  0  0  0
  1 33  1  0  0  0
  2  3  1  0  0  0
  2  7  1  0  0  0
  3  4  2  0  0  0
  3 34  1  0  0  0
  4  5  1  0  0  0
  4 35  1  0  0  0
  5  8  1  0  0  0
  5  6  2  0  0  0
  6 36  1  0  0  0
  8  9  1  0  0  0
  8 37  1  0  0  0
  9 10  1  0  0  0
  9 11  2  0  0  0
 10 16  1  0  0  0
 10 12  2  0  0  0
 12 13  1  0  0  0
 12 38  1  0  0  0
 13 17  1  0  0  0
 13 14  2  0  0  0
 14 15  1  0  0  0
 14 39  1  0  0  0
 15 16  2  0  0  0
 15 40  1  0  0  0
 16 18  1  0  0  0
 18 19  1  0  0  0
 18 41  1  0  0  0
 19 20  1  0  0  0
 19 21  2  0  0  0
 20 22  2  0  0  0
 20 23  1  0  0  0
 22 26  1  0  0  0
 22 24  1  0  0  0
 23 25  1  0  0  0
 25 26  2  0  0  0
 25 42  1  0  0  0
 26 27  1  0  0  0
 27 28  1  0  0  0
 27 43  1  0  0  0
 27 44  1  0  0  0
 28 29  1  0  0  0
 28 32  1  0  0  0
 29 30  2  0  0  0
 29 45  1  0  0  0
 30 31  1  0  0  0
 30 46  1  0  0  0
 31 32  2  0  0  0
 31 47  1  0  0  0
M  END
> <s_m_entry_id>
35534

> <s_m_entry_name>
dock_pv.384

> <s_m_Source_Path>
/home/csk/Desktop/cluster/DUD-E-result/thrb

> <s_m_Source_File>
dock_pv.maegz

> <i_m_Source_File_Index>
384

> <chembl_id>
CHEMBL242121

> <chembl_pref_name>
None

> <i_lp_mmshare_version>
53161

> <r_lp_tautomer_probability>
1

> <s_lp_Force_Field>
OPLS_2005

> <r_lp_Energy>
32.149783

> <b_lp_Chiralities_Consistent>
1

> <s_lp_Variant>
CHEMBL204_lig4443-1

> <s_i_glide_gridfile>
glide-grid_1ype

> <i_i_glide_lignum>
6108

> <i_i_glide_rotatable_bonds>
8

> <r_i_docking_score>
-6.9063401244397

> <r_i_glide_ligand_efficiency>
-0.215823128888741

> <r_i_glide_ligand_efficiency_sa>
-0.685195722882542

> <r_i_glide_ligand_efficiency_ln>
-1.54651781358362

> <r_i_glide_gscore>
-6.9063401244397

> <r_i_glide_lipo>
-3.80441203320725

> <r_i_glide_hbond>
0

> <r_i_glide_metal>
0

> <r_i_glide_rewards>
-0.490925728087849

> <r_i_glide_evdw>
-51.0588073730469

> <r_i_glide_ecoul>
-4.63667869567871

> <r_i_glide_erotb>
0.639648462284994

> <r_i_glide_esite>
-0.00220865242545391

> <r_i_glide_emodel>
-78.0847291598977

> <r_i_glide_energy>
-55.6954860687256

> <r_i_glide_einternal>
6.04492235183716

> <i_i_glide_confnum>
75

> <i_i_glide_posenum>
371

> <r_i_glide_eff_state_penalty>
0

> <s_user_duplicate_titles>
CHEMBL204_lig4443

> <i_f3d_flags>
0

> <s_m_subgroup_title>
dock_pv

> <s_m_subgroupid>
dock_pv

> <b_m_subgroup_collapsed>
1

$$$$
CHEMBL204_lig346
                    3D
 Schrodinger Suite 2021-1.
 61 64  0  0  1  0            999 V2000
   15.9168  -13.5901   19.4033 N   0  0  0  0  0  0
   15.3459  -12.3620   19.3657 C   0  0  0  0  0  0
   14.8620  -11.7169   20.7052 C   0  0  2  0  0  0
   16.5439  -14.2779   20.5524 C   0  0  2  0  0  0
   17.8832  -13.6227   20.9784 C   0  0  0  0  0  0
   13.2807  -11.7999   20.7985 C   0  0  0  0  0  0
   18.9540  -14.4195   21.1239 N   0  0  0  0  0  0
   15.0936  -11.7827   18.3035 O   0  0  0  0  0  0
   17.9201  -12.4140   21.1955 O   0  0  0  0  0  0
   12.6350  -11.0360   21.9891 C   0  0  0  0  0  0
   12.8645  -13.2854   20.6817 C   0  0  0  0  0  0
   15.4753  -10.3752   20.7208 N   0  0  0  0  0  0
   15.9039  -14.4503   18.2263 C   0  0  0  0  0  0
   20.2365  -13.9991   21.6965 C   0  0  0  0  0  0
   19.3010  -14.6201   24.0023 C   0  0  0  0  0  0
   19.3903  -14.6232   25.3912 C   0  0  0  0  0  0
   20.3109  -14.0329   23.2248 C   0  0  0  0  0  0
   18.0206  -15.4540   26.4081 Br  0  0  0  0  0  0
   16.6193  -15.7629   20.1027 C   0  0  0  0  0  0
   15.8293  -15.8563   18.8037 C   0  0  0  0  0  0
   21.4974  -13.4522   25.2645 C   0  0  0  0  0  0
   12.9374   -9.6872   22.2270 C   0  0  0  0  0  0
   11.6875  -11.6484   22.8265 C   0  0  0  0  0  0
   12.2549  -13.7563   19.5178 C   0  0  0  0  0  0
   13.2140  -14.1975   21.6822 C   0  0  0  0  0  0
   20.4809  -14.0300   26.0267 C   0  0  0  0  0  0
   21.4114  -13.4562   23.8706 C   0  0  0  0  0  0
   11.1505  -10.9751   23.9198 C   0  0  0  0  0  0
   12.9606  -15.5558   21.5205 C   0  0  0  0  0  0
   11.9933  -15.1138   19.3533 C   0  0  0  0  0  0
   12.4163   -9.0192   23.3301 C   0  0  0  0  0  0
   12.3418  -16.0090   20.3599 C   0  0  0  0  0  0
   11.5363   -9.6703   24.1820 C   0  0  0  0  0  0
   15.2561  -12.2328   21.5773 H   0  0  0  0  0  0
   15.8810  -14.2481   21.4136 H   0  0  0  0  0  0
   12.8813  -11.2792   19.9253 H   0  0  0  0  0  0
   18.8404  -15.4091   20.9616 H   0  0  0  0  0  0
   16.4777  -10.4403   20.8613 H   0  0  0  0  0  0
   15.3397   -9.9204   19.8230 H   0  0  0  0  0  0
   15.0546  -14.2674   17.5642 H   0  0  0  0  0  0
   16.8118  -14.2705   17.6537 H   0  0  0  0  0  0
   21.0215  -14.6494   21.3079 H   0  0  0  0  0  0
   20.4921  -12.9923   21.3579 H   0  0  0  0  0  0
   18.4414  -15.0864   23.5435 H   0  0  0  0  0  0
   16.2023  -16.4302   20.8585 H   0  0  0  0  0  0
   17.6311  -16.1135   19.9201 H   0  0  0  0  0  0
   14.7891  -16.0853   19.0330 H   0  0  0  0  0  0
   16.1885  -16.6294   18.1233 H   0  0  0  0  0  0
   22.3493  -12.9994   25.7545 H   0  0  0  0  0  0
   13.5907   -9.1324   21.5757 H   0  0  0  0  0  0
   11.3415  -12.6536   22.6535 H   0  0  0  0  0  0
   12.0172  -13.0703   18.7219 H   0  0  0  0  0  0
   13.6869  -13.8468   22.5864 H   0  0  0  0  0  0
   20.5419  -14.0250   27.1055 H   0  0  0  0  0  0
   22.2110  -13.0164   23.2900 H   0  0  0  0  0  0
   10.4200  -11.4604   24.5529 H   0  0  0  0  0  0
   13.2438  -16.2509   22.2956 H   0  0  0  0  0  0
   11.5262  -15.4706   18.4470 H   0  0  0  0  0  0
   12.6918   -7.9933   23.5231 H   0  0  0  0  0  0
   12.1390  -17.0623   20.2327 H   0  0  0  0  0  0
   11.1102   -9.1495   25.0258 H   0  0  0  0  0  0
  1  2  1  0  0  0
  1  4  1  0  0  0
  1 13  1  0  0  0
  2  3  1  0  0  0
  2  8  2  0  0  0
  3  6  1  0  0  0
  3 12  1  0  0  0
  3 34  1  0  0  0
  4  5  1  0  0  0
  4 19  1  0  0  0
  4 35  1  0  0  0
  5  7  1  0  0  0
  5  9  2  0  0  0
  6 10  1  0  0  0
  6 11  1  0  0  0
  6 36  1  0  0  0
  7 14  1  0  0  0
  7 37  1  0  0  0
 10 22  2  0  0  0
 10 23  1  0  0  0
 11 24  2  0  0  0
 11 25  1  0  0  0
 12 38  1  0  0  0
 12 39  1  0  0  0
 13 20  1  0  0  0
 13 40  1  0  0  0
 13 41  1  0  0  0
 14 17  1  0  0  0
 14 42  1  0  0  0
 14 43  1  0  0  0
 15 17  2  0  0  0
 15 16  1  0  0  0
 15 44  1  0  0  0
 16 18  1  0  0  0
 16 26  2  0  0  0
 17 27  1  0  0  0
 19 20  1  0  0  0
 19 45  1  0  0  0
 19 46  1  0  0  0
 20 47  1  0  0  0
 20 48  1  0  0  0
 21 27  2  0  0  0
 21 26  1  0  0  0
 21 49  1  0  0  0
 22 31  1  0  0  0
 22 50  1  0  0  0
 23 28  2  0  0  0
 23 51  1  0  0  0
 24 30  1  0  0  0
 24 52  1  0  0  0
 25 29  2  0  0  0
 25 53  1  0  0  0
 26 54  1  0  0  0
 27 55  1  0  0  0
 28 33  1  0  0  0
 28 56  1  0  0  0
 29 32  1  0  0  0
 29 57  1  0  0  0
 30 32  2  0  0  0
 30 58  1  0  0  0
 31 33  2  0  0  0
 31 59  1  0  0  0
 32 60  1  0  0  0
 33 61  1  0  0  0
M  END
> <s_m_entry_id>
35535

> <s_m_entry_name>
dock_pv.385

> <s_m_Source_Path>
/home/csk/Desktop/cluster/DUD-E-result/thrb

> <s_m_Source_File>
dock_pv.maegz

> <i_m_Source_File_Index>
385

> <chembl_id>
CHEMBL3142700

> <chembl_pref_name>
None

> <i_lp_mmshare_version>
53161

> <r_lp_tautomer_probability>
1

> <s_lp_Force_Field>
OPLS_2005

> <r_lp_Energy>
29.3191

> <b_lp_Chiralities_Consistent>
1

> <s_lp_Variant>
CHEMBL204_lig346-1

> <s_i_glide_gridfile>
glide-grid_1ype

> <i_i_glide_lignum>
448

> <i_i_glide_rotatable_bonds>
9

> <r_i_docking_score>
-6.90281208400425

> <r_i_glide_ligand_efficiency>
-0.209176123757705

> <r_i_glide_ligand_efficiency_sa>
-0.670939597186311

> <r_i_glide_ligand_efficiency_ln>
-1.53514966663438

> <r_i_glide_gscore>
-6.90281208400425

> <r_i_glide_lipo>
-4.06814527212545

> <r_i_glide_hbond>
-0.32

> <r_i_glide_metal>
0

> <r_i_glide_rewards>
-0.269894802124362

> <r_i_glide_evdw>
-48.5720405578613

> <r_i_glide_ecoul>
-3.02906155586243

> <r_i_glide_erotb>
0.638189251517995

> <r_i_glide_esite>
0

> <r_i_glide_emodel>
-62.7675753891282

> <r_i_glide_energy>
-51.6011021137238

> <r_i_glide_einternal>
15.5531320571899

> <i_i_glide_confnum>
42

> <i_i_glide_posenum>
399

> <r_i_glide_eff_state_penalty>
0

> <s_user_duplicate_titles>
CHEMBL204_lig346

> <i_f3d_flags>
0

> <s_m_subgroup_title>
dock_pv

> <s_m_subgroupid>
dock_pv

> <b_m_subgroup_collapsed>
1

$$$$
CHEMBL204_lig4645
                    3D
 Schrodinger Suite 2021-1.
 60 63  0  0  1  0            999 V2000
   19.1476  -15.9983   22.8057 C   0  0  0  0  0  0
   20.3738  -15.5105   22.3284 C   0  0  0  0  0  0
   20.4156  -14.5762   21.2941 C   0  0  0  0  0  0
   17.9625  -15.5447   22.2152 C   0  0  0  0  0  0
   18.0108  -14.6056   21.1894 C   0  0  0  0  0  0
   19.2285  -14.1049   20.7128 C   0  0  0  0  0  0
   19.1929  -13.2170   19.6147 N   0  0  0  0  0  0
   18.0674  -12.5943   19.1643 C   0  0  0  0  0  0
   16.8149  -12.9090   20.0879 C   0  0  2  0  0  0
   16.8102  -14.2083   20.6400 O   0  0  0  0  0  0
   20.4684  -12.9204   18.9348 C   0  0  0  0  0  0
   18.0158  -11.8530   18.1784 O   0  0  0  0  0  0
   15.6867  -12.7455   19.2727 O   0  0  0  0  0  0
   15.0715  -11.4560   19.2950 C   0  0  0  0  0  0
   14.0901  -11.3069   20.4541 C   0  0  0  0  0  0
   13.2637  -12.3665   20.8276 C   0  0  0  0  0  0
   12.3433  -12.2057   21.8607 C   0  0  0  0  0  0
   12.2222  -10.9853   22.5535 C   0  0  0  0  0  0
   13.0659   -9.9317   22.1531 C   0  0  0  0  0  0
   13.9870  -10.0870   21.1210 C   0  0  0  0  0  0
   11.2499  -10.7880   23.6730 C   0  0  0  0  0  0
   10.4193  -11.8530   23.9210 N   0  0  0  0  0  0
   11.2160   -9.7085   24.3209 N   0  0  0  0  0  0
   19.0820  -17.0268   23.9124 C   0  0  0  0  0  0
   18.3225  -17.9895   23.7667 O   0  0  0  0  0  0
   19.8556  -16.8780   25.0352 N   0  0  0  0  0  0
   19.9276  -17.9537   26.0569 C   0  0  0  0  0  0
   20.4376  -15.6412   25.3900 C   0  0  0  0  0  0
   21.8287  -15.5478   25.5207 C   0  0  0  0  0  0
   22.4140  -14.3261   25.8467 C   0  0  0  0  0  0
   21.6061  -13.2080   26.0432 C   0  0  0  0  0  0
   20.2240  -13.2979   25.9253 C   0  0  0  0  0  0
   19.6327  -14.5154   25.6092 C   0  0  0  0  0  0
   18.7103  -17.9548   27.0050 C   0  0  0  0  0  0
   17.5423  -18.1331   26.3234 O   0  0  0  0  0  0
   18.8156  -17.8581   28.2078 O   0  0  0  0  0  0
   21.3080  -15.8626   22.7424 H   0  0  0  0  0  0
   21.3842  -14.2422   20.9526 H   0  0  0  0  0  0
   17.0002  -15.9096   22.5488 H   0  0  0  0  0  0
   16.8173  -12.2206   20.9374 H   0  0  0  0  0  0
   20.3598  -12.3302   18.0238 H   0  0  0  0  0  0
   21.1355  -12.3735   19.6021 H   0  0  0  0  0  0
   20.9642  -13.8499   18.6493 H   0  0  0  0  0  0
   15.8288  -10.6702   19.3148 H   0  0  0  0  0  0
   14.5139  -11.3334   18.3664 H   0  0  0  0  0  0
   13.3282  -13.3158   20.3146 H   0  0  0  0  0  0
   11.7241  -13.0536   22.1120 H   0  0  0  0  0  0
   13.0176   -8.9718   22.6493 H   0  0  0  0  0  0
   14.6174   -9.2534   20.8452 H   0  0  0  0  0  0
    9.6486  -11.7475   24.5819 H   0  0  0  0  0  0
   10.5664  -12.7724   23.5207 H   0  0  0  0  0  0
   10.4712   -9.7375   25.0082 H   0  0  0  0  0  0
   20.0086  -18.9300   25.5765 H   0  0  0  0  0  0
   20.8373  -17.8524   26.6496 H   0  0  0  0  0  0
   22.4566  -16.4126   25.3621 H   0  0  0  0  0  0
   23.4868  -14.2469   25.9509 H   0  0  0  0  0  0
   22.0431  -12.2548   26.2983 H   0  0  0  0  0  0
   19.6163  -12.4206   26.0818 H   0  0  0  0  0  0
   18.5573  -14.5783   25.5236 H   0  0  0  0  0  0
   17.6909  -18.1827   25.3690 H   0  0  0  0  0  0
  1 24  1  0  0  0
  1  2  2  0  0  0
  1  4  1  0  0  0
  2  3  1  0  0  0
  2 37  1  0  0  0
  3  6  2  0  0  0
  3 38  1  0  0  0
  4  5  2  0  0  0
  4 39  1  0  0  0
  5 10  1  0  0  0
  5  6  1  0  0  0
  6  7  1  0  0  0
  7  8  1  0  0  0
  7 11  1  0  0  0
  8  9  1  0  0  0
  8 12  2  0  0  0
  9 10  1  0  0  0
  9 13  1  0  0  0
  9 40  1  0  0  0
 11 41  1  0  0  0
 11 42  1  0  0  0
 11 43  1  0  0  0
 13 14  1  0  0  0
 14 15  1  0  0  0
 14 44  1  0  0  0
 14 45  1  0  0  0
 15 20  1  0  0  0
 15 16  2  0  0  0
 16 17  1  0  0  0
 16 46  1  0  0  0
 17 18  2  0  0  0
 17 47  1  0  0  0
 18 19  1  0  0  0
 18 21  1  0  0  0
 19 20  2  0  0  0
 19 48  1  0  0  0
 20 49  1  0  0  0
 21 22  1  0  0  0
 21 23  2  0  0  0
 22 50  1  0  0  0
 22 51  1  0  0  0
 23 52  1  0  0  0
 24 25  2  0  0  0
 24 26  1  0  0  0
 26 27  1  0  0  0
 26 28  1  0  0  0
 27 34  1  0  0  0
 27 53  1  0  0  0
 27 54  1  0  0  0
 28 29  2  0  0  0
 28 33  1  0  0  0
 29 30  1  0  0  0
 29 55  1  0  0  0
 30 31  2  0  0  0
 30 56  1  0  0  0
 31 32  1  0  0  0
 31 57  1  0  0  0
 32 33  2  0  0  0
 32 58  1  0  0  0
 33 59  1  0  0  0
 34 35  1  0  0  0
 34 36  2  0  0  0
 35 60  1  0  0  0
M  END
> <s_m_entry_id>
35536

> <s_m_entry_name>
dock_pv.386

> <s_m_Source_Path>
/home/csk/Desktop/cluster/DUD-E-result/thrb

> <s_m_Source_File>
dock_pv.maegz

> <i_m_Source_File_Index>
386

> <chembl_id>
CHEMBL461417

> <chembl_pref_name>
None

> <i_lp_mmshare_version>
53161

> <r_lp_tautomer_probability>
1

> <s_lp_Force_Field>
OPLS_2005

> <r_lp_Energy>
51.402756

> <b_lp_Chiralities_Consistent>
1

> <s_lp_Variant>
CHEMBL204_lig4645-1

> <s_i_glide_gridfile>
glide-grid_1ype

> <i_i_glide_lignum>
6345

> <i_i_glide_rotatable_bonds>
10

> <r_i_docking_score>
-6.89857432372196

> <r_i_glide_ligand_efficiency>
-0.191627064547832

> <r_i_glide_ligand_efficiency_sa>
-0.632738625300366

> <r_i_glide_ligand_efficiency_ln>
-1.50508253949653

> <r_i_glide_gscore>
-6.89857432372196

> <r_i_glide_lipo>
-3.36408968427272

> <r_i_glide_hbond>
-0.530478343188018

> <r_i_glide_metal>
0

> <r_i_glide_rewards>
0.326729853541865

> <r_i_glide_evdw>
-46.5394630432129

> <r_i_glide_ecoul>
-10.3435840606689

> <r_i_glide_erotb>
0.681801759002173

> <r_i_glide_esite>
-0.134027147544271

> <r_i_glide_emodel>
-72.3304678614257

> <r_i_glide_energy>
-56.8830471038818

> <r_i_glide_einternal>
10.6863059997559

> <i_i_glide_confnum>
18

> <i_i_glide_posenum>
291

> <r_i_glide_eff_state_penalty>
0

> <s_user_duplicate_titles>
CHEMBL204_lig4645

> <i_f3d_flags>
0

> <s_m_subgroup_title>
dock_pv

> <s_m_subgroupid>
dock_pv

> <b_m_subgroup_collapsed>
1

$$$$
CHEMBL204_lig717
                    3D
 Schrodinger Suite 2021-1.
 58 60  0  0  1  0            999 V2000
   19.2019  -13.9744   21.9791 C   0  0  0  0  0  0
   20.1450  -14.6381   22.7152 N   0  0  0  0  0  0
   19.5467  -13.5593   20.6309 C   0  0  0  0  0  0
   18.5421  -13.1476   19.5645 C   0  0  1  0  0  0
   20.2048  -14.3545   24.0729 C   0  0  0  0  0  0
   17.5187  -12.0737   19.9809 C   0  0  0  0  0  0
   11.2161  -10.7605   23.7063 C   0  0  0  0  0  0
   21.1284  -15.6549   22.2673 C   0  0  0  0  0  0
   16.2493  -12.2675   19.5840 N   0  0  0  0  0  0
   20.5936  -16.6781   21.2531 C   0  0  0  0  0  0
   18.0733  -13.7369   22.4179 O   0  0  0  0  0  0
   20.8175  -13.3591   20.2144 C   0  0  0  0  0  0
   12.2558  -10.9264   22.6523 C   0  0  0  0  0  0
   11.1008   -9.6711   24.3219 N   0  0  0  0  0  0
   17.9016  -11.0523   20.5519 O   0  0  0  0  0  0
   19.3053  -14.9068   25.0000 C   0  0  0  0  0  0
   19.4260  -16.9835   21.1271 O   0  0  0  0  0  0
   12.4977  -12.1505   21.9975 C   0  0  0  0  0  0
   13.0412   -9.8224   22.2778 C   0  0  0  0  0  0
   10.4171  -11.8530   23.9210 N   0  0  0  0  0  0
   15.2556  -11.2011   19.5338 C   0  0  0  0  0  0
   14.2327  -11.1436   20.6558 C   0  0  0  0  0  0
   21.6351  -17.1948   20.5408 O   0  0  0  0  0  0
   13.4780  -12.2606   21.0127 C   0  0  0  0  0  0
   14.0148   -9.9263   21.2967 C   0  0  0  0  0  0
   20.8840  -12.9405   18.7714 C   0  0  0  0  0  0
   19.4436  -12.5718   18.4667 C   0  0  0  0  0  0
   21.2013  -13.4597   24.4779 C   0  0  0  0  0  0
   18.2418  -15.9320   24.6214 C   0  0  0  0  0  0
   19.4135  -14.5128   26.3257 C   0  0  0  0  0  0
   21.2874  -13.0714   25.8070 C   0  0  0  0  0  0
   20.3905  -13.5997   26.7212 C   0  0  0  0  0  0
   17.9814  -14.0122   19.2144 H   0  0  0  0  0  0
   22.0162  -15.1521   21.9106 H   0  0  0  0  0  0
   21.4405  -16.2503   23.1267 H   0  0  0  0  0  0
   15.9667  -13.1771   19.2522 H   0  0  0  0  0  0
   21.7251  -13.4772   20.7830 H   0  0  0  0  0  0
   10.3026   -9.7082   24.9514 H   0  0  0  0  0  0
   11.9337  -13.0388   22.2433 H   0  0  0  0  0  0
   12.9053   -8.8587   22.7482 H   0  0  0  0  0  0
    9.6262  -11.7761   24.5616 H   0  0  0  0  0  0
   10.6090  -12.7651   23.5235 H   0  0  0  0  0  0
   15.7905  -10.2533   19.5231 H   0  0  0  0  0  0
   14.7225  -11.2785   18.5855 H   0  0  0  0  0  0
   22.4784  -16.7661   20.7227 H   0  0  0  0  0  0
   13.6365  -13.2096   20.5221 H   0  0  0  0  0  0
   14.5952   -9.0513   21.0405 H   0  0  0  0  0  0
   21.5657  -12.1058   18.6007 H   0  0  0  0  0  0
   21.2156  -13.7835   18.1638 H   0  0  0  0  0  0
   19.3820  -11.4884   18.3662 H   0  0  0  0  0  0
   19.1332  -12.9804   17.5211 H   0  0  0  0  0  0
   21.8922  -13.0495   23.7563 H   0  0  0  0  0  0
   17.3279  -15.4355   24.2896 H   0  0  0  0  0  0
   18.5928  -16.5871   23.8225 H   0  0  0  0  0  0
   17.9973  -16.5798   25.4662 H   0  0  0  0  0  0
   18.7342  -14.9090   27.0675 H   0  0  0  0  0  0
   22.0323  -12.3596   26.1271 H   0  0  0  0  0  0
   20.4392  -13.3058   27.7527 H   0  0  0  0  0  0
  1  2  1  0  0  0
  1  3  1  0  0  0
  1 11  2  0  0  0
  2  5  1  0  0  0
  2  8  1  0  0  0
  3  4  1  0  0  0
  3 12  2  0  0  0
  4  6  1  0  0  0
  4 27  1  0  0  0
  4 33  1  0  0  0
  5 16  2  0  0  0
  5 28  1  0  0  0
  6  9  1  0  0  0
  6 15  2  0  0  0
  7 13  1  0  0  0
  7 14  2  0  0  0
  7 20  1  0  0  0
  8 10  1  0  0  0
  8 34  1  0  0  0
  8 35  1  0  0  0
  9 21  1  0  0  0
  9 36  1  0  0  0
 10 17  2  0  0  0
 10 23  1  0  0  0
 12 26  1  0  0  0
 12 37  1  0  0  0
 13 19  1  0  0  0
 13 18  2  0  0  0
 14 38  1  0  0  0
 16 29  1  0  0  0
 16 30  1  0  0  0
 18 24  1  0  0  0
 18 39  1  0  0  0
 19 25  2  0  0  0
 19 40  1  0  0  0
 20 41  1  0  0  0
 20 42  1  0  0  0
 21 22  1  0  0  0
 21 43  1  0  0  0
 21 44  1  0  0  0
 22 24  2  0  0  0
 22 25  1  0  0  0
 23 45  1  0  0  0
 24 46  1  0  0  0
 25 47  1  0  0  0
 26 27  1  0  0  0
 26 48  1  0  0  0
 26 49  1  0  0  0
 27 50  1  0  0  0
 27 51  1  0  0  0
 28 31  2  0  0  0
 28 52  1  0  0  0
 29 53  1  0  0  0
 29 54  1  0  0  0
 29 55  1  0  0  0
 30 32  2  0  0  0
 30 56  1  0  0  0
 31 32  1  0  0  0
 31 57  1  0  0  0
 32 58  1  0  0  0
M  END
> <s_m_entry_id>
35537

> <s_m_entry_name>
dock_pv.387

> <s_m_Source_Path>
/home/csk/Desktop/cluster/DUD-E-result/thrb

> <s_m_Source_File>
dock_pv.maegz

> <i_m_Source_File_Index>
387

> <chembl_id>
CHEMBL17745

> <chembl_pref_name>
None

> <i_lp_mmshare_version>
53161

> <r_lp_tautomer_probability>
1

> <s_lp_Force_Field>
OPLS_2005

> <r_lp_Energy>
41.680798

> <b_lp_Chiralities_Consistent>
1

> <s_lp_Variant>
CHEMBL204_lig717-2

> <s_i_glide_gridfile>
glide-grid_1ype

> <i_i_glide_lignum>
1066

> <i_i_glide_rotatable_bonds>
11

> <r_i_docking_score>
-6.89825395745885

> <r_i_glide_ligand_efficiency>
-0.215570436170589

> <r_i_glide_ligand_efficiency_sa>
-0.684393473510231

> <r_i_glide_ligand_efficiency_ln>
-1.54470710037602

> <r_i_glide_gscore>
-6.89825395745885

> <r_i_glide_lipo>
-3.52017763781538

> <r_i_glide_hbond>
-0.636161656259807

> <r_i_glide_metal>
0

> <r_i_glide_rewards>
-0.113581187542051

> <r_i_glide_evdw>
-39.9382934570312

> <r_i_glide_ecoul>
-9.6446475982666

> <r_i_glide_erotb>
0.949496789751462

> <r_i_glide_esite>
-0.134218453001517

> <r_i_glide_emodel>
-57.4774764907636

> <r_i_glide_energy>
-49.5829410552979

> <r_i_glide_einternal>
15.2583608627319

> <i_i_glide_confnum>
130

> <i_i_glide_posenum>
37

> <r_i_glide_eff_state_penalty>
0

> <s_user_duplicate_titles>
CHEMBL204_lig717

> <i_f3d_flags>
0

> <s_m_subgroup_title>
dock_pv

> <s_m_subgroupid>
dock_pv

> <b_m_subgroup_collapsed>
1

$$$$
CHEMBL204_lig4698
                    3D
 Schrodinger Suite 2021-1.
 47 48  0  0  1  0            999 V2000
   19.5973  -13.8284   25.6071 C   0  0  0  0  0  0
   19.1650  -14.9960   24.6989 C   0  0  0  0  0  0
   19.6411  -14.8602   23.2306 C   0  0  0  0  0  0
   18.9080  -13.7780   22.4063 C   0  0  0  0  0  0
   17.7646  -13.4544   22.7213 O   0  0  0  0  0  0
   19.5499  -13.2067   21.3580 N   0  0  0  0  0  0
   20.8846  -13.5776   20.8865 C   0  0  0  0  0  0
   20.9909  -12.9806   19.4915 C   0  0  0  0  0  0
   20.1190  -11.7436   19.5791 C   0  0  0  0  0  0
   18.9889  -12.0896   20.5671 C   0  0  1  0  0  0
   17.6680  -12.4330   19.8544 C   0  0  0  0  0  0
   17.6095  -13.4176   19.1168 O   0  0  0  0  0  0
   16.6401  -11.6050   20.0964 N   0  0  0  0  0  0
   15.2946  -11.7583   19.5423 C   0  0  0  0  0  0
   14.2124  -11.5020   20.5826 C   0  0  0  0  0  0
   14.0395  -10.2250   21.1193 C   0  0  0  0  0  0
   13.0730  -10.0051   22.0965 C   0  0  0  0  0  0
   12.2471  -11.0462   22.5594 C   0  0  0  0  0  0
   12.4122  -12.3125   21.9661 C   0  0  0  0  0  0
   13.3806  -12.5401   20.9947 C   0  0  0  0  0  0
   11.2554  -10.8000   23.6495 C   0  0  0  0  0  0
   11.2156   -9.6983   24.2584 N   0  0  0  0  0  0
   10.4198  -11.8530   23.9213 N   0  0  0  0  0  0
   19.2165  -13.9626   26.6219 H   0  0  0  0  0  0
   19.2284  -12.8729   25.2378 H   0  0  0  0  0  0
   20.6840  -13.7581   25.6706 H   0  0  0  0  0  0
   19.5730  -15.9205   25.1114 H   0  0  0  0  0  0
   18.0801  -15.1154   24.7393 H   0  0  0  0  0  0
   20.7179  -14.6974   23.2332 H   0  0  0  0  0  0
   19.4664  -15.8047   22.7144 H   0  0  0  0  0  0
   21.6275  -13.1327   21.5492 H   0  0  0  0  0  0
   21.0472  -14.6556   20.8580 H   0  0  0  0  0  0
   22.0150  -12.7571   19.1894 H   0  0  0  0  0  0
   20.5657  -13.6775   18.7654 H   0  0  0  0  0  0
   20.7033  -10.9149   19.9800 H   0  0  0  0  0  0
   19.7601  -11.4539   18.5931 H   0  0  0  0  0  0
   18.8161  -11.2397   21.2298 H   0  0  0  0  0  0
   16.7926  -10.8073   20.6991 H   0  0  0  0  0  0
   15.1765  -11.0533   18.7233 H   0  0  0  0  0  0
   15.1459  -12.7420   19.0819 H   0  0  0  0  0  0
   14.6665   -9.4062   20.7965 H   0  0  0  0  0  0
   12.9775   -9.0084   22.5022 H   0  0  0  0  0  0
   11.8104  -13.1535   22.2687 H   0  0  0  0  0  0
   13.4950  -13.5337   20.5866 H   0  0  0  0  0  0
   10.4622   -9.7002   24.9356 H   0  0  0  0  0  0
    9.6485  -11.7303   24.5791 H   0  0  0  0  0  0
   10.5453  -12.7741   23.5216 H   0  0  0  0  0  0
  1  2  1  0  0  0
  1 24  1  0  0  0
  1 25  1  0  0  0
  1 26  1  0  0  0
  2  3  1  0  0  0
  2 27  1  0  0  0
  2 28  1  0  0  0
  3  4  1  0  0  0
  3 29  1  0  0  0
  3 30  1  0  0  0
  4  5  2  0  0  0
  4  6  1  0  0  0
  6  7  1  0  0  0
  6 10  1  0  0  0
  7  8  1  0  0  0
  7 31  1  0  0  0
  7 32  1  0  0  0
  8  9  1  0  0  0
  8 33  1  0  0  0
  8 34  1  0  0  0
  9 10  1  0  0  0
  9 35  1  0  0  0
  9 36  1  0  0  0
 10 11  1  0  0  0
 10 37  1  0  0  0
 11 12  2  0  0  0
 11 13  1  0  0  0
 13 14  1  0  0  0
 13 38  1  0  0  0
 14 15  1  0  0  0
 14 39  1  0  0  0
 14 40  1  0  0  0
 15 16  2  0  0  0
 15 20  1  0  0  0
 16 17  1  0  0  0
 16 41  1  0  0  0
 17 18  2  0  0  0
 17 42  1  0  0  0
 18 19  1  0  0  0
 18 21  1  0  0  0
 19 20  2  0  0  0
 19 43  1  0  0  0
 20 44  1  0  0  0
 21 22  2  0  0  0
 21 23  1  0  0  0
 22 45  1  0  0  0
 23 46  1  0  0  0
 23 47  1  0  0  0
M  END
> <s_m_entry_id>
35538

> <s_m_entry_name>
dock_pv.388

> <s_m_Source_Path>
/home/csk/Desktop/cluster/DUD-E-result/thrb

> <s_m_Source_File>
dock_pv.maegz

> <i_m_Source_File_Index>
388

> <chembl_id>
CHEMBL598213

> <chembl_pref_name>
None

> <i_lp_mmshare_version>
53161

> <r_lp_tautomer_probability>
1

> <s_lp_Force_Field>
OPLS_2005

> <r_lp_Energy>
11.026666

> <b_lp_Chiralities_Consistent>
1

> <s_lp_Variant>
CHEMBL204_lig4698-1

> <s_i_glide_gridfile>
glide-grid_1ype

> <i_i_glide_lignum>
6438

> <i_i_glide_rotatable_bonds>
8

> <r_i_docking_score>
-6.89767676659943

> <r_i_glide_ligand_efficiency>
-0.299898989852149

> <r_i_glide_ligand_efficiency_sa>
-0.852872833639975

> <r_i_glide_ligand_efficiency_ln>
-1.6679207868387

> <r_i_glide_gscore>
-6.89767676659943

> <r_i_glide_lipo>
-2.67490631570798

> <r_i_glide_hbond>
-0.208240682358116

> <r_i_glide_metal>
0

> <r_i_glide_rewards>
-1.91858829387844

> <r_i_glide_evdw>
-35.4402618408203

> <r_i_glide_ecoul>
-8.70375728607178

> <r_i_glide_erotb>
1.1157703727655

> <r_i_glide_esite>
-0.134135162468612

> <r_i_glide_emodel>
-62.1333936816681

> <r_i_glide_energy>
-44.1440191268921

> <r_i_glide_einternal>
2.74383330345154

> <i_i_glide_confnum>
136

> <i_i_glide_posenum>
126

> <r_i_glide_eff_state_penalty>
0

> <s_user_duplicate_titles>
CHEMBL204_lig4698,CHEMBL204_lig5016,CHEMBL204_lig5171

> <i_f3d_flags>
0

> <s_m_subgroup_title>
dock_pv

> <s_m_subgroupid>
dock_pv

> <b_m_subgroup_collapsed>
1

$$$$
CHEMBL204_lig4925
                    3D
 Schrodinger Suite 2021-1.
 54 57  0  0  1  0            999 V2000
   20.9615  -12.6534   19.4591 C   0  0  0  0  0  0
   20.4467  -13.3398   20.5582 C   0  0  0  0  0  0
   19.0641  -13.5630   20.6240 C   0  0  0  0  0  0
   18.2329  -13.1395   19.5880 C   0  0  0  0  0  0
   18.7748  -12.4860   18.4737 C   0  0  0  0  0  0
   20.1441  -12.2520   18.4079 C   0  0  0  0  0  0
   21.3589  -13.7194   21.5202 O   0  0  0  0  0  0
   21.0828  -14.8056   22.4050 C   0  0  0  0  0  0
   21.2280  -14.3127   23.8319 C   0  0  0  0  0  0
   16.8577  -13.2939   19.7606 N   0  0  0  0  0  0
   15.9295  -13.4702   18.7996 C   0  0  0  0  0  0
   14.4966  -13.0422   19.1634 C   0  0  0  0  0  0
   16.1812  -13.8526   17.6561 O   0  0  0  0  0  0
   14.0245  -13.6649   20.5069 C   0  0  0  0  0  0
   12.7324  -12.9846   21.0182 C   0  0  0  0  0  0
   12.9292  -11.5298   21.1448 N   0  0  0  0  0  0
   13.2147  -10.9595   19.8207 C   0  0  0  0  0  0
   14.5354  -11.4995   19.2782 C   0  0  0  0  0  0
   22.3166  -14.7076   24.6196 C   0  0  0  0  0  0
   22.4516  -14.2226   25.9205 C   0  0  0  0  0  0
   21.5048  -13.3380   26.4351 C   0  0  0  0  0  0
   20.4161  -12.9489   25.6570 C   0  0  0  0  0  0
   20.2755  -13.4376   24.3595 C   0  0  0  0  0  0
   12.4585  -10.7515   22.1963 C   0  0  0  0  0  0
   12.9586   -9.4529   22.4067 C   0  0  0  0  0  0
   12.5286   -8.7218   23.5160 C   0  0  0  0  0  0
   11.6177   -9.1959   24.3914 N   0  0  0  0  0  0
   11.1420  -10.4474   24.1917 C   0  0  0  0  0  0
   11.5322  -11.2492   23.1210 C   0  0  0  0  0  0
   19.2162  -13.0532   23.6154 F   0  0  0  0  0  0
   22.0167  -12.4530   19.4098 H   0  0  0  0  0  0
   18.6212  -14.0416   21.4829 H   0  0  0  0  0  0
   18.1428  -12.1415   17.6693 H   0  0  0  0  0  0
   20.5726  -11.7442   17.5569 H   0  0  0  0  0  0
   20.1209  -15.2990   22.2727 H   0  0  0  0  0  0
   21.8238  -15.5828   22.2121 H   0  0  0  0  0  0
   16.5236  -13.1806   20.7054 H   0  0  0  0  0  0
   13.8281  -13.3706   18.3623 H   0  0  0  0  0  0
   14.7345  -13.5278   21.3252 H   0  0  0  0  0  0
   13.7962  -14.7242   20.3833 H   0  0  0  0  0  0
   12.5038  -13.4261   21.9883 H   0  0  0  0  0  0
   11.8798  -13.1898   20.3668 H   0  0  0  0  0  0
   12.4162  -11.2355   19.1339 H   0  0  0  0  0  0
   13.2337   -9.8712   19.8330 H   0  0  0  0  0  0
   14.6799  -11.0530   18.2928 H   0  0  0  0  0  0
   15.2880  -11.1324   19.9814 H   0  0  0  0  0  0
   23.0644  -15.3817   24.2260 H   0  0  0  0  0  0
   23.2934  -14.5249   26.5260 H   0  0  0  0  0  0
   21.6157  -12.9497   27.4365 H   0  0  0  0  0  0
   19.6874  -12.2579   26.0524 H   0  0  0  0  0  0
   13.7125   -9.0350   21.7601 H   0  0  0  0  0  0
   12.9345   -7.7458   23.7310 H   0  0  0  0  0  0
   10.4160  -10.8058   24.9089 H   0  0  0  0  0  0
   11.0937  -12.2312   23.0247 H   0  0  0  0  0  0
  1  2  2  0  0  0
  1  6  1  0  0  0
  1 31  1  0  0  0
  2  3  1  0  0  0
  2  7  1  0  0  0
  3  4  2  0  0  0
  3 32  1  0  0  0
  4  5  1  0  0  0
  4 10  1  0  0  0
  5  6  2  0  0  0
  5 33  1  0  0  0
  6 34  1  0  0  0
  7  8  1  0  0  0
  8  9  1  0  0  0
  8 35  1  0  0  0
  8 36  1  0  0  0
  9 19  2  0  0  0
  9 23  1  0  0  0
 10 11  1  0  0  0
 10 37  1  0  0  0
 11 12  1  0  0  0
 11 13  2  0  0  0
 12 14  1  0  0  0
 12 18  1  0  0  0
 12 38  1  0  0  0
 14 15  1  0  0  0
 14 39  1  0  0  0
 14 40  1  0  0  0
 15 16  1  0  0  0
 15 41  1  0  0  0
 15 42  1  0  0  0
 16 17  1  0  0  0
 16 24  1  0  0  0
 17 18  1  0  0  0
 17 43  1  0  0  0
 17 44  1  0  0  0
 18 45  1  0  0  0
 18 46  1  0  0  0
 19 20  1  0  0  0
 19 47  1  0  0  0
 20 21  2  0  0  0
 20 48  1  0  0  0
 21 22  1  0  0  0
 21 49  1  0  0  0
 22 23  2  0  0  0
 22 50  1  0  0  0
 23 30  1  0  0  0
 24 25  2  0  0  0
 24 29  1  0  0  0
 25 26  1  0  0  0
 25 51  1  0  0  0
 26 27  2  0  0  0
 26 52  1  0  0  0
 27 28  1  0  0  0
 28 29  2  0  0  0
 28 53  1  0  0  0
 29 54  1  0  0  0
M  END
> <s_m_entry_id>
35539

> <s_m_entry_name>
dock_pv.389

> <s_m_Source_Path>
/home/csk/Desktop/cluster/DUD-E-result/thrb

> <s_m_Source_File>
dock_pv.maegz

> <i_m_Source_File_Index>
389

> <chembl_id>
CHEMBL2441055

> <chembl_pref_name>
None

> <i_lp_mmshare_version>
53161

> <r_lp_tautomer_probability>
1

> <s_lp_Force_Field>
OPLS_2005

> <r_lp_Energy>
40.956255

> <b_lp_Chiralities_Consistent>
1

> <s_lp_Variant>
CHEMBL204_lig4925-1

> <s_i_glide_gridfile>
glide-grid_1ype

> <i_i_glide_lignum>
6719

> <i_i_glide_rotatable_bonds>
7

> <r_i_docking_score>
-6.89585568644481

> <r_i_glide_ligand_efficiency>
-0.229861856214827

> <r_i_glide_ligand_efficiency_sa>
-0.714234230699852

> <r_i_glide_ligand_efficiency_ln>
-1.56681354832591

> <r_i_glide_gscore>
-6.89585568644481

> <r_i_glide_lipo>
-3.8367905984412

> <r_i_glide_hbond>
0

> <r_i_glide_metal>
0

> <r_i_glide_rewards>
-1.191029382531

> <r_i_glide_evdw>
-47.7261543273926

> <r_i_glide_ecoul>
-2.12350249290466

> <r_i_glide_erotb>
0.836797384832724

> <r_i_glide_esite>
0

> <r_i_glide_emodel>
-63.2087549755123

> <r_i_glide_energy>
-49.8496568202972

> <r_i_glide_einternal>
12.3864974975586

> <i_i_glide_confnum>
16

> <i_i_glide_posenum>
265

> <r_i_glide_eff_state_penalty>
0

> <s_user_duplicate_titles>
CHEMBL204_lig4925

> <i_f3d_flags>
0

> <s_m_subgroup_title>
dock_pv

> <s_m_subgroupid>
dock_pv

> <b_m_subgroup_collapsed>
1

$$$$
CHEMBL204_lig3386
                    3D
 Schrodinger Suite 2021-1.
 75 78  0  0  1  0            999 V2000
   14.2693  -15.7133   19.0124 N   0  0  0  0  0  0
   15.3940  -15.6975   19.8307 C   0  0  0  0  0  0
   15.2616  -16.3770   21.1360 C   0  0  0  0  0  0
   11.5387   -9.9042   24.0204 C   0  0  0  0  0  0
   12.1253  -10.3137   22.7879 N   0  0  0  0  0  0
   13.0736  -16.2945   19.4458 C   0  0  0  0  0  0
   16.2622  -16.3015   22.0763 N   0  0  0  0  0  0
   14.0985  -16.9441   21.5242 C   0  0  0  0  0  0
   17.5761  -16.5876   21.9174 C   0  0  0  0  0  0
   12.9531  -16.9081   20.6432 C   0  0  0  0  0  0
   14.4190  -15.0324   17.6856 C   0  0  0  0  0  0
   19.5538  -15.0842   22.7622 C   0  0  0  0  0  0
   14.4165  -13.4865   17.7604 C   0  0  0  0  0  0
   10.8163  -10.6556   24.7194 N   0  0  0  0  0  0
   18.4851  -16.1818   23.0918 C   0  0  0  0  0  0
   16.4165  -15.0824   19.5217 O   0  0  0  0  0  0
   14.4243  -12.8916   18.9563 N   0  0  0  0  0  0
   12.0323  -11.7216   22.3650 C   0  0  0  0  0  0
   12.1645   -9.3846   21.6473 C   0  0  0  0  0  0
   18.0610  -17.1154   20.9116 O   0  0  0  0  0  0
   14.4232  -12.8375   16.7218 O   0  0  0  0  0  0
   20.2552  -14.5315   24.0109 C   0  0  0  0  0  0
   19.0751  -13.9292   21.8694 C   0  0  0  0  0  0
   11.8209   -8.5789   24.4061 N   0  0  0  0  0  0
   14.3701  -11.4654   19.2145 C   0  0  0  0  0  0
   13.2316  -12.0695   21.4682 C   0  0  0  0  0  0
   13.3666   -9.6917   20.7487 C   0  0  0  0  0  0
   13.2688  -11.1363   20.2328 C   0  0  0  0  0  0
   11.8614  -16.1705   18.5285 C   0  0  0  0  0  0
   19.5101  -14.0140   25.0801 C   0  0  0  0  0  0
   21.6550  -14.5205   24.0777 C   0  0  0  0  0  0
   17.8560  -13.2924   22.1166 C   0  0  0  0  0  0
   19.8683  -13.5100   20.7971 C   0  0  0  0  0  0
   22.2990  -13.9898   25.1940 C   0  0  0  0  0  0
   17.4319  -12.2488   21.3004 C   0  0  0  0  0  0
   19.4426  -12.4681   19.9780 C   0  0  0  0  0  0
   20.1550  -13.4882   26.1953 C   0  0  0  0  0  0
   21.5413  -13.4756   26.2447 C   0  0  0  0  0  0
   18.2265  -11.8452   20.2335 C   0  0  0  0  0  0
   15.9859  -15.9201   22.9715 H   0  0  0  0  0  0
   14.0028  -17.3914   22.5033 H   0  0  0  0  0  0
   12.0124  -17.3347   20.9586 H   0  0  0  0  0  0
   15.3561  -15.3415   17.2197 H   0  0  0  0  0  0
   13.6542  -15.3644   16.9850 H   0  0  0  0  0  0
   20.3113  -15.6194   22.1842 H   0  0  0  0  0  0
   10.3315  -10.2164   25.4949 H   0  0  0  0  0  0
   18.9854  -17.0809   23.4508 H   0  0  0  0  0  0
   17.8570  -15.8573   23.9195 H   0  0  0  0  0  0
   14.5645  -13.4735   19.7665 H   0  0  0  0  0  0
   11.0913  -11.8733   21.8372 H   0  0  0  0  0  0
   12.0175  -12.3995   23.2211 H   0  0  0  0  0  0
   11.2379   -9.4928   21.0836 H   0  0  0  0  0  0
   12.2134   -8.3490   21.9685 H   0  0  0  0  0  0
   11.4543   -8.1811   25.2565 H   0  0  0  0  0  0
   12.4576   -7.9920   23.8920 H   0  0  0  0  0  0
   15.3456  -11.1997   19.6216 H   0  0  0  0  0  0
   14.2528  -10.8628   18.3099 H   0  0  0  0  0  0
   13.1366  -13.1111   21.1623 H   0  0  0  0  0  0
   14.1653  -12.0448   22.0300 H   0  0  0  0  0  0
   14.3125   -9.5012   21.2602 H   0  0  0  0  0  0
   13.3544   -8.9867   19.9202 H   0  0  0  0  0  0
   12.3117  -11.2430   19.7190 H   0  0  0  0  0  0
   10.9674  -16.6084   18.9744 H   0  0  0  0  0  0
   11.6355  -15.1216   18.3349 H   0  0  0  0  0  0
   12.0274  -16.6843   17.5805 H   0  0  0  0  0  0
   18.4320  -14.0019   25.0499 H   0  0  0  0  0  0
   22.2449  -14.9147   23.2600 H   0  0  0  0  0  0
   17.2335  -13.6112   22.9374 H   0  0  0  0  0  0
   20.8146  -13.9922   20.5952 H   0  0  0  0  0  0
   23.3787  -13.9776   25.2458 H   0  0  0  0  0  0
   16.4910  -11.7605   21.4903 H   0  0  0  0  0  0
   20.0537  -12.1512   19.1482 H   0  0  0  0  0  0
   19.5948  -13.0868   27.0228 H   0  0  0  0  0  0
   22.0157  -13.0632   27.1186 H   0  0  0  0  0  0
   17.8929  -11.0436   19.5943 H   0  0  0  0  0  0
  1  2  1  0  0  0
  1  6  1  0  0  0
  1 11  1  0  0  0
  2  3  1  0  0  0
  2 16  2  0  0  0
  3  7  1  0  0  0
  3  8  2  0  0  0
  4  5  1  0  0  0
  4 14  2  0  0  0
  4 24  1  0  0  0
  5 19  1  0  0  0
  5 18  1  0  0  0
  6 10  2  0  0  0
  6 29  1  0  0  0
  7  9  1  0  0  0
  7 40  1  0  0  0
  8 10  1  0  0  0
  8 41  1  0  0  0
  9 15  1  0  0  0
  9 20  2  0  0  0
 10 42  1  0  0  0
 11 13  1  0  0  0
 11 43  1  0  0  0
 11 44  1  0  0  0
 12 15  1  0  0  0
 12 22  1  0  0  0
 12 23  1  0  0  0
 12 45  1  0  0  0
 13 17  1  0  0  0
 13 21  2  0  0  0
 14 46  1  0  0  0
 15 47  1  0  0  0
 15 48  1  0  0  0
 17 25  1  0  0  0
 17 49  1  0  0  0
 18 26  1  0  0  0
 18 50  1  0  0  0
 18 51  1  0  0  0
 19 27  1  0  0  0
 19 52  1  0  0  0
 19 53  1  0  0  0
 22 30  1  0  0  0
 22 31  2  0  0  0
 23 32  2  0  0  0
 23 33  1  0  0  0
 24 54  1  0  0  0
 24 55  1  0  0  0
 25 28  1  0  0  0
 25 56  1  0  0  0
 25 57  1  0  0  0
 26 28  1  0  0  0
 26 58  1  0  0  0
 26 59  1  0  0  0
 27 28  1  0  0  0
 27 60  1  0  0  0
 27 61  1  0  0  0
 28 62  1  0  0  0
 29 63  1  0  0  0
 29 64  1  0  0  0
 29 65  1  0  0  0
 30 37  2  0  0  0
 30 66  1  0  0  0
 31 34  1  0  0  0
 31 67  1  0  0  0
 32 35  1  0  0  0
 32 68  1  0  0  0
 33 36  2  0  0  0
 33 69  1  0  0  0
 34 38  2  0  0  0
 34 70  1  0  0  0
 35 39  2  0  0  0
 35 71  1  0  0  0
 36 39  1  0  0  0
 36 72  1  0  0  0
 37 38  1  0  0  0
 37 73  1  0  0  0
 38 74  1  0  0  0
 39 75  1  0  0  0
M  END
> <s_m_entry_id>
35540

> <s_m_entry_name>
dock_pv.390

> <s_m_Source_Path>
/home/csk/Desktop/cluster/DUD-E-result/thrb

> <s_m_Source_File>
dock_pv.maegz

> <i_m_Source_File_Index>
390

> <chembl_id>
CHEMBL37035

> <chembl_pref_name>
None

> <i_lp_mmshare_version>
53161

> <r_lp_tautomer_probability>
1

> <s_lp_Force_Field>
OPLS_2005

> <r_lp_Energy>
37.095969

> <b_lp_Chiralities_Consistent>
1

> <s_lp_Variant>
CHEMBL204_lig3386-1

> <s_i_glide_gridfile>
glide-grid_1ype

> <i_i_glide_lignum>
4727

> <i_i_glide_rotatable_bonds>
12

> <r_i_docking_score>
-6.89460880027295

> <r_i_glide_ligand_efficiency>
-0.17678484103264

> <r_i_glide_ligand_efficiency_sa>
-0.599514775129209

> <r_i_glide_ligand_efficiency_ln>
-1.47839984188799

> <r_i_glide_gscore>
-6.89460880027295

> <r_i_glide_lipo>
-4.21839996760189

> <r_i_glide_hbond>
-0.137493564775631

> <r_i_glide_metal>
0

> <r_i_glide_rewards>
-0.641661381861469

> <r_i_glide_evdw>
-50.8616142272949

> <r_i_glide_ecoul>
-1.0285120010376

> <r_i_glide_erotb>
0.810940166543878

> <r_i_glide_esite>
-0.0106365410574586

> <r_i_glide_emodel>
-63.763047004689

> <r_i_glide_energy>
-51.8901262283325

> <r_i_glide_einternal>
11.1900205612183

> <i_i_glide_confnum>
25

> <i_i_glide_posenum>
20

> <r_i_glide_eff_state_penalty>
0

> <s_user_duplicate_titles>
CHEMBL204_lig3386,52455

> <i_f3d_flags>
0

> <s_m_subgroup_title>
dock_pv

> <s_m_subgroupid>
dock_pv

> <b_m_subgroup_collapsed>
1

$$$$
CHEMBL204_lig1119
                    3D
 Schrodinger Suite 2021-1.
 51 53  0  0  1  0            999 V2000
   18.6507  -15.6351   24.7822 S   0  0  0  0  0  0
   20.2665  -14.8758   25.0040 C   0  0  0  0  0  0
   21.4456  -15.4382   24.4770 C   0  0  0  0  0  0
   18.6582  -15.8638   23.1244 O   0  0  0  0  0  0
   17.6163  -14.6524   25.1253 O   0  0  0  0  0  0
   18.6927  -16.9500   25.4302 O   0  0  0  0  0  0
   18.5504  -14.7745   22.3004 C   0  0  0  0  0  0
   22.6674  -14.7669   24.6488 C   0  0  0  0  0  0
   17.2973  -14.2388   22.0035 C   0  0  0  0  0  0
   17.1649  -13.1864   21.0970 C   0  0  0  0  0  0
   21.4152  -16.9446   23.6169 Cl  0  0  0  0  0  0
   19.5818  -13.1732   20.8043 C   0  0  0  0  0  0
   19.6889  -14.2423   21.6944 C   0  0  0  0  0  0
   18.3219  -12.6445   20.5102 C   0  0  0  0  0  0
   20.3337  -13.6893   25.7402 C   0  0  0  0  0  0
   24.1376  -15.3679   23.9597 Cl  0  0  0  0  0  0
   15.8797  -12.7611   20.8299 O   0  0  0  0  0  0
   12.1713  -10.0541   22.9904 C   0  0  0  0  0  0
   13.4201  -11.1219   20.7282 C   0  0  0  0  0  0
   12.0159   -8.2521   24.7210 N   0  0  0  0  0  0
   13.7863   -9.8607   21.1975 C   0  0  0  0  0  0
   13.1676   -9.3322   22.3209 C   0  0  0  0  0  0
   12.4147  -11.8424   21.3787 C   0  0  0  0  0  0
   11.7912  -11.3077   22.5042 C   0  0  0  0  0  0
   15.6515  -11.8791   19.7336 C   0  0  0  0  0  0
   21.5536  -13.0520   25.9332 C   0  0  0  0  0  0
   22.7161  -13.5802   25.3791 C   0  0  0  0  0  0
   11.4976   -9.5330   24.2604 C   0  0  0  0  0  0
   14.1357  -11.7102   19.5197 C   0  0  0  0  0  0
   20.8311  -12.5879   20.1715 C   0  0  0  0  0  0
   16.4156  -14.6624   22.4632 H   0  0  0  0  0  0
   20.6572  -14.6706   21.9049 H   0  0  0  0  0  0
   18.2535  -11.8193   19.8190 H   0  0  0  0  0  0
   19.4418  -13.2513   26.1672 H   0  0  0  0  0  0
   12.9887   -8.3521   24.9860 H   0  0  0  0  0  0
   11.9459   -7.5512   23.9990 H   0  0  0  0  0  0
   14.5715   -9.2939   20.7210 H   0  0  0  0  0  0
   13.4967   -8.3676   22.6754 H   0  0  0  0  0  0
   12.1203  -12.8211   21.0276 H   0  0  0  0  0  0
   11.0204  -11.8771   23.0069 H   0  0  0  0  0  0
   16.0916  -12.2917   18.8236 H   0  0  0  0  0  0
   16.1234  -10.9115   19.9130 H   0  0  0  0  0  0
   21.5900  -12.1342   26.5022 H   0  0  0  0  0  0
   23.6585  -13.0706   25.5199 H   0  0  0  0  0  0
   10.4225   -9.4538   24.0907 H   0  0  0  0  0  0
   11.6418  -10.2635   25.0576 H   0  0  0  0  0  0
   13.6996  -12.6771   19.2636 H   0  0  0  0  0  0
   13.9518  -11.0624   18.6623 H   0  0  0  0  0  0
   21.6699  -12.6344   20.8672 H   0  0  0  0  0  0
   21.1015  -13.1409   19.2722 H   0  0  0  0  0  0
   20.6935  -11.5367   19.9184 H   0  0  0  0  0  0
  1  2  1  0  0  0
  1  4  1  0  0  0
  1  5  2  0  0  0
  1  6  2  0  0  0
  2  3  1  0  0  0
  2 15  2  0  0  0
  3  8  2  0  0  0
  3 11  1  0  0  0
  4  7  1  0  0  0
  7  9  2  0  0  0
  7 13  1  0  0  0
  8 16  1  0  0  0
  8 27  1  0  0  0
  9 10  1  0  0  0
  9 31  1  0  0  0
 10 17  1  0  0  0
 10 14  2  0  0  0
 12 13  2  0  0  0
 12 14  1  0  0  0
 12 30  1  0  0  0
 13 32  1  0  0  0
 14 33  1  0  0  0
 15 26  1  0  0  0
 15 34  1  0  0  0
 17 25  1  0  0  0
 18 24  1  0  0  0
 18 28  1  0  0  0
 18 22  2  0  0  0
 19 29  1  0  0  0
 19 21  2  0  0  0
 19 23  1  0  0  0
 20 28  1  0  0  0
 20 35  1  0  0  0
 20 36  1  0  0  0
 21 22  1  0  0  0
 21 37  1  0  0  0
 22 38  1  0  0  0
 23 24  2  0  0  0
 23 39  1  0  0  0
 24 40  1  0  0  0
 25 29  1  0  0  0
 25 41  1  0  0  0
 25 42  1  0  0  0
 26 27  2  0  0  0
 26 43  1  0  0  0
 27 44  1  0  0  0
 28 45  1  0  0  0
 28 46  1  0  0  0
 29 47  1  0  0  0
 29 48  1  0  0  0
 30 49  1  0  0  0
 30 50  1  0  0  0
 30 51  1  0  0  0
M  END
> <s_m_entry_id>
35541

> <s_m_entry_name>
dock_pv.391

> <s_m_Source_Path>
/home/csk/Desktop/cluster/DUD-E-result/thrb

> <s_m_Source_File>
dock_pv.maegz

> <i_m_Source_File_Index>
391

> <chembl_id>
CHEMBL419954

> <chembl_pref_name>
None

> <i_lp_mmshare_version>
53161

> <r_lp_tautomer_probability>
1

> <s_lp_Force_Field>
OPLS_2005

> <r_lp_Energy>
19.786393

> <b_lp_Chiralities_Consistent>
1

> <s_lp_Variant>
CHEMBL204_lig1119-1

> <s_i_glide_gridfile>
glide-grid_1ype

> <i_i_glide_lignum>
1782

> <i_i_glide_rotatable_bonds>
8

> <r_i_docking_score>
-6.89433084009418

> <r_i_glide_ligand_efficiency>
-0.229811028003139

> <r_i_glide_ligand_efficiency_sa>
-0.714076295628455

> <r_i_glide_ligand_efficiency_ln>
-1.56646708662052

> <r_i_glide_gscore>
-6.89433084009418

> <r_i_glide_lipo>
-4.0403680028796

> <r_i_glide_hbond>
-0.217402805623424

> <r_i_glide_metal>
0

> <r_i_glide_rewards>
-0.404953601913148

> <r_i_glide_evdw>
-48.2152061462402

> <r_i_glide_ecoul>
-3.13405394554138

> <r_i_glide_erotb>
0.649261969465213

> <r_i_glide_esite>
0

> <r_i_glide_emodel>
-68.9550377154668

> <r_i_glide_energy>
-51.3492600917816

> <r_i_glide_einternal>
5.39559459686279

> <i_i_glide_confnum>
1

> <i_i_glide_posenum>
135

> <r_i_glide_eff_state_penalty>
0

> <s_user_duplicate_titles>
CHEMBL204_lig1119

> <i_f3d_flags>
0

> <s_m_subgroup_title>
dock_pv

> <s_m_subgroupid>
dock_pv

> <b_m_subgroup_collapsed>
1

$$$$
CHEMBL204_lig4166
                    3D
 Schrodinger Suite 2021-1.
 49 52  0  0  1  0            999 V2000
   18.3436  -13.4684   20.3056 C   0  0  0  0  0  0
   17.8935  -14.1469   21.4097 N   0  0  0  0  0  0
   18.9990  -14.6137   21.9548 C   0  0  0  0  0  0
   20.1589  -14.3095   21.2985 O   0  0  0  0  0  0
   19.7445  -13.5593   20.2520 C   0  0  0  0  0  0
   17.6976  -12.7401   19.2874 C   0  0  0  0  0  0
   18.4313  -12.1610   18.2888 N   0  0  0  0  0  0
   12.8173   -9.8737   20.0540 N   0  0  2  0  0  0
   19.1274  -15.4191   23.2294 C   0  0  0  0  0  0
   16.2998  -12.5867   19.3025 N   0  0  0  0  0  0
   19.9539  -14.6796   24.2727 C   0  0  0  0  0  0
   20.5144  -12.9541   19.2586 C   0  0  0  0  0  0
   21.3276  -14.4753   24.0725 C   0  0  0  0  0  0
   19.7874  -12.2593   18.2934 C   0  0  0  0  0  0
   13.6942  -11.0513   20.0250 C   0  0  2  0  0  0
   22.0735  -13.7462   25.0002 C   0  0  0  0  0  0
   15.6659  -11.6000   18.4303 C   0  0  0  0  0  0
   14.1404  -11.4542   18.6019 C   0  0  0  0  0  0
   23.7510  -13.4540   24.7197 Cl  0  0  0  0  0  0
   20.0941  -13.4535   26.3535 C   0  0  0  0  0  0
   12.4494   -9.4621   21.4116 C   0  0  0  0  0  0
   19.3419  -14.1747   25.4235 C   0  0  0  0  0  0
   21.4531  -13.2350   26.1426 C   0  0  0  0  0  0
   13.0291  -12.2402   20.7569 C   0  0  0  0  0  0
   11.8317  -10.6067   22.2408 C   0  0  0  0  0  0
   12.6829  -11.8787   22.2005 C   0  0  0  0  0  0
   11.9837  -10.0308   19.4935 H   0  0  0  0  0  0
   18.1484  -15.6794   23.6355 H   0  0  0  0  0  0
   19.6335  -16.3585   23.0045 H   0  0  0  0  0  0
   15.8055  -12.8912   20.1287 H   0  0  0  0  0  0
   21.5915  -13.0385   19.2326 H   0  0  0  0  0  0
   21.8153  -14.8559   23.1821 H   0  0  0  0  0  0
   20.3065  -11.7873   17.4704 H   0  0  0  0  0  0
   14.5916  -10.7533   20.5738 H   0  0  0  0  0  0
   15.9278  -11.7952   17.3882 H   0  0  0  0  0  0
   16.1419  -10.6531   18.6831 H   0  0  0  0  0  0
   13.6346  -12.3734   18.2902 H   0  0  0  0  0  0
   13.8162  -10.6917   17.8929 H   0  0  0  0  0  0
   19.6165  -13.0533   27.2371 H   0  0  0  0  0  0
   13.3313   -9.0597   21.9193 H   0  0  0  0  0  0
   11.7283   -8.6501   21.3321 H   0  0  0  0  0  0
   18.2823  -14.3242   25.5932 H   0  0  0  0  0  0
   22.0160  -12.6574   26.8605 H   0  0  0  0  0  0
   13.6893  -13.1083   20.7463 H   0  0  0  0  0  0
   12.1210  -12.5452   20.2303 H   0  0  0  0  0  0
   11.7160  -10.2810   23.2734 H   0  0  0  0  0  0
   10.8164  -10.8086   21.9051 H   0  0  0  0  0  0
   13.6234  -11.7034   22.7214 H   0  0  0  0  0  0
   12.1813  -12.7048   22.7076 H   0  0  0  0  0  0
  1  2  1  0  0  0
  1  5  2  0  0  0
  1  6  1  0  0  0
  2  3  2  0  0  0
  3  9  1  0  0  0
  3  4  1  0  0  0
  4  5  1  0  0  0
  5 12  1  0  0  0
  6  7  2  0  0  0
  6 10  1  0  0  0
  7 14  1  0  0  0
  8 15  1  0  0  0
  8 21  1  0  0  0
  8 27  1  0  0  0
  9 11  1  0  0  0
  9 28  1  0  0  0
  9 29  1  0  0  0
 10 17  1  0  0  0
 10 30  1  0  0  0
 11 13  2  0  0  0
 11 22  1  0  0  0
 12 14  2  0  0  0
 12 31  1  0  0  0
 13 16  1  0  0  0
 13 32  1  0  0  0
 14 33  1  0  0  0
 15 18  1  0  0  0
 15 24  1  0  0  0
 15 34  1  0  0  0
 16 19  1  0  0  0
 16 23  2  0  0  0
 17 18  1  0  0  0
 17 35  1  0  0  0
 17 36  1  0  0  0
 18 37  1  0  0  0
 18 38  1  0  0  0
 20 22  2  0  0  0
 20 23  1  0  0  0
 20 39  1  0  0  0
 21 25  1  0  0  0
 21 40  1  0  0  0
 21 41  1  0  0  0
 22 42  1  0  0  0
 23 43  1  0  0  0
 24 26  1  0  0  0
 24 44  1  0  0  0
 24 45  1  0  0  0
 25 26  1  0  0  0
 25 46  1  0  0  0
 25 47  1  0  0  0
 26 48  1  0  0  0
 26 49  1  0  0  0
M  END
> <s_m_entry_id>
35542

> <s_m_entry_name>
dock_pv.392

> <s_m_Source_Path>
/home/csk/Desktop/cluster/DUD-E-result/thrb

> <s_m_Source_File>
dock_pv.maegz

> <i_m_Source_File_Index>
392

> <chembl_id>
CHEMBL439678

> <chembl_pref_name>
None

> <i_lp_mmshare_version>
53161

> <r_lp_tautomer_probability>
1

> <s_lp_Force_Field>
OPLS_2005

> <r_lp_Energy>
23.892585

> <b_lp_Chiralities_Consistent>
1

> <s_lp_Variant>
CHEMBL204_lig4166-1

> <s_i_glide_gridfile>
glide-grid_1ype

> <i_i_glide_lignum>
5789

> <i_i_glide_rotatable_bonds>
6

> <r_i_docking_score>
-6.89161392991717

> <r_i_glide_ligand_efficiency>
-0.265062074227583

> <r_i_glide_ligand_efficiency_sa>
-0.785245351930317

> <r_i_glide_ligand_efficiency_ln>
-1.61847291821133

> <r_i_glide_gscore>
-6.89161392991717

> <r_i_glide_lipo>
-3.60462593109696

> <r_i_glide_hbond>
-0.449411280220874

> <r_i_glide_metal>
0

> <r_i_glide_rewards>
-1.01245685600334

> <r_i_glide_evdw>
-38.9166603088379

> <r_i_glide_ecoul>
-3.87163376808167

> <r_i_glide_erotb>
0.701458218058152

> <r_i_glide_esite>
0

> <r_i_glide_emodel>
-57.4671246535798

> <r_i_glide_energy>
-42.7882940769196

> <r_i_glide_einternal>
6.3623743057251

> <i_i_glide_confnum>
172

> <i_i_glide_posenum>
211

> <r_i_glide_eff_state_penalty>
0

> <s_user_duplicate_titles>
CHEMBL204_lig4166

> <i_f3d_flags>
0

> <s_m_subgroup_title>
dock_pv

> <s_m_subgroupid>
dock_pv

> <b_m_subgroup_collapsed>
1

$$$$
CHEMBL204_lig4120
                    3D
 Schrodinger Suite 2021-1.
 61 64  0  0  1  0            999 V2000
   16.0888  -16.7025   21.9657 C   0  0  0  0  0  0
   15.5314  -16.4041   20.7523 N   0  0  0  0  0  0
   17.4528  -16.1486   22.3270 C   0  0  0  0  0  0
   11.2363  -10.7661   23.7073 C   0  0  0  0  0  0
   12.2874  -10.9591   22.6741 C   0  0  0  0  0  0
   13.8227  -12.4167   21.4227 C   0  0  0  0  0  0
   12.7478  -12.2368   22.3211 C   0  0  0  0  0  0
   17.6357  -15.5293   23.5680 C   0  0  0  0  0  0
   15.9735  -15.2529   19.9247 C   0  0  0  0  0  0
   11.1524   -9.6724   24.3209 N   0  0  0  0  0  0
   18.8844  -14.9717   23.9338 C   0  0  0  0  0  0
   15.5188  -17.4155   22.7978 O   0  0  0  0  0  0
   14.3216  -13.7046   21.1308 C   0  0  0  0  0  0
   15.3871  -13.8771   20.2442 C   0  0  0  0  0  0
   14.4325  -11.2777   20.8245 C   0  0  0  0  0  0
   14.2113  -16.9930   20.4130 C   0  0  0  0  0  0
   18.5501  -16.2828   21.4696 C   0  0  0  0  0  0
   12.8930   -9.8530   22.0553 C   0  0  0  0  0  0
   13.9418   -9.9934   21.1503 C   0  0  0  0  0  0
   19.9801  -15.0689   23.0252 C   0  0  0  0  0  0
   19.7927  -15.7433   21.7945 C   0  0  0  0  0  0
   15.5218  -11.4696   19.9419 C   0  0  0  0  0  0
   10.4215  -11.8530   23.9209 N   0  0  0  0  0  0
   15.9767  -12.7563   19.6584 C   0  0  0  0  0  0
   13.9085  -17.2136   18.9144 C   0  0  0  0  0  0
   19.0744  -14.3161   25.1757 C   0  0  0  0  0  0
   12.5675  -17.9425   18.6535 C   0  0  0  0  0  0
   21.2262  -14.4950   23.3847 C   0  0  0  0  0  0
   12.4347  -18.3321   17.1705 C   0  0  0  0  0  0
   11.3399  -17.1246   19.1104 C   0  0  0  0  0  0
   20.3097  -13.7605   25.4991 C   0  0  0  0  0  0
   21.3771  -13.8501   24.6105 C   0  0  0  0  0  0
   12.3274  -13.1216   22.7755 H   0  0  0  0  0  0
   16.8162  -15.4524   24.2668 H   0  0  0  0  0  0
   17.0501  -15.1248   19.9781 H   0  0  0  0  0  0
   15.7941  -15.4657   18.8723 H   0  0  0  0  0  0
   10.3529   -9.6877   24.9486 H   0  0  0  0  0  0
   13.8725  -14.5419   21.6395 H   0  0  0  0  0  0
   14.1071  -17.9636   20.9022 H   0  0  0  0  0  0
   13.4171  -16.3930   20.8520 H   0  0  0  0  0  0
   18.4433  -16.8035   20.5291 H   0  0  0  0  0  0
   12.5644   -8.8523   22.2992 H   0  0  0  0  0  0
   14.4054   -9.1166   20.7215 H   0  0  0  0  0  0
   20.6219  -15.8406   21.1087 H   0  0  0  0  0  0
   16.0100  -10.6179   19.4983 H   0  0  0  0  0  0
    9.6298  -11.7653   24.5586 H   0  0  0  0  0  0
   10.5957  -12.7663   23.5169 H   0  0  0  0  0  0
   16.8131  -12.8799   18.9854 H   0  0  0  0  0  0
   13.8759  -16.2565   18.3905 H   0  0  0  0  0  0
   14.7233  -17.7899   18.4716 H   0  0  0  0  0  0
   18.2498  -14.2486   25.8720 H   0  0  0  0  0  0
   12.5709  -18.8716   19.2285 H   0  0  0  0  0  0
   22.0576  -14.5634   22.6986 H   0  0  0  0  0  0
   12.4322  -17.4535   16.5225 H   0  0  0  0  0  0
   13.2586  -18.9749   16.8537 H   0  0  0  0  0  0
   11.5083  -18.8779   16.9831 H   0  0  0  0  0  0
   11.2915  -16.1591   18.6023 H   0  0  0  0  0  0
   10.4089  -17.6539   18.8958 H   0  0  0  0  0  0
   11.3530  -16.9343   20.1835 H   0  0  0  0  0  0
   20.4391  -13.2539   26.4446 H   0  0  0  0  0  0
   22.3296  -13.4137   24.8744 H   0  0  0  0  0  0
  1  2  1  0  0  0
  1  3  1  0  0  0
  1 12  2  0  0  0
  2  9  1  0  0  0
  2 16  1  0  0  0
  3  8  1  0  0  0
  3 17  2  0  0  0
  4  5  1  0  0  0
  4 10  2  0  0  0
  4 23  1  0  0  0
  5  7  1  0  0  0
  5 18  2  0  0  0
  6 13  1  0  0  0
  6  7  2  0  0  0
  6 15  1  0  0  0
  7 33  1  0  0  0
  8 11  2  0  0  0
  8 34  1  0  0  0
  9 14  1  0  0  0
  9 35  1  0  0  0
  9 36  1  0  0  0
 10 37  1  0  0  0
 11 26  1  0  0  0
 11 20  1  0  0  0
 13 14  2  0  0  0
 13 38  1  0  0  0
 14 24  1  0  0  0
 15 22  1  0  0  0
 15 19  2  0  0  0
 16 25  1  0  0  0
 16 39  1  0  0  0
 16 40  1  0  0  0
 17 21  1  0  0  0
 17 41  1  0  0  0
 18 19  1  0  0  0
 18 42  1  0  0  0
 19 43  1  0  0  0
 20 21  2  0  0  0
 20 28  1  0  0  0
 21 44  1  0  0  0
 22 24  2  0  0  0
 22 45  1  0  0  0
 23 46  1  0  0  0
 23 47  1  0  0  0
 24 48  1  0  0  0
 25 27  1  0  0  0
 25 49  1  0  0  0
 25 50  1  0  0  0
 26 31  2  0  0  0
 26 51  1  0  0  0
 27 29  1  0  0  0
 27 30  1  0  0  0
 27 52  1  0  0  0
 28 32  2  0  0  0
 28 53  1  0  0  0
 29 54  1  0  0  0
 29 55  1  0  0  0
 29 56  1  0  0  0
 30 57  1  0  0  0
 30 58  1  0  0  0
 30 59  1  0  0  0
 31 32  1  0  0  0
 31 60  1  0  0  0
 32 61  1  0  0  0
M  END
> <s_m_entry_id>
35543

> <s_m_entry_name>
dock_pv.393

> <s_m_Source_Path>
/home/csk/Desktop/cluster/DUD-E-result/thrb

> <s_m_Source_File>
dock_pv.maegz

> <i_m_Source_File_Index>
393

> <chembl_id>
CHEMBL193745

> <chembl_pref_name>
None

> <i_lp_mmshare_version>
53161

> <r_lp_tautomer_probability>
1

> <s_lp_Force_Field>
OPLS_2005

> <r_lp_Energy>
26.887038

> <b_lp_Chiralities_Consistent>
1

> <s_lp_Variant>
CHEMBL204_lig4120-1

> <s_i_glide_gridfile>
glide-grid_1ype

> <i_i_glide_lignum>
5732

> <i_i_glide_rotatable_bonds>
8

> <r_i_docking_score>
-6.88912866571221

> <r_i_glide_ligand_efficiency>
-0.215285270803507

> <r_i_glide_ligand_efficiency_sa>
-0.683488129903894

> <r_i_glide_ligand_efficiency_ln>
-1.54266369880789

> <r_i_glide_gscore>
-6.88912866571221

> <r_i_glide_lipo>
-2.96191944929574

> <r_i_glide_hbond>
-0.560004187379344

> <r_i_glide_metal>
0

> <r_i_glide_rewards>
-0.561334503970851

> <r_i_glide_evdw>
-38.8043251037598

> <r_i_glide_ecoul>
-8.52731990814209

> <r_i_glide_erotb>
0.552426401078767

> <r_i_glide_esite>
-0.138982684735738

> <r_i_glide_emodel>
-65.1494254338319

> <r_i_glide_energy>
-47.3316450119019

> <r_i_glide_einternal>
4.37473344802856

> <i_i_glide_confnum>
2

> <i_i_glide_posenum>
105

> <r_i_glide_eff_state_penalty>
0

> <s_user_duplicate_titles>
CHEMBL204_lig4120

> <i_f3d_flags>
0

> <s_m_subgroup_title>
dock_pv

> <s_m_subgroupid>
dock_pv

> <b_m_subgroup_collapsed>
1

$$$$
CHEMBL204_lig5058
                    3D
 Schrodinger Suite 2021-1.
 65 68  0  0  1  0            999 V2000
   11.2202  -10.6844   23.6831 C   0  0  0  0  0  0
   12.1316  -10.7442   22.5278 C   0  0  0  0  0  0
   12.7814  -11.9302   22.1476 C   0  0  0  0  0  0
   13.6787  -11.9528   21.0750 C   0  0  0  0  0  0
   13.8718  -10.7887   20.3211 C   0  0  0  0  0  0
   13.2175   -9.6117   20.6695 C   0  0  0  0  0  0
   12.3790   -9.5872   21.7736 C   0  0  0  0  0  0
   11.0724   -9.6124   24.3210 N   0  0  0  0  0  0
   10.5490  -11.8530   23.9222 N   0  0  0  0  0  0
   15.7869  -13.1034   20.7549 C   0  0  0  0  0  0
   16.4343  -14.2787   20.4640 N   0  0  0  0  0  0
   15.7492  -15.4773   19.9518 C   0  0  0  0  0  0
   14.3643  -15.6209   20.5854 C   0  0  1  0  0  0
   13.5762  -14.3081   20.4665 C   0  0  0  0  0  0
   14.4103  -13.1353   20.8153 N   0  0  0  0  0  0
   16.4247  -12.0645   20.9714 O   0  0  0  0  0  0
   17.9028  -14.2769   20.3214 C   0  0  0  0  0  0
   18.7045  -14.0002   21.6170 C   0  0  0  0  0  0
   18.2856  -14.8596   22.8261 C   0  0  0  0  0  0
   19.0858  -14.4699   24.0876 C   0  0  0  0  0  0
   20.5378  -14.5678   23.8611 N   0  0  1  0  0  0
   21.0118  -13.8586   22.6553 C   0  0  0  0  0  0
   20.2049  -14.2389   21.4014 C   0  0  0  0  0  0
   21.2874  -14.1796   25.0615 C   0  0  0  0  0  0
   22.7107  -14.7146   25.0101 C   0  0  0  0  0  0
   23.7425  -13.9178   24.5046 C   0  0  0  0  0  0
   25.0090  -14.4615   24.3211 C   0  0  0  0  0  0
   25.2396  -15.7948   24.6529 C   0  0  0  0  0  0
   24.2197  -16.5930   25.1611 C   0  0  0  0  0  0
   22.9482  -16.0547   25.3282 C   0  0  0  0  0  0
   13.5998  -16.8207   19.9938 C   0  0  0  0  0  0
   12.4144  -17.0707   20.7211 O   0  0  0  0  0  0
   12.6444  -12.8311   22.7302 H   0  0  0  0  0  0
   14.5590  -10.7919   19.4903 H   0  0  0  0  0  0
   13.3752   -8.7055   20.1097 H   0  0  0  0  0  0
   11.9019   -8.6533   22.0290 H   0  0  0  0  0  0
   10.3299   -9.7131   25.0084 H   0  0  0  0  0  0
    9.7674  -11.8512   24.5767 H   0  0  0  0  0  0
   10.7627  -12.7237   23.4503 H   0  0  0  0  0  0
   15.5573  -15.2754   18.8960 H   0  0  0  0  0  0
   16.3734  -16.3714   19.9721 H   0  0  0  0  0  0
   14.5212  -15.8120   21.6499 H   0  0  0  0  0  0
   12.6850  -14.3578   21.0945 H   0  0  0  0  0  0
   13.2440  -14.1658   19.4363 H   0  0  0  0  0  0
   18.2182  -15.2462   19.9334 H   0  0  0  0  0  0
   18.1833  -13.5557   19.5516 H   0  0  0  0  0  0
   18.5895  -12.9508   21.8948 H   0  0  0  0  0  0
   17.2213  -14.7267   23.0261 H   0  0  0  0  0  0
   18.3805  -15.9270   22.6175 H   0  0  0  0  0  0
   18.8336  -13.4530   24.3942 H   0  0  0  0  0  0
   18.8049  -15.1197   24.9186 H   0  0  0  0  0  0
   20.9594  -12.7845   22.8337 H   0  0  0  0  0  0
   22.0611  -14.0886   22.4764 H   0  0  0  0  0  0
   20.4196  -15.2648   21.0967 H   0  0  0  0  0  0
   20.5507  -13.6392   20.5586 H   0  0  0  0  0  0
   21.2905  -13.0922   25.1676 H   0  0  0  0  0  0
   20.8055  -14.5923   25.9503 H   0  0  0  0  0  0
   23.5572  -12.8892   24.2308 H   0  0  0  0  0  0
   25.8093  -13.8533   23.9281 H   0  0  0  0  0  0
   26.2264  -16.2132   24.5188 H   0  0  0  0  0  0
   24.4085  -17.6272   25.4071 H   0  0  0  0  0  0
   22.1433  -16.6798   25.6851 H   0  0  0  0  0  0
   13.3499  -16.6469   18.9449 H   0  0  0  0  0  0
   14.2132  -17.7226   20.0251 H   0  0  0  0  0  0
   11.9017  -17.7371   20.2552 H   0  0  0  0  0  0
  1  2  1  0  0  0
  1  8  2  0  0  0
  1  9  1  0  0  0
  2  3  1  0  0  0
  2  7  2  0  0  0
  3  4  2  0  0  0
  3 33  1  0  0  0
  4  5  1  0  0  0
  4 15  1  0  0  0
  5  6  2  0  0  0
  5 34  1  0  0  0
  6  7  1  0  0  0
  6 35  1  0  0  0
  7 36  1  0  0  0
  8 37  1  0  0  0
  9 38  1  0  0  0
  9 39  1  0  0  0
 10 11  1  0  0  0
 10 15  1  0  0  0
 10 16  2  0  0  0
 11 12  1  0  0  0
 11 17  1  0  0  0
 12 13  1  0  0  0
 12 40  1  0  0  0
 12 41  1  0  0  0
 13 14  1  0  0  0
 13 31  1  0  0  0
 13 42  1  0  0  0
 14 15  1  0  0  0
 14 43  1  0  0  0
 14 44  1  0  0  0
 17 18  1  0  0  0
 17 45  1  0  0  0
 17 46  1  0  0  0
 18 19  1  0  0  0
 18 23  1  0  0  0
 18 47  1  0  0  0
 19 20  1  0  0  0
 19 48  1  0  0  0
 19 49  1  0  0  0
 20 21  1  0  0  0
 20 50  1  0  0  0
 20 51  1  0  0  0
 21 22  1  0  0  0
 21 24  1  0  0  0
 22 23  1  0  0  0
 22 52  1  0  0  0
 22 53  1  0  0  0
 23 54  1  0  0  0
 23 55  1  0  0  0
 24 25  1  0  0  0
 24 56  1  0  0  0
 24 57  1  0  0  0
 25 26  2  0  0  0
 25 30  1  0  0  0
 26 27  1  0  0  0
 26 58  1  0  0  0
 27 28  2  0  0  0
 27 59  1  0  0  0
 28 29  1  0  0  0
 28 60  1  0  0  0
 29 30  2  0  0  0
 29 61  1  0  0  0
 30 62  1  0  0  0
 31 32  1  0  0  0
 31 63  1  0  0  0
 31 64  1  0  0  0
 32 65  1  0  0  0
M  END
> <s_m_entry_id>
35544

> <s_m_entry_name>
dock_pv.394

> <s_m_Source_Path>
/home/csk/Desktop/cluster/DUD-E-result/thrb

> <s_m_Source_File>
dock_pv.maegz

> <i_m_Source_File_Index>
394

> <chembl_id>
CHEMBL3781354

> <chembl_pref_name>
None

> <i_lp_mmshare_version>
53161

> <r_lp_tautomer_probability>
1

> <s_lp_Force_Field>
OPLS_2005

> <r_lp_Energy>
64.935495

> <b_lp_Chiralities_Consistent>
1

> <s_lp_Variant>
CHEMBL204_lig5058-2

> <s_i_glide_gridfile>
glide-grid_1ype

> <i_i_glide_lignum>
6927

> <i_i_glide_rotatable_bonds>
8

> <r_i_docking_score>
-6.88839967891751

> <r_i_glide_ligand_efficiency>
-0.215262489966172

> <r_i_glide_ligand_efficiency_sa>
-0.683415805253679

> <r_i_glide_ligand_efficiency_ln>
-1.54250045879313

> <r_i_glide_gscore>
-6.88839967891751

> <r_i_glide_lipo>
-3.21321779803762

> <r_i_glide_hbond>
-0.535182432477047

> <r_i_glide_metal>
0

> <r_i_glide_rewards>
-0.74663204927324

> <r_i_glide_evdw>
-41.2578620910645

> <r_i_glide_ecoul>
-5.62482357025146

> <r_i_glide_erotb>
0.630170287203083

> <r_i_glide_esite>
-0.116921046241745

> <r_i_glide_emodel>
-65.5989837607242

> <r_i_glide_energy>
-46.8826856613159

> <r_i_glide_einternal>
4.47905158996582

> <i_i_glide_confnum>
23

> <i_i_glide_posenum>
226

> <r_i_glide_eff_state_penalty>
0

> <s_user_duplicate_titles>
CHEMBL204_lig5058

> <i_f3d_flags>
0

> <s_m_subgroup_title>
dock_pv

> <s_m_subgroupid>
dock_pv

> <b_m_subgroup_collapsed>
1

$$$$
CHEMBL204_lig540
                    3D
 Schrodinger Suite 2021-1.
 63 67  0  0  1  0            999 V2000
   19.5086  -14.4184   21.7494 C   0  0  0  0  0  0
   20.0716  -14.2892   23.2190 C   0  0  0  0  0  0
   14.1423  -16.3259   20.8467 N   0  0  0  0  0  0
   13.0845  -15.4551   20.7078 C   0  0  0  0  0  0
   14.6972  -13.5945   20.9634 N   0  0  0  0  0  0
   13.4997  -14.0249   20.7691 C   0  0  0  0  0  0
   19.3962  -14.7323   24.3211 N   0  0  0  0  0  0
   15.7382  -14.5295   21.1207 C   0  0  0  0  0  0
   15.5021  -15.9180   21.0265 C   0  0  0  0  0  0
   20.1054  -13.3962   20.7729 C   0  0  0  0  0  0
   20.6057  -14.8046   20.7542 C   0  0  0  0  0  0
   18.1006  -14.9350   21.4592 C   0  0  0  0  0  0
   17.0276  -14.0441   21.3462 C   0  0  0  0  0  0
   12.6067   -8.2530   23.9210 C   0  0  0  0  0  0
   16.5870  -16.8016   21.1183 C   0  0  0  0  0  0
   12.4017  -12.9761   20.5030 C   0  0  0  0  0  0
   21.1928  -13.7900   23.3618 O   0  0  0  0  0  0
   11.9174  -15.8209   20.5427 O   0  0  0  0  0  0
   12.5129   -9.4446   23.0331 C   0  0  0  0  0  0
   13.6160   -7.5113   23.9210 N   0  0  0  0  0  0
   17.8757  -16.3091   21.3196 C   0  0  0  0  0  0
   19.9870  -14.6957   25.6819 C   0  0  1  0  0  0
   11.6160  -10.4974   23.2890 C   0  0  0  0  0  0
   13.3656   -9.5678   21.9210 C   0  0  0  0  0  0
   11.5267   -8.0392   24.7210 N   0  0  0  0  0  0
   12.4441  -11.7330   21.3891 C   0  0  0  0  0  0
   13.8680  -17.7730   20.7884 C   0  0  0  0  0  0
   18.0459  -15.3178   24.3465 C   0  0  0  0  0  0
   13.3260  -10.6914   21.1020 C   0  0  0  0  0  0
   11.5927  -11.6326   22.4864 C   0  0  0  0  0  0
   21.2159  -12.6530   26.3201 O   0  0  0  0  0  0
   17.7493  -15.5485   25.8219 C   0  0  0  0  0  0
   19.9464  -13.2769   26.3131 C   0  0  0  0  0  0
   19.1202  -15.7092   26.4391 C   0  0  0  0  0  0
   19.4919  -13.0489   19.9413 H   0  0  0  0  0  0
   20.7807  -12.6150   21.1211 H   0  0  0  0  0  0
   21.6160  -15.0118   21.1077 H   0  0  0  0  0  0
   20.3428  -15.4527   19.9210 H   0  0  0  0  0  0
   17.1970  -12.9806   21.4364 H   0  0  0  0  0  0
   16.4506  -17.8695   21.0399 H   0  0  0  0  0  0
   12.4679  -12.6550   19.4626 H   0  0  0  0  0  0
   11.4026  -13.4056   20.5912 H   0  0  0  0  0  0
   13.5457   -6.8000   24.6364 H   0  0  0  0  0  0
   18.7021  -17.0006   21.4000 H   0  0  0  0  0  0
   21.0280  -15.0256   25.6926 H   0  0  0  0  0  0
   10.9381  -10.4717   24.1312 H   0  0  0  0  0  0
   14.0809   -8.7908   21.6892 H   0  0  0  0  0  0
   11.4851   -7.2251   25.3149 H   0  0  0  0  0  0
   10.7313   -8.6651   24.7100 H   0  0  0  0  0  0
   12.8099  -18.0204   20.6884 H   0  0  0  0  0  0
   14.3839  -18.2171   19.9364 H   0  0  0  0  0  0
   14.2259  -18.2609   21.6953 H   0  0  0  0  0  0
   18.0458  -16.2878   23.8514 H   0  0  0  0  0  0
   17.2874  -14.6537   23.9312 H   0  0  0  0  0  0
   13.9973  -10.7632   20.2591 H   0  0  0  0  0  0
   10.9002  -12.4296   22.7209 H   0  0  0  0  0  0
   21.1236  -11.7536   26.6531 H   0  0  0  0  0  0
   17.0946  -16.4061   25.9773 H   0  0  0  0  0  0
   17.2502  -14.6746   26.2422 H   0  0  0  0  0  0
   19.6160  -13.3188   27.3506 H   0  0  0  0  0  0
   19.2169  -12.6530   25.7994 H   0  0  0  0  0  0
   19.4879  -16.7169   26.2363 H   0  0  0  0  0  0
   19.1316  -15.5970   27.5210 H   0  0  0  0  0  0
  1  2  1  0  0  0
  1 10  1  0  0  0
  1 11  1  0  0  0
  1 12  1  0  0  0
  2  7  1  0  0  0
  2 17  2  0  0  0
  3  9  1  0  0  0
  3  4  1  0  0  0
  3 27  1  0  0  0
  4 18  2  0  0  0
  4  6  1  0  0  0
  5  8  1  0  0  0
  5  6  2  0  0  0
  6 16  1  0  0  0
  7 22  1  0  0  0
  7 28  1  0  0  0
  8 13  2  0  0  0
  8  9  1  0  0  0
  9 15  2  0  0  0
 10 11  1  0  0  0
 10 35  1  0  0  0
 10 36  1  0  0  0
 11 37  1  0  0  0
 11 38  1  0  0  0
 12 13  1  0  0  0
 12 21  2  0  0  0
 13 39  1  0  0  0
 14 19  1  0  0  0
 14 20  2  0  0  0
 14 25  1  0  0  0
 15 21  1  0  0  0
 15 40  1  0  0  0
 16 26  1  0  0  0
 16 41  1  0  0  0
 16 42  1  0  0  0
 19 23  2  0  0  0
 19 24  1  0  0  0
 20 43  1  0  0  0
 21 44  1  0  0  0
 22 33  1  0  0  0
 22 34  1  0  0  0
 22 45  1  0  0  0
 23 30  1  0  0  0
 23 46  1  0  0  0
 24 29  2  0  0  0
 24 47  1  0  0  0
 25 48  1  0  0  0
 25 49  1  0  0  0
 26 29  1  0  0  0
 26 30  2  0  0  0
 27 50  1  0  0  0
 27 51  1  0  0  0
 27 52  1  0  0  0
 28 32  1  0  0  0
 28 53  1  0  0  0
 28 54  1  0  0  0
 29 55  1  0  0  0
 30 56  1  0  0  0
 31 33  1  0  0  0
 31 57  1  0  0  0
 32 34  1  0  0  0
 32 58  1  0  0  0
 32 59  1  0  0  0
 33 60  1  0  0  0
 33 61  1  0  0  0
 34 62  1  0  0  0
 34 63  1  0  0  0
M  END
> <s_m_entry_id>
35545

> <s_m_entry_name>
dock_pv.395

> <s_m_Source_Path>
/home/csk/Desktop/cluster/DUD-E-result/thrb

> <s_m_Source_File>
dock_pv.maegz

> <i_m_Source_File_Index>
395

> <chembl_id>
CHEMBL307385

> <chembl_pref_name>
None

> <i_lp_mmshare_version>
53161

> <r_lp_tautomer_probability>
1

> <s_lp_Force_Field>
OPLS_2005

> <r_lp_Energy>
61.314026

> <b_lp_Chiralities_Consistent>
1

> <s_lp_Variant>
CHEMBL204_lig540-2

> <s_i_glide_gridfile>
glide-grid_1ype

> <i_i_glide_lignum>
746

> <i_i_glide_rotatable_bonds>
8

> <r_i_docking_score>
-6.88374338779446

> <r_i_glide_ligand_efficiency>
-0.202463040817484

> <r_i_glide_ligand_efficiency_sa>
-0.655901655583864

> <r_i_glide_ligand_efficiency_ln>
-1.52081199682569

> <r_i_glide_gscore>
-6.88374338779446

> <r_i_glide_lipo>
-3.16347726498178

> <r_i_glide_hbond>
-0.245728667017412

> <r_i_glide_metal>
0

> <r_i_glide_rewards>
-1.1011315523809

> <r_i_glide_evdw>
-41.4093933105469

> <r_i_glide_ecoul>
-5.83085918426514

> <r_i_glide_erotb>
0.571692639752752

> <r_i_glide_esite>
0

> <r_i_glide_emodel>
-64.2932766438205

> <r_i_glide_energy>
-47.240252494812

> <r_i_glide_einternal>
5.60143852233887

> <i_i_glide_confnum>
7

> <i_i_glide_posenum>
338

> <r_i_glide_eff_state_penalty>
0

> <s_user_duplicate_titles>
CHEMBL204_lig540,119122

> <i_f3d_flags>
0

> <s_m_subgroup_title>
dock_pv

> <s_m_subgroupid>
dock_pv

> <b_m_subgroup_collapsed>
1

$$$$
CHEMBL204_lig4577
                    3D
 Schrodinger Suite 2021-1.
 52 53  0  0  1  0            999 V2000
   25.2160  -15.4518   24.5372 C   0  0  0  0  0  0
   24.2927  -16.3450   25.0741 C   0  0  0  0  0  0
   23.0030  -15.9139   25.3767 C   0  0  0  0  0  0
   22.6240  -14.5822   25.1514 C   0  0  0  0  0  0
   23.5711  -13.6875   24.6362 C   0  0  0  0  0  0
   24.8566  -14.1228   24.3214 C   0  0  0  0  0  0
   21.1861  -14.1099   25.4146 C   0  0  0  0  0  0
   20.4965  -13.5677   24.1412 C   0  0  0  0  0  0
   21.2397  -13.1597   26.3489 F   0  0  0  0  0  0
   20.4537  -15.1042   25.9208 F   0  0  0  0  0  0
   20.6790  -14.3888   22.9412 N   0  0  0  0  0  0
   19.9708  -13.9202   21.8296 C   0  0  0  0  0  0
   18.6518  -14.3259   21.6054 C   0  0  0  0  0  0
   17.9380  -13.8444   20.4990 C   0  0  0  0  0  0
   18.5577  -12.9211   19.6279 C   0  0  0  0  0  0
   19.8911  -12.5559   19.8399 C   0  0  0  0  0  0
   20.5983  -13.0670   20.9239 C   0  0  0  0  0  0
   16.5007  -14.3419   20.2845 C   0  0  0  0  0  0
   15.4400  -13.4412   20.9295 C   0  0  0  0  0  0
   14.2238  -13.4910   20.3618 N   0  0  0  0  0  0
   15.7012  -12.7510   21.9158 O   0  0  0  0  0  0
   13.0605  -12.7396   20.8192 C   0  0  0  0  0  0
   13.1997  -11.2088   20.6310 C   0  0  0  0  0  0
   18.0587  -15.1865   22.4706 F   0  0  0  0  0  0
   12.0173  -10.4759   20.9320 O   0  0  0  0  0  0
   11.6161  -10.7136   22.2892 N   0  0  0  0  0  0
   12.0126   -9.7618   23.2509 C   0  0  0  0  0  0
   11.2163   -9.8537   24.4012 N   0  0  0  0  0  0
   12.9216   -8.9083   23.1210 N   0  0  0  0  0  0
   17.8589  -12.3247   18.4921 C   0  0  0  0  0  0
   17.3081  -11.8528   17.5904 N   0  0  0  0  0  0
   24.6458  -17.6320   25.2931 F   0  0  0  0  0  0
   26.2173  -15.7884   24.3087 H   0  0  0  0  0  0
   22.2990  -16.6304   25.7731 H   0  0  0  0  0  0
   23.3099  -12.6531   24.4675 H   0  0  0  0  0  0
   25.5829  -13.4313   23.9225 H   0  0  0  0  0  0
   20.8461  -12.5598   23.9234 H   0  0  0  0  0  0
   19.4297  -13.4380   24.3352 H   0  0  0  0  0  0
   21.6528  -14.5819   22.7485 H   0  0  0  0  0  0
   20.3942  -11.8690   19.1730 H   0  0  0  0  0  0
   21.6260  -12.7703   21.0761 H   0  0  0  0  0  0
   16.3843  -15.3375   20.7123 H   0  0  0  0  0  0
   16.2978  -14.4694   19.2217 H   0  0  0  0  0  0
   14.0818  -14.1001   19.5708 H   0  0  0  0  0  0
   12.8661  -12.9858   21.8654 H   0  0  0  0  0  0
   12.1811  -13.0933   20.2791 H   0  0  0  0  0  0
   13.4494  -10.9983   19.5918 H   0  0  0  0  0  0
   14.0314  -10.8130   21.2182 H   0  0  0  0  0  0
   10.6622  -11.0533   22.2814 H   0  0  0  0  0  0
   11.2686   -9.1422   25.1106 H   0  0  0  0  0  0
   10.3165  -10.3190   24.3774 H   0  0  0  0  0  0
   13.0224   -8.3524   23.9546 H   0  0  0  0  0  0
  1  6  1  0  0  0
  1  2  2  0  0  0
  1 33  1  0  0  0
  2  3  1  0  0  0
  2 32  1  0  0  0
  3  4  2  0  0  0
  3 34  1  0  0  0
  4  5  1  0  0  0
  4  7  1  0  0  0
  5  6  2  0  0  0
  5 35  1  0  0  0
  6 36  1  0  0  0
  7  8  1  0  0  0
  7  9  1  0  0  0
  7 10  1  0  0  0
  8 11  1  0  0  0
  8 37  1  0  0  0
  8 38  1  0  0  0
 11 12  1  0  0  0
 11 39  1  0  0  0
 12 17  1  0  0  0
 12 13  2  0  0  0
 13 24  1  0  0  0
 13 14  1  0  0  0
 14 18  1  0  0  0
 14 15  2  0  0  0
 15 16  1  0  0  0
 15 30  1  0  0  0
 16 17  2  0  0  0
 16 40  1  0  0  0
 17 41  1  0  0  0
 18 19  1  0  0  0
 18 42  1  0  0  0
 18 43  1  0  0  0
 19 20  1  0  0  0
 19 21  2  0  0  0
 20 22  1  0  0  0
 20 44  1  0  0  0
 22 23  1  0  0  0
 22 45  1  0  0  0
 22 46  1  0  0  0
 23 25  1  0  0  0
 23 47  1  0  0  0
 23 48  1  0  0  0
 25 26  1  0  0  0
 26 27  1  0  0  0
 26 49  1  0  0  0
 27 28  1  0  0  0
 27 29  2  0  0  0
 28 50  1  0  0  0
 28 51  1  0  0  0
 29 52  1  0  0  0
 30 31  3  0  0  0
M  END
> <s_m_entry_id>
35548

> <s_m_entry_name>
dock_pv.398

> <s_m_Source_Path>
/home/csk/Desktop/cluster/DUD-E-result/thrb

> <s_m_Source_File>
dock_pv.maegz

> <i_m_Source_File_Index>
398

> <chembl_id>
CHEMBL258198

> <chembl_pref_name>
None

> <i_lp_mmshare_version>
53161

> <r_lp_tautomer_probability>
1

> <s_lp_Force_Field>
OPLS_2005

> <r_lp_Energy>
4.955127

> <b_lp_Chiralities_Consistent>
1

> <s_lp_Variant>
CHEMBL204_lig4577-1

> <s_i_glide_gridfile>
glide-grid_1ype

> <i_i_glide_lignum>
6248

> <i_i_glide_rotatable_bonds>
12

> <r_i_docking_score>
-6.87607195079377

> <r_i_glide_ligand_efficiency>
-0.214877248462305

> <r_i_glide_ligand_efficiency_sa>
-0.682192739718091

> <r_i_glide_ligand_efficiency_ln>
-1.53973994442504

> <r_i_glide_gscore>
-6.87607195079377

> <r_i_glide_lipo>
-2.96662250376574

> <r_i_glide_hbond>
-0.330113710396849

> <r_i_glide_metal>
0

> <r_i_glide_rewards>
-1.19299904677555

> <r_i_glide_evdw>
-47.3834838867188

> <r_i_glide_ecoul>
-6.80186605453491

> <r_i_glide_erotb>
1.0783830502568

> <r_i_glide_esite>
-0.0752656375962541

> <r_i_glide_emodel>
-75.6526972828893

> <r_i_glide_energy>
-54.1853499412537

> <r_i_glide_einternal>
5.75927639007568

> <i_i_glide_confnum>
218

> <i_i_glide_posenum>
193

> <r_i_glide_eff_state_penalty>
0

> <s_user_duplicate_titles>
CHEMBL204_lig4577,426176

> <i_f3d_flags>
0

> <s_m_subgroup_title>
dock_pv

> <s_m_subgroupid>
dock_pv

> <b_m_subgroup_collapsed>
1

$$$$
CHEMBL204_lig4440
                    3D
 Schrodinger Suite 2021-1.
 46 49  0  0  1  0            999 V2000
   18.3661  -12.0846   20.1010 C   0  0  0  0  0  0
   18.2480  -12.1291   18.7140 C   0  0  0  0  0  0
   16.9979  -12.0293   18.1035 C   0  0  0  0  0  0
   15.8586  -11.8530   18.8855 C   0  0  0  0  0  0
   15.9799  -11.7698   20.2783 C   0  0  0  0  0  0
   17.2292  -11.9134   20.8846 C   0  0  0  0  0  0
   19.6716  -12.2533   17.7454 Cl  0  0  0  0  0  0
   14.8811  -11.5711   21.1220 N   0  0  0  0  0  0
   13.8342  -10.7474   20.9183 C   0  0  0  0  0  0
   12.8536  -10.6634   22.0322 C   0  0  0  0  0  0
   13.6160  -10.0781   19.9210 O   0  0  0  0  0  0
   12.8160   -9.4461   22.7233 C   0  0  0  0  0  0
   12.0101   -9.2862   23.8417 C   0  0  0  0  0  0
   11.1769  -10.3255   24.2332 C   0  0  0  0  0  0
   11.1609  -11.5230   23.5210 C   0  0  0  0  0  0
   12.0169  -11.7337   22.4323 C   0  0  0  0  0  0
   12.0218   -7.7995   24.7206 Cl  0  0  0  0  0  0
   12.0163  -13.0530   21.9163 N   0  0  0  0  0  0
   12.2765  -13.5391   20.6771 C   0  0  0  0  0  0
   12.4678  -14.9637   20.6154 C   0  0  0  0  0  0
   12.3698  -12.8770   19.6474 O   0  0  0  0  0  0
   11.9022  -15.8804   19.7188 C   0  0  0  0  0  0
   13.5783  -15.7419   21.7020 S   0  0  0  0  0  0
   10.8155  -15.4533   18.4467 Cl  0  0  0  0  0  0
   13.2158  -17.2758   21.0027 C   0  0  0  0  0  0
   12.3022  -17.2123   19.9562 C   0  0  0  0  0  0
   11.8348  -18.4282   19.1774 C   0  0  0  0  0  0
   12.6095  -18.6223   17.9592 N   0  0  0  0  0  0
   13.8911  -19.0179   17.9977 N   0  0  0  0  0  0
   14.2465  -18.9104   16.7410 C   0  0  0  0  0  0
   13.1702  -18.4382   15.9869 C   0  0  0  0  0  0
   12.1333  -18.2527   16.7642 N   0  0  0  0  0  0
   19.3363  -12.1652   20.5690 H   0  0  0  0  0  0
   16.9088  -12.0746   17.0283 H   0  0  0  0  0  0
   14.8909  -11.7746   18.4105 H   0  0  0  0  0  0
   17.3321  -11.8639   21.9585 H   0  0  0  0  0  0
   14.9200  -12.0316   22.0164 H   0  0  0  0  0  0
   13.4555   -8.6258   22.4279 H   0  0  0  0  0  0
   10.5157  -10.2097   25.0808 H   0  0  0  0  0  0
   10.4840  -12.2942   23.8572 H   0  0  0  0  0  0
   11.6632  -13.7428   22.5742 H   0  0  0  0  0  0
   13.7047  -18.1612   21.3807 H   0  0  0  0  0  0
   10.7772  -18.3561   18.9131 H   0  0  0  0  0  0
   11.9251  -19.3354   19.7733 H   0  0  0  0  0  0
   15.2416  -19.1389   16.3887 H   0  0  0  0  0  0
   13.1459  -18.2107   14.9298 H   0  0  0  0  0  0
  1  6  1  0  0  0
  1  2  2  0  0  0
  1 33  1  0  0  0
  2  3  1  0  0  0
  2  7  1  0  0  0
  3  4  2  0  0  0
  3 34  1  0  0  0
  4  5  1  0  0  0
  4 35  1  0  0  0
  5  8  1  0  0  0
  5  6  2  0  0  0
  6 36  1  0  0  0
  8  9  1  0  0  0
  8 37  1  0  0  0
  9 10  1  0  0  0
  9 11  2  0  0  0
 10 16  1  0  0  0
 10 12  2  0  0  0
 12 13  1  0  0  0
 12 38  1  0  0  0
 13 17  1  0  0  0
 13 14  2  0  0  0
 14 15  1  0  0  0
 14 39  1  0  0  0
 15 16  2  0  0  0
 15 40  1  0  0  0
 16 18  1  0  0  0
 18 19  1  0  0  0
 18 41  1  0  0  0
 19 20  1  0  0  0
 19 21  2  0  0  0
 20 22  2  0  0  0
 20 23  1  0  0  0
 22 26  1  0  0  0
 22 24  1  0  0  0
 23 25  1  0  0  0
 25 26  2  0  0  0
 25 42  1  0  0  0
 26 27  1  0  0  0
 27 28  1  0  0  0
 27 43  1  0  0  0
 27 44  1  0  0  0
 28 29  1  0  0  0
 28 32  1  0  0  0
 29 30  2  0  0  0
 30 31  1  0  0  0
 30 45  1  0  0  0
 31 32  2  0  0  0
 31 46  1  0  0  0
M  END
> <s_m_entry_id>
35549

> <s_m_entry_name>
dock_pv.399

> <s_m_Source_Path>
/home/csk/Desktop/cluster/DUD-E-result/thrb

> <s_m_Source_File>
dock_pv.maegz

> <i_m_Source_File_Index>
399

> <chembl_id>
CHEMBL242765

> <chembl_pref_name>
None

> <i_lp_mmshare_version>
53161

> <r_lp_tautomer_probability>
1

> <s_lp_Force_Field>
OPLS_2005

> <r_lp_Energy>
35.756498

> <b_lp_Chiralities_Consistent>
1

> <s_lp_Variant>
CHEMBL204_lig4440-1

> <s_i_glide_gridfile>
glide-grid_1ype

> <i_i_glide_lignum>
6105

> <i_i_glide_rotatable_bonds>
8

> <r_i_docking_score>
-6.87225094582198

> <r_i_glide_ligand_efficiency>
-0.214757842056937

> <r_i_glide_ligand_efficiency_sa>
-0.681813648011542

> <r_i_glide_ligand_efficiency_ln>
-1.5388843172552

> <r_i_glide_gscore>
-6.87225094582198

> <r_i_glide_lipo>
-3.05490433006772

> <r_i_glide_hbond>
-0.475695902007148

> <r_i_glide_metal>
0

> <r_i_glide_rewards>
-0.4290728302964

> <r_i_glide_evdw>
-46.4921112060547

> <r_i_glide_ecoul>
-8.0725154876709

> <r_i_glide_erotb>
0.637361850981803

> <r_i_glide_esite>
-0.0144568509791487

> <r_i_glide_emodel>
-72.0593075883855

> <r_i_glide_energy>
-54.5646266937256

> <r_i_glide_einternal>
14.9660291671753

> <i_i_glide_confnum>
115

> <i_i_glide_posenum>
385

> <r_i_glide_eff_state_penalty>
0

> <s_user_duplicate_titles>
CHEMBL204_lig4440

> <i_f3d_flags>
0

> <s_m_subgroup_title>
dock_pv

> <s_m_subgroupid>
dock_pv

> <b_m_subgroup_collapsed>
1

$$$$
CHEMBL204_lig5068
                    3D
 Schrodinger Suite 2021-1.
 50 52  0  0  1  0            999 V2000
   22.1477  -16.3811   24.1469 C   0  0  0  0  0  0
   20.9208  -15.9575   23.6406 C   0  0  0  0  0  0
   20.7384  -14.6401   23.2348 C   0  0  0  0  0  0
   21.7914  -13.7310   23.3961 C   0  0  0  0  0  0
   23.0167  -14.1554   23.9025 C   0  0  0  0  0  0
   23.2372  -15.4986   24.2581 C   0  0  0  0  0  0
   19.5104  -14.3280   22.6811 O   0  0  0  0  0  0
   19.3278  -13.0532   22.0667 C   0  0  0  0  0  0
   18.1107  -13.0428   21.1515 C   0  0  0  0  0  0
   17.0416  -13.9226   21.3520 C   0  0  0  0  0  0
   15.9492  -13.9001   20.4895 C   0  0  0  0  0  0
   15.9087  -12.9875   19.4305 C   0  0  0  0  0  0
   16.9734  -12.1048   19.2328 C   0  0  0  0  0  0
   18.0669  -12.1288   20.0930 C   0  0  0  0  0  0
   14.6949  -12.9283   18.5026 C   0  0  0  0  0  0
   13.4656  -13.1490   19.2048 O   0  0  0  0  0  0
   13.0850  -12.2912   20.2187 C   0  0  0  0  0  0
   12.0710  -12.7314   21.0628 C   0  0  0  0  0  0
   11.6538  -11.9476   22.1326 C   0  0  0  0  0  0
   12.2389  -10.6964   22.3973 C   0  0  0  0  0  0
   13.2458  -10.2575   21.5211 C   0  0  0  0  0  0
   13.6625  -11.0364   20.4461 C   0  0  0  0  0  0
   24.5641  -15.9996   24.7183 C   0  0  0  0  0  0
   25.6160  -15.1529   24.4656 N   0  0  0  0  0  0
   24.6818  -17.1295   25.2650 N   0  0  0  0  0  0
   11.8365   -9.8529   23.5591 C   0  0  0  0  0  0
   10.8163  -10.3712   24.3202 N   0  0  0  0  0  0
   12.4154   -8.7533   23.7866 N   0  0  0  0  0  0
   22.2516  -17.4217   24.4220 H   0  0  0  0  0  0
   20.1116  -16.6671   23.5379 H   0  0  0  0  0  0
   21.6822  -12.6935   23.1239 H   0  0  0  0  0  0
   23.7978  -13.4150   23.9998 H   0  0  0  0  0  0
   19.2131  -12.2830   22.8295 H   0  0  0  0  0  0
   20.1966  -12.8010   21.4560 H   0  0  0  0  0  0
   17.0541  -14.6254   22.1739 H   0  0  0  0  0  0
   15.1266  -14.5814   20.6548 H   0  0  0  0  0  0
   16.9485  -11.3917   18.4209 H   0  0  0  0  0  0
   18.8815  -11.4367   19.9372 H   0  0  0  0  0  0
   14.6500  -11.9834   17.9587 H   0  0  0  0  0  0
   14.8002  -13.7105   17.7498 H   0  0  0  0  0  0
   11.6158  -13.6972   20.9022 H   0  0  0  0  0  0
   10.8652  -12.3480   22.7539 H   0  0  0  0  0  0
   13.7282   -9.3018   21.6706 H   0  0  0  0  0  0
   14.4475  -10.6592   19.8103 H   0  0  0  0  0  0
   26.5594  -15.4271   24.7203 H   0  0  0  0  0  0
   25.4820  -14.2619   24.0135 H   0  0  0  0  0  0
   25.6396  -17.3237   25.5119 H   0  0  0  0  0  0
   10.3310   -9.8131   25.0130 H   0  0  0  0  0  0
   10.2984  -11.1725   23.9927 H   0  0  0  0  0  0
   12.0471   -8.3092   24.6133 H   0  0  0  0  0  0
  1  2  2  0  0  0
  1  6  1  0  0  0
  1 29  1  0  0  0
  2  3  1  0  0  0
  2 30  1  0  0  0
  3  4  2  0  0  0
  3  7  1  0  0  0
  4  5  1  0  0  0
  4 31  1  0  0  0
  5  6  2  0  0  0
  5 32  1  0  0  0
  6 23  1  0  0  0
  7  8  1  0  0  0
  8  9  1  0  0  0
  8 33  1  0  0  0
  8 34  1  0  0  0
  9 10  2  0  0  0
  9 14  1  0  0  0
 10 11  1  0  0  0
 10 35  1  0  0  0
 11 12  2  0  0  0
 11 36  1  0  0  0
 12 13  1  0  0  0
 12 15  1  0  0  0
 13 14  2  0  0  0
 13 37  1  0  0  0
 14 38  1  0  0  0
 15 16  1  0  0  0
 15 39  1  0  0  0
 15 40  1  0  0  0
 16 17  1  0  0  0
 17 18  2  0  0  0
 17 22  1  0  0  0
 18 19  1  0  0  0
 18 41  1  0  0  0
 19 20  2  0  0  0
 19 42  1  0  0  0
 20 21  1  0  0  0
 20 26  1  0  0  0
 21 22  2  0  0  0
 21 43  1  0  0  0
 22 44  1  0  0  0
 23 24  1  0  0  0
 23 25  2  0  0  0
 24 45  1  0  0  0
 24 46  1  0  0  0
 25 47  1  0  0  0
 26 27  1  0  0  0
 26 28  2  0  0  0
 27 48  1  0  0  0
 27 49  1  0  0  0
 28 50  1  0  0  0
M  END
> <s_m_entry_id>
35550

> <s_m_entry_name>
dock_pv.400

> <s_m_Source_Path>
/home/csk/Desktop/cluster/DUD-E-result/thrb

> <s_m_Source_File>
dock_pv.maegz

> <i_m_Source_File_Index>
400

> <chembl_id>
CHEMBL365916

> <chembl_pref_name>
None

> <i_lp_mmshare_version>
53161

> <r_lp_tautomer_probability>
1

> <s_lp_Force_Field>
OPLS_2005

> <r_lp_Energy>
16.509398

> <b_lp_Chiralities_Consistent>
1

> <s_lp_Variant>
CHEMBL204_lig5068-1

> <s_i_glide_gridfile>
glide-grid_1ype

> <i_i_glide_lignum>
6943

> <i_i_glide_rotatable_bonds>
8

> <r_i_docking_score>
-6.86895971183249

> <r_i_glide_ligand_efficiency>
-0.245319989708303

> <r_i_glide_ligand_efficiency_sa>
-0.744935974501458

> <r_i_glide_ligand_efficiency_ln>
-1.58555758291168

> <r_i_glide_gscore>
-6.86895971183249

> <r_i_glide_lipo>
-2.85804906785052

> <r_i_glide_hbond>
-0.410881815478688

> <r_i_glide_metal>
0

> <r_i_glide_rewards>
-1.26268469722057

> <r_i_glide_evdw>
-42.1194267272949

> <r_i_glide_ecoul>
-6.53086853027344

> <r_i_glide_erotb>
0.827490022591296

> <r_i_glide_esite>
-0.0792325379682427

> <r_i_glide_emodel>
-66.4408353943476

> <r_i_glide_energy>
-48.6502952575684

> <r_i_glide_einternal>
5.44025945663452

> <i_i_glide_confnum>
14

> <i_i_glide_posenum>
316

> <r_i_glide_eff_state_penalty>
0

> <s_user_duplicate_titles>
CHEMBL204_lig5068

> <i_f3d_flags>
0

> <s_m_subgroup_title>
dock_pv

> <s_m_subgroupid>
dock_pv

> <b_m_subgroup_collapsed>
1

$$$$
CHEMBL204_lig5088
                    3D
 Schrodinger Suite 2021-1.
 57 60  0  0  1  0            999 V2000
   24.5655  -14.4040   24.7211 N   0  0  0  0  0  0
   23.4572  -13.5069   24.4415 C   0  0  0  0  0  0
   22.1602  -13.9664   25.1091 C   0  0  0  0  0  0
   21.6134  -13.1657   26.1157 C   0  0  0  0  0  0
   20.4066  -13.4978   26.7203 C   0  0  0  0  0  0
   19.7219  -14.6442   26.3205 C   0  0  0  0  0  0
   18.2147  -15.0590   27.0495 Cl  0  0  0  0  0  0
   20.2435  -15.4479   25.3108 C   0  0  0  0  0  0
   21.4417  -15.1029   24.6767 C   0  0  0  0  0  0
   21.8846  -15.9339   23.4685 C   0  0  0  0  0  0
   21.1906  -15.6336   22.2088 N   0  0  0  0  0  0
   20.7670  -14.4239   21.8028 C   0  0  0  0  0  0
   20.7691  -13.4150   22.4992 O   0  0  0  0  0  0
   20.2233  -14.3078   20.3737 C   0  0  2  0  0  0
   20.7587  -13.0535   19.6455 C   0  0  0  0  0  0
   19.5762  -12.5168   18.8647 C   0  0  0  0  0  0
   18.3858  -12.8701   19.7429 C   0  0  0  0  0  0
   18.7502  -14.1563   20.3454 N   0  0  0  0  0  0
   17.9060  -15.1571   20.7216 C   0  0  0  0  0  0
   18.3021  -16.2585   21.1089 O   0  0  0  0  0  0
   16.4878  -14.9447   20.5762 C   0  0  0  0  0  0
   15.6571  -13.8788   20.9478 C   0  0  0  0  0  0
   14.3186  -14.2023   20.6364 C   0  0  0  0  0  0
   14.3595  -15.5082   20.1557 C   0  0  0  0  0  0
   15.6505  -15.9512   20.1671 N   0  0  0  0  0  0
   13.0848  -13.4261   20.8032 C   0  0  0  0  0  0
   12.0163  -13.9804   20.5579 O   0  0  0  0  0  0
   13.0929  -12.0479   21.3786 C   0  0  0  0  0  0
   12.0492  -11.6450   22.2282 C   0  0  0  0  0  0
   12.0146  -10.3389   22.7182 C   0  0  0  0  0  0
   13.0148   -9.4534   22.3208 C   0  0  0  0  0  0
   14.0158   -9.8030   21.4735 N   0  0  0  0  0  0
   14.0433  -11.0811   21.0169 C   0  0  0  0  0  0
   25.3962  -14.1031   24.2239 H   0  0  0  0  0  0
   24.7991  -14.3435   25.7087 H   0  0  0  0  0  0
   23.3083  -13.4494   23.3644 H   0  0  0  0  0  0
   23.7227  -12.5005   24.7681 H   0  0  0  0  0  0
   22.0968  -12.2524   26.4165 H   0  0  0  0  0  0
   20.0002  -12.8580   27.4898 H   0  0  0  0  0  0
   19.6860  -16.3128   24.9835 H   0  0  0  0  0  0
   21.7116  -16.9871   23.6935 H   0  0  0  0  0  0
   22.9581  -15.8653   23.3028 H   0  0  0  0  0  0
   21.1287  -16.3903   21.5436 H   0  0  0  0  0  0
   20.4922  -15.1964   19.8005 H   0  0  0  0  0  0
   21.6088  -13.2749   19.0009 H   0  0  0  0  0  0
   21.0888  -12.2826   20.3433 H   0  0  0  0  0  0
   19.4976  -13.0520   17.9211 H   0  0  0  0  0  0
   19.6559  -11.4550   18.6500 H   0  0  0  0  0  0
   17.4713  -12.9021   19.1507 H   0  0  0  0  0  0
   18.2575  -12.1331   20.5394 H   0  0  0  0  0  0
   15.9997  -12.9603   21.4008 H   0  0  0  0  0  0
   13.5621  -16.1649   19.8304 H   0  0  0  0  0  0
   15.9550  -16.8742   19.8918 H   0  0  0  0  0  0
   11.2672  -12.3364   22.5178 H   0  0  0  0  0  0
   11.2247  -10.0265   23.3858 H   0  0  0  0  0  0
   13.0284   -8.4384   22.6922 H   0  0  0  0  0  0
   14.8351  -11.3031   20.3173 H   0  0  0  0  0  0
  1  2  1  0  0  0
  1 34  1  0  0  0
  1 35  1  0  0  0
  2  3  1  0  0  0
  2 36  1  0  0  0
  2 37  1  0  0  0
  3  4  2  0  0  0
  3  9  1  0  0  0
  4  5  1  0  0  0
  4 38  1  0  0  0
  5  6  2  0  0  0
  5 39  1  0  0  0
  6  7  1  0  0  0
  6  8  1  0  0  0
  8  9  2  0  0  0
  8 40  1  0  0  0
  9 10  1  0  0  0
 10 11  1  0  0  0
 10 41  1  0  0  0
 10 42  1  0  0  0
 11 12  1  0  0  0
 11 43  1  0  0  0
 12 13  2  0  0  0
 12 14  1  0  0  0
 14 15  1  0  0  0
 14 18  1  0  0  0
 14 44  1  0  0  0
 15 16  1  0  0  0
 15 45  1  0  0  0
 15 46  1  0  0  0
 16 17  1  0  0  0
 16 47  1  0  0  0
 16 48  1  0  0  0
 17 18  1  0  0  0
 17 49  1  0  0  0
 17 50  1  0  0  0
 18 19  1  0  0  0
 19 20  2  0  0  0
 19 21  1  0  0  0
 21 22  2  0  0  0
 21 25  1  0  0  0
 22 23  1  0  0  0
 22 51  1  0  0  0
 23 24  2  0  0  0
 23 26  1  0  0  0
 24 25  1  0  0  0
 24 52  1  0  0  0
 25 53  1  0  0  0
 26 27  2  0  0  0
 26 28  1  0  0  0
 28 29  2  0  0  0
 28 33  1  0  0  0
 29 30  1  0  0  0
 29 54  1  0  0  0
 30 31  2  0  0  0
 30 55  1  0  0  0
 31 32  1  0  0  0
 31 56  1  0  0  0
 32 33  2  0  0  0
 33 57  1  0  0  0
M  END
> <s_m_entry_id>
35551

> <s_m_entry_name>
dock_pv.401

> <s_m_Source_Path>
/home/csk/Desktop/cluster/DUD-E-result/thrb

> <s_m_Source_File>
dock_pv.maegz

> <i_m_Source_File_Index>
401

> <chembl_id>
CHEMBL3950043

> <chembl_pref_name>
None

> <i_lp_mmshare_version>
53161

> <r_lp_tautomer_probability>
1

> <s_lp_Force_Field>
OPLS_2005

> <r_lp_Energy>
28.112446

> <b_lp_Chiralities_Consistent>
1

> <s_lp_Variant>
CHEMBL204_lig5088-1

> <s_i_glide_gridfile>
glide-grid_1ype

> <i_i_glide_lignum>
6964

> <i_i_glide_rotatable_bonds>
9

> <r_i_docking_score>
-6.86795797166012

> <r_i_glide_ligand_efficiency>
-0.208119938535155

> <r_i_glide_ligand_efficiency_sa>
-0.667551846830098

> <r_i_glide_ligand_efficiency_ln>
-1.52739829251398

> <r_i_glide_gscore>
-6.86795797166012

> <r_i_glide_lipo>
-3.77905601007568

> <r_i_glide_hbond>
-0.223326476440003

> <r_i_glide_metal>
0

> <r_i_glide_rewards>
-0.863354663143546

> <r_i_glide_evdw>
-48.8670768737793

> <r_i_glide_ecoul>
-1.99538135528564

> <r_i_glide_erotb>
0.743309510038476

> <r_i_glide_esite>
-0.00286928505755148

> <r_i_glide_emodel>
-66.4201220758062

> <r_i_glide_energy>
-50.8624582290649

> <r_i_glide_einternal>
9.77401256561279

> <i_i_glide_confnum>
49

> <i_i_glide_posenum>
283

> <r_i_glide_eff_state_penalty>
0

> <s_user_duplicate_titles>
CHEMBL204_lig5088

> <i_f3d_flags>
0

> <s_m_subgroup_title>
dock_pv

> <s_m_subgroupid>
dock_pv

> <b_m_subgroup_collapsed>
1

$$$$
CHEMBL204_lig2416
                    3D
 Schrodinger Suite 2021-1.
 63 66  0  0  1  0            999 V2000
   18.6344  -12.2539   19.8412 S   0  0  0  0  0  0
   16.0358  -12.9633   19.8168 N   0  0  0  0  0  0
   15.7541  -13.8491   20.8008 C   0  0  0  0  0  0
   17.2518  -13.1211   19.1643 N   0  0  1  0  0  0
   15.0141  -14.9407   20.4347 N   0  0  0  0  0  0
   19.3666  -13.3410   21.0749 C   0  0  0  0  0  0
   11.2238  -10.7831   23.6311 C   0  0  0  0  0  0
   19.6194  -12.1289   18.7592 O   0  0  0  0  0  0
   18.1385  -11.0557   20.5285 O   0  0  0  0  0  0
   15.1660  -11.8191   19.4460 C   0  0  0  0  0  0
   19.2133  -13.0522   22.4298 C   0  0  0  0  0  0
   16.0498  -13.5805   21.9678 O   0  0  0  0  0  0
   12.1428  -10.9841   22.4673 C   0  0  0  0  0  0
   11.2164   -9.7091   24.2888 N   0  0  0  0  0  0
   19.8947  -13.8040   23.4186 C   0  0  0  0  0  0
   15.2016  -15.6229   19.1234 C   0  0  1  0  0  0
   20.1356  -14.4350   20.6854 C   0  0  0  0  0  0
   20.6956  -14.9133   23.0119 C   0  0  0  0  0  0
   20.7843  -15.2236   21.6322 C   0  0  0  0  0  0
   12.0422  -12.1012   21.6169 C   0  0  0  0  0  0
   13.1668  -10.0579   22.1894 C   0  0  0  0  0  0
   10.4162  -11.8530   23.9203 N   0  0  0  0  0  0
   14.0405  -11.4581   20.4266 C   0  0  0  0  0  0
   14.2887  -15.6786   21.4931 C   0  0  0  0  0  0
   12.9564  -12.3174   20.5925 C   0  0  0  0  0  0
   14.1091  -10.2934   21.1888 C   0  0  0  0  0  0
   19.8221  -13.4757   24.7978 C   0  0  0  0  0  0
   16.2230  -16.7743   19.1693 C   0  0  0  0  0  0
   13.8176  -16.0857   18.6039 C   0  0  0  0  0  0
   21.3894  -15.6597   23.9980 C   0  0  0  0  0  0
   12.9101  -16.1100   20.9491 C   0  0  0  0  0  0
   20.5210  -14.2236   25.7401 C   0  0  0  0  0  0
   13.0003  -16.8788   19.6308 C   0  0  0  0  0  0
   21.2981  -15.3074   25.3450 C   0  0  0  0  0  0
   17.1591  -13.0726   18.1461 H   0  0  0  0  0  0
   15.7897  -10.9398   19.2875 H   0  0  0  0  0  0
   14.7168  -12.0404   18.4768 H   0  0  0  0  0  0
   18.6057  -12.2075   22.7224 H   0  0  0  0  0  0
   10.5022   -9.7484   25.0071 H   0  0  0  0  0  0
   15.5623  -14.9127   18.3809 H   0  0  0  0  0  0
   20.2631  -14.6638   19.6391 H   0  0  0  0  0  0
   21.3955  -16.0535   21.3122 H   0  0  0  0  0  0
   11.2600  -12.8355   21.7475 H   0  0  0  0  0  0
   13.2826   -9.1728   22.7991 H   0  0  0  0  0  0
    9.6655  -11.7509   24.6035 H   0  0  0  0  0  0
   10.5632  -12.7750   23.5234 H   0  0  0  0  0  0
   14.0811  -15.0313   22.3432 H   0  0  0  0  0  0
   14.8713  -16.5481   21.7984 H   0  0  0  0  0  0
   12.8639  -13.1977   19.9759 H   0  0  0  0  0  0
   14.9284   -9.6004   21.0606 H   0  0  0  0  0  0
   19.2248  -12.6404   25.1208 H   0  0  0  0  0  0
   16.3771  -17.1979   18.1771 H   0  0  0  0  0  0
   15.8816  -17.5905   19.8061 H   0  0  0  0  0  0
   17.1841  -16.4346   19.5488 H   0  0  0  0  0  0
   13.2410  -15.2017   18.3233 H   0  0  0  0  0  0
   13.9273  -16.6529   17.6779 H   0  0  0  0  0  0
   21.9990  -16.5014   23.6983 H   0  0  0  0  0  0
   12.2635  -15.2409   20.8268 H   0  0  0  0  0  0
   12.4159  -16.7262   21.6968 H   0  0  0  0  0  0
   20.4579  -13.9607   26.7862 H   0  0  0  0  0  0
   12.0016  -17.0806   19.2410 H   0  0  0  0  0  0
   13.4630  -17.8517   19.8015 H   0  0  0  0  0  0
   21.8346  -15.8766   26.0910 H   0  0  0  0  0  0
  1  4  1  0  0  0
  1  6  1  0  0  0
  1  8  2  0  0  0
  1  9  2  0  0  0
  2  4  1  0  0  0
  2  3  1  0  0  0
  2 10  1  0  0  0
  3  5  1  0  0  0
  3 12  2  0  0  0
  4 35  1  0  0  0
  5 16  1  0  0  0
  5 24  1  0  0  0
  6 11  1  0  0  0
  6 17  2  0  0  0
  7 13  1  0  0  0
  7 14  2  0  0  0
  7 22  1  0  0  0
 10 23  1  0  0  0
 10 36  1  0  0  0
 10 37  1  0  0  0
 11 15  2  0  0  0
 11 38  1  0  0  0
 13 21  1  0  0  0
 13 20  2  0  0  0
 14 39  1  0  0  0
 15 27  1  0  0  0
 15 18  1  0  0  0
 16 28  1  0  0  0
 16 29  1  0  0  0
 16 40  1  0  0  0
 17 19  1  0  0  0
 17 41  1  0  0  0
 18 19  2  0  0  0
 18 30  1  0  0  0
 19 42  1  0  0  0
 20 25  1  0  0  0
 20 43  1  0  0  0
 21 26  2  0  0  0
 21 44  1  0  0  0
 22 45  1  0  0  0
 22 46  1  0  0  0
 23 25  2  0  0  0
 23 26  1  0  0  0
 24 31  1  0  0  0
 24 47  1  0  0  0
 24 48  1  0  0  0
 25 49  1  0  0  0
 26 50  1  0  0  0
 27 32  2  0  0  0
 27 51  1  0  0  0
 28 52  1  0  0  0
 28 53  1  0  0  0
 28 54  1  0  0  0
 29 33  1  0  0  0
 29 55  1  0  0  0
 29 56  1  0  0  0
 30 34  2  0  0  0
 30 57  1  0  0  0
 31 33  1  0  0  0
 31 58  1  0  0  0
 31 59  1  0  0  0
 32 34  1  0  0  0
 32 60  1  0  0  0
 33 61  1  0  0  0
 33 62  1  0  0  0
 34 63  1  0  0  0
M  END
> <s_m_entry_id>
35552

> <s_m_entry_name>
dock_pv.402

> <s_m_Source_Path>
/home/csk/Desktop/cluster/DUD-E-result/thrb

> <s_m_Source_File>
dock_pv.maegz

> <i_m_Source_File_Index>
402

> <chembl_id>
CHEMBL39760

> <chembl_pref_name>
None

> <i_lp_mmshare_version>
53161

> <r_lp_tautomer_probability>
1

> <s_lp_Force_Field>
OPLS_2005

> <r_lp_Energy>
47.820139

> <b_lp_Chiralities_Consistent>
1

> <s_lp_Variant>
CHEMBL204_lig2416-2

> <s_i_glide_gridfile>
glide-grid_1ype

> <i_i_glide_lignum>
3547

> <i_i_glide_rotatable_bonds>
8

> <r_i_docking_score>
-6.8649814359231

> <r_i_glide_ligand_efficiency>
-0.201911218703621

> <r_i_glide_ligand_efficiency_sa>
-0.654113966153688

> <r_i_glide_ligand_efficiency_ln>
-1.51666695540238

> <r_i_glide_gscore>
-6.8649814359231

> <r_i_glide_lipo>
-3.13747309044815

> <r_i_glide_hbond>
-0.519135606444815

> <r_i_glide_metal>
0

> <r_i_glide_rewards>
-0.335720513348481

> <r_i_glide_evdw>
-45.5798797607422

> <r_i_glide_ecoul>
-6.59886455535889

> <r_i_glide_erotb>
0.528831476112842

> <r_i_glide_esite>
-0.132660030453558

> <r_i_glide_emodel>
-69.2451914528427

> <r_i_glide_energy>
-52.1787443161011

> <r_i_glide_einternal>
12.0387592315674

> <i_i_glide_confnum>
3

> <i_i_glide_posenum>
230

> <r_i_glide_eff_state_penalty>
0

> <s_user_duplicate_titles>
CHEMBL204_lig2416

> <i_f3d_flags>
0

> <s_m_subgroup_title>
dock_pv

> <s_m_subgroupid>
dock_pv

> <b_m_subgroup_collapsed>
1

$$$$
CHEMBL204_lig4144
                    3D
 Schrodinger Suite 2021-1.
 54 56  0  0  1  0            999 V2000
   17.8948  -13.1069   20.4383 N   0  3  0  0  0  0
   18.6203  -14.2485   20.6208 C   0  0  0  0  0  0
   13.8441  -10.2939   20.9532 C   0  0  0  0  0  0
   16.5275  -13.0891   20.4950 C   0  0  0  0  0  0
   20.1466  -14.1542   20.7605 C   0  0  0  0  0  0
   20.5566  -13.7779   22.1921 C   0  0  0  0  0  0
   18.5248  -12.0258   20.2198 O   0  5  0  0  0  0
   15.8060  -11.8526   20.4047 N   0  0  0  0  0  0
   17.9471  -15.4645   20.8314 C   0  0  0  0  0  0
   22.6655  -15.0041   24.5123 C   0  0  0  0  0  0
   12.8327  -10.1635   22.0974 C   0  0  0  0  0  0
   14.4189  -11.7333   20.8758 C   0  0  0  0  0  0
   21.8661  -13.8530   22.4595 N   0  0  0  0  0  0
   12.0044  -11.2275   22.2977 N   0  0  0  0  0  0
   23.9385  -15.5068   24.8498 C   0  0  0  0  0  0
   22.4681  -13.6748   23.7795 C   0  0  0  0  0  0
   15.8442  -14.2983   20.6937 C   0  0  0  0  0  0
   21.5275  -15.7406   24.8691 C   0  0  0  0  0  0
   19.7231  -13.4528   23.0405 O   0  0  0  0  0  0
   16.5560  -15.4826   20.8492 C   0  0  0  0  0  0
   14.8004   -9.3717   21.1213 F   0  0  0  0  0  0
   13.2136   -9.9913   19.8194 F   0  0  0  0  0  0
   24.0400  -16.7294   25.5246 C   0  0  0  0  0  0
   21.6430  -16.9657   25.5205 C   0  0  0  0  0  0
   18.7929  -16.9466   21.1213 Cl  0  0  0  0  0  0
   22.9005  -17.4586   25.8557 C   0  0  0  0  0  0
   20.2255  -17.8629   25.9266 Cl  0  0  0  0  0  0
   25.6160  -15.0530   23.1214 N   0  0  0  0  0  0
   25.2256  -14.7779   24.4938 C   0  0  0  0  0  0
   11.2160  -11.2264   23.3992 C   0  0  0  0  0  0
   12.8369   -9.0530   22.9530 C   0  0  0  0  0  0
   11.2108  -10.1791   24.3190 C   0  0  0  0  0  0
   12.0160   -9.0670   24.0793 C   0  0  0  0  0  0
   20.5474  -13.4105   20.0706 H   0  0  0  0  0  0
   20.6215  -15.0949   20.4831 H   0  0  0  0  0  0
   16.3395  -11.0088   20.2381 H   0  0  0  0  0  0
   13.7865  -12.3654   20.2498 H   0  0  0  0  0  0
   14.4305  -12.1766   21.8739 H   0  0  0  0  0  0
   22.4762  -14.2040   21.7324 H   0  0  0  0  0  0
   21.8432  -13.0528   24.4242 H   0  0  0  0  0  0
   23.3939  -13.1193   23.6463 H   0  0  0  0  0  0
   14.7655  -14.3433   20.7463 H   0  0  0  0  0  0
   20.5425  -15.3679   24.6299 H   0  0  0  0  0  0
   16.0259  -16.4092   21.0161 H   0  0  0  0  0  0
   25.0110  -17.1249   25.7898 H   0  0  0  0  0  0
   22.9943  -18.4054   26.3685 H   0  0  0  0  0  0
   26.3370  -14.3832   22.8577 H   0  0  0  0  0  0
   26.0706  -15.9558   23.1009 H   0  0  0  0  0  0
   25.1251  -13.7044   24.6574 H   0  0  0  0  0  0
   26.0161  -15.0968   25.1723 H   0  0  0  0  0  0
   10.5668  -12.0816   23.5385 H   0  0  0  0  0  0
   13.5055   -8.2214   22.7872 H   0  0  0  0  0  0
   10.5518  -10.2233   25.1733 H   0  0  0  0  0  0
   12.0152   -8.2347   24.7678 H   0  0  0  0  0  0
  1  2  1  0  0  0
  1  4  2  0  0  0
  1  7  1  0  0  0
  2  5  1  0  0  0
  2  9  2  0  0  0
  3 12  1  0  0  0
  3 11  1  0  0  0
  3 21  1  0  0  0
  3 22  1  0  0  0
  4  8  1  0  0  0
  4 17  1  0  0  0
  5  6  1  0  0  0
  5 34  1  0  0  0
  5 35  1  0  0  0
  6 13  1  0  0  0
  6 19  2  0  0  0
  8 12  1  0  0  0
  8 36  1  0  0  0
  9 25  1  0  0  0
  9 20  1  0  0  0
 10 16  1  0  0  0
 10 15  1  0  0  0
 10 18  2  0  0  0
 11 14  2  0  0  0
 11 31  1  0  0  0
 12 37  1  0  0  0
 12 38  1  0  0  0
 13 16  1  0  0  0
 13 39  1  0  0  0
 14 30  1  0  0  0
 15 23  2  0  0  0
 15 29  1  0  0  0
 16 40  1  0  0  0
 16 41  1  0  0  0
 17 20  2  0  0  0
 17 42  1  0  0  0
 18 24  1  0  0  0
 18 43  1  0  0  0
 20 44  1  0  0  0
 23 26  1  0  0  0
 23 45  1  0  0  0
 24 26  2  0  0  0
 24 27  1  0  0  0
 26 46  1  0  0  0
 28 29  1  0  0  0
 28 47  1  0  0  0
 28 48  1  0  0  0
 29 49  1  0  0  0
 29 50  1  0  0  0
 30 32  2  0  0  0
 30 51  1  0  0  0
 31 33  2  0  0  0
 31 52  1  0  0  0
 32 33  1  0  0  0
 32 53  1  0  0  0
 33 54  1  0  0  0
M  CHG  2   1   1   7  -1
M  END
> <s_m_entry_id>
35553

> <s_m_entry_name>
dock_pv.403

> <s_m_Source_Path>
/home/csk/Desktop/cluster/DUD-E-result/thrb

> <s_m_Source_File>
dock_pv.maegz

> <i_m_Source_File_Index>
403

> <chembl_id>
CHEMBL197418

> <chembl_pref_name>
None

> <i_lp_mmshare_version>
53161

> <r_lp_tautomer_probability>
0.9999999999682

> <s_lp_Force_Field>
OPLS_2005

> <r_lp_Energy>
19.284807

> <b_lp_Chiralities_Consistent>
1

> <s_lp_Variant>
CHEMBL204_lig4144-1

> <s_i_glide_gridfile>
glide-grid_1ype

> <i_i_glide_lignum>
5761

> <i_i_glide_rotatable_bonds>
10

> <r_i_docking_score>
-6.86162880666019

> <r_i_glide_ligand_efficiency>
-0.207928145656369

> <r_i_glide_ligand_efficiency_sa>
-0.666936664587861

> <r_i_glide_ligand_efficiency_ln>
-1.52599071898866

> <r_i_glide_gscore>
-6.86162880666019

> <r_i_glide_lipo>
-2.48823628259786

> <r_i_glide_hbond>
-0.864

> <r_i_glide_metal>
0

> <r_i_glide_rewards>
-0.490836747467708

> <r_i_glide_evdw>
-40.384147644043

> <r_i_glide_ecoul>
-10.8028907775879

> <r_i_glide_erotb>
0.662198559005436

> <r_i_glide_esite>
-0.0411133367597195

> <r_i_glide_emodel>
-70.9942041661688

> <r_i_glide_energy>
-51.1870384216309

> <r_i_glide_einternal>
4.910240650177

> <i_i_glide_confnum>
79

> <i_i_glide_posenum>
340

> <r_i_glide_eff_state_penalty>
0

> <s_user_duplicate_titles>
CHEMBL204_lig4144,325568

> <i_f3d_flags>
0

> <s_m_subgroup_title>
dock_pv

> <s_m_subgroupid>
dock_pv

> <b_m_subgroup_collapsed>
1

$$$$
CHEMBL204_lig4964
                    3D
 Schrodinger Suite 2021-1.
 75 78  0  0  1  0            999 V2000
   11.5183   -9.8265   24.1594 N   0  0  0  0  0  0
   12.4148   -8.9070   23.7353 C   0  0  0  0  0  0
   13.2098   -9.0783   22.6066 C   0  0  0  0  0  0
   11.3905  -10.9693   23.4491 C   0  0  0  0  0  0
   12.1412  -11.2600   22.2809 C   0  0  0  0  0  0
   13.0689  -10.2655   21.8457 C   0  0  0  0  0  0
   13.8090  -10.4894   20.6616 C   0  0  0  0  0  0
   13.6148  -11.6536   19.9213 C   0  0  0  0  0  0
   12.7275  -12.6315   20.3542 C   0  0  0  0  0  0
   12.0064  -12.4559   21.5262 C   0  0  0  0  0  0
   10.4262  -11.8530   23.9210 N   0  0  0  0  0  0
   14.2727  -11.8232   18.7020 N   0  0  0  0  0  0
   15.2416  -12.8776   18.4373 C   0  0  2  0  0  0
   16.5757  -12.7318   19.2299 C   0  0  0  0  0  0
   16.6693  -11.8574   20.2522 N   0  0  0  0  0  0
   17.5105  -13.4529   18.8845 O   0  0  0  0  0  0
   15.5545  -13.0111   16.9648 C   0  0  0  0  0  0
   15.9670  -11.9105   16.2082 C   0  0  0  0  0  0
   16.4164  -12.0699   14.8891 C   0  0  0  0  0  0
   16.4723  -13.3529   14.3218 C   0  0  0  0  0  0
   16.0157  -14.4461   15.0731 C   0  0  0  0  0  0
   15.5570  -14.2753   16.3731 C   0  0  0  0  0  0
   16.8686  -11.0120   14.1211 O   0  0  0  0  0  0
   16.4802   -9.6758   14.4314 C   0  0  0  0  0  0
   14.9595   -9.4550   14.3208 C   0  0  0  0  0  0
   17.0002  -13.4385   13.0422 O   0  0  0  0  0  0
   17.1940  -14.6720   12.3411 C   0  0  0  0  0  0
   15.8811  -15.3686   11.9334 C   0  0  0  0  0  0
   18.2500  -15.5931   12.9866 C   0  0  0  0  0  0
   17.8912  -11.5064   20.9906 C   0  0  0  0  0  0
   18.8641  -12.6524   21.2614 C   0  0  0  0  0  0
   18.6785  -13.5390   22.3299 C   0  0  0  0  0  0
   19.5717  -14.6033   22.5353 C   0  0  0  0  0  0
   20.6341  -14.7739   21.6445 C   0  0  0  0  0  0
   20.8160  -13.8924   20.5839 C   0  0  0  0  0  0
   19.9591  -12.8164   20.4103 C   0  0  0  0  0  0
   19.4773  -15.5237   23.5898 N   0  0  0  0  0  0
   18.1270  -15.6690   24.7142 S   0  0  0  0  0  0
   16.8160  -16.2527   23.7328 N   0  0  0  0  0  0
   18.4784  -16.7335   25.6580 O   0  0  0  0  0  0
   17.7846  -14.3187   25.1646 O   0  0  0  0  0  0
   12.5041   -8.0187   24.3427 H   0  0  0  0  0  0
   13.9254   -8.3238   22.3187 H   0  0  0  0  0  0
   14.4976   -9.7305   20.3227 H   0  0  0  0  0  0
   12.5801  -13.5328   19.7769 H   0  0  0  0  0  0
   11.3072  -13.2170   21.8423 H   0  0  0  0  0  0
   10.4167  -12.8233   23.6208 H   0  0  0  0  0  0
    9.7506  -11.5329   24.6155 H   0  0  0  0  0  0
   13.5399  -11.9499   18.0212 H   0  0  0  0  0  0
   14.7956  -13.8130   18.7810 H   0  0  0  0  0  0
   15.8483  -11.2980   20.4348 H   0  0  0  0  0  0
   15.9819  -10.9402   16.6816 H   0  0  0  0  0  0
   16.0259  -15.4518   14.6917 H   0  0  0  0  0  0
   15.2533  -15.1435   16.9383 H   0  0  0  0  0  0
   16.8628   -9.3630   15.4046 H   0  0  0  0  0  0
   16.9902   -9.0526   13.6981 H   0  0  0  0  0  0
   14.7202   -8.3926   14.3212 H   0  0  0  0  0  0
   14.5778   -9.8685   13.3864 H   0  0  0  0  0  0
   14.4151   -9.9242   15.1370 H   0  0  0  0  0  0
   17.6431  -14.3468   11.4020 H   0  0  0  0  0  0
   16.0777  -16.2593   11.3392 H   0  0  0  0  0  0
   15.2583  -15.6783   12.7668 H   0  0  0  0  0  0
   15.2693  -14.6985   11.3295 H   0  0  0  0  0  0
   18.4281  -16.4726   12.3671 H   0  0  0  0  0  0
   19.2041  -15.0730   13.0859 H   0  0  0  0  0  0
   17.9758  -15.9506   13.9767 H   0  0  0  0  0  0
   17.6043  -11.0538   21.9348 H   0  0  0  0  0  0
   18.4018  -10.7030   20.4567 H   0  0  0  0  0  0
   17.8225  -13.3991   22.9689 H   0  0  0  0  0  0
   21.3271  -15.5957   21.7638 H   0  0  0  0  0  0
   21.6160  -14.0460   19.8826 H   0  0  0  0  0  0
   20.1099  -12.1454   19.5781 H   0  0  0  0  0  0
   20.1887  -16.2331   23.6610 H   0  0  0  0  0  0
   16.6223  -17.2443   23.8754 H   0  0  0  0  0  0
   15.9717  -15.6781   23.8664 H   0  0  0  0  0  0
  1  2  2  0  0  0
  1  4  1  0  0  0
  2  3  1  0  0  0
  2 42  1  0  0  0
  3  6  2  0  0  0
  3 43  1  0  0  0
  4  5  2  0  0  0
  4 11  1  0  0  0
  5  6  1  0  0  0
  5 10  1  0  0  0
  6  7  1  0  0  0
  7  8  2  0  0  0
  7 44  1  0  0  0
  8  9  1  0  0  0
  8 12  1  0  0  0
  9 10  2  0  0  0
  9 45  1  0  0  0
 10 46  1  0  0  0
 11 47  1  0  0  0
 11 48  1  0  0  0
 12 13  1  0  0  0
 12 49  1  0  0  0
 13 14  1  0  0  0
 13 17  1  0  0  0
 13 50  1  0  0  0
 14 15  1  0  0  0
 14 16  2  0  0  0
 15 30  1  0  0  0
 15 51  1  0  0  0
 17 18  2  0  0  0
 17 22  1  0  0  0
 18 19  1  0  0  0
 18 52  1  0  0  0
 19 20  2  0  0  0
 19 23  1  0  0  0
 20 21  1  0  0  0
 20 26  1  0  0  0
 21 22  2  0  0  0
 21 53  1  0  0  0
 22 54  1  0  0  0
 23 24  1  0  0  0
 24 25  1  0  0  0
 24 55  1  0  0  0
 24 56  1  0  0  0
 25 57  1  0  0  0
 25 58  1  0  0  0
 25 59  1  0  0  0
 26 27  1  0  0  0
 27 28  1  0  0  0
 27 29  1  0  0  0
 27 60  1  0  0  0
 28 61  1  0  0  0
 28 62  1  0  0  0
 28 63  1  0  0  0
 29 64  1  0  0  0
 29 65  1  0  0  0
 29 66  1  0  0  0
 30 31  1  0  0  0
 30 67  1  0  0  0
 30 68  1  0  0  0
 31 32  2  0  0  0
 31 36  1  0  0  0
 32 33  1  0  0  0
 32 69  1  0  0  0
 33 34  2  0  0  0
 33 37  1  0  0  0
 34 35  1  0  0  0
 34 70  1  0  0  0
 35 36  2  0  0  0
 35 71  1  0  0  0
 36 72  1  0  0  0
 37 38  1  0  0  0
 37 73  1  0  0  0
 38 39  1  0  0  0
 38 40  2  0  0  0
 38 41  2  0  0  0
 39 74  1  0  0  0
 39 75  1  0  0  0
M  END
> <s_m_entry_id>
35554

> <s_m_entry_name>
dock_pv.404

> <s_m_Source_Path>
/home/csk/Desktop/cluster/DUD-E-result/thrb

> <s_m_Source_File>
dock_pv.maegz

> <i_m_Source_File_Index>
404

> <chembl_id>
CHEMBL3114853

> <chembl_pref_name>
None

> <i_lp_mmshare_version>
53161

> <r_lp_tautomer_probability>
1

> <s_lp_Force_Field>
OPLS_2005

> <r_lp_Energy>
23.272191

> <b_lp_Chiralities_Consistent>
1

> <s_lp_Variant>
CHEMBL204_lig4964-1

> <s_i_glide_gridfile>
glide-grid_1ype

> <i_i_glide_lignum>
6767

> <i_i_glide_rotatable_bonds>
13

> <r_i_docking_score>
-6.86077258711999

> <r_i_glide_ligand_efficiency>
-0.167335916759024

> <r_i_glide_ligand_efficiency_sa>
-0.57701059238946

> <r_i_glide_ligand_efficiency_ln>
-1.45553573596192

> <r_i_glide_gscore>
-6.86077258711999

> <r_i_glide_lipo>
-3.02284038948751

> <r_i_glide_hbond>
-0.719143180170578

> <r_i_glide_metal>
0

> <r_i_glide_rewards>
0.83299962007967

> <r_i_glide_evdw>
-54.4674072265625

> <r_i_glide_ecoul>
-10.9050035476685

> <r_i_glide_erotb>
0.525649498294944

> <r_i_glide_esite>
-0.118317242358123

> <r_i_glide_emodel>
-82.036179306532

> <r_i_glide_energy>
-65.372410774231

> <r_i_glide_einternal>
12.2265758514404

> <i_i_glide_confnum>
31

> <i_i_glide_posenum>
217

> <r_i_glide_eff_state_penalty>
0

> <s_user_duplicate_titles>
CHEMBL204_lig4964

> <i_f3d_flags>
0

> <s_m_subgroup_title>
dock_pv

> <s_m_subgroupid>
dock_pv

> <b_m_subgroup_collapsed>
1

$$$$
CHEMBL204_lig4738
                    3D
 Schrodinger Suite 2021-1.
 51 53  0  0  1  0            999 V2000
   21.2643  -15.1581   24.5585 C   0  0  0  0  0  0
   20.1379  -15.4977   25.3133 C   0  0  0  0  0  0
   19.6563  -14.6409   26.2949 C   0  0  0  0  0  0
   20.3417  -13.4610   26.5851 C   0  0  0  0  0  0
   21.4922  -13.1348   25.8706 C   0  0  0  0  0  0
   21.9527  -13.9674   24.8474 C   0  0  0  0  0  0
   23.3508  -13.4830   23.9486 Cl  0  0  0  0  0  0
   21.6933  -16.1023   23.4377 C   0  0  0  0  0  0
   21.1198  -15.7418   22.1401 N   0  0  0  0  0  0
   18.2013  -15.0553   27.1205 Cl  0  0  0  0  0  0
   19.8071  -15.7799   21.8438 C   0  0  0  0  0  0
   19.3879  -15.2732   20.4629 C   0  0  0  0  0  0
   18.9074  -13.8686   20.5184 N   0  0  0  0  0  0
   18.9511  -16.2238   22.6060 O   0  0  0  0  0  0
   19.7386  -12.7644   20.3011 C   0  0  0  0  0  0
   19.2293  -11.5089   20.3210 C   0  0  0  0  0  0
   17.9112  -11.2456   20.5406 N   0  0  0  0  0  0
   17.1199  -12.2438   20.7426 C   0  0  0  0  0  0
   17.5465  -13.6849   20.7610 C   0  0  0  0  0  0
   15.7592  -11.9843   20.9050 N   0  0  0  0  0  0
   15.1611  -10.6611   20.7173 C   0  0  0  0  0  0
   13.6513  -10.6819   20.4438 C   0  0  0  0  0  0
   12.8060  -10.6795   21.7000 C   0  0  0  0  0  0
   12.0312  -11.7847   22.0550 C   0  0  0  0  0  0
   11.2159  -11.6797   23.1819 C   0  0  0  0  0  0
   11.2159  -10.5053   23.9331 C   0  0  0  0  0  0
   12.0290   -9.4534   23.5198 C   0  0  0  0  0  0
   12.8161   -9.5223   22.4166 N   0  0  0  0  0  0
   21.2145  -13.0017   20.0284 C   0  0  0  0  0  0
   16.7505  -14.6145   20.9433 O   0  0  0  0  0  0
   19.5957  -16.4081   25.1009 H   0  0  0  0  0  0
   19.9839  -12.7960   27.3572 H   0  0  0  0  0  0
   22.0138  -12.2203   26.1000 H   0  0  0  0  0  0
   22.7805  -16.1084   23.3544 H   0  0  0  0  0  0
   21.4221  -17.1313   23.6852 H   0  0  0  0  0  0
   21.7768  -15.4291   21.4369 H   0  0  0  0  0  0
   20.2201  -15.3657   19.7693 H   0  0  0  0  0  0
   18.6405  -15.9506   20.0492 H   0  0  0  0  0  0
   19.8709  -10.6533   20.1716 H   0  0  0  0  0  0
   15.1470  -12.7407   21.1828 H   0  0  0  0  0  0
   15.4089   -9.9676   21.5208 H   0  0  0  0  0  0
   15.6423  -10.2541   19.8337 H   0  0  0  0  0  0
   13.3748   -9.7821   19.8960 H   0  0  0  0  0  0
   13.3847  -11.5120   19.7879 H   0  0  0  0  0  0
   12.0281  -12.6883   21.4638 H   0  0  0  0  0  0
   10.5675  -12.4924   23.4684 H   0  0  0  0  0  0
   10.5771  -10.4125   24.8007 H   0  0  0  0  0  0
   12.0547   -8.5281   24.0765 H   0  0  0  0  0  0
   21.7476  -12.0662   19.8499 H   0  0  0  0  0  0
   21.6900  -13.4777   20.8838 H   0  0  0  0  0  0
   21.3498  -13.6207   19.1417 H   0  0  0  0  0  0
  1  8  1  0  0  0
  1  6  1  0  0  0
  1  2  2  0  0  0
  2  3  1  0  0  0
  2 31  1  0  0  0
  3  4  2  0  0  0
  3 10  1  0  0  0
  4  5  1  0  0  0
  4 32  1  0  0  0
  5  6  2  0  0  0
  5 33  1  0  0  0
  6  7  1  0  0  0
  8  9  1  0  0  0
  8 34  1  0  0  0
  8 35  1  0  0  0
  9 11  1  0  0  0
  9 36  1  0  0  0
 11 12  1  0  0  0
 11 14  2  0  0  0
 12 13  1  0  0  0
 12 37  1  0  0  0
 12 38  1  0  0  0
 13 19  1  0  0  0
 13 15  1  0  0  0
 15 16  2  0  0  0
 15 29  1  0  0  0
 16 17  1  0  0  0
 16 39  1  0  0  0
 17 18  2  0  0  0
 18 19  1  0  0  0
 18 20  1  0  0  0
 19 30  2  0  0  0
 20 21  1  0  0  0
 20 40  1  0  0  0
 21 22  1  0  0  0
 21 41  1  0  0  0
 21 42  1  0  0  0
 22 23  1  0  0  0
 22 43  1  0  0  0
 22 44  1  0  0  0
 23 24  2  0  0  0
 23 28  1  0  0  0
 24 25  1  0  0  0
 24 45  1  0  0  0
 25 26  2  0  0  0
 25 46  1  0  0  0
 26 27  1  0  0  0
 26 47  1  0  0  0
 27 28  2  0  0  0
 27 48  1  0  0  0
 29 49  1  0  0  0
 29 50  1  0  0  0
 29 51  1  0  0  0
M  END
> <s_m_entry_id>
35555

> <s_m_entry_name>
dock_pv.405

> <s_m_Source_Path>
/home/csk/Desktop/cluster/DUD-E-result/thrb

> <s_m_Source_File>
dock_pv.maegz

> <i_m_Source_File_Index>
405

> <chembl_id>
CHEMBL1682693

> <chembl_pref_name>
None

> <i_lp_mmshare_version>
53161

> <r_lp_tautomer_probability>
1

> <s_lp_Force_Field>
OPLS_2005

> <r_lp_Energy>
18.920347

> <b_lp_Chiralities_Consistent>
1

> <s_lp_Variant>
CHEMBL204_lig4738-1

> <s_i_glide_gridfile>
glide-grid_1ype

> <i_i_glide_lignum>
6480

> <i_i_glide_rotatable_bonds>
9

> <r_i_docking_score>
-6.85925257770748

> <r_i_glide_ligand_efficiency>
-0.228641752590249

> <r_i_glide_ligand_efficiency_sa>
-0.710443085061231

> <r_i_glide_ligand_efficiency_ln>
-1.55849692319798

> <r_i_glide_gscore>
-6.85925257770748

> <r_i_glide_lipo>
-3.88015016200868

> <r_i_glide_hbond>
-0.227213113102574

> <r_i_glide_metal>
0

> <r_i_glide_rewards>
-0.701406298034784

> <r_i_glide_evdw>
-46.3600425720215

> <r_i_glide_ecoul>
-2.87569212913513

> <r_i_glide_erotb>
0.703322509275477

> <r_i_glide_esite>
-0.00444956586557433

> <r_i_glide_emodel>
-67.0327058261744

> <r_i_glide_energy>
-49.2357347011566

> <r_i_glide_einternal>
8.20835399627686

> <i_i_glide_confnum>
58

> <i_i_glide_posenum>
53

> <r_i_glide_eff_state_penalty>
0

> <s_user_duplicate_titles>
CHEMBL204_lig4738

> <i_f3d_flags>
0

> <s_m_subgroup_title>
dock_pv

> <s_m_subgroupid>
dock_pv

> <b_m_subgroup_collapsed>
1

$$$$
CHEMBL204_lig4564
                    3D
 Schrodinger Suite 2021-1.
 60 63  0  0  1  0            999 V2000
   11.8461   -9.8946   23.5713 C   0  0  0  0  0  0
   12.7528   -9.2340   22.7449 C   0  0  0  0  0  0
   13.1728   -9.8343   21.5627 C   0  0  0  0  0  0
   12.6899  -11.0977   21.2137 C   0  0  0  0  0  0
   11.8051  -11.7696   22.0612 C   0  0  0  0  0  0
   11.3758  -11.1623   23.2357 C   0  0  0  0  0  0
   13.1329  -11.7401   19.9121 C   0  0  0  0  0  0
   14.6101  -12.8928   20.1144 S   0  0  0  0  0  0
   15.7988  -11.9145   20.9933 N   0  0  0  0  0  0
   15.1538  -13.1292   18.7724 O   0  0  0  0  0  0
   14.1956  -14.0235   20.9515 O   0  0  0  0  0  0
   17.1641  -12.3048   20.9995 C   0  0  0  0  0  0
   17.5376  -13.5358   21.7261 C   0  0  0  0  0  0
   18.8876  -13.8772   21.7066 N   0  0  0  0  0  0
   19.8058  -13.1309   20.9593 C   0  0  0  0  0  0
   19.4651  -11.9926   20.3196 C   0  0  0  0  0  0
   18.0916  -11.5528   20.3732 C   0  0  0  0  0  0
   16.6897  -14.2016   22.3189 O   0  0  0  0  0  0
   21.2153  -13.6864   20.7992 C   0  0  0  0  0  0
   19.2514  -15.0939   22.4889 C   0  0  0  0  0  0
   19.0602  -14.9719   24.0051 C   0  0  0  0  0  0
   18.1630  -15.6201   24.8638 C   0  0  0  0  0  0
   18.3124  -15.2265   26.1173 N   0  0  0  0  0  0
   19.3083  -14.3845   26.0951 C   0  0  0  0  0  0
   19.8321  -14.1926   24.8454 N   0  0  0  0  0  0
   17.1184  -16.6629   24.5269 C   0  0  0  0  0  0
   21.0015  -13.3765   24.5310 C   0  0  0  0  0  0
   22.3017  -14.1865   24.4209 C   0  0  0  0  0  0
   23.4454  -13.4776   24.4196 N   0  0  0  0  0  0
   22.2616  -15.4127   24.3131 O   0  0  0  0  0  0
   24.8324  -13.9695   24.3684 C   0  0  0  0  0  0
   25.2207  -15.2280   25.1208 C   0  0  0  0  0  0
   25.2120  -15.2306   23.6134 C   0  0  0  0  0  0
   11.5091   -9.4300   24.4876 H   0  0  0  0  0  0
   13.1240   -8.2591   23.0263 H   0  0  0  0  0  0
   13.8705   -9.3127   20.9240 H   0  0  0  0  0  0
   11.4360  -12.7537   21.8082 H   0  0  0  0  0  0
   10.6712  -11.6691   23.8838 H   0  0  0  0  0  0
   13.4054  -10.9887   19.1743 H   0  0  0  0  0  0
   12.3308  -12.3369   19.4858 H   0  0  0  0  0  0
   15.7606  -10.9533   20.6502 H   0  0  0  0  0  0
   20.1851  -11.4540   19.7215 H   0  0  0  0  0  0
   17.8018  -10.6497   19.8625 H   0  0  0  0  0  0
   21.8298  -13.0295   20.1768 H   0  0  0  0  0  0
   21.7286  -13.7909   21.7538 H   0  0  0  0  0  0
   21.1958  -14.6624   20.3061 H   0  0  0  0  0  0
   20.2729  -15.4116   22.2832 H   0  0  0  0  0  0
   18.6397  -15.9184   22.1173 H   0  0  0  0  0  0
   19.7331  -13.8768   26.9489 H   0  0  0  0  0  0
   17.5559  -17.4942   23.9723 H   0  0  0  0  0  0
   16.6478  -17.0848   25.4158 H   0  0  0  0  0  0
   16.3235  -16.2505   23.9095 H   0  0  0  0  0  0
   21.1108  -12.6331   25.3212 H   0  0  0  0  0  0
   20.8102  -12.8325   23.6092 H   0  0  0  0  0  0
   23.3576  -12.4746   24.4857 H   0  0  0  0  0  0
   25.5622  -13.1572   24.3415 H   0  0  0  0  0  0
   24.4519  -15.7728   25.6673 H   0  0  0  0  0  0
   26.1721  -15.2616   25.6461 H   0  0  0  0  0  0
   26.1626  -15.2400   23.0810 H   0  0  0  0  0  0
   24.4556  -15.8382   23.1208 H   0  0  0  0  0  0
  1  6  1  0  0  0
  1  2  2  0  0  0
  1 34  1  0  0  0
  2  3  1  0  0  0
  2 35  1  0  0  0
  3  4  2  0  0  0
  3 36  1  0  0  0
  4  5  1  0  0  0
  4  7  1  0  0  0
  5  6  2  0  0  0
  5 37  1  0  0  0
  6 38  1  0  0  0
  7  8  1  0  0  0
  7 39  1  0  0  0
  7 40  1  0  0  0
  8  9  1  0  0  0
  8 10  2  0  0  0
  8 11  2  0  0  0
  9 12  1  0  0  0
  9 41  1  0  0  0
 12 17  2  0  0  0
 12 13  1  0  0  0
 13 18  2  0  0  0
 13 14  1  0  0  0
 14 20  1  0  0  0
 14 15  1  0  0  0
 15 19  1  0  0  0
 15 16  2  0  0  0
 16 17  1  0  0  0
 16 42  1  0  0  0
 17 43  1  0  0  0
 19 44  1  0  0  0
 19 45  1  0  0  0
 19 46  1  0  0  0
 20 21  1  0  0  0
 20 47  1  0  0  0
 20 48  1  0  0  0
 21 22  2  0  0  0
 21 25  1  0  0  0
 22 23  1  0  0  0
 22 26  1  0  0  0
 23 24  2  0  0  0
 24 25  1  0  0  0
 24 49  1  0  0  0
 25 27  1  0  0  0
 26 50  1  0  0  0
 26 51  1  0  0  0
 26 52  1  0  0  0
 27 28  1  0  0  0
 27 53  1  0  0  0
 27 54  1  0  0  0
 28 29  1  0  0  0
 28 30  2  0  0  0
 29 31  1  0  0  0
 29 55  1  0  0  0
 31 32  1  0  0  0
 31 33  1  0  0  0
 31 56  1  0  0  0
 32 33  1  0  0  0
 32 57  1  0  0  0
 32 58  1  0  0  0
 33 59  1  0  0  0
 33 60  1  0  0  0
M  END
> <s_m_entry_id>
35556

> <s_m_entry_name>
dock_pv.406

> <s_m_Source_Path>
/home/csk/Desktop/cluster/DUD-E-result/thrb

> <s_m_Source_File>
dock_pv.maegz

> <i_m_Source_File_Index>
406

> <chembl_id>
CHEMBL256450

> <chembl_pref_name>
None

> <i_lp_mmshare_version>
53161

> <r_lp_tautomer_probability>
1

> <s_lp_Force_Field>
OPLS_2005

> <r_lp_Energy>
32.926669

> <b_lp_Chiralities_Consistent>
1

> <s_lp_Variant>
CHEMBL204_lig4564-1

> <s_i_glide_gridfile>
glide-grid_1ype

> <i_i_glide_lignum>
6234

> <i_i_glide_rotatable_bonds>
10

> <r_i_docking_score>
-6.85887392390458

> <r_i_glide_ligand_efficiency>
-0.207844664360745

> <r_i_glide_ligand_efficiency_sa>
-0.666668895466545

> <r_i_glide_ligand_efficiency_ln>
-1.52537804732784

> <r_i_glide_gscore>
-6.85887392390458

> <r_i_glide_lipo>
-3.37761862080964

> <r_i_glide_hbond>
0

> <r_i_glide_metal>
0

> <r_i_glide_rewards>
-1.36940921677131

> <r_i_glide_evdw>
-54.7228851318359

> <r_i_glide_ecoul>
-0.723841845989227

> <r_i_glide_erotb>
0.732874447166545

> <r_i_glide_esite>
0

> <r_i_glide_emodel>
-71.4236698722346

> <r_i_glide_energy>
-55.4467269778252

> <r_i_glide_einternal>
10.7158470153809

> <i_i_glide_confnum>
56

> <i_i_glide_posenum>
398

> <r_i_glide_eff_state_penalty>
0

> <s_user_duplicate_titles>
CHEMBL204_lig4564

> <i_f3d_flags>
0

> <s_m_subgroup_title>
dock_pv

> <s_m_subgroupid>
dock_pv

> <b_m_subgroup_collapsed>
1

$$$$
CHEMBL204_lig4351
                    3D
 Schrodinger Suite 2021-1.
 75 78  0  0  1  0            999 V2000
   13.4988  -15.1072   20.5776 N   0  0  0  0  0  0
   13.9369  -16.1777   21.4995 C   0  0  1  0  0  0
   13.0772  -17.3876   21.0707 C   0  0  0  0  0  0
   11.8639  -16.7803   20.3796 C   0  0  0  0  0  0
   12.4576  -15.5793   19.6640 C   0  0  0  0  0  0
   16.2229  -15.7405   22.3210 N   0  0  0  0  0  0
   17.6809  -15.8595   22.4665 C   0  0  0  0  0  0
   18.5408  -14.7234   21.8830 C   0  0  0  0  0  0
   17.9491  -13.5318   21.4352 C   0  0  0  0  0  0
   18.7110  -12.5137   20.8639 C   0  0  0  0  0  0
   20.0839  -12.6739   20.7211 C   0  0  0  0  0  0
   20.6954  -13.8333   21.1887 C   0  0  0  0  0  0
   19.9419  -14.8634   21.7662 C   0  0  0  0  0  0
   20.6894  -16.0956   22.2728 C   0  0  0  0  0  0
   21.2160  -16.8773   21.1691 N   0  0  0  0  0  0
   17.9584  -11.0532   20.3358 Cl  0  0  0  0  0  0
   15.4632  -16.4563   21.4735 C   0  0  0  0  0  0
   15.9222  -17.3089   20.7137 O   0  0  0  0  0  0
   13.9178  -13.8250   20.6763 C   0  0  0  0  0  0
   15.7452  -11.0530   13.6375 C   0  0  0  0  0  0
   16.3425  -10.0311   14.3676 C   0  0  0  0  0  0
   16.8114  -10.2601   15.6574 C   0  0  0  0  0  0
   16.6787  -11.5242   16.2259 C   0  0  0  0  0  0
   16.0602  -12.5578   15.5097 C   0  0  0  0  0  0
   15.6160  -12.3171   14.2054 C   0  0  0  0  0  0
   15.9208  -13.9760   16.0688 C   0  0  0  0  0  0
   15.6024  -14.1597   17.9283 S   0  0  0  0  0  0
   15.3722  -15.5808   18.1916 O   0  0  0  0  0  0
   16.6447  -13.4522   18.6714 O   0  0  0  0  0  0
   14.0787  -13.3108   18.1923 N   0  0  1  0  0  0
   13.6319  -12.8068   19.5325 C   0  0  2  0  0  0
   14.4927  -13.4313   21.6916 O   0  0  0  0  0  0
   14.2171  -11.3868   19.8027 C   0  0  0  0  0  0
   13.2282  -10.3089   20.3230 C   0  0  0  0  0  0
   12.5916  -10.5115   21.7099 C   0  0  0  0  0  0
   12.7630   -9.5816   22.6958 N   0  3  0  0  0  0
   12.0740   -9.6019   23.8579 C   0  0  0  0  0  0
   11.2065  -10.6516   24.1314 C   0  0  0  0  0  0
   11.0437  -11.6502   23.1786 C   0  0  0  0  0  0
   11.7112  -11.5727   21.9590 C   0  0  0  0  0  0
   13.6036   -8.6530   22.5554 O   0  5  0  0  0  0
   13.6423  -15.8778   22.5071 H   0  0  0  0  0  0
   12.8132  -18.0300   21.9102 H   0  0  0  0  0  0
   13.6002  -18.0122   20.3445 H   0  0  0  0  0  0
   11.1476  -16.4268   21.1204 H   0  0  0  0  0  0
   11.3482  -17.4720   19.7123 H   0  0  0  0  0  0
   11.6869  -14.8369   19.4550 H   0  0  0  0  0  0
   12.9030  -15.8822   18.7164 H   0  0  0  0  0  0
   15.7567  -15.0563   22.9102 H   0  0  0  0  0  0
   17.8979  -15.9384   23.5321 H   0  0  0  0  0  0
   18.0196  -16.7931   22.0119 H   0  0  0  0  0  0
   16.8866  -13.3835   21.5152 H   0  0  0  0  0  0
   20.6799  -11.8898   20.2785 H   0  0  0  0  0  0
   21.7664  -13.9276   21.1042 H   0  0  0  0  0  0
   21.5168  -15.7768   22.9088 H   0  0  0  0  0  0
   20.0618  -16.7318   22.8949 H   0  0  0  0  0  0
   20.4963  -17.0239   20.4776 H   0  0  0  0  0  0
   21.9714  -16.3719   20.7205 H   0  0  0  0  0  0
   15.3880  -10.8656   12.6348 H   0  0  0  0  0  0
   16.4417   -9.0528   13.9216 H   0  0  0  0  0  0
   17.2708   -9.4578   16.2147 H   0  0  0  0  0  0
   17.0667  -11.6733   17.2191 H   0  0  0  0  0  0
   15.1649  -13.1113   13.6254 H   0  0  0  0  0  0
   15.0921  -14.4953   15.5848 H   0  0  0  0  0  0
   16.8160  -14.5504   15.8490 H   0  0  0  0  0  0
   13.8319  -12.6776   17.4287 H   0  0  0  0  0  0
   12.5518  -12.7200   19.4379 H   0  0  0  0  0  0
   15.0856  -11.4178   20.4621 H   0  0  0  0  0  0
   14.6400  -11.0280   18.8660 H   0  0  0  0  0  0
   13.7508   -9.3528   20.3168 H   0  0  0  0  0  0
   12.4161  -10.1871   19.6068 H   0  0  0  0  0  0
   12.2787   -8.7957   24.5475 H   0  0  0  0  0  0
   10.6401  -10.6837   25.0536 H   0  0  0  0  0  0
   10.3334  -12.4414   23.3633 H   0  0  0  0  0  0
   11.4958  -12.3283   21.2247 H   0  0  0  0  0  0
  1  5  1  0  0  0
  1  2  1  0  0  0
  1 19  1  0  0  0
  2  3  1  0  0  0
  2 17  1  0  0  0
  2 42  1  0  0  0
  3  4  1  0  0  0
  3 43  1  0  0  0
  3 44  1  0  0  0
  4  5  1  0  0  0
  4 45  1  0  0  0
  4 46  1  0  0  0
  5 47  1  0  0  0
  5 48  1  0  0  0
  6  7  1  0  0  0
  6 17  1  0  0  0
  6 49  1  0  0  0
  7  8  1  0  0  0
  7 50  1  0  0  0
  7 51  1  0  0  0
  8 13  1  0  0  0
  8  9  2  0  0  0
  9 10  1  0  0  0
  9 52  1  0  0  0
 10 11  2  0  0  0
 10 16  1  0  0  0
 11 12  1  0  0  0
 11 53  1  0  0  0
 12 13  2  0  0  0
 12 54  1  0  0  0
 13 14  1  0  0  0
 14 15  1  0  0  0
 14 55  1  0  0  0
 14 56  1  0  0  0
 15 57  1  0  0  0
 15 58  1  0  0  0
 17 18  2  0  0  0
 19 31  1  0  0  0
 19 32  2  0  0  0
 20 21  2  0  0  0
 20 25  1  0  0  0
 20 59  1  0  0  0
 21 22  1  0  0  0
 21 60  1  0  0  0
 22 23  2  0  0  0
 22 61  1  0  0  0
 23 24  1  0  0  0
 23 62  1  0  0  0
 24 25  2  0  0  0
 24 26  1  0  0  0
 25 63  1  0  0  0
 26 27  1  0  0  0
 26 64  1  0  0  0
 26 65  1  0  0  0
 27 28  2  0  0  0
 27 29  2  0  0  0
 27 30  1  0  0  0
 30 31  1  0  0  0
 30 66  1  0  0  0
 31 33  1  0  0  0
 31 67  1  0  0  0
 33 34  1  0  0  0
 33 68  1  0  0  0
 33 69  1  0  0  0
 34 35  1  0  0  0
 34 70  1  0  0  0
 34 71  1  0  0  0
 35 36  2  0  0  0
 35 40  1  0  0  0
 36 37  1  0  0  0
 36 41  1  0  0  0
 37 38  2  0  0  0
 37 72  1  0  0  0
 38 39  1  0  0  0
 38 73  1  0  0  0
 39 40  2  0  0  0
 39 74  1  0  0  0
 40 75  1  0  0  0
M  CHG  2  36   1  41  -1
M  END
> <s_m_entry_id>
35557

> <s_m_entry_name>
dock_pv.407

> <s_m_Source_Path>
/home/csk/Desktop/cluster/DUD-E-result/thrb

> <s_m_Source_File>
dock_pv.maegz

> <i_m_Source_File_Index>
407

> <chembl_id>
CHEMBL396286

> <chembl_pref_name>
None

> <i_lp_mmshare_version>
53161

> <r_lp_tautomer_probability>
1

> <s_lp_Force_Field>
OPLS_2005

> <r_lp_Energy>
20.931189

> <b_lp_Chiralities_Consistent>
1

> <s_lp_Variant>
CHEMBL204_lig4351-1

> <s_i_glide_gridfile>
glide-grid_1ype

> <i_i_glide_lignum>
6001

> <i_i_glide_rotatable_bonds>
14

> <r_i_docking_score>
-6.8588677822397

> <r_i_glide_ligand_efficiency>
-0.167289458103407

> <r_i_glide_ligand_efficiency_sa>
-0.576850392852395

> <r_i_glide_ligand_efficiency_ln>
-1.45513162526766

> <r_i_glide_gscore>
-6.8588677822397

> <r_i_glide_lipo>
-2.62130246131963

> <r_i_glide_hbond>
-0.52265857421455

> <r_i_glide_metal>
0

> <r_i_glide_rewards>
-0.695321374826109

> <r_i_glide_evdw>
-50.5379371643066

> <r_i_glide_ecoul>
-6.57152843475342

> <r_i_glide_erotb>
0.52463871466836

> <r_i_glide_esite>
-0.0315979631194266

> <r_i_glide_emodel>
-72.5579587293365

> <r_i_glide_energy>
-57.1094655990601

> <r_i_glide_einternal>
19.1855449676514

> <i_i_glide_confnum>
16

> <i_i_glide_posenum>
26

> <r_i_glide_eff_state_penalty>
0

> <s_user_duplicate_titles>
CHEMBL204_lig4351

> <i_f3d_flags>
0

> <s_m_subgroup_title>
dock_pv

> <s_m_subgroupid>
dock_pv

> <b_m_subgroup_collapsed>
1

$$$$
CHEMBL204_lig66
                    3D
 Schrodinger Suite 2021-1.
 40 42  0  0  1  0            999 V2000
   19.6243  -13.8551   25.9399 Cl  0  0  0  0  0  0
   20.2910  -12.2525   19.1957 S   0  0  0  0  0  0
   13.8304  -12.0253   19.5044 O   0  0  0  0  0  0
   13.2160   -7.8667   23.6738 O   0  0  0  0  0  0
   17.9174  -11.4615   20.2280 N   0  0  0  0  0  0
   15.5958  -11.1583   20.6847 N   0  0  0  0  0  0
   16.5601  -12.3386   18.7631 N   0  0  0  0  0  0
   17.7761  -12.6503   18.3221 N   0  0  0  0  0  0
   16.6550  -11.6264   19.9272 C   0  0  0  0  0  0
   18.5407  -12.1134   19.2519 C   0  0  0  0  0  0
   14.2817  -11.3842   20.4572 C   0  0  0  0  0  0
   13.3618  -10.8105   21.5020 C   0  0  0  0  0  0
   13.6118   -9.5584   22.0835 C   0  0  0  0  0  0
   12.8159   -9.0672   23.1204 C   0  0  0  0  0  0
   12.2539  -11.5473   21.9376 C   0  0  0  0  0  0
   20.1844  -13.8490   21.4748 C   0  0  0  0  0  0
   20.4083  -13.8955   19.9726 C   0  0  0  0  0  0
   11.7227   -9.8361   23.5568 C   0  0  0  0  0  0
   11.4451  -11.0660   22.9637 C   0  0  0  0  0  0
   18.9535  -14.2279   22.0195 C   0  0  0  0  0  0
   21.2292  -13.4534   22.3111 C   0  0  0  0  0  0
   19.8310  -13.8437   24.2303 C   0  0  0  0  0  0
   18.7773  -14.2260   23.4012 C   0  0  0  0  0  0
   21.0541  -13.4543   23.6910 C   0  0  0  0  0  0
   12.3975   -7.2670   24.6679 C   0  0  0  0  0  0
   15.8445  -10.6279   21.5056 H   0  0  0  0  0  0
   15.7026  -12.6154   18.3040 H   0  0  0  0  0  0
   14.4543   -8.9612   21.7653 H   0  0  0  0  0  0
   12.0253  -12.5126   21.5059 H   0  0  0  0  0  0
   19.6816  -14.5675   19.5219 H   0  0  0  0  0  0
   21.3818  -14.3298   19.7590 H   0  0  0  0  0  0
   11.0804   -9.4996   24.3572 H   0  0  0  0  0  0
   10.5969  -11.6459   23.3000 H   0  0  0  0  0  0
   18.1375  -14.5262   21.3777 H   0  0  0  0  0  0
   22.1791  -13.1594   21.8912 H   0  0  0  0  0  0
   17.8290  -14.5208   23.8275 H   0  0  0  0  0  0
   21.8630  -13.1574   24.3415 H   0  0  0  0  0  0
   12.7983   -6.2896   24.9325 H   0  0  0  0  0  0
   11.3743   -7.1105   24.3210 H   0  0  0  0  0  0
   12.3867   -7.8882   25.5560 H   0  0  0  0  0  0
  1 22  1  0  0  0
  2 10  1  0  0  0
  2 17  1  0  0  0
  3 11  2  0  0  0
  4 14  1  0  0  0
  4 25  1  0  0  0
  5 10  1  0  0  0
  5  9  2  0  0  0
  6 11  1  0  0  0
  6 26  1  0  0  0
  6  9  1  0  0  0
  7  9  1  0  0  0
  7 27  1  0  0  0
  7  8  1  0  0  0
  8 10  2  0  0  0
 11 12  1  0  0  0
 12 13  2  0  0  0
 12 15  1  0  0  0
 13 14  1  0  0  0
 13 28  1  0  0  0
 14 18  2  0  0  0
 15 19  2  0  0  0
 15 29  1  0  0  0
 16 17  1  0  0  0
 16 20  2  0  0  0
 16 21  1  0  0  0
 17 30  1  0  0  0
 17 31  1  0  0  0
 18 19  1  0  0  0
 18 32  1  0  0  0
 19 33  1  0  0  0
 20 23  1  0  0  0
 20 34  1  0  0  0
 21 24  2  0  0  0
 21 35  1  0  0  0
 22 23  2  0  0  0
 22 24  1  0  0  0
 23 36  1  0  0  0
 24 37  1  0  0  0
 25 38  1  0  0  0
 25 39  1  0  0  0
 25 40  1  0  0  0
M  END
> <s_m_entry_id>
35558

> <s_m_entry_name>
dock_pv.408

> <s_m_Source_Path>
/home/csk/Desktop/cluster/DUD-E-result/thrb

> <s_m_Source_File>
dock_pv.maegz

> <i_m_Source_File_Index>
408

> <chembl_id>
CHEMBL1380942

> <chembl_pref_name>
None

> <i_lp_mmshare_version>
53161

> <r_lp_tautomer_probability>
0.426694473139324

> <s_lp_Force_Field>
OPLS_2005

> <r_lp_Energy>
22.276465

> <b_lp_Chiralities_Consistent>
1

> <s_lp_Variant>
CHEMBL204_lig66-2

> <s_i_glide_gridfile>
glide-grid_1ype

> <i_i_glide_lignum>
76

> <i_i_glide_rotatable_bonds>
7

> <r_i_docking_score>
-6.85869274233855

> <r_i_glide_ligand_efficiency>
-0.274347709693542

> <r_i_glide_ligand_efficiency_sa>
-0.802197568721266

> <r_i_glide_ligand_efficiency_ln>
-1.62571571836979

> <r_i_glide_gscore>
-6.85869274233855

> <r_i_glide_lipo>
-3.25400528414072

> <r_i_glide_hbond>
0

> <r_i_glide_metal>
0

> <r_i_glide_rewards>
-1.63690225611858

> <r_i_glide_evdw>
-46.9769477844238

> <r_i_glide_ecoul>
-2.96540355682373

> <r_i_glide_erotb>
0.825872720665508

> <r_i_glide_esite>
0

> <r_i_glide_emodel>
-68.2937114158414

> <r_i_glide_energy>
-49.9423513412476

> <r_i_glide_einternal>
4.78772354125977

> <i_i_glide_confnum>
3

> <i_i_glide_posenum>
286

> <r_i_glide_eff_state_penalty>
0

> <s_user_duplicate_titles>
CHEMBL204_lig66

> <i_f3d_flags>
0

> <s_m_subgroup_title>
dock_pv

> <s_m_subgroupid>
dock_pv

> <b_m_subgroup_collapsed>
1

$$$$
CHEMBL204_lig5103
                    3D
 Schrodinger Suite 2021-1.
 54 57  0  0  1  0            999 V2000
   21.2160  -15.3982   22.2165 N   0  0  0  0  0  0
   20.8161  -14.0204   22.4272 C   0  0  0  0  0  0
   19.9765  -13.5088   21.2609 C   0  0  0  0  0  0
   20.6182  -12.7624   20.2644 C   0  0  0  0  0  0
   19.9017  -12.2523   19.1843 C   0  0  0  0  0  0
   18.5300  -12.4741   19.0981 C   0  0  0  0  0  0
   17.6162  -11.8562   17.7687 Cl  0  0  0  0  0  0
   17.8854  -13.2130   20.0843 C   0  0  0  0  0  0
   18.5901  -13.7604   21.1686 C   0  0  0  0  0  0
   17.8776  -14.6107   22.2416 C   0  0  0  0  0  0
   16.4159  -14.7111   22.1906 N   0  0  0  0  0  0
   15.7038  -15.3615   21.2574 C   0  0  0  0  0  0
   16.2090  -16.0473   20.3695 O   0  0  0  0  0  0
   14.1753  -15.1449   21.2989 C   0  0  2  0  0  0
   13.3810  -16.4599   21.2415 C   0  0  0  0  0  0
   13.1615  -16.7210   19.7579 C   0  0  0  0  0  0
   13.0119  -15.3206   19.1722 C   0  0  0  0  0  0
   13.7009  -14.4211   20.1030 N   0  0  0  0  0  0
   13.8513  -13.1000   19.8336 C   0  0  0  0  0  0
   13.5852  -12.6483   18.7210 O   0  0  0  0  0  0
   14.3053  -12.1230   20.9470 C   0  0  1  0  0  0
   14.9978  -10.8494   20.4162 C   0  0  0  0  0  0
   14.4160   -9.7427   21.1697 N   0  0  0  0  0  0
   13.3107  -10.2071   21.8866 C   0  0  0  0  0  0
   12.4641   -9.4805   22.7226 C   0  0  0  0  0  0
   11.4259  -10.1350   23.3886 C   0  0  0  0  0  0
   11.2174  -11.4991   23.1899 C   0  0  0  0  0  0
   12.0836  -12.2278   22.3744 C   0  0  0  0  0  0
   13.1503  -11.5797   21.7464 C   0  0  0  0  0  0
   20.4364  -15.9599   21.9099 H   0  0  0  0  0  0
   21.9295  -15.4528   21.4966 H   0  0  0  0  0  0
   21.7096  -13.4056   22.5500 H   0  0  0  0  0  0
   20.2643  -13.9371   23.3628 H   0  0  0  0  0  0
   21.6816  -12.5784   20.3236 H   0  0  0  0  0  0
   20.4146  -11.6903   18.4187 H   0  0  0  0  0  0
   16.8258  -13.3638   19.9702 H   0  0  0  0  0  0
   18.3005  -15.6172   22.2364 H   0  0  0  0  0  0
   18.1050  -14.1829   23.2184 H   0  0  0  0  0  0
   15.9028  -14.2548   22.9368 H   0  0  0  0  0  0
   13.9063  -14.6148   22.2134 H   0  0  0  0  0  0
   13.8771  -17.2929   21.7413 H   0  0  0  0  0  0
   12.4170  -16.3100   21.7297 H   0  0  0  0  0  0
   14.0466  -17.1983   19.3350 H   0  0  0  0  0  0
   12.3077  -17.3671   19.5505 H   0  0  0  0  0  0
   13.4133  -15.2651   18.1587 H   0  0  0  0  0  0
   11.9588  -15.0369   19.1341 H   0  0  0  0  0  0
   14.9986  -12.6346   21.6047 H   0  0  0  0  0  0
   16.0762  -10.8887   20.5791 H   0  0  0  0  0  0
   14.8411  -10.6797   19.3516 H   0  0  0  0  0  0
   14.4954   -8.8885   20.6378 H   0  0  0  0  0  0
   12.6117   -8.4234   22.8775 H   0  0  0  0  0  0
   10.7616   -9.5867   24.0421 H   0  0  0  0  0  0
   10.3968  -11.9962   23.6900 H   0  0  0  0  0  0
   11.9376  -13.2922   22.2708 H   0  0  0  0  0  0
  1  2  1  0  0  0
  1 30  1  0  0  0
  1 31  1  0  0  0
  2  3  1  0  0  0
  2 32  1  0  0  0
  2 33  1  0  0  0
  3  4  2  0  0  0
  3  9  1  0  0  0
  4  5  1  0  0  0
  4 34  1  0  0  0
  5  6  2  0  0  0
  5 35  1  0  0  0
  6  7  1  0  0  0
  6  8  1  0  0  0
  8  9  2  0  0  0
  8 36  1  0  0  0
  9 10  1  0  0  0
 10 11  1  0  0  0
 10 37  1  0  0  0
 10 38  1  0  0  0
 11 12  1  0  0  0
 11 39  1  0  0  0
 12 13  2  0  0  0
 12 14  1  0  0  0
 14 15  1  0  0  0
 14 18  1  0  0  0
 14 40  1  0  0  0
 15 16  1  0  0  0
 15 41  1  0  0  0
 15 42  1  0  0  0
 16 17  1  0  0  0
 16 43  1  0  0  0
 16 44  1  0  0  0
 17 18  1  0  0  0
 17 45  1  0  0  0
 17 46  1  0  0  0
 18 19  1  0  0  0
 19 20  2  0  0  0
 19 21  1  0  0  0
 21 22  1  0  0  0
 21 29  1  0  0  0
 21 47  1  0  0  0
 22 23  1  0  0  0
 22 48  1  0  0  0
 22 49  1  0  0  0
 23 24  1  0  0  0
 23 50  1  0  0  0
 24 25  2  0  0  0
 24 29  1  0  0  0
 25 26  1  0  0  0
 25 51  1  0  0  0
 26 27  2  0  0  0
 26 52  1  0  0  0
 27 28  1  0  0  0
 27 53  1  0  0  0
 28 29  2  0  0  0
 28 54  1  0  0  0
M  END
> <s_m_entry_id>
35559

> <s_m_entry_name>
dock_pv.409

> <s_m_Source_Path>
/home/csk/Desktop/cluster/DUD-E-result/thrb

> <s_m_Source_File>
dock_pv.maegz

> <i_m_Source_File_Index>
409

> <chembl_id>
CHEMBL3984240

> <chembl_pref_name>
None

> <i_lp_mmshare_version>
53161

> <r_lp_tautomer_probability>
1

> <s_lp_Force_Field>
OPLS_2005

> <r_lp_Energy>
36.118017

> <b_lp_Chiralities_Consistent>
1

> <s_lp_Variant>
CHEMBL204_lig5103-2

> <s_i_glide_gridfile>
glide-grid_1ype

> <i_i_glide_lignum>
6988

> <i_i_glide_rotatable_bonds>
7

> <r_i_docking_score>
-6.85670882538801

> <r_i_glide_ligand_efficiency>
-0.236438235358207

> <r_i_glide_ligand_efficiency_sa>
-0.726413167911141

> <r_i_glide_ligand_efficiency_ln>
-1.57001244988005

> <r_i_glide_gscore>
-6.85670882538801

> <r_i_glide_lipo>
-2.89703739947714

> <r_i_glide_hbond>
-0.627159812197319

> <r_i_glide_metal>
0

> <r_i_glide_rewards>
-0.964160815941418

> <r_i_glide_evdw>
-40.1073036193848

> <r_i_glide_ecoul>
-6.80268669128418

> <r_i_glide_erotb>
0.694091283831954

> <r_i_glide_esite>
-0.0366738969422168

> <r_i_glide_emodel>
-66.194346256137

> <r_i_glide_energy>
-46.9099903106689

> <r_i_glide_einternal>
2.31822729110718

> <i_i_glide_confnum>
173

> <i_i_glide_posenum>
261

> <r_i_glide_eff_state_penalty>
0

> <s_user_duplicate_titles>
CHEMBL204_lig5103

> <i_f3d_flags>
0

> <s_m_subgroup_title>
dock_pv

> <s_m_subgroupid>
dock_pv

> <b_m_subgroup_collapsed>
1

$$$$
CHEMBL204_lig4126
                    3D
 Schrodinger Suite 2021-1.
 61 65  0  0  1  0            999 V2000
   17.2758  -16.4647   21.0185 C   0  0  0  0  0  0
   18.4306  -15.8787   21.8035 C   0  0  0  0  0  0
   16.4628  -15.6298   20.3069 N   0  0  0  0  0  0
   11.3124  -10.6858   23.7140 C   0  0  0  0  0  0
   18.3683  -15.7727   23.2343 C   0  0  0  0  0  0
   12.4159  -10.7488   22.7197 C   0  0  0  0  0  0
   14.1917  -11.9475   21.4912 C   0  0  0  0  0  0
   13.0200  -11.9518   22.3028 C   0  0  0  0  0  0
   16.8670  -14.2730   19.8953 C   0  0  0  0  0  0
   11.0696   -9.6125   24.3213 N   0  0  0  0  0  0
   17.0768  -17.6779   21.1053 O   0  0  0  0  0  0
   15.2646  -16.1184   19.5935 C   0  0  0  0  0  0
   14.8853  -13.1379   21.1237 C   0  0  0  0  0  0
   16.0567  -13.0674   20.3556 C   0  0  0  0  0  0
   13.1596  -17.9750   18.5594 N   0  0  0  0  0  0
   14.7205  -10.6941   21.0612 C   0  0  0  0  0  0
   12.9321   -9.5474   22.2130 C   0  0  0  0  0  0
   14.1874  -16.8228   20.4525 C   0  0  0  0  0  0
   14.0539   -9.5067   21.4040 C   0  0  0  0  0  0
   19.4610  -15.1629   23.9344 C   0  0  0  0  0  0
   15.9232  -10.6567   20.3222 C   0  0  0  0  0  0
   10.6268  -11.8529   23.9201 N   0  0  0  0  0  0
   12.9565  -17.1490   19.6217 C   0  0  0  0  0  0
   16.5647  -11.8310   19.9732 C   0  0  0  0  0  0
   19.5800  -15.4366   21.1387 C   0  0  0  0  0  0
   17.2723  -16.2557   24.0040 C   0  0  0  0  0  0
   20.6307  -14.8439   21.8261 C   0  0  0  0  0  0
   12.1049  -18.2510   17.7521 C   0  0  0  0  0  0
   20.5788  -14.6930   23.2057 C   0  0  0  0  0  0
   19.4081  -15.0417   25.3468 C   0  0  0  0  0  0
   11.7043  -16.5972   19.9163 C   0  0  0  0  0  0
   17.2662  -16.1461   25.3867 C   0  0  0  0  0  0
   10.8292  -17.7351   17.9756 C   0  0  0  0  0  0
   18.3161  -15.5337   26.0567 C   0  0  0  0  0  0
   10.6306  -16.8992   19.0750 C   0  0  0  0  0  0
   12.6570  -12.9067   22.6590 H   0  0  0  0  0  0
   16.8571  -14.2523   18.8033 H   0  0  0  0  0  0
   17.8921  -14.0461   20.1723 H   0  0  0  0  0  0
   10.2608   -9.7146   24.9314 H   0  0  0  0  0  0
   14.7919  -15.2709   19.0927 H   0  0  0  0  0  0
   15.6188  -16.7976   18.8132 H   0  0  0  0  0  0
   14.5000  -14.0861   21.4627 H   0  0  0  0  0  0
   12.4849   -8.6041   22.4903 H   0  0  0  0  0  0
   14.5583  -17.7635   20.8599 H   0  0  0  0  0  0
   13.8965  -16.1989   21.2960 H   0  0  0  0  0  0
   14.4593   -8.5635   21.0739 H   0  0  0  0  0  0
   16.3579   -9.7064   20.0518 H   0  0  0  0  0  0
    9.8044  -11.8338   24.5233 H   0  0  0  0  0  0
   10.8415  -12.7280   23.4586 H   0  0  0  0  0  0
   17.4824  -11.7731   19.4046 H   0  0  0  0  0  0
   19.6589  -15.5257   20.0646 H   0  0  0  0  0  0
   16.4265  -16.7247   23.5234 H   0  0  0  0  0  0
   21.4971  -14.4986   21.2806 H   0  0  0  0  0  0
   12.2998  -18.8951   16.9068 H   0  0  0  0  0  0
   21.4021  -14.2298   23.7300 H   0  0  0  0  0  0
   20.2227  -14.5667   25.8761 H   0  0  0  0  0  0
   11.5671  -15.9361   20.7609 H   0  0  0  0  0  0
   16.4188  -16.5414   25.9210 H   0  0  0  0  0  0
   10.0161  -17.9710   17.3067 H   0  0  0  0  0  0
   18.2865  -15.4419   27.1338 H   0  0  0  0  0  0
    9.6519  -16.4852   19.2671 H   0  0  0  0  0  0
  1  2  1  0  0  0
  1  3  1  0  0  0
  1 11  2  0  0  0
  2  5  1  0  0  0
  2 25  2  0  0  0
  3  9  1  0  0  0
  3 12  1  0  0  0
  4  6  1  0  0  0
  4 10  2  0  0  0
  4 22  1  0  0  0
  5 20  1  0  0  0
  5 26  2  0  0  0
  6  8  1  0  0  0
  6 17  2  0  0  0
  7 13  1  0  0  0
  7  8  2  0  0  0
  7 16  1  0  0  0
  8 36  1  0  0  0
  9 14  1  0  0  0
  9 37  1  0  0  0
  9 38  1  0  0  0
 10 39  1  0  0  0
 12 18  1  0  0  0
 12 40  1  0  0  0
 12 41  1  0  0  0
 13 14  2  0  0  0
 13 42  1  0  0  0
 14 24  1  0  0  0
 15 23  1  0  0  0
 15 28  2  0  0  0
 16 21  1  0  0  0
 16 19  2  0  0  0
 17 19  1  0  0  0
 17 43  1  0  0  0
 18 23  1  0  0  0
 18 44  1  0  0  0
 18 45  1  0  0  0
 19 46  1  0  0  0
 20 30  2  0  0  0
 20 29  1  0  0  0
 21 24  2  0  0  0
 21 47  1  0  0  0
 22 48  1  0  0  0
 22 49  1  0  0  0
 23 31  2  0  0  0
 24 50  1  0  0  0
 25 27  1  0  0  0
 25 51  1  0  0  0
 26 32  1  0  0  0
 26 52  1  0  0  0
 27 29  2  0  0  0
 27 53  1  0  0  0
 28 33  1  0  0  0
 28 54  1  0  0  0
 29 55  1  0  0  0
 30 34  1  0  0  0
 30 56  1  0  0  0
 31 35  1  0  0  0
 31 57  1  0  0  0
 32 34  2  0  0  0
 32 58  1  0  0  0
 33 35  2  0  0  0
 33 59  1  0  0  0
 34 60  1  0  0  0
 35 61  1  0  0  0
M  END
> <s_m_entry_id>
35560

> <s_m_entry_name>
dock_pv.410

> <s_m_Source_Path>
/home/csk/Desktop/cluster/DUD-E-result/thrb

> <s_m_Source_File>
dock_pv.maegz

> <i_m_Source_File_Index>
410

> <chembl_id>
CHEMBL195032

> <chembl_pref_name>
None

> <i_lp_mmshare_version>
53161

> <r_lp_tautomer_probability>
1

> <s_lp_Force_Field>
OPLS_2005

> <r_lp_Energy>
29.687514

> <b_lp_Chiralities_Consistent>
1

> <s_lp_Variant>
CHEMBL204_lig4126-1

> <s_i_glide_gridfile>
glide-grid_1ype

> <i_i_glide_lignum>
5739

> <i_i_glide_rotatable_bonds>
8

> <r_i_docking_score>
-6.85486106774502

> <r_i_glide_ligand_efficiency>
-0.195853173364143

> <r_i_glide_ligand_efficiency_sa>
-0.640648716375732

> <r_i_glide_ligand_efficiency_ln>
-1.50479413981459

> <r_i_glide_gscore>
-6.85486106774502

> <r_i_glide_lipo>
-3.26350368676711

> <r_i_glide_hbond>
-0.538617455842211

> <r_i_glide_metal>
0

> <r_i_glide_rewards>
-0.28191796622729

> <r_i_glide_evdw>
-38.7981185913086

> <r_i_glide_ecoul>
-7.98980617523193

> <r_i_glide_erotb>
0.478278718684295

> <r_i_glide_esite>
-0.110723821742487

> <r_i_glide_emodel>
-64.8273403663271

> <r_i_glide_energy>
-46.7879247665405

> <r_i_glide_einternal>
3.96141505241394

> <i_i_glide_confnum>
15

> <i_i_glide_posenum>
61

> <r_i_glide_eff_state_penalty>
0

> <s_user_duplicate_titles>
CHEMBL204_lig4126

> <i_f3d_flags>
0

> <s_m_subgroup_title>
dock_pv

> <s_m_subgroupid>
dock_pv

> <b_m_subgroup_collapsed>
1

$$$$
CHEMBL204_lig4518
                    3D
 Schrodinger Suite 2021-1.
 56 58  0  0  1  0            999 V2000
   20.6763  -13.0493   20.6797 C   0  0  0  0  0  0
   19.8214  -13.3594   21.7389 C   0  0  0  0  0  0
   18.4313  -13.3733   21.5125 C   0  0  0  0  0  0
   17.9090  -13.0299   20.2548 C   0  0  0  0  0  0
   18.7905  -12.6773   19.2165 C   0  0  0  0  0  0
   20.1668  -12.6952   19.4341 C   0  0  0  0  0  0
   18.2210  -12.2525   17.6379 Cl  0  0  0  0  0  0
   17.5696  -13.7226   22.4974 F   0  0  0  0  0  0
   16.3897  -13.0861   20.0318 C   0  0  0  0  0  0
   15.6963  -11.7171   19.9561 C   0  0  0  0  0  0
   14.3537  -11.7649   19.9149 N   0  0  0  0  0  0
   16.3475  -10.6720   19.9214 O   0  0  0  0  0  0
   13.4111  -10.6518   19.7703 C   0  0  0  0  0  0
   13.5277   -9.5113   20.8107 C   0  0  0  0  0  0
   13.4351   -9.9476   22.1609 O   0  0  0  0  0  0
   12.0831  -10.2993   22.4969 N   0  0  0  0  0  0
   11.8278  -11.6725   22.7210 C   0  0  0  0  0  0
   10.8141  -11.8530   23.6647 N   0  0  0  0  0  0
   12.4176  -12.6516   22.1981 N   0  0  0  0  0  0
   20.4393  -13.6784   22.9618 N   0  0  0  0  0  0
   19.8156  -13.3452   24.2464 C   0  0  0  0  0  0
   20.6163  -13.7528   25.5099 C   0  0  0  0  0  0
   21.4134  -15.0597   25.3056 C   0  0  0  0  0  0
   21.4016  -12.7553   25.9210 F   0  0  0  0  0  0
   19.7579  -13.9413   26.5146 F   0  0  0  0  0  0
   20.7821  -16.2904   25.5214 C   0  0  0  0  0  0
   21.4539  -17.4933   25.3440 C   0  0  0  0  0  0
   22.7778  -17.5086   24.9242 C   0  0  0  0  0  0
   22.7736  -15.0458   24.8459 C   0  0  0  0  0  0
   23.4515  -16.2945   24.6590 C   0  0  0  0  0  0
   24.7894  -16.2735   24.1929 C   0  0  0  0  0  0
   25.3991  -15.0535   23.9215 C   0  0  0  0  0  0
   24.6798  -13.8836   24.1210 C   0  0  0  0  0  0
   23.4011  -13.8643   24.5611 N   0  0  0  0  0  0
   21.7482  -13.0626   20.8212 H   0  0  0  0  0  0
   20.8486  -12.4490   18.6327 H   0  0  0  0  0  0
   15.9046  -13.6700   20.8156 H   0  0  0  0  0  0
   16.1920  -13.6356   19.1110 H   0  0  0  0  0  0
   13.9170  -12.6551   20.1130 H   0  0  0  0  0  0
   12.4152  -11.0876   19.8420 H   0  0  0  0  0  0
   13.4597  -10.2532   18.7589 H   0  0  0  0  0  0
   12.7893   -8.7345   20.6047 H   0  0  0  0  0  0
   14.4982   -9.0255   20.7212 H   0  0  0  0  0  0
   11.7672   -9.6267   23.1779 H   0  0  0  0  0  0
   10.4604  -12.7915   23.8065 H   0  0  0  0  0  0
   10.0768  -11.1618   23.7318 H   0  0  0  0  0  0
   12.0335  -13.5176   22.5544 H   0  0  0  0  0  0
   21.4478  -13.6112   22.9653 H   0  0  0  0  0  0
   19.6160  -12.2736   24.2729 H   0  0  0  0  0  0
   18.8423  -13.8254   24.3083 H   0  0  0  0  0  0
   19.7513  -16.3187   25.8429 H   0  0  0  0  0  0
   20.9388  -18.4247   25.5291 H   0  0  0  0  0  0
   23.2934  -18.4482   24.7833 H   0  0  0  0  0  0
   25.3249  -17.2002   24.0470 H   0  0  0  0  0  0
   26.4171  -15.0143   23.5624 H   0  0  0  0  0  0
   25.1334  -12.9235   23.9236 H   0  0  0  0  0  0
  1  6  1  0  0  0
  1  2  2  0  0  0
  1 35  1  0  0  0
  2 20  1  0  0  0
  2  3  1  0  0  0
  3  4  2  0  0  0
  3  8  1  0  0  0
  4  9  1  0  0  0
  4  5  1  0  0  0
  5  6  2  0  0  0
  5  7  1  0  0  0
  6 36  1  0  0  0
  9 10  1  0  0  0
  9 37  1  0  0  0
  9 38  1  0  0  0
 10 11  1  0  0  0
 10 12  2  0  0  0
 11 13  1  0  0  0
 11 39  1  0  0  0
 13 14  1  0  0  0
 13 40  1  0  0  0
 13 41  1  0  0  0
 14 15  1  0  0  0
 14 42  1  0  0  0
 14 43  1  0  0  0
 15 16  1  0  0  0
 16 17  1  0  0  0
 16 44  1  0  0  0
 17 18  1  0  0  0
 17 19  2  0  0  0
 18 45  1  0  0  0
 18 46  1  0  0  0
 19 47  1  0  0  0
 20 21  1  0  0  0
 20 48  1  0  0  0
 21 22  1  0  0  0
 21 49  1  0  0  0
 21 50  1  0  0  0
 22 23  1  0  0  0
 22 24  1  0  0  0
 22 25  1  0  0  0
 23 26  2  0  0  0
 23 29  1  0  0  0
 26 27  1  0  0  0
 26 51  1  0  0  0
 27 28  2  0  0  0
 27 52  1  0  0  0
 28 30  1  0  0  0
 28 53  1  0  0  0
 29 30  1  0  0  0
 29 34  2  0  0  0
 30 31  2  0  0  0
 31 32  1  0  0  0
 31 54  1  0  0  0
 32 33  2  0  0  0
 32 55  1  0  0  0
 33 34  1  0  0  0
 33 56  1  0  0  0
M  END
> <s_m_entry_id>
35561

> <s_m_entry_name>
dock_pv.411

> <s_m_Source_Path>
/home/csk/Desktop/cluster/DUD-E-result/thrb

> <s_m_Source_File>
dock_pv.maegz

> <i_m_Source_File_Index>
411

> <chembl_id>
CHEMBL250273

> <chembl_pref_name>
None

> <i_lp_mmshare_version>
53161

> <r_lp_tautomer_probability>
1

> <s_lp_Force_Field>
OPLS_2005

> <r_lp_Energy>
11.410748

> <b_lp_Chiralities_Consistent>
1

> <s_lp_Variant>
CHEMBL204_lig4518-1

> <s_i_glide_gridfile>
glide-grid_1ype

> <i_i_glide_lignum>
6185

> <i_i_glide_rotatable_bonds>
12

> <r_i_docking_score>
-6.85275217496678

> <r_i_glide_ligand_efficiency>
-0.201551534557846

> <r_i_glide_ligand_efficiency_sa>
-0.652948729151675

> <r_i_glide_ligand_efficiency_ln>
-1.51396516863798

> <r_i_glide_gscore>
-6.85275217496678

> <r_i_glide_lipo>
-2.52111638424083

> <r_i_glide_hbond>
-0.700910417304815

> <r_i_glide_metal>
0

> <r_i_glide_rewards>
-1.22331459106653

> <r_i_glide_evdw>
-50.2032165527344

> <r_i_glide_ecoul>
-4.91361999511719

> <r_i_glide_erotb>
0.915381618390168

> <r_i_glide_esite>
-0.07558857384048

> <r_i_glide_emodel>
-75.2391437518055

> <r_i_glide_energy>
-55.1168365478516

> <r_i_glide_einternal>
10.4247856140137

> <i_i_glide_confnum>
9

> <i_i_glide_posenum>
309

> <r_i_glide_eff_state_penalty>
0

> <s_user_duplicate_titles>
CHEMBL204_lig4518

> <i_f3d_flags>
0

> <s_m_subgroup_title>
dock_pv

> <s_m_subgroupid>
dock_pv

> <b_m_subgroup_collapsed>
1

$$$$
CHEMBL204_lig4773
                    3D
 Schrodinger Suite 2021-1.
 65 67  0  0  1  0            999 V2000
   14.9833  -11.7891   19.4504 C   0  0  0  0  0  0
   16.1234  -11.9354   20.2496 C   0  0  0  0  0  0
   17.3307  -12.4033   19.7048 C   0  0  0  0  0  0
   17.3992  -12.6534   18.3366 C   0  0  0  0  0  0
   16.2768  -12.4962   17.5215 C   0  0  0  0  0  0
   15.0761  -12.0594   18.0811 C   0  0  0  0  0  0
   16.3631  -12.7855   16.0344 C   0  0  0  0  0  0
   13.6879  -11.2774   20.0284 C   0  0  0  0  0  0
   13.2122  -10.2536   19.5351 O   0  0  0  0  0  0
   13.1154  -11.9368   21.0751 N   0  0  0  0  0  0
   11.9686  -11.3758   21.8192 C   0  0  0  0  0  0
   12.3815  -10.4422   22.9814 C   0  0  0  0  0  0
   11.2312  -10.2957   23.9925 C   0  0  0  0  0  0
   12.8480   -9.0625   22.4917 C   0  0  0  0  0  0
   13.5078  -13.2841   21.5316 C   0  0  0  0  0  0
   12.5798  -14.4275   21.0550 C   0  0  0  0  0  0
   13.1042  -15.7782   21.5643 C   0  0  0  0  0  0
   12.3670  -14.4566   19.5276 C   0  0  0  0  0  0
   18.4720  -12.6571   20.4378 O   0  0  0  0  0  0
   18.3622  -12.8254   21.8485 C   0  0  0  0  0  0
   19.4623  -13.8002   22.3120 C   0  0  0  0  0  0
   19.2625  -14.3961   23.7156 C   0  0  0  0  0  0
   18.0042  -14.9308   24.0361 C   0  0  0  0  0  0
   17.7301  -15.4436   25.3018 C   0  0  0  0  0  0
   18.7222  -15.4533   26.2717 C   0  0  0  0  0  0
   19.9908  -14.9755   25.9622 C   0  0  0  0  0  0
   20.2870  -14.4645   24.6914 C   0  0  0  0  0  0
   21.6284  -14.0743   24.4596 N   0  0  0  0  0  0
   22.3057  -14.4230   23.3563 N   0  0  0  0  0  0
   23.5846  -13.9348   23.5371 N   0  0  0  0  0  0
   23.6921  -13.3358   24.7846 N   0  0  0  0  0  0
   22.5033  -13.4528   25.3174 C   0  0  0  0  0  0
   16.0571  -11.6889   21.2977 H   0  0  0  0  0  0
   18.3308  -13.0039   17.9196 H   0  0  0  0  0  0
   14.2099  -11.9435   17.4466 H   0  0  0  0  0  0
   17.3577  -12.5608   15.6499 H   0  0  0  0  0  0
   16.1377  -13.8336   15.8383 H   0  0  0  0  0  0
   15.6610  -12.1650   15.4742 H   0  0  0  0  0  0
   11.3970  -12.2049   22.2425 H   0  0  0  0  0  0
   11.2580  -10.8632   21.1591 H   0  0  0  0  0  0
   13.2142  -10.8985   23.5116 H   0  0  0  0  0  0
   10.3570   -9.8534   23.5235 H   0  0  0  0  0  0
   11.5148   -9.6586   24.8305 H   0  0  0  0  0  0
   10.9252  -11.2609   24.4033 H   0  0  0  0  0  0
   12.1188   -8.6528   21.7948 H   0  0  0  0  0  0
   12.9787   -8.3576   23.3121 H   0  0  0  0  0  0
   13.8042   -9.1188   21.9744 H   0  0  0  0  0  0
   14.5193  -13.5414   21.2220 H   0  0  0  0  0  0
   13.5346  -13.2817   22.6235 H   0  0  0  0  0  0
   11.6065  -14.2760   21.5205 H   0  0  0  0  0  0
   14.0742  -16.0217   21.1308 H   0  0  0  0  0  0
   13.2225  -15.7625   22.6469 H   0  0  0  0  0  0
   12.4148  -16.5868   21.3198 H   0  0  0  0  0  0
   13.3104  -14.5674   18.9928 H   0  0  0  0  0  0
   11.7201  -15.2830   19.2347 H   0  0  0  0  0  0
   11.8902  -13.5432   19.1726 H   0  0  0  0  0  0
   18.4792  -11.8521   22.3214 H   0  0  0  0  0  0
   17.3832  -13.2102   22.1233 H   0  0  0  0  0  0
   19.5207  -14.6388   21.6154 H   0  0  0  0  0  0
   20.4037  -13.2633   22.2185 H   0  0  0  0  0  0
   17.2066  -14.9579   23.3089 H   0  0  0  0  0  0
   16.7497  -15.8367   25.5209 H   0  0  0  0  0  0
   18.5197  -15.8469   27.2568 H   0  0  0  0  0  0
   20.7578  -15.0318   26.7202 H   0  0  0  0  0  0
   22.1845  -13.1128   26.2928 H   0  0  0  0  0  0
  1  2  2  0  0  0
  1  6  1  0  0  0
  1  8  1  0  0  0
  2  3  1  0  0  0
  2 33  1  0  0  0
  3  4  2  0  0  0
  3 19  1  0  0  0
  4  5  1  0  0  0
  4 34  1  0  0  0
  5  6  2  0  0  0
  5  7  1  0  0  0
  6 35  1  0  0  0
  7 36  1  0  0  0
  7 37  1  0  0  0
  7 38  1  0  0  0
  8  9  2  0  0  0
  8 10  1  0  0  0
 10 11  1  0  0  0
 10 15  1  0  0  0
 11 12  1  0  0  0
 11 39  1  0  0  0
 11 40  1  0  0  0
 12 13  1  0  0  0
 12 14  1  0  0  0
 12 41  1  0  0  0
 13 42  1  0  0  0
 13 43  1  0  0  0
 13 44  1  0  0  0
 14 45  1  0  0  0
 14 46  1  0  0  0
 14 47  1  0  0  0
 15 16  1  0  0  0
 15 48  1  0  0  0
 15 49  1  0  0  0
 16 17  1  0  0  0
 16 18  1  0  0  0
 16 50  1  0  0  0
 17 51  1  0  0  0
 17 52  1  0  0  0
 17 53  1  0  0  0
 18 54  1  0  0  0
 18 55  1  0  0  0
 18 56  1  0  0  0
 19 20  1  0  0  0
 20 21  1  0  0  0
 20 57  1  0  0  0
 20 58  1  0  0  0
 21 22  1  0  0  0
 21 59  1  0  0  0
 21 60  1  0  0  0
 22 23  2  0  0  0
 22 27  1  0  0  0
 23 24  1  0  0  0
 23 61  1  0  0  0
 24 25  2  0  0  0
 24 62  1  0  0  0
 25 26  1  0  0  0
 25 63  1  0  0  0
 26 27  2  0  0  0
 26 64  1  0  0  0
 27 28  1  0  0  0
 28 29  1  0  0  0
 28 32  1  0  0  0
 29 30  2  0  0  0
 30 31  1  0  0  0
 31 32  2  0  0  0
 32 65  1  0  0  0
M  END
> <s_m_entry_id>
35562

> <s_m_entry_name>
dock_pv.412

> <s_m_Source_Path>
/home/csk/Desktop/cluster/DUD-E-result/thrb

> <s_m_Source_File>
dock_pv.maegz

> <i_m_Source_File_Index>
412

> <chembl_id>
CHEMBL1682771

> <chembl_pref_name>
None

> <i_lp_mmshare_version>
53161

> <r_lp_tautomer_probability>
1

> <s_lp_Force_Field>
OPLS_2005

> <r_lp_Energy>
41.858615

> <b_lp_Chiralities_Consistent>
1

> <s_lp_Variant>
CHEMBL204_lig4773-1

> <s_i_glide_gridfile>
glide-grid_1ype

> <i_i_glide_lignum>
6522

> <i_i_glide_rotatable_bonds>
11

> <r_i_docking_score>
-6.84947355840231

> <r_i_glide_ligand_efficiency>
-0.214046048700072

> <r_i_glide_ligand_efficiency_sa>
-0.67955384496721

> <r_i_glide_ligand_efficiency_ln>
-1.5337838393238

> <r_i_glide_gscore>
-6.84947355840231

> <r_i_glide_lipo>
-3.09042566132188

> <r_i_glide_hbond>
-0.261894279025396

> <r_i_glide_metal>
0

> <r_i_glide_rewards>
-1.35626482803064

> <r_i_glide_evdw>
-49.7274627685547

> <r_i_glide_ecoul>
-3.99847388267517

> <r_i_glide_erotb>
0.945255430804625

> <r_i_glide_esite>
0

> <r_i_glide_emodel>
-71.2445661740474

> <r_i_glide_energy>
-53.7259366512299

> <r_i_glide_einternal>
8.49966239929199

> <i_i_glide_confnum>
29

> <i_i_glide_posenum>
129

> <r_i_glide_eff_state_penalty>
0

> <s_user_duplicate_titles>
CHEMBL204_lig4773

> <i_f3d_flags>
0

> <s_m_subgroup_title>
dock_pv

> <s_m_subgroupid>
dock_pv

> <b_m_subgroup_collapsed>
1

$$$$
CHEMBL204_lig4512
                    3D
 Schrodinger Suite 2021-1.
 50 51  0  0  1  0            999 V2000
   20.8491  -12.6531   20.5159 C   0  0  0  0  0  0
   19.7614  -13.1563   21.2403 C   0  0  0  0  0  0
   18.5353  -13.3283   20.5860 C   0  0  0  0  0  0
   18.3814  -12.9732   19.2365 C   0  0  0  0  0  0
   19.4688  -12.3962   18.5500 C   0  0  0  0  0  0
   20.6980  -12.2593   19.1906 C   0  0  0  0  0  0
   19.3550  -11.8530   16.9060 Cl  0  0  0  0  0  0
   17.4804  -13.8439   21.2669 F   0  0  0  0  0  0
   17.0485  -13.2772   18.5427 C   0  0  0  0  0  0
   16.0891  -12.0882   18.5528 C   0  0  0  0  0  0
   14.9147  -12.2530   19.1910 N   0  0  0  0  0  0
   16.4160  -11.0530   17.9749 O   0  0  0  0  0  0
   13.8591  -11.2421   19.2842 C   0  0  0  0  0  0
   14.1060  -10.1855   20.3844 C   0  0  0  0  0  0
   13.9551  -10.6798   21.7054 O   0  0  0  0  0  0
   12.5648  -10.6837   22.0747 N   0  0  0  0  0  0
   11.9963  -11.9478   22.3458 C   0  0  0  0  0  0
   10.8900  -11.8530   23.2028 N   0  0  0  0  0  0
   12.4159  -13.0530   21.9212 N   0  0  0  0  0  0
   19.8401  -13.4717   22.6105 N   0  0  0  0  0  0
   21.1108  -13.5454   23.3345 C   0  0  0  0  0  0
   20.9675  -13.6819   24.8711 C   0  0  0  0  0  0
   20.1586  -14.9075   25.3215 C   0  0  0  0  0  0
   22.1779  -13.7844   25.4230 F   0  0  0  0  0  0
   20.4163  -12.5703   25.3657 F   0  0  0  0  0  0
   19.1281  -14.8026   26.2666 C   0  0  0  0  0  0
   18.4190  -15.9498   26.6254 C   0  0  0  0  0  0
   18.7524  -17.1728   26.0421 C   0  0  0  0  0  0
   19.7936  -17.2047   25.1125 C   0  0  0  0  0  0
   20.4930  -16.0988   24.7501 N   0  0  0  0  0  0
   21.8176  -12.5316   20.9742 H   0  0  0  0  0  0
   21.5457  -11.8505   18.6604 H   0  0  0  0  0  0
   16.5784  -14.1471   19.0037 H   0  0  0  0  0  0
   17.2161  -13.5754   17.5094 H   0  0  0  0  0  0
   14.7422  -13.1178   19.6838 H   0  0  0  0  0  0
   12.9289  -11.7731   19.4911 H   0  0  0  0  0  0
   13.6973  -10.7581   18.3205 H   0  0  0  0  0  0
   13.4773   -9.3055   20.2296 H   0  0  0  0  0  0
   15.1369   -9.8374   20.3211 H   0  0  0  0  0  0
   12.4209   -9.9347   22.7343 H   0  0  0  0  0  0
   10.4155  -12.7218   23.4200 H   0  0  0  0  0  0
   10.2128  -11.1179   23.0450 H   0  0  0  0  0  0
   11.8491  -13.8077   22.2901 H   0  0  0  0  0  0
   19.0653  -13.9990   22.9922 H   0  0  0  0  0  0
   21.6885  -14.3791   22.9332 H   0  0  0  0  0  0
   21.7054  -12.6584   23.1210 H   0  0  0  0  0  0
   18.8765  -13.8544   26.7180 H   0  0  0  0  0  0
   17.6230  -15.8898   27.3527 H   0  0  0  0  0  0
   18.2169  -18.0726   26.3065 H   0  0  0  0  0  0
   20.0846  -18.1309   24.6391 H   0  0  0  0  0  0
  1  6  1  0  0  0
  1  2  2  0  0  0
  1 31  1  0  0  0
  2 20  1  0  0  0
  2  3  1  0  0  0
  3  4  2  0  0  0
  3  8  1  0  0  0
  4  9  1  0  0  0
  4  5  1  0  0  0
  5  6  2  0  0  0
  5  7  1  0  0  0
  6 32  1  0  0  0
  9 10  1  0  0  0
  9 33  1  0  0  0
  9 34  1  0  0  0
 10 11  1  0  0  0
 10 12  2  0  0  0
 11 13  1  0  0  0
 11 35  1  0  0  0
 13 14  1  0  0  0
 13 36  1  0  0  0
 13 37  1  0  0  0
 14 15  1  0  0  0
 14 38  1  0  0  0
 14 39  1  0  0  0
 15 16  1  0  0  0
 16 17  1  0  0  0
 16 40  1  0  0  0
 17 18  1  0  0  0
 17 19  2  0  0  0
 18 41  1  0  0  0
 18 42  1  0  0  0
 19 43  1  0  0  0
 20 21  1  0  0  0
 20 44  1  0  0  0
 21 22  1  0  0  0
 21 45  1  0  0  0
 21 46  1  0  0  0
 22 23  1  0  0  0
 22 24  1  0  0  0
 22 25  1  0  0  0
 23 26  2  0  0  0
 23 30  1  0  0  0
 26 27  1  0  0  0
 26 47  1  0  0  0
 27 28  2  0  0  0
 27 48  1  0  0  0
 28 29  1  0  0  0
 28 49  1  0  0  0
 29 30  2  0  0  0
 29 50  1  0  0  0
M  END
> <s_m_entry_id>
35563

> <s_m_entry_name>
dock_pv.413

> <s_m_Source_Path>
/home/csk/Desktop/cluster/DUD-E-result/thrb

> <s_m_Source_File>
dock_pv.maegz

> <i_m_Source_File_Index>
413

> <chembl_id>
CHEMBL250463

> <chembl_pref_name>
None

> <i_lp_mmshare_version>
53161

> <r_lp_tautomer_probability>
1

> <s_lp_Force_Field>
OPLS_2005

> <r_lp_Energy>
3.169166

> <b_lp_Chiralities_Consistent>
1

> <s_lp_Variant>
CHEMBL204_lig4512-1

> <s_i_glide_gridfile>
glide-grid_1ype

> <i_i_glide_lignum>
6179

> <i_i_glide_rotatable_bonds>
12

> <r_i_docking_score>
-6.84836125655295

> <r_i_glide_ligand_efficiency>
-0.228278708551765

> <r_i_glide_ligand_efficiency_sa>
-0.709315022825038

> <r_i_glide_ligand_efficiency_ln>
-1.55602229636122

> <r_i_glide_gscore>
-6.84836125655295

> <r_i_glide_lipo>
-2.62874210632255

> <r_i_glide_hbond>
-0.842733263808936

> <r_i_glide_metal>
0

> <r_i_glide_rewards>
-1.46449017376839

> <r_i_glide_evdw>
-39.7146415710449

> <r_i_glide_ecoul>
-6.60490036010742

> <r_i_glide_erotb>
1.1119594550122

> <r_i_glide_esite>
-0.0478880350969171

> <r_i_glide_emodel>
-67.9423594915179

> <r_i_glide_energy>
-46.3195419311523

> <r_i_glide_einternal>
6.12738990783691

> <i_i_glide_confnum>
127

> <i_i_glide_posenum>
236

> <r_i_glide_eff_state_penalty>
0

> <s_user_duplicate_titles>
CHEMBL204_lig4512,416168

> <i_f3d_flags>
0

> <s_m_subgroup_title>
dock_pv

> <s_m_subgroupid>
dock_pv

> <b_m_subgroup_collapsed>
1

$$$$
CHEMBL204_lig4162
                    3D
 Schrodinger Suite 2021-1.
 46 49  0  0  1  0            999 V2000
   14.9890  -12.0613   20.6491 N   0  0  0  0  0  0
   15.6002  -10.9047   20.6614 C   0  0  0  0  0  0
   13.7918  -11.8052   21.2609 C   0  0  0  0  0  0
   14.8739   -9.8473   21.1208 O   0  0  0  0  0  0
   13.6761  -16.3054   20.8232 C   0  0  0  0  0  0
   13.7135  -10.4244   21.5254 C   0  0  0  0  0  0
   12.6952  -14.0493   21.4959 N   0  0  0  0  0  0
   12.7326  -12.6519   21.6660 C   0  0  0  0  0  0
   16.8959  -10.6534   20.3210 N   0  0  0  0  0  0
   12.7118  -16.6005   19.6698 C   0  0  0  0  0  0
   13.8756  -14.7924   21.0435 C   0  0  0  0  0  0
   13.2746  -16.7750   18.4426 N   0  0  0  0  0  0
   13.2158  -16.8942   21.9229 F   0  0  0  0  0  0
   14.8602  -16.8759   20.5803 F   0  0  0  0  0  0
   17.8199  -11.6088   19.7138 C   0  0  0  0  0  0
   18.0765  -12.8978   21.9199 C   0  0  0  0  0  0
   18.8132  -13.7292   22.7640 C   0  0  0  0  0  0
   18.6151  -12.4599   20.7019 C   0  0  0  0  0  0
   18.1348  -14.2536   24.2620 Cl  0  0  0  0  0  0
   12.6408   -9.8188   22.1776 C   0  0  0  0  0  0
   11.6165  -10.6704   22.5844 C   0  0  0  0  0  0
   20.6292  -13.7313   21.1732 C   0  0  0  0  0  0
   11.6549  -12.0428   22.3215 C   0  0  0  0  0  0
   12.4563  -17.0547   17.3992 C   0  0  0  0  0  0
   11.3264  -16.6802   19.8716 C   0  0  0  0  0  0
   20.0926  -14.1406   22.3935 C   0  0  0  0  0  0
   19.8904  -12.9022   20.3292 C   0  0  0  0  0  0
   11.0700  -17.1526   17.5226 C   0  0  0  0  0  0
   10.5013  -16.9595   18.7808 C   0  0  0  0  0  0
   12.0669  -14.5327   22.1279 H   0  0  0  0  0  0
   17.3320   -9.8023   20.6567 H   0  0  0  0  0  0
   14.6725  -14.6338   21.7720 H   0  0  0  0  0  0
   14.2421  -14.3595   20.1137 H   0  0  0  0  0  0
   17.2654  -12.2864   19.0620 H   0  0  0  0  0  0
   18.5120  -11.0548   19.0853 H   0  0  0  0  0  0
   17.0832  -12.6053   22.2223 H   0  0  0  0  0  0
   12.6259   -8.7609   22.3928 H   0  0  0  0  0  0
   10.7727  -10.2646   23.1238 H   0  0  0  0  0  0
   21.6141  -14.0640   20.8789 H   0  0  0  0  0  0
   10.8263  -12.6514   22.6602 H   0  0  0  0  0  0
   12.9255  -17.1722   16.4325 H   0  0  0  0  0  0
   10.8927  -16.5133   20.8457 H   0  0  0  0  0  0
   20.6645  -14.7845   23.0453 H   0  0  0  0  0  0
   20.3161  -12.6080   19.3809 H   0  0  0  0  0  0
   10.4533  -17.3588   16.6596 H   0  0  0  0  0  0
    9.4304  -17.0205   18.9073 H   0  0  0  0  0  0
  1  2  2  0  0  0
  1  3  1  0  0  0
  2  4  1  0  0  0
  2  9  1  0  0  0
  3  6  2  0  0  0
  3  8  1  0  0  0
  4  6  1  0  0  0
  5 11  1  0  0  0
  5 10  1  0  0  0
  5 13  1  0  0  0
  5 14  1  0  0  0
  6 20  1  0  0  0
  7  8  1  0  0  0
  7 11  1  0  0  0
  7 30  1  0  0  0
  8 23  2  0  0  0
  9 15  1  0  0  0
  9 31  1  0  0  0
 10 12  1  0  0  0
 10 25  2  0  0  0
 11 32  1  0  0  0
 11 33  1  0  0  0
 12 24  2  0  0  0
 15 18  1  0  0  0
 15 34  1  0  0  0
 15 35  1  0  0  0
 16 18  2  0  0  0
 16 17  1  0  0  0
 16 36  1  0  0  0
 17 19  1  0  0  0
 17 26  2  0  0  0
 18 27  1  0  0  0
 20 21  2  0  0  0
 20 37  1  0  0  0
 21 23  1  0  0  0
 21 38  1  0  0  0
 22 27  2  0  0  0
 22 26  1  0  0  0
 22 39  1  0  0  0
 23 40  1  0  0  0
 24 28  1  0  0  0
 24 41  1  0  0  0
 25 29  1  0  0  0
 25 42  1  0  0  0
 26 43  1  0  0  0
 27 44  1  0  0  0
 28 29  2  0  0  0
 28 45  1  0  0  0
 29 46  1  0  0  0
M  END
> <s_m_entry_id>
35564

> <s_m_entry_name>
dock_pv.414

> <s_m_Source_Path>
/home/csk/Desktop/cluster/DUD-E-result/thrb

> <s_m_Source_File>
dock_pv.maegz

> <i_m_Source_File_Index>
414

> <chembl_id>
CHEMBL382296

> <chembl_pref_name>
None

> <i_lp_mmshare_version>
53161

> <r_lp_tautomer_probability>
1

> <s_lp_Force_Field>
OPLS_2005

> <r_lp_Energy>
13.82831

> <b_lp_Chiralities_Consistent>
1

> <s_lp_Variant>
CHEMBL204_lig4162-1

> <s_i_glide_gridfile>
glide-grid_1ype

> <i_i_glide_lignum>
5783

> <i_i_glide_rotatable_bonds>
7

> <r_i_docking_score>
-6.84750698811496

> <r_i_glide_ligand_efficiency>
-0.236120930624654

> <r_i_glide_ligand_efficiency_sa>
-0.725438307240469

> <r_i_glide_ligand_efficiency_ln>
-1.56790546248298

> <r_i_glide_gscore>
-6.84750698811496

> <r_i_glide_lipo>
-3.28294482513762

> <r_i_glide_hbond>
-0.571992301751404

> <r_i_glide_metal>
0

> <r_i_glide_rewards>
-0.687382854720539

> <r_i_glide_evdw>
-40.2112236022949

> <r_i_glide_ecoul>
-6.37493848800659

> <r_i_glide_erotb>
0.688292678802481

> <r_i_glide_esite>
-0.0266777319921409

> <r_i_glide_emodel>
-63.1258721963995

> <r_i_glide_energy>
-46.5861620903015

> <r_i_glide_einternal>
4.48392534255981

> <i_i_glide_confnum>
51

> <i_i_glide_posenum>
274

> <r_i_glide_eff_state_penalty>
0

> <s_user_duplicate_titles>
CHEMBL204_lig4162

> <i_f3d_flags>
0

> <s_m_subgroup_title>
dock_pv

> <s_m_subgroupid>
dock_pv

> <b_m_subgroup_collapsed>
1

$$$$
CHEMBL204_lig4542
                    3D
 Schrodinger Suite 2021-1.
 71 75  0  0  1  0            999 V2000
   15.7001  -17.7148   20.3443 C   0  0  1  0  0  0
   15.8219  -17.9089   18.8126 C   0  0  0  0  0  0
   14.8654  -16.8972   18.1827 C   0  0  0  0  0  0
   17.0604  -17.4583   21.0429 C   0  0  0  0  0  0
   17.1368  -16.4768   21.9637 N   0  0  0  0  0  0
   18.0413  -18.1284   20.7216 O   0  0  0  0  0  0
   18.3739  -15.9691   22.5895 C   0  0  2  0  0  0
   18.0577  -15.7771   24.0850 C   0  0  0  0  0  0
   19.0277  -14.7563   21.8301 C   0  0  2  0  0  0
   17.2135  -16.4964   24.6339 O   0  0  0  0  0  0
   18.8147  -14.8231   24.9048 C   0  0  0  0  0  0
   18.9588  -15.1317   26.6022 S   0  0  0  0  0  0
   19.4394  -13.7324   24.5245 N   0  0  0  0  0  0
   14.7152  -16.6218   20.4995 N   0  0  0  0  0  0
   14.6377  -15.8293   19.2517 C   0  0  2  0  0  0
   13.3215  -15.0573   19.1270 C   0  0  0  0  0  0
   13.0338  -14.4158   20.4118 N   0  0  1  0  0  0
   12.8141  -15.3490   21.5437 C   0  0  0  0  0  0
   13.9067  -16.4558   21.5944 C   0  0  0  0  0  0
   14.0158  -17.1868   22.5788 O   0  0  0  0  0  0
   15.4695  -15.1219   19.2488 H   0  0  0  0  0  0
   18.7165  -14.6925   20.3351 C   0  0  0  0  0  0
   20.5816  -14.8091   21.8861 C   0  0  0  0  0  0
   21.1536  -13.4542   21.4259 C   0  0  0  0  0  0
   20.7267  -13.1385   19.9692 C   0  0  1  0  0  0
   19.2114  -13.3580   19.7269 C   0  0  0  0  0  0
   21.2016  -11.8530   19.5032 N   0  0  0  0  0  0
   13.6406  -12.7837   20.7523 S   0  0  0  0  0  0
   12.0477  -11.9024   21.2416 C   0  0  0  0  0  0
   14.5279  -12.8473   21.9209 O   0  0  0  0  0  0
   14.1054  -12.1869   19.4950 O   0  0  0  0  0  0
   12.2158  -10.7677   22.2326 C   0  0  0  0  0  0
   13.1128   -9.7278   21.9746 C   0  0  0  0  0  0
   13.2197   -8.6730   22.8793 C   0  0  0  0  0  0
   12.4155   -8.6463   24.0116 C   0  0  0  0  0  0
   11.5132   -9.6750   24.2611 C   0  0  0  0  0  0
   11.4198  -10.7420   23.3781 C   0  0  0  0  0  0
   19.0934  -16.7912   22.5694 H   0  0  0  0  0  0
   18.6120  -13.8365   22.2400 H   0  0  0  0  0  0
   20.0163  -13.7536   26.7210 C   0  0  0  0  0  0
   20.1084  -13.1458   25.4857 C   0  0  0  0  0  0
   15.3249  -18.6086   20.8443 H   0  0  0  0  0  0
   16.8236  -17.6850   18.4394 H   0  0  0  0  0  0
   15.5530  -18.9211   18.5074 H   0  0  0  0  0  0
   15.2362  -16.4732   17.2481 H   0  0  0  0  0  0
   13.9226  -17.3916   17.9376 H   0  0  0  0  0  0
   16.2896  -15.9792   22.2061 H   0  0  0  0  0  0
   13.3154  -14.3192   18.3229 H   0  0  0  0  0  0
   12.4953  -15.7412   18.9193 H   0  0  0  0  0  0
   11.8152  -15.7807   21.4955 H   0  0  0  0  0  0
   12.8697  -14.7952   22.4824 H   0  0  0  0  0  0
   17.6436  -14.7595   20.1512 H   0  0  0  0  0  0
   19.1440  -15.5975   19.9209 H   0  0  0  0  0  0
   20.9848  -15.6484   21.3153 H   0  0  0  0  0  0
   20.9320  -15.0023   22.8990 H   0  0  0  0  0  0
   22.2396  -13.4525   21.5213 H   0  0  0  0  0  0
   20.7664  -12.6883   22.0951 H   0  0  0  0  0  0
   21.2158  -13.9016   19.3621 H   0  0  0  0  0  0
   18.9885  -13.3309   18.6607 H   0  0  0  0  0  0
   18.6469  -12.5530   20.2016 H   0  0  0  0  0  0
   20.9182  -11.1501   20.1708 H   0  0  0  0  0  0
   22.2124  -11.8616   19.5216 H   0  0  0  0  0  0
   11.6161  -11.5259   20.3214 H   0  0  0  0  0  0
   11.3739  -12.6640   21.6374 H   0  0  0  0  0  0
   13.7315   -9.7413   21.0900 H   0  0  0  0  0  0
   13.9372   -7.8834   22.7214 H   0  0  0  0  0  0
   12.4937   -7.8238   24.7087 H   0  0  0  0  0  0
   10.8624   -9.6457   25.1208 H   0  0  0  0  0  0
   10.7000  -11.5236   23.5788 H   0  0  0  0  0  0
   20.4746  -13.4529   27.6475 H   0  0  0  0  0  0
   20.6688  -12.2472   25.2721 H   0  0  0  0  0  0
  1 14  1  0  0  0
  1  4  1  0  0  0
  1  2  1  0  0  0
  1 42  1  0  0  0
  2  3  1  0  0  0
  2 43  1  0  0  0
  2 44  1  0  0  0
  3 15  1  0  0  0
  3 45  1  0  0  0
  3 46  1  0  0  0
  4  5  1  0  0  0
  4  6  2  0  0  0
  5  7  1  0  0  0
  5 47  1  0  0  0
  7  8  1  0  0  0
  7  9  1  0  0  0
  7 38  1  0  0  0
  8 11  1  0  0  0
  8 10  2  0  0  0
  9 22  1  0  0  0
  9 23  1  0  0  0
  9 39  1  0  0  0
 11 12  1  0  0  0
 11 13  2  0  0  0
 12 40  1  0  0  0
 13 41  1  0  0  0
 14 15  1  0  0  0
 14 19  1  0  0  0
 15 21  1  0  0  0
 15 16  1  0  0  0
 16 17  1  0  0  0
 16 48  1  0  0  0
 16 49  1  0  0  0
 17 28  1  0  0  0
 17 18  1  0  0  0
 18 19  1  0  0  0
 18 50  1  0  0  0
 18 51  1  0  0  0
 19 20  2  0  0  0
 22 26  1  0  0  0
 22 52  1  0  0  0
 22 53  1  0  0  0
 23 24  1  0  0  0
 23 54  1  0  0  0
 23 55  1  0  0  0
 24 25  1  0  0  0
 24 56  1  0  0  0
 24 57  1  0  0  0
 25 26  1  0  0  0
 25 27  1  0  0  0
 25 58  1  0  0  0
 26 59  1  0  0  0
 26 60  1  0  0  0
 27 61  1  0  0  0
 27 62  1  0  0  0
 28 29  1  0  0  0
 28 30  2  0  0  0
 28 31  2  0  0  0
 29 32  1  0  0  0
 29 63  1  0  0  0
 29 64  1  0  0  0
 32 33  2  0  0  0
 32 37  1  0  0  0
 33 34  1  0  0  0
 33 65  1  0  0  0
 34 35  2  0  0  0
 34 66  1  0  0  0
 35 36  1  0  0  0
 35 67  1  0  0  0
 36 37  2  0  0  0
 36 68  1  0  0  0
 37 69  1  0  0  0
 40 41  2  0  0  0
 40 70  1  0  0  0
 41 71  1  0  0  0
M  END
> <s_m_entry_id>
35565

> <s_m_entry_name>
dock_pv.415

> <s_m_Source_Path>
/home/csk/Desktop/cluster/DUD-E-result/thrb

> <s_m_Source_File>
dock_pv.maegz

> <i_m_Source_File_Index>
415

> <chembl_id>
CHEMBL401696

> <chembl_pref_name>
None

> <i_lp_mmshare_version>
53161

> <r_lp_tautomer_probability>
0.99990000499975

> <s_lp_Force_Field>
OPLS_2005

> <r_lp_Energy>
15.93332

> <b_lp_Chiralities_Consistent>
1

> <s_lp_Variant>
CHEMBL204_lig4542-1

> <s_i_glide_gridfile>
glide-grid_1ype

> <i_i_glide_lignum>
6210

> <i_i_glide_rotatable_bonds>
9

> <r_i_docking_score>
-6.84615985515576

> <r_i_glide_ligand_efficiency>
-0.180162101451467

> <r_i_glide_ligand_efficiency_sa>
-0.605700553582624

> <r_i_glide_ligand_efficiency_ln>
-1.47623345839028

> <r_i_glide_gscore>
-6.84615985515576

> <r_i_glide_lipo>
-3.29237190982853

> <r_i_glide_hbond>
-0.32

> <r_i_glide_metal>
0

> <r_i_glide_rewards>
-0.574970120571126

> <r_i_glide_evdw>
-45.5160484313965

> <r_i_glide_ecoul>
-6.00282049179077

> <r_i_glide_erotb>
0.517947704351451

> <r_i_glide_esite>
-0.000540033769112804

> <r_i_glide_emodel>
-64.6990486418346

> <r_i_glide_energy>
-51.5188689231873

> <r_i_glide_einternal>
14.2523927688599

> <i_i_glide_confnum>
47

> <i_i_glide_posenum>
88

> <r_i_glide_eff_state_penalty>
0

> <s_user_duplicate_titles>
CHEMBL204_lig4542,161358

> <i_f3d_flags>
0

> <s_m_subgroup_title>
dock_pv

> <s_m_subgroupid>
dock_pv

> <b_m_subgroup_collapsed>
1

$$$$
CHEMBL204_lig4563
                    3D
 Schrodinger Suite 2021-1.
 59 61  0  0  1  0            999 V2000
   20.3650  -13.5113   26.5025 C   0  0  0  0  0  0
   19.2974  -14.1932   25.9207 C   0  0  0  0  0  0
   19.4514  -14.7835   24.6710 C   0  0  0  0  0  0
   20.6869  -14.7143   24.0239 C   0  0  0  0  0  0
   21.7611  -14.0447   24.6160 C   0  0  0  0  0  0
   21.5972  -13.4398   25.8584 C   0  0  0  0  0  0
   20.8574  -15.3528   22.6609 C   0  0  0  0  0  0
   20.8098  -14.0881   21.2675 S   0  0  0  0  0  0
   19.2443  -13.3079   21.4322 N   0  0  0  0  0  0
   20.8159  -14.8385   20.0096 O   0  0  0  0  0  0
   21.8110  -13.0530   21.5243 O   0  0  0  0  0  0
   18.5285  -12.7423   20.3488 C   0  0  0  0  0  0
   17.1804  -12.2750   20.7116 C   0  0  0  0  0  0
   16.3895  -11.8609   19.6473 N   0  0  0  0  0  0
   16.8389  -11.9173   18.3266 C   0  0  0  0  0  0
   18.1045  -12.2496   18.0149 C   0  0  0  0  0  0
   18.9896  -12.6592   19.0786 C   0  0  0  0  0  0
   16.8043  -12.2580   21.8913 O   0  0  0  0  0  0
   15.8165  -11.6881   17.2157 C   0  0  0  0  0  0
   15.0713  -11.3136   20.0168 C   0  0  0  0  0  0
   14.0053  -12.3320   20.3913 C   0  0  0  0  0  0
   13.9418  -13.7311   20.4417 C   0  0  0  0  0  0
   12.7711  -14.1408   20.9049 N   0  0  0  0  0  0
   12.0813  -13.0513   21.1233 C   0  0  0  0  0  0
   12.7699  -11.9061   20.8187 N   0  0  0  0  0  0
   14.9795  -14.7655   20.0658 C   0  0  0  0  0  0
   12.2775  -10.5366   20.8854 C   0  0  0  0  0  0
   12.5855   -9.8247   22.1919 C   0  0  0  0  0  0
   11.6339   -9.8576   23.1395 N   0  0  0  0  0  0
   13.6698   -9.2674   22.3210 O   0  0  0  0  0  0
   11.7429   -9.3076   24.4885 C   0  0  0  0  0  0
   12.2000   -7.8368   24.5716 C   0  0  0  0  0  0
   20.2339  -13.0383   27.4655 H   0  0  0  0  0  0
   18.3499  -14.2541   26.4323 H   0  0  0  0  0  0
   18.6136  -15.2948   24.2176 H   0  0  0  0  0  0
   22.7133  -13.9789   24.1102 H   0  0  0  0  0  0
   22.4159  -12.9114   26.3200 H   0  0  0  0  0  0
   20.0716  -16.0802   22.4544 H   0  0  0  0  0  0
   21.8148  -15.8693   22.5853 H   0  0  0  0  0  0
   19.0979  -12.8470   22.3338 H   0  0  0  0  0  0
   18.4366  -12.2748   16.9897 H   0  0  0  0  0  0
   19.9903  -12.9720   18.8185 H   0  0  0  0  0  0
   16.2275  -11.9338   16.2345 H   0  0  0  0  0  0
   14.9423  -12.3239   17.3654 H   0  0  0  0  0  0
   15.4916  -10.6531   17.1787 H   0  0  0  0  0  0
   14.7044  -10.6693   19.2212 H   0  0  0  0  0  0
   15.2177  -10.6243   20.8518 H   0  0  0  0  0  0
   11.0774  -13.0028   21.5157 H   0  0  0  0  0  0
   15.6903  -14.9283   20.8806 H   0  0  0  0  0  0
   14.5368  -15.7389   19.8337 H   0  0  0  0  0  0
   15.5566  -14.4713   19.1863 H   0  0  0  0  0  0
   11.2159  -10.5409   20.7215 H   0  0  0  0  0  0
   12.6904   -9.9657   20.0542 H   0  0  0  0  0  0
   10.7569  -10.3212   22.9347 H   0  0  0  0  0  0
   12.4157   -9.9452   25.0591 H   0  0  0  0  0  0
   10.7685   -9.4116   24.9679 H   0  0  0  0  0  0
   12.0965   -7.4484   25.5833 H   0  0  0  0  0  0
   11.6158   -7.1928   23.9225 H   0  0  0  0  0  0
   13.2512   -7.7289   24.3111 H   0  0  0  0  0  0
  1  6  1  0  0  0
  1  2  2  0  0  0
  1 33  1  0  0  0
  2  3  1  0  0  0
  2 34  1  0  0  0
  3  4  2  0  0  0
  3 35  1  0  0  0
  4  5  1  0  0  0
  4  7  1  0  0  0
  5  6  2  0  0  0
  5 36  1  0  0  0
  6 37  1  0  0  0
  7  8  1  0  0  0
  7 38  1  0  0  0
  7 39  1  0  0  0
  8  9  1  0  0  0
  8 10  2  0  0  0
  8 11  2  0  0  0
  9 12  1  0  0  0
  9 40  1  0  0  0
 12 17  2  0  0  0
 12 13  1  0  0  0
 13 18  2  0  0  0
 13 14  1  0  0  0
 14 20  1  0  0  0
 14 15  1  0  0  0
 15 16  2  0  0  0
 15 19  1  0  0  0
 16 17  1  0  0  0
 16 41  1  0  0  0
 17 42  1  0  0  0
 19 43  1  0  0  0
 19 44  1  0  0  0
 19 45  1  0  0  0
 20 21  1  0  0  0
 20 46  1  0  0  0
 20 47  1  0  0  0
 21 22  2  0  0  0
 21 25  1  0  0  0
 22 23  1  0  0  0
 22 26  1  0  0  0
 23 24  2  0  0  0
 24 25  1  0  0  0
 24 48  1  0  0  0
 25 27  1  0  0  0
 26 49  1  0  0  0
 26 50  1  0  0  0
 26 51  1  0  0  0
 27 28  1  0  0  0
 27 52  1  0  0  0
 27 53  1  0  0  0
 28 29  1  0  0  0
 28 30  2  0  0  0
 29 31  1  0  0  0
 29 54  1  0  0  0
 31 32  1  0  0  0
 31 55  1  0  0  0
 31 56  1  0  0  0
 32 57  1  0  0  0
 32 58  1  0  0  0
 32 59  1  0  0  0
M  END
> <s_m_entry_id>
35566

> <s_m_entry_name>
dock_pv.416

> <s_m_Source_Path>
/home/csk/Desktop/cluster/DUD-E-result/thrb

> <s_m_Source_File>
dock_pv.maegz

> <i_m_Source_File_Index>
416

> <chembl_id>
CHEMBL270357

> <chembl_pref_name>
None

> <i_lp_mmshare_version>
53161

> <r_lp_tautomer_probability>
1

> <s_lp_Force_Field>
OPLS_2005

> <r_lp_Energy>
23.78035

> <b_lp_Chiralities_Consistent>
1

> <s_lp_Variant>
CHEMBL204_lig4563-1

> <s_i_glide_gridfile>
glide-grid_1ype

> <i_i_glide_lignum>
6233

> <i_i_glide_rotatable_bonds>
10

> <r_i_docking_score>
-6.84269121749253

> <r_i_glide_ligand_efficiency>
-0.213834100546641

> <r_i_glide_ligand_efficiency_sa>
-0.678880951524551

> <r_i_glide_ligand_efficiency_ln>
-1.53226508831447

> <r_i_glide_gscore>
-6.84269121749253

> <r_i_glide_lipo>
-3.02341240133743

> <r_i_glide_hbond>
-0.111187902489689

> <r_i_glide_metal>
0

> <r_i_glide_rewards>
-1.56312501109863

> <r_i_glide_evdw>
-50.9664268493652

> <r_i_glide_ecoul>
-2.42164373397827

> <r_i_glide_erotb>
0.768314595091895

> <r_i_glide_esite>
-0.0017125950936667

> <r_i_glide_emodel>
-71.4102921973881

> <r_i_glide_energy>
-53.3880705833435

> <r_i_glide_einternal>
6.51148653030396

> <i_i_glide_confnum>
20

> <i_i_glide_posenum>
259

> <r_i_glide_eff_state_penalty>
0

> <s_user_duplicate_titles>
CHEMBL204_lig4563

> <i_f3d_flags>
0

> <s_m_subgroup_title>
dock_pv

> <s_m_subgroupid>
dock_pv

> <b_m_subgroup_collapsed>
1

$$$$
CHEMBL204_lig4608
                    3D
 Schrodinger Suite 2021-1.
 73 76  0  0  1  0            999 V2000
   14.4150  -10.6528   12.8375 N   0  0  0  0  0  0
   15.2770  -11.5525   13.5814 C   0  0  0  0  0  0
   15.5140  -10.9860   14.9913 C   0  0  0  0  0  0
   16.2722  -11.9514   15.9348 C   0  0  0  0  0  0
   16.9719  -11.1954   17.0746 C   0  0  0  0  0  0
   17.7929  -12.1365   17.9767 C   0  0  0  0  0  0
   16.8406  -13.1270   18.5311 N   0  0  0  0  0  0
   16.0980  -13.9497   17.5421 C   0  0  0  0  0  0
   15.3398  -12.9855   16.6001 C   0  0  0  0  0  0
   16.8306  -13.3666   19.8750 C   0  0  0  0  0  0
   17.6215  -12.7867   20.6293 O   0  0  0  0  0  0
   15.6885  -14.2240   20.5048 C   0  0  2  0  0  0
   14.2522  -13.6192   20.3770 C   0  0  0  0  0  0
   13.9542  -12.2496   21.0008 C   0  0  0  0  0  0
   14.6343  -11.0991   20.5910 C   0  0  0  0  0  0
   14.3086   -9.8566   21.1210 C   0  0  0  0  0  0
   13.2793   -9.7462   22.0477 C   0  0  0  0  0  0
   12.5631  -10.8714   22.4891 C   0  0  0  0  0  0
   12.9176  -12.1207   21.9341 C   0  0  0  0  0  0
   11.5039  -10.7143   23.5222 C   0  0  0  0  0  0
   11.2762   -9.6052   24.0713 N   0  0  0  0  0  0
   10.8157  -11.8530   23.8449 N   0  0  0  0  0  0
   16.0352  -14.5718   21.9201 N   0  0  2  0  0  0
   17.0328  -16.0115   22.1596 S   0  0  0  0  0  0
   16.1147  -17.1147   22.4641 O   0  0  0  0  0  0
   17.9738  -16.1138   21.0379 O   0  0  0  0  0  0
   18.0005  -15.7154   23.6399 C   0  0  0  0  0  0
   17.4011  -15.8528   24.8926 C   0  0  0  0  0  0
   18.1290  -15.6017   26.0515 C   0  0  0  0  0  0
   19.4750  -15.2557   25.9611 C   0  0  0  0  0  0
   20.1124  -15.1665   24.7179 C   0  0  0  0  0  0
   19.3574  -15.3837   23.5575 C   0  0  0  0  0  0
   21.5721  -14.8903   24.6361 C   0  0  0  0  0  0
   22.4040  -15.8176   23.9917 C   0  0  0  0  0  0
   23.7828  -15.6235   23.9212 C   0  0  0  0  0  0
   24.3519  -14.4764   24.4663 C   0  0  0  0  0  0
   23.5379  -13.5395   25.0985 C   0  0  0  0  0  0
   22.1602  -13.7429   25.2004 C   0  0  0  0  0  0
   21.2160  -12.5479   26.0219 Cl  0  0  0  0  0  0
   14.8625   -9.7517   12.6980 H   0  0  0  0  0  0
   14.2388  -11.0240   11.9134 H   0  0  0  0  0  0
   14.8169  -12.5399   13.6210 H   0  0  0  0  0  0
   16.2229  -11.6667   13.0511 H   0  0  0  0  0  0
   16.0737  -10.0558   14.8840 H   0  0  0  0  0  0
   14.5659  -10.7043   15.4511 H   0  0  0  0  0  0
   17.0412  -12.4816   15.3692 H   0  0  0  0  0  0
   17.6160  -10.4261   16.6555 H   0  0  0  0  0  0
   16.2376  -10.6525   17.6673 H   0  0  0  0  0  0
   18.5582  -12.6529   17.3992 H   0  0  0  0  0  0
   18.2862  -11.5371   18.7432 H   0  0  0  0  0  0
   16.8154  -14.5241   16.9581 H   0  0  0  0  0  0
   15.3832  -14.6439   17.9790 H   0  0  0  0  0  0
   14.5427  -12.4811   17.1493 H   0  0  0  0  0  0
   14.8161  -13.5582   15.8338 H   0  0  0  0  0  0
   15.6663  -15.1747   19.9729 H   0  0  0  0  0  0
   13.9862  -13.5274   19.3248 H   0  0  0  0  0  0
   13.5407  -14.3506   20.7619 H   0  0  0  0  0  0
   15.4165  -11.1456   19.8538 H   0  0  0  0  0  0
   14.8516   -8.9756   20.8137 H   0  0  0  0  0  0
   13.0611   -8.7642   22.4420 H   0  0  0  0  0  0
   12.3928  -13.0156   22.2336 H   0  0  0  0  0  0
   10.5097   -9.6834   24.7281 H   0  0  0  0  0  0
    9.9889  -11.7704   24.4303 H   0  0  0  0  0  0
   10.9918  -12.7582   23.4258 H   0  0  0  0  0  0
   15.2044  -14.6112   22.5189 H   0  0  0  0  0  0
   16.3671  -16.1446   24.9713 H   0  0  0  0  0  0
   17.6532  -15.6813   27.0181 H   0  0  0  0  0  0
   20.0323  -15.0744   26.8679 H   0  0  0  0  0  0
   19.8318  -15.3016   22.5896 H   0  0  0  0  0  0
   21.9794  -16.7131   23.5588 H   0  0  0  0  0  0
   24.4074  -16.3622   23.4407 H   0  0  0  0  0  0
   25.4195  -14.3150   24.4078 H   0  0  0  0  0  0
   23.9862  -12.6534   25.5204 H   0  0  0  0  0  0
  1  2  1  0  0  0
  1 40  1  0  0  0
  1 41  1  0  0  0
  2  3  1  0  0  0
  2 42  1  0  0  0
  2 43  1  0  0  0
  3  4  1  0  0  0
  3 44  1  0  0  0
  3 45  1  0  0  0
  4  5  1  0  0  0
  4  9  1  0  0  0
  4 46  1  0  0  0
  5  6  1  0  0  0
  5 47  1  0  0  0
  5 48  1  0  0  0
  6  7  1  0  0  0
  6 49  1  0  0  0
  6 50  1  0  0  0
  7  8  1  0  0  0
  7 10  1  0  0  0
  8  9  1  0  0  0
  8 51  1  0  0  0
  8 52  1  0  0  0
  9 53  1  0  0  0
  9 54  1  0  0  0
 10 11  2  0  0  0
 10 12  1  0  0  0
 12 13  1  0  0  0
 12 23  1  0  0  0
 12 55  1  0  0  0
 13 14  1  0  0  0
 13 56  1  0  0  0
 13 57  1  0  0  0
 14 15  2  0  0  0
 14 19  1  0  0  0
 15 16  1  0  0  0
 15 58  1  0  0  0
 16 17  2  0  0  0
 16 59  1  0  0  0
 17 18  1  0  0  0
 17 60  1  0  0  0
 18 19  2  0  0  0
 18 20  1  0  0  0
 19 61  1  0  0  0
 20 21  2  0  0  0
 20 22  1  0  0  0
 21 62  1  0  0  0
 22 63  1  0  0  0
 22 64  1  0  0  0
 23 24  1  0  0  0
 23 65  1  0  0  0
 24 25  2  0  0  0
 24 26  2  0  0  0
 24 27  1  0  0  0
 27 28  2  0  0  0
 27 32  1  0  0  0
 28 29  1  0  0  0
 28 66  1  0  0  0
 29 30  2  0  0  0
 29 67  1  0  0  0
 30 31  1  0  0  0
 30 68  1  0  0  0
 31 32  2  0  0  0
 31 33  1  0  0  0
 32 69  1  0  0  0
 33 34  2  0  0  0
 33 38  1  0  0  0
 34 35  1  0  0  0
 34 70  1  0  0  0
 35 36  2  0  0  0
 35 71  1  0  0  0
 36 37  1  0  0  0
 36 72  1  0  0  0
 37 38  2  0  0  0
 37 73  1  0  0  0
 38 39  1  0  0  0
M  END
> <s_m_entry_id>
35567

> <s_m_entry_name>
dock_pv.417

> <s_m_Source_Path>
/home/csk/Desktop/cluster/DUD-E-result/thrb

> <s_m_Source_File>
dock_pv.maegz

> <i_m_Source_File_Index>
417

> <chembl_id>
CHEMBL513818

> <chembl_pref_name>
None

> <i_lp_mmshare_version>
53161

> <r_lp_tautomer_probability>
1

> <s_lp_Force_Field>
OPLS_2005

> <r_lp_Energy>
35.869041

> <b_lp_Chiralities_Consistent>
1

> <s_lp_Variant>
CHEMBL204_lig4608-1

> <s_i_glide_gridfile>
glide-grid_1ype

> <i_i_glide_lignum>
6280

> <i_i_glide_rotatable_bonds>
11

> <r_i_docking_score>
-6.8422815059013

> <r_i_glide_ligand_efficiency>
-0.175443115535931

> <r_i_glide_ligand_efficiency_sa>
-0.594964700276941

> <r_i_glide_ligand_efficiency_ln>
-1.46717938457612

> <r_i_glide_gscore>
-6.8422815059013

> <r_i_glide_lipo>
-3.45880294631555

> <r_i_glide_hbond>
-1.01674802632822

> <r_i_glide_metal>
0

> <r_i_glide_rewards>
1.48873936680635

> <r_i_glide_evdw>
-52.777702331543

> <r_i_glide_ecoul>
-10.6493291854858

> <r_i_glide_erotb>
0.492948150744621

> <r_i_glide_esite>
-0.112133556408464

> <r_i_glide_emodel>
-75.3535426320107

> <r_i_glide_energy>
-63.4270315170288

> <r_i_glide_einternal>
18.9488315582275

> <i_i_glide_confnum>
6

> <i_i_glide_posenum>
152

> <r_i_glide_eff_state_penalty>
0

> <s_user_duplicate_titles>
CHEMBL204_lig4608,472298

> <i_f3d_flags>
0

> <s_m_subgroup_title>
dock_pv

> <s_m_subgroupid>
dock_pv

> <b_m_subgroup_collapsed>
1

$$$$
CHEMBL204_lig5121
                    3D
 Schrodinger Suite 2021-1.
 46 48  0  0  1  0            999 V2000
   20.8159  -14.5320   20.7057 N   0  0  0  0  0  0
   20.8168  -13.5171   21.7421 C   0  0  0  0  0  0
   20.1724  -14.0497   23.0179 C   0  0  0  0  0  0
   21.0050  -14.5991   23.9990 C   0  0  0  0  0  0
   20.4664  -15.1371   25.1654 C   0  0  0  0  0  0
   19.0880  -15.1352   25.3564 C   0  0  0  0  0  0
   18.4159  -15.8497   26.7741 Cl  0  0  0  0  0  0
   18.2503  -14.5701   24.3968 C   0  0  0  0  0  0
   18.7762  -14.0141   23.2209 C   0  0  0  0  0  0
   17.8654  -13.4040   22.1486 C   0  0  0  0  0  0
   16.4172  -13.5512   22.3205 N   0  0  0  0  0  0
   15.5435  -12.9228   21.5197 C   0  0  0  0  0  0
   15.8929  -12.0962   20.6762 O   0  0  0  0  0  0
   14.0508  -13.3133   21.6755 C   0  0  2  0  0  0
   13.8209  -14.8253   21.4172 C   0  0  0  0  0  0
   12.8601  -14.9257   20.2354 C   0  0  0  0  0  0
   13.0145  -13.5843   19.5371 C   0  0  0  0  0  0
   13.2085  -12.6647   20.6510 N   0  0  0  0  0  0
   12.9426  -11.3386   20.5858 C   0  0  0  0  0  0
   12.8195  -10.7358   19.5205 O   0  0  0  0  0  0
   12.7156  -10.5992   21.8733 C   0  0  0  0  0  0
   11.7081  -11.0515   22.6719 N   0  0  0  0  0  0
   11.3724  -10.2644   23.7284 C   0  0  0  0  0  0
   12.0163   -9.0532   23.9903 C   0  0  0  0  0  0
   13.0481   -8.6872   23.1213 C   0  0  0  0  0  0
   13.4084   -9.4440   22.0519 N   0  0  0  0  0  0
   21.0594  -14.1109   19.8193 H   0  0  0  0  0  0
   21.5729  -15.1817   20.8942 H   0  0  0  0  0  0
   20.2746  -12.6484   21.3770 H   0  0  0  0  0  0
   21.8390  -13.1882   21.9348 H   0  0  0  0  0  0
   22.0753  -14.6264   23.8530 H   0  0  0  0  0  0
   21.1192  -15.5667   25.9117 H   0  0  0  0  0  0
   17.1883  -14.5752   24.5819 H   0  0  0  0  0  0
   18.1182  -12.3442   22.0612 H   0  0  0  0  0  0
   18.1228  -13.8717   21.1964 H   0  0  0  0  0  0
   16.0767  -14.2547   22.9647 H   0  0  0  0  0  0
   13.7075  -13.0497   22.6771 H   0  0  0  0  0  0
   14.7511  -15.3366   21.1640 H   0  0  0  0  0  0
   13.4137  -15.3255   22.2976 H   0  0  0  0  0  0
   13.0536  -15.7787   19.5838 H   0  0  0  0  0  0
   11.8391  -15.0144   20.6126 H   0  0  0  0  0  0
   13.8948  -13.5690   18.8911 H   0  0  0  0  0  0
   12.1370  -13.3454   18.9328 H   0  0  0  0  0  0
   10.5559  -10.6130   24.3498 H   0  0  0  0  0  0
   11.7389   -8.4386   24.8338 H   0  0  0  0  0  0
   13.6151   -7.7824   23.2827 H   0  0  0  0  0  0
  1  2  1  0  0  0
  1 27  1  0  0  0
  1 28  1  0  0  0
  2  3  1  0  0  0
  2 29  1  0  0  0
  2 30  1  0  0  0
  3  4  2  0  0  0
  3  9  1  0  0  0
  4  5  1  0  0  0
  4 31  1  0  0  0
  5  6  2  0  0  0
  5 32  1  0  0  0
  6  7  1  0  0  0
  6  8  1  0  0  0
  8  9  2  0  0  0
  8 33  1  0  0  0
  9 10  1  0  0  0
 10 11  1  0  0  0
 10 34  1  0  0  0
 10 35  1  0  0  0
 11 12  1  0  0  0
 11 36  1  0  0  0
 12 13  2  0  0  0
 12 14  1  0  0  0
 14 15  1  0  0  0
 14 18  1  0  0  0
 14 37  1  0  0  0
 15 16  1  0  0  0
 15 38  1  0  0  0
 15 39  1  0  0  0
 16 17  1  0  0  0
 16 40  1  0  0  0
 16 41  1  0  0  0
 17 18  1  0  0  0
 17 42  1  0  0  0
 17 43  1  0  0  0
 18 19  1  0  0  0
 19 20  2  0  0  0
 19 21  1  0  0  0
 21 22  2  0  0  0
 21 26  1  0  0  0
 22 23  1  0  0  0
 23 24  2  0  0  0
 23 44  1  0  0  0
 24 25  1  0  0  0
 24 45  1  0  0  0
 25 26  2  0  0  0
 25 46  1  0  0  0
M  END
> <s_m_entry_id>
35568

> <s_m_entry_name>
dock_pv.418

> <s_m_Source_Path>
/home/csk/Desktop/cluster/DUD-E-result/thrb

> <s_m_Source_File>
dock_pv.maegz

> <i_m_Source_File_Index>
418

> <chembl_id>
CHEMBL3976496

> <chembl_pref_name>
None

> <i_lp_mmshare_version>
53161

> <r_lp_tautomer_probability>
1

> <s_lp_Force_Field>
OPLS_2005

> <r_lp_Energy>
10.463958

> <b_lp_Chiralities_Consistent>
1

> <s_lp_Variant>
CHEMBL204_lig5121-1

> <s_i_glide_gridfile>
glide-grid_1ype

> <i_i_glide_lignum>
7019

> <i_i_glide_rotatable_bonds>
7

> <r_i_docking_score>
-6.84171767996742

> <r_i_glide_ligand_efficiency>
-0.263142987691055

> <r_i_glide_ligand_efficiency_sa>
-0.779560065617092

> <r_i_glide_ligand_efficiency_ln>
-1.60675494763358

> <r_i_glide_gscore>
-6.84171767996742

> <r_i_glide_lipo>
-2.50612325872359

> <r_i_glide_hbond>
-0.380699934201165

> <r_i_glide_metal>
0

> <r_i_glide_rewards>
-1.63567398273231

> <r_i_glide_evdw>
-42.6615028381348

> <r_i_glide_ecoul>
-6.65378046035767

> <r_i_glide_erotb>
0.829864771610875

> <r_i_glide_esite>
-0.017943064960838

> <r_i_glide_emodel>
-59.3881970369468

> <r_i_glide_energy>
-49.3152832984924

> <r_i_glide_einternal>
20.6270694732666

> <i_i_glide_confnum>
153

> <i_i_glide_posenum>
372

> <r_i_glide_eff_state_penalty>
0

> <s_user_duplicate_titles>
CHEMBL204_lig5121

> <i_f3d_flags>
0

> <s_m_subgroup_title>
dock_pv

> <s_m_subgroupid>
dock_pv

> <b_m_subgroup_collapsed>
1

$$$$
CHEMBL204_lig5120
                    3D
 Schrodinger Suite 2021-1.
 54 57  0  0  1  0            999 V2000
   10.8355  -17.9102   18.2396 N   0  0  0  0  0  0
   11.7708  -17.0632   17.5181 C   0  0  0  0  0  0
   13.1133  -16.9722   18.2439 C   0  0  0  0  0  0
   14.2491  -17.4923   17.6107 C   0  0  0  0  0  0
   15.4933  -17.4624   18.2420 C   0  0  0  0  0  0
   15.6177  -16.9054   19.5112 C   0  0  0  0  0  0
   17.1424  -16.8918   20.3213 Cl  0  0  0  0  0  0
   14.4998  -16.3627   20.1371 C   0  0  0  0  0  0
   13.2391  -16.3893   19.5231 C   0  0  0  0  0  0
   12.0342  -15.7571   20.2325 C   0  0  0  0  0  0
   12.3643  -14.6512   21.1308 N   0  0  0  0  0  0
   12.5556  -13.3878   20.7341 C   0  0  0  0  0  0
   12.4162  -12.9928   19.5775 O   0  0  0  0  0  0
   13.0250  -12.4126   21.8298 C   0  0  2  0  0  0
   12.0076  -11.2963   22.1177 C   0  0  0  0  0  0
   12.4505  -10.1297   21.2487 C   0  0  0  0  0  0
   13.9717  -10.2611   21.2396 C   0  0  0  0  0  0
   14.2385  -11.6938   21.4134 N   0  0  0  0  0  0
   15.4263  -12.3187   21.2025 C   0  0  0  0  0  0
   15.5943  -13.4966   21.5220 O   0  0  0  0  0  0
   16.6008  -11.5186   20.5864 C   0  0  2  0  0  0
   16.2646  -11.2727   19.1749 N   0  0  2  0  0  0
   17.1751  -12.2585   18.0609 S   0  0  0  0  0  0
   16.4726  -13.5173   17.7917 O   0  0  0  0  0  0
   17.6688  -11.4538   16.9387 O   0  0  0  0  0  0
   18.4414  -12.5099   19.3243 C   0  0  0  0  0  0
   19.7134  -13.0430   19.1210 C   0  0  0  0  0  0
   20.4651  -13.4038   20.2392 C   0  0  0  0  0  0
   19.9513  -13.2258   21.5228 C   0  0  0  0  0  0
   18.7004  -12.6346   21.7041 C   0  0  0  0  0  0
   17.9368  -12.2449   20.5981 C   0  0  0  0  0  0
    9.9115  -17.8543   17.8273 H   0  0  0  0  0  0
   11.1191  -18.8739   18.1450 H   0  0  0  0  0  0
   11.3544  -16.0634   17.3973 H   0  0  0  0  0  0
   11.9014  -17.4587   16.5083 H   0  0  0  0  0  0
   14.1704  -17.9291   16.6256 H   0  0  0  0  0  0
   16.3609  -17.8764   17.7486 H   0  0  0  0  0  0
   14.6245  -15.9208   21.1155 H   0  0  0  0  0  0
   11.2987  -15.4090   19.5100 H   0  0  0  0  0  0
   11.5386  -16.5404   20.8037 H   0  0  0  0  0  0
   12.4997  -14.8751   22.1056 H   0  0  0  0  0  0
   13.2141  -12.9722   22.7477 H   0  0  0  0  0  0
   10.9729  -11.5930   21.9291 H   0  0  0  0  0  0
   12.0735  -11.0175   23.1716 H   0  0  0  0  0  0
   12.0671  -10.2725   20.2382 H   0  0  0  0  0  0
   12.0961   -9.1635   21.6073 H   0  0  0  0  0  0
   14.3815   -9.8502   20.3224 H   0  0  0  0  0  0
   14.4137   -9.7125   22.0721 H   0  0  0  0  0  0
   16.6819  -10.5714   21.1176 H   0  0  0  0  0  0
   16.0201  -10.3006   18.9700 H   0  0  0  0  0  0
   20.1001  -13.2507   18.1347 H   0  0  0  0  0  0
   21.4406  -13.8515   20.1134 H   0  0  0  0  0  0
   20.5337  -13.5241   22.3807 H   0  0  0  0  0  0
   18.3372  -12.4730   22.7083 H   0  0  0  0  0  0
  1  2  1  0  0  0
  1 32  1  0  0  0
  1 33  1  0  0  0
  2  3  1  0  0  0
  2 34  1  0  0  0
  2 35  1  0  0  0
  3  4  2  0  0  0
  3  9  1  0  0  0
  4  5  1  0  0  0
  4 36  1  0  0  0
  5  6  2  0  0  0
  5 37  1  0  0  0
  6  7  1  0  0  0
  6  8  1  0  0  0
  8  9  2  0  0  0
  8 38  1  0  0  0
  9 10  1  0  0  0
 10 11  1  0  0  0
 10 39  1  0  0  0
 10 40  1  0  0  0
 11 12  1  0  0  0
 11 41  1  0  0  0
 12 13  2  0  0  0
 12 14  1  0  0  0
 14 15  1  0  0  0
 14 18  1  0  0  0
 14 42  1  0  0  0
 15 16  1  0  0  0
 15 43  1  0  0  0
 15 44  1  0  0  0
 16 17  1  0  0  0
 16 45  1  0  0  0
 16 46  1  0  0  0
 17 18  1  0  0  0
 17 47  1  0  0  0
 17 48  1  0  0  0
 18 19  1  0  0  0
 19 20  2  0  0  0
 19 21  1  0  0  0
 21 22  1  0  0  0
 21 31  1  0  0  0
 21 49  1  0  0  0
 22 23  1  0  0  0
 22 50  1  0  0  0
 23 24  2  0  0  0
 23 25  2  0  0  0
 23 26  1  0  0  0
 26 27  2  0  0  0
 26 31  1  0  0  0
 27 28  1  0  0  0
 27 51  1  0  0  0
 28 29  2  0  0  0
 28 52  1  0  0  0
 29 30  1  0  0  0
 29 53  1  0  0  0
 30 31  2  0  0  0
 30 54  1  0  0  0
M  END
> <s_m_entry_id>
35569

> <s_m_entry_name>
dock_pv.419

> <s_m_Source_Path>
/home/csk/Desktop/cluster/DUD-E-result/thrb

> <s_m_Source_File>
dock_pv.maegz

> <i_m_Source_File_Index>
419

> <chembl_id>
CHEMBL4109475

> <chembl_pref_name>
None

> <i_lp_mmshare_version>
53161

> <r_lp_tautomer_probability>
1

> <s_lp_Force_Field>
OPLS_2005

> <r_lp_Energy>
31.674456

> <b_lp_Chiralities_Consistent>
1

> <s_lp_Variant>
CHEMBL204_lig5120-1

> <s_i_glide_gridfile>
glide-grid_1ype

> <i_i_glide_lignum>
7017

> <i_i_glide_rotatable_bonds>
7

> <r_i_docking_score>
-6.84030828659078

> <r_i_glide_ligand_efficiency>
-0.220655106019058

> <r_i_glide_ligand_efficiency_sa>
-0.693161680106203

> <r_i_glide_ligand_efficiency_ln>
-1.54269914889956

> <r_i_glide_gscore>
-6.84030828659078

> <r_i_glide_lipo>
-2.4375210996579

> <r_i_glide_hbond>
-0.494917620172676

> <r_i_glide_metal>
0

> <r_i_glide_rewards>
-1.235674780577

> <r_i_glide_evdw>
-41.2134475708008

> <r_i_glide_ecoul>
-7.62957382202148

> <r_i_glide_erotb>
0.564043637695355

> <r_i_glide_esite>
-0.0311299720352997

> <r_i_glide_emodel>
-65.4081581410768

> <r_i_glide_energy>
-48.8430213928223

> <r_i_glide_einternal>
2.77112936973572

> <i_i_glide_confnum>
48

> <i_i_glide_posenum>
59

> <r_i_glide_eff_state_penalty>
0

> <s_user_duplicate_titles>
CHEMBL204_lig5120

> <i_f3d_flags>
0

> <s_m_subgroup_title>
dock_pv

> <s_m_subgroupid>
dock_pv

> <b_m_subgroup_collapsed>
1

$$$$
CHEMBL204_lig5004
                    3D
 Schrodinger Suite 2021-1.
 69 72  0  0  1  0            999 V2000
   20.1326  -12.7663   20.0771 C   0  0  0  0  0  0
   18.9664  -12.1493   19.6451 C   0  0  0  0  0  0
   17.8101  -12.2031   20.3968 C   0  0  0  0  0  0
   17.8348  -12.8228   21.6554 C   0  0  0  0  0  0
   19.0305  -13.3478   22.1651 C   0  0  0  0  0  0
   20.1750  -13.3364   21.3488 C   0  0  0  0  0  0
   16.5631  -11.6464   19.7360 C   0  0  2  0  0  0
   15.9167  -10.6524   20.5909 N   0  0  0  0  0  0
   14.6198  -10.7227   21.1210 C   0  0  0  0  0  0
   14.0140   -9.5191   21.4522 C   0  0  0  0  0  0
   12.8623   -9.5098   22.2306 C   0  0  0  0  0  0
   12.2997  -10.7053   22.7140 C   0  0  0  0  0  0
   12.8627  -11.9143   22.2883 C   0  0  0  0  0  0
   14.0167  -11.9182   21.5226 C   0  0  0  0  0  0
   11.2162  -10.6678   23.7198 C   0  0  0  0  0  0
   10.9722   -9.5957   24.3212 N   0  0  0  0  0  0
   10.5457  -11.8528   23.9210 N   0  0  0  0  0  0
   15.6687  -12.7073   19.1378 C   0  0  0  0  0  0
   15.5819  -13.9745   19.4922 N   0  0  0  0  0  0
   14.6600  -12.3264   18.3104 N   0  0  0  0  0  0
   18.9975  -13.8482   23.4548 O   0  0  0  0  0  0
   20.2071  -14.0973   24.1699 C   0  0  0  0  0  0
   20.6387  -15.5561   23.9542 C   0  0  0  0  0  0
   13.7932  -13.3659   18.3331 C   0  0  0  0  0  0
   14.3805  -14.3707   19.0883 C   0  0  0  0  0  0
   13.7522  -15.6523   19.5380 C   0  0  0  0  0  0
   19.9191  -13.7951   25.6472 C   0  0  0  0  0  0
   21.2429  -12.8303   19.2800 O   0  0  0  0  0  0
   21.0659  -12.7834   17.8638 C   0  0  0  0  0  0
   21.5814  -11.4519   17.3178 C   0  0  0  0  0  0
   12.6571  -16.1835   18.8441 C   0  0  0  0  0  0
   12.0211  -17.3386   19.2972 C   0  0  0  0  0  0
   12.4740  -17.9783   20.4499 C   0  0  0  0  0  0
   13.5713  -17.4692   21.1489 C   0  0  0  0  0  0
   14.2028  -16.3086   20.6921 C   0  0  0  0  0  0
   16.7047  -12.9262   22.3898 F   0  0  0  0  0  0
   14.0545  -18.1483   22.4156 C   0  0  0  0  0  0
   18.9329  -11.6562   18.6881 H   0  0  0  0  0  0
   21.1028  -13.7805   21.6724 H   0  0  0  0  0  0
   16.8870  -11.0444   18.8859 H   0  0  0  0  0  0
   16.4863   -9.8690   20.8899 H   0  0  0  0  0  0
   14.4786   -8.5866   21.1735 H   0  0  0  0  0  0
   12.4549   -8.5561   22.5268 H   0  0  0  0  0  0
   12.4890  -12.8685   22.6334 H   0  0  0  0  0  0
   14.4798  -12.8742   21.3741 H   0  0  0  0  0  0
   10.1730   -9.6994   24.9419 H   0  0  0  0  0  0
    9.7280  -11.8514   24.5294 H   0  0  0  0  0  0
   10.8152  -12.7349   23.5009 H   0  0  0  0  0  0
   14.4875  -11.3958   17.9590 H   0  0  0  0  0  0
   21.0058  -13.4227   23.8574 H   0  0  0  0  0  0
   21.5623  -15.7754   24.4920 H   0  0  0  0  0  0
   19.8739  -16.2497   24.3082 H   0  0  0  0  0  0
   20.8128  -15.7706   22.8998 H   0  0  0  0  0  0
   12.8162  -13.2237   17.9312 H   0  0  0  0  0  0
   20.8034  -13.9578   26.2652 H   0  0  0  0  0  0
   19.6170  -12.7553   25.7812 H   0  0  0  0  0  0
   19.1172  -14.4241   26.0383 H   0  0  0  0  0  0
   20.0542  -12.9818   17.5200 H   0  0  0  0  0  0
   21.6158  -13.6117   17.4384 H   0  0  0  0  0  0
   21.9055  -11.5468   16.2829 H   0  0  0  0  0  0
   22.4093  -11.0775   17.9204 H   0  0  0  0  0  0
   20.8166  -10.6842   17.3497 H   0  0  0  0  0  0
   12.2880  -15.7015   17.9506 H   0  0  0  0  0  0
   11.1726  -17.7330   18.7566 H   0  0  0  0  0  0
   11.9688  -18.8689   20.7958 H   0  0  0  0  0  0
   15.0362  -15.9057   21.2497 H   0  0  0  0  0  0
   13.2366  -18.6620   22.9212 H   0  0  0  0  0  0
   14.8387  -18.8708   22.1858 H   0  0  0  0  0  0
   14.4511  -17.4149   23.1188 H   0  0  0  0  0  0
  1  2  2  0  0  0
  1  6  1  0  0  0
  1 28  1  0  0  0
  2  3  1  0  0  0
  2 38  1  0  0  0
  3  4  2  0  0  0
  3  7  1  0  0  0
  4  5  1  0  0  0
  4 36  1  0  0  0
  5  6  2  0  0  0
  5 21  1  0  0  0
  6 39  1  0  0  0
  7  8  1  0  0  0
  7 18  1  0  0  0
  7 40  1  0  0  0
  8  9  1  0  0  0
  8 41  1  0  0  0
  9 10  2  0  0  0
  9 14  1  0  0  0
 10 11  1  0  0  0
 10 42  1  0  0  0
 11 12  2  0  0  0
 11 43  1  0  0  0
 12 13  1  0  0  0
 12 15  1  0  0  0
 13 14  2  0  0  0
 13 44  1  0  0  0
 14 45  1  0  0  0
 15 16  2  0  0  0
 15 17  1  0  0  0
 16 46  1  0  0  0
 17 47  1  0  0  0
 17 48  1  0  0  0
 18 19  2  0  0  0
 18 20  1  0  0  0
 19 25  1  0  0  0
 20 24  1  0  0  0
 20 49  1  0  0  0
 21 22  1  0  0  0
 22 23  1  0  0  0
 22 27  1  0  0  0
 22 50  1  0  0  0
 23 51  1  0  0  0
 23 52  1  0  0  0
 23 53  1  0  0  0
 24 25  2  0  0  0
 24 54  1  0  0  0
 25 26  1  0  0  0
 26 31  2  0  0  0
 26 35  1  0  0  0
 27 55  1  0  0  0
 27 56  1  0  0  0
 27 57  1  0  0  0
 28 29  1  0  0  0
 29 30  1  0  0  0
 29 58  1  0  0  0
 29 59  1  0  0  0
 30 60  1  0  0  0
 30 61  1  0  0  0
 30 62  1  0  0  0
 31 32  1  0  0  0
 31 63  1  0  0  0
 32 33  2  0  0  0
 32 64  1  0  0  0
 33 34  1  0  0  0
 33 65  1  0  0  0
 34 35  2  0  0  0
 34 37  1  0  0  0
 35 66  1  0  0  0
 37 67  1  0  0  0
 37 68  1  0  0  0
 37 69  1  0  0  0
M  END
> <s_m_entry_id>
35570

> <s_m_entry_name>
dock_pv.420

> <s_m_Source_Path>
/home/csk/Desktop/cluster/DUD-E-result/thrb

> <s_m_Source_File>
dock_pv.maegz

> <i_m_Source_File_Index>
420

> <chembl_id>
CHEMBL3403472

> <chembl_pref_name>
None

> <i_lp_mmshare_version>
53161

> <r_lp_tautomer_probability>
0.499999999999999

> <s_lp_Force_Field>
OPLS_2005

> <r_lp_Energy>
21.431911

> <b_lp_Chiralities_Consistent>
1

> <s_lp_Variant>
CHEMBL204_lig5004-1

> <s_i_glide_gridfile>
glide-grid_1ype

> <i_i_glide_lignum>
6824

> <i_i_glide_rotatable_bonds>
10

> <r_i_docking_score>
-6.84005514279023

> <r_i_glide_ligand_efficiency>
-0.184866355210547

> <r_i_glide_ligand_efficiency_sa>
-0.616015707725266

> <r_i_glide_ligand_efficiency_ln>
-1.48344760682752

> <r_i_glide_gscore>
-6.84005514279023

> <r_i_glide_lipo>
-3.6958024937654

> <r_i_glide_hbond>
-0.693101356190453

> <r_i_glide_metal>
0

> <r_i_glide_rewards>
-0.0162822715963058

> <r_i_glide_evdw>
-39.3505516052246

> <r_i_glide_ecoul>
-6.1194019317627

> <r_i_glide_erotb>
0.568337844488109

> <r_i_glide_esite>
-0.117768995700541

> <r_i_glide_emodel>
-39.3873775410117

> <r_i_glide_energy>
-45.4699535369873

> <r_i_glide_einternal>
15.7550411224365

> <i_i_glide_confnum>
1

> <i_i_glide_posenum>
1

> <r_i_glide_eff_state_penalty>
0

> <s_user_duplicate_titles>
CHEMBL204_lig5004

> <i_f3d_flags>
0

> <s_m_subgroup_title>
dock_pv

> <s_m_subgroupid>
dock_pv

> <b_m_subgroup_collapsed>
1

$$$$
CHEMBL204_lig5048
                    3D
 Schrodinger Suite 2021-1.
 41 43  0  0  1  0            999 V2000
   20.5650  -14.3961   24.7304 C   0  0  0  0  0  0
   21.6218  -13.9780   23.8964 C   0  0  0  0  0  0
   21.2939  -13.5175   22.6051 C   0  0  0  0  0  0
   19.2231  -14.3599   24.3511 C   0  0  0  0  0  0
   18.9389  -13.8876   23.0669 C   0  0  0  0  0  0
   19.9575  -13.4635   22.1786 C   0  0  0  0  0  0
   19.2994  -13.0478   20.9727 C   0  0  0  0  0  0
   17.9287  -13.2178   21.1345 C   0  0  0  0  0  0
   17.7436  -13.7307   22.3990 N   0  0  0  0  0  0
   16.7931  -12.9506   20.1831 C   0  0  0  0  0  0
   17.0806  -12.9861   18.8138 C   0  0  0  0  0  0
   16.0843  -12.7558   17.8669 C   0  0  0  0  0  0
   14.7830  -12.4872   18.2776 C   0  0  0  0  0  0
   14.4563  -12.4409   19.6382 C   0  0  0  0  0  0
   15.4706  -12.6795   20.5893 C   0  0  0  0  0  0
   23.0509  -14.0251   24.3446 C   0  0  0  0  0  0
   23.2138  -14.1070   25.7073 N   0  0  0  0  0  0
   24.0059  -13.9847   23.5211 N   0  0  0  0  0  0
   15.1505  -12.6478   21.9210 O   0  0  0  0  0  0
   12.9982  -12.1222   20.0314 C   0  0  0  0  0  0
   12.8578  -10.7857   20.7852 C   0  0  0  0  0  0
   12.2968  -13.2819   20.7669 C   0  0  0  0  0  0
   20.7740  -14.7713   25.7214 H   0  0  0  0  0  0
   22.0727  -13.1956   21.9292 H   0  0  0  0  0  0
   18.4425  -14.6859   25.0235 H   0  0  0  0  0  0
   19.7737  -12.6628   20.0861 H   0  0  0  0  0  0
   16.8167  -13.9340   22.7515 H   0  0  0  0  0  0
   18.0828  -13.2050   18.4723 H   0  0  0  0  0  0
   16.3206  -12.7945   16.8130 H   0  0  0  0  0  0
   14.0256  -12.3172   17.5252 H   0  0  0  0  0  0
   24.1306  -14.2049   26.1223 H   0  0  0  0  0  0
   22.4115  -14.0702   26.3204 H   0  0  0  0  0  0
   24.8970  -14.0158   23.9934 H   0  0  0  0  0  0
   14.2046  -12.5231   22.0310 H   0  0  0  0  0  0
   12.4321  -11.9913   19.1113 H   0  0  0  0  0  0
   13.3576   -9.9758   20.2519 H   0  0  0  0  0  0
   13.2788  -10.8285   21.7912 H   0  0  0  0  0  0
   11.8069  -10.5061   20.8877 H   0  0  0  0  0  0
   12.3826  -14.2154   20.2071 H   0  0  0  0  0  0
   12.6978  -13.4561   21.7659 H   0  0  0  0  0  0
   11.2316  -13.0736   20.8868 H   0  0  0  0  0  0
  1  2  2  0  0  0
  1  4  1  0  0  0
  1 23  1  0  0  0
  2  3  1  0  0  0
  2 16  1  0  0  0
  3  6  2  0  0  0
  3 24  1  0  0  0
  4  5  2  0  0  0
  4 25  1  0  0  0
  5  6  1  0  0  0
  5  9  1  0  0  0
  6  7  1  0  0  0
  7  8  2  0  0  0
  7 26  1  0  0  0
  8  9  1  0  0  0
  8 10  1  0  0  0
  9 27  1  0  0  0
 10 11  2  0  0  0
 10 15  1  0  0  0
 11 12  1  0  0  0
 11 28  1  0  0  0
 12 13  2  0  0  0
 12 29  1  0  0  0
 13 14  1  0  0  0
 13 30  1  0  0  0
 14 15  2  0  0  0
 14 20  1  0  0  0
 15 19  1  0  0  0
 16 17  1  0  0  0
 16 18  2  0  0  0
 17 31  1  0  0  0
 17 32  1  0  0  0
 18 33  1  0  0  0
 19 34  1  0  0  0
 20 21  1  0  0  0
 20 22  1  0  0  0
 20 35  1  0  0  0
 21 36  1  0  0  0
 21 37  1  0  0  0
 21 38  1  0  0  0
 22 39  1  0  0  0
 22 40  1  0  0  0
 22 41  1  0  0  0
M  END
> <s_m_entry_id>
35571

> <s_m_entry_name>
dock_pv.421

> <s_m_Source_Path>
/home/csk/Desktop/cluster/DUD-E-result/thrb

> <s_m_Source_File>
dock_pv.maegz

> <i_m_Source_File_Index>
421

> <chembl_id>
CHEMBL3632755

> <chembl_pref_name>
None

> <i_lp_mmshare_version>
53161

> <r_lp_tautomer_probability>
0.999999999997365

> <s_lp_Force_Field>
OPLS_2005

> <r_lp_Energy>
8.626998

> <b_lp_Chiralities_Consistent>
1

> <s_lp_Variant>
CHEMBL204_lig5048-1

> <s_i_glide_gridfile>
glide-grid_1ype

> <i_i_glide_lignum>
6916

> <i_i_glide_rotatable_bonds>
4

> <r_i_docking_score>
-6.83760222939723

> <r_i_glide_ligand_efficiency>
-0.310800101336238

> <r_i_glide_ligand_efficiency_sa>
-0.870874107018515

> <r_i_glide_ligand_efficiency_ln>
-1.67135939246592

> <r_i_glide_gscore>
-6.83760222939723

> <r_i_glide_lipo>
-2.44996548335345

> <r_i_glide_hbond>
-0.555180059115355

> <r_i_glide_metal>
0

> <r_i_glide_rewards>
-1.79890542528064

> <r_i_glide_evdw>
-31.6624145507812

> <r_i_glide_ecoul>
-4.41826009750366

> <r_i_glide_erotb>
0.212308480516828

> <r_i_glide_esite>
0

> <r_i_glide_emodel>
-49.7755335998447

> <r_i_glide_energy>
-36.0806746482849

> <r_i_glide_einternal>
2.99723076820374

> <i_i_glide_confnum>
3

> <i_i_glide_posenum>
210

> <r_i_glide_eff_state_penalty>
0

> <s_user_duplicate_titles>
CHEMBL204_lig5048

> <i_f3d_flags>
0

> <s_m_subgroup_title>
dock_pv

> <s_m_subgroupid>
dock_pv

> <b_m_subgroup_collapsed>
1

$$$$
CHEMBL204_lig5145
                    3D
 Schrodinger Suite 2021-1.
 52 54  0  0  1  0            999 V2000
   17.1178  -11.8587   20.1059 C   0  0  0  0  0  0
   16.1083  -12.7121   19.8625 N   0  0  0  0  0  0
   14.7758  -12.2894   19.4193 C   0  0  0  0  0  0
   13.8702  -11.7818   20.5397 C   0  0  0  0  0  0
   12.8143  -12.5652   21.0204 C   0  0  0  0  0  0
   11.9712  -12.0564   22.0105 C   0  0  0  0  0  0
   12.2127  -10.7747   22.5047 C   0  0  0  0  0  0
   13.2151   -9.9899   22.0412 N   0  0  0  0  0  0
   14.0163  -10.4922   21.0682 C   0  0  0  0  0  0
   18.4666  -12.3832   20.6495 C   0  0  2  0  0  0
   17.0177  -10.6530   19.9212 O   0  0  0  0  0  0
   19.5182  -12.4820   19.5336 C   0  0  0  0  0  0
   20.5276  -13.4887   20.0588 C   0  0  0  0  0  0
   19.6605  -14.4834   20.8207 C   0  0  0  0  0  0
   18.5129  -13.7096   21.3019 N   0  0  0  0  0  0
   17.6641  -14.0724   22.2956 C   0  0  0  0  0  0
   17.7633  -15.5063   22.8901 C   0  0  2  0  0  0
   16.4377  -16.1360   22.7227 N   0  0  0  0  0  0
   18.1838  -15.5069   24.3825 C   0  0  0  0  0  0
   19.5588  -14.9359   24.7155 C   0  0  0  0  0  0
   19.6888  -13.6460   25.2731 C   0  0  0  0  0  0
   20.9465  -13.1238   25.5447 C   0  0  0  0  0  0
   22.0859  -13.8569   25.2418 C   0  0  0  0  0  0
   21.9765  -15.1127   24.6570 C   0  0  0  0  0  0
   20.7265  -15.6544   24.3840 C   0  0  0  0  0  0
   16.7911  -13.3159   22.7223 O   0  0  0  0  0  0
   11.4205  -10.2536   23.5211 N   0  0  0  0  0  0
   16.2219  -13.6813   20.1123 H   0  0  0  0  0  0
   14.8545  -11.5108   18.6575 H   0  0  0  0  0  0
   14.2978  -13.1352   18.9230 H   0  0  0  0  0  0
   12.6381  -13.5577   20.6325 H   0  0  0  0  0  0
   11.1519  -12.6529   22.3789 H   0  0  0  0  0  0
   14.7952   -9.8296   20.7217 H   0  0  0  0  0  0
   18.8166  -11.6675   21.3948 H   0  0  0  0  0  0
   19.9769  -11.5187   19.3028 H   0  0  0  0  0  0
   19.0666  -12.8638   18.6168 H   0  0  0  0  0  0
   21.2054  -12.9894   20.7532 H   0  0  0  0  0  0
   21.1320  -13.9509   19.2780 H   0  0  0  0  0  0
   20.2356  -14.9457   21.6226 H   0  0  0  0  0  0
   19.2972  -15.2700   20.1600 H   0  0  0  0  0  0
   18.4734  -16.1209   22.3391 H   0  0  0  0  0  0
   15.7685  -15.6504   23.3198 H   0  0  0  0  0  0
   16.0934  -16.0503   21.7780 H   0  0  0  0  0  0
   18.1675  -16.5360   24.7455 H   0  0  0  0  0  0
   17.4343  -14.9823   24.9794 H   0  0  0  0  0  0
   18.8153  -13.0635   25.5151 H   0  0  0  0  0  0
   21.0362  -12.1431   25.9901 H   0  0  0  0  0  0
   23.0612  -13.4458   25.4554 H   0  0  0  0  0  0
   22.8690  -15.6703   24.4139 H   0  0  0  0  0  0
   20.6518  -16.6301   23.9247 H   0  0  0  0  0  0
   10.5835  -10.7455   23.8141 H   0  0  0  0  0  0
   11.6335   -9.3350   23.8742 H   0  0  0  0  0  0
  1  2  1  0  0  0
  1 10  1  0  0  0
  1 11  2  0  0  0
  2  3  1  0  0  0
  2 28  1  0  0  0
  3  4  1  0  0  0
  3 29  1  0  0  0
  3 30  1  0  0  0
  4  5  2  0  0  0
  4  9  1  0  0  0
  5  6  1  0  0  0
  5 31  1  0  0  0
  6  7  2  0  0  0
  6 32  1  0  0  0
  7  8  1  0  0  0
  7 27  1  0  0  0
  8  9  2  0  0  0
  9 33  1  0  0  0
 10 12  1  0  0  0
 10 15  1  0  0  0
 10 34  1  0  0  0
 12 13  1  0  0  0
 12 35  1  0  0  0
 12 36  1  0  0  0
 13 14  1  0  0  0
 13 37  1  0  0  0
 13 38  1  0  0  0
 14 15  1  0  0  0
 14 39  1  0  0  0
 14 40  1  0  0  0
 15 16  1  0  0  0
 16 17  1  0  0  0
 16 26  2  0  0  0
 17 18  1  0  0  0
 17 19  1  0  0  0
 17 41  1  0  0  0
 18 42  1  0  0  0
 18 43  1  0  0  0
 19 20  1  0  0  0
 19 44  1  0  0  0
 19 45  1  0  0  0
 20 21  2  0  0  0
 20 25  1  0  0  0
 21 22  1  0  0  0
 21 46  1  0  0  0
 22 23  2  0  0  0
 22 47  1  0  0  0
 23 24  1  0  0  0
 23 48  1  0  0  0
 24 25  2  0  0  0
 24 49  1  0  0  0
 25 50  1  0  0  0
 27 51  1  0  0  0
 27 52  1  0  0  0
M  END
> <s_m_entry_id>
35572

> <s_m_entry_name>
dock_pv.422

> <s_m_Source_Path>
/home/csk/Desktop/cluster/DUD-E-result/thrb

> <s_m_Source_File>
dock_pv.maegz

> <i_m_Source_File_Index>
422

> <chembl_id>
CHEMBL4513436

> <chembl_pref_name>
None

> <i_lp_mmshare_version>
53161

> <r_lp_tautomer_probability>
0.999999772200052

> <s_lp_Force_Field>
OPLS_2005

> <r_lp_Energy>
19.872521

> <b_lp_Chiralities_Consistent>
1

> <s_lp_Variant>
CHEMBL204_lig5145-1

> <s_i_glide_gridfile>
glide-grid_1ype

> <i_i_glide_lignum>
7040

> <i_i_glide_rotatable_bonds>
8

> <r_i_docking_score>
-6.83725444408289

> <r_i_glide_ligand_efficiency>
-0.253231646077144

> <r_i_glide_ligand_efficiency_sa>
-0.759694937396822

> <r_i_glide_ligand_efficiency_ln>
-1.59160011363337

> <r_i_glide_gscore>
-6.83725444408289

> <r_i_glide_lipo>
-3.0944784514035

> <r_i_glide_hbond>
-0.473819402413876

> <r_i_glide_metal>
0

> <r_i_glide_rewards>
-1.4968226407692

> <r_i_glide_evdw>
-41.538688659668

> <r_i_glide_ecoul>
-4.62456560134888

> <r_i_glide_erotb>
0.998485323689415

> <r_i_glide_esite>
0

> <r_i_glide_emodel>
-63.7415436974801

> <r_i_glide_energy>
-46.1632542610168

> <r_i_glide_einternal>
5.20836973190308

> <i_i_glide_confnum>
67

> <i_i_glide_posenum>
384

> <r_i_glide_eff_state_penalty>
0

> <s_user_duplicate_titles>
CHEMBL204_lig5145

> <i_f3d_flags>
0

> <s_m_subgroup_title>
dock_pv

> <s_m_subgroupid>
dock_pv

> <b_m_subgroup_collapsed>
1

$$$$
CHEMBL204_lig3504
                    3D
 Schrodinger Suite 2021-1.
 65 67  0  0  1  0            999 V2000
   17.8265  -13.7184   22.1729 S   0  0  0  0  0  0
   15.7139  -15.1612   20.8426 C   0  0  1  0  0  0
   16.3393  -16.3723   20.0602 C   0  0  0  0  0  0
   16.3878  -14.7442   22.1062 N   0  0  2  0  0  0
   17.2251  -17.2991   20.5485 N   0  0  0  0  0  0
   18.7254  -14.1396   21.0967 O   0  0  0  0  0  0
   17.3749  -12.3280   22.2728 O   0  0  0  0  0  0
   15.3734  -13.9377   19.9310 C   0  0  0  0  0  0
   18.5156  -14.2332   23.8701 C   0  0  0  0  0  0
   12.3372   -9.8321   22.8175 C   0  0  1  0  0  0
   15.9168  -16.4992   18.9099 O   0  0  0  0  0  0
   13.0696  -10.8940   21.9683 C   0  0  0  0  0  0
   17.8880  -17.3129   21.8652 C   0  0  0  0  0  0
   12.0042  -10.2523   24.1565 N   0  0  1  0  0  0
   12.6565  -12.2328   21.9907 C   0  0  0  0  0  0
   14.1553  -10.5426   21.1443 C   0  0  0  0  0  0
   14.5213  -12.8588   20.5927 C   0  0  0  0  0  0
   13.1218   -8.6524   23.0197 N   0  0  0  0  0  0
   10.8161  -11.0317   24.3142 N   0  0  0  0  0  0
   13.3805  -13.2086   21.3165 C   0  0  0  0  0  0
   14.8829  -11.5178   20.4702 C   0  0  0  0  0  0
   19.9331  -13.8252   24.2430 C   0  0  0  0  0  0
   17.5652  -18.4611   19.7066 C   0  0  0  0  0  0
   17.6749  -18.5868   22.7050 C   0  0  0  0  0  0
   19.4210  -17.1468   21.7515 C   0  0  0  0  0  0
   20.1815  -13.3953   25.5482 C   0  0  0  0  0  0
   21.0018  -14.0274   23.3639 C   0  0  0  0  0  0
   20.0372  -18.3476   22.4712 C   0  0  0  0  0  0
   18.9753  -18.7467   23.4857 C   0  0  0  0  0  0
   22.3122  -13.8524   23.8062 C   0  0  0  0  0  0
   21.4898  -13.2067   25.9847 C   0  0  0  0  0  0
   22.5503  -13.4552   25.1176 C   0  0  0  0  0  0
   14.7653  -15.5907   21.1675 H   0  0  0  0  0  0
   15.7073  -14.5145   22.8410 H   0  0  0  0  0  0
   14.8170  -14.2645   19.0513 H   0  0  0  0  0  0
   16.2957  -13.4970   19.5522 H   0  0  0  0  0  0
   17.8001  -13.8518   24.5954 H   0  0  0  0  0  0
   18.4585  -15.3116   23.9367 H   0  0  0  0  0  0
   11.4268   -9.5516   22.2832 H   0  0  0  0  0  0
   17.5720  -16.5678   22.5681 H   0  0  0  0  0  0
   12.7666  -10.6114   24.7168 H   0  0  0  0  0  0
   11.7992  -12.5450   22.5586 H   0  0  0  0  0  0
   14.4785   -9.5133   21.0654 H   0  0  0  0  0  0
   12.5346   -8.0145   23.5331 H   0  0  0  0  0  0
   13.8881   -8.8784   23.6343 H   0  0  0  0  0  0
    9.9999  -10.4440   24.4803 H   0  0  0  0  0  0
   10.6701  -11.6614   23.5344 H   0  0  0  0  0  0
   13.0521  -14.2350   21.3872 H   0  0  0  0  0  0
   15.7448  -11.2314   19.8839 H   0  0  0  0  0  0
   17.4203  -18.2792   18.6390 H   0  0  0  0  0  0
   18.5967  -18.7667   19.8414 H   0  0  0  0  0  0
   16.9380  -19.3074   19.9699 H   0  0  0  0  0  0
   16.8068  -18.5167   23.3575 H   0  0  0  0  0  0
   17.5264  -19.4641   22.0831 H   0  0  0  0  0  0
   19.7910  -17.0515   20.7275 H   0  0  0  0  0  0
   19.7280  -16.2433   22.2688 H   0  0  0  0  0  0
   19.3691  -13.2345   26.2452 H   0  0  0  0  0  0
   20.8344  -14.3510   22.3489 H   0  0  0  0  0  0
   20.9922  -18.1080   22.9428 H   0  0  0  0  0  0
   20.2001  -19.1554   21.7581 H   0  0  0  0  0  0
   18.9988  -18.0567   24.3267 H   0  0  0  0  0  0
   19.1345  -19.7464   23.8786 H   0  0  0  0  0  0
   23.1417  -14.0306   23.1411 H   0  0  0  0  0  0
   21.6764  -12.8894   27.0002 H   0  0  0  0  0  0
   23.5645  -13.3164   25.4614 H   0  0  0  0  0  0
  1  4  1  0  0  0
  1  6  2  0  0  0
  1  7  2  0  0  0
  1  9  1  0  0  0
  2  4  1  0  0  0
  2  3  1  0  0  0
  2  8  1  0  0  0
  2 33  1  0  0  0
  3  5  1  0  0  0
  3 11  2  0  0  0
  4 34  1  0  0  0
  5 13  1  0  0  0
  5 23  1  0  0  0
  8 17  1  0  0  0
  8 35  1  0  0  0
  8 36  1  0  0  0
  9 22  1  0  0  0
  9 37  1  0  0  0
  9 38  1  0  0  0
 10 12  1  0  0  0
 10 14  1  0  0  0
 10 18  1  0  0  0
 10 39  1  0  0  0
 12 16  2  0  0  0
 12 15  1  0  0  0
 13 24  1  0  0  0
 13 25  1  0  0  0
 13 40  1  0  0  0
 14 19  1  0  0  0
 14 41  1  0  0  0
 15 20  2  0  0  0
 15 42  1  0  0  0
 16 21  1  0  0  0
 16 43  1  0  0  0
 17 20  1  0  0  0
 17 21  2  0  0  0
 18 44  1  0  0  0
 18 45  1  0  0  0
 19 46  1  0  0  0
 19 47  1  0  0  0
 20 48  1  0  0  0
 21 49  1  0  0  0
 22 26  2  0  0  0
 22 27  1  0  0  0
 23 50  1  0  0  0
 23 51  1  0  0  0
 23 52  1  0  0  0
 24 29  1  0  0  0
 24 53  1  0  0  0
 24 54  1  0  0  0
 25 28  1  0  0  0
 25 55  1  0  0  0
 25 56  1  0  0  0
 26 31  1  0  0  0
 26 57  1  0  0  0
 27 30  2  0  0  0
 27 58  1  0  0  0
 28 29  1  0  0  0
 28 59  1  0  0  0
 28 60  1  0  0  0
 29 61  1  0  0  0
 29 62  1  0  0  0
 30 32  1  0  0  0
 30 63  1  0  0  0
 31 32  2  0  0  0
 31 64  1  0  0  0
 32 65  1  0  0  0
M  END
> <s_m_entry_id>
35573

> <s_m_entry_name>
dock_pv.423

> <s_m_Source_Path>
/home/csk/Desktop/cluster/DUD-E-result/thrb

> <s_m_Source_File>
dock_pv.maegz

> <i_m_Source_File_Index>
423

> <chembl_id>
CHEMBL273645

> <chembl_pref_name>
None

> <i_lp_mmshare_version>
53161

> <r_lp_tautomer_probability>
1

> <s_lp_Force_Field>
OPLS_2005

> <r_lp_Energy>
40.869965

> <b_lp_Chiralities_Consistent>
1

> <s_lp_Variant>
CHEMBL204_lig3504-2

> <s_i_glide_gridfile>
glide-grid_1ype

> <i_i_glide_lignum>
4880

> <i_i_glide_rotatable_bonds>
11

> <r_i_docking_score>
-6.83571433464582

> <r_i_glide_ligand_efficiency>
-0.213616072957682

> <r_i_glide_ligand_efficiency_sa>
-0.678188757077206

> <r_i_glide_ligand_efficiency_ln>
-1.53070277406245

> <r_i_glide_gscore>
-6.83571433464582

> <r_i_glide_lipo>
-2.87113385444755

> <r_i_glide_hbond>
-0.650981790951251

> <r_i_glide_metal>
0

> <r_i_glide_rewards>
-0.953089927557672

> <r_i_glide_evdw>
-35.9028930664062

> <r_i_glide_ecoul>
-8.04692459106445

> <r_i_glide_erotb>
0.762058531014585

> <r_i_glide_esite>
-0.12038395072395

> <r_i_glide_emodel>
-57.8636041697104

> <r_i_glide_energy>
-43.9498176574707

> <r_i_glide_einternal>
9.37751865386963

> <i_i_glide_confnum>
123

> <i_i_glide_posenum>
194

> <r_i_glide_eff_state_penalty>
0

> <s_user_duplicate_titles>
CHEMBL204_lig3504

> <i_f3d_flags>
0

> <s_m_subgroup_title>
dock_pv

> <s_m_subgroupid>
dock_pv

> <b_m_subgroup_collapsed>
1

$$$$
CHEMBL204_lig5146
                    3D
 Schrodinger Suite 2021-1.
 60 63  0  0  1  0            999 V2000
   20.7906  -14.1371   21.4928 C   0  0  0  0  0  0
   20.2610  -15.2662   21.9980 N   0  0  0  0  0  0
   20.6963  -15.9604   23.2147 C   0  0  0  0  0  0
   21.0036  -15.0671   24.4088 C   0  0  0  0  0  0
   22.3129  -14.9707   24.8909 C   0  0  0  0  0  0
   22.5768  -14.0729   25.9214 C   0  0  0  0  0  0
   21.6160  -13.3042   26.4953 N   0  0  0  0  0  0
   20.3483  -13.4269   26.0337 C   0  0  0  0  0  0
   19.9962  -14.2925   24.9984 C   0  0  0  0  0  0
   20.2887  -13.7089   20.1003 C   0  0  2  0  0  0
   21.6348  -13.4532   22.0687 O   0  0  0  0  0  0
   21.1947  -12.6464   19.4371 C   0  0  0  0  0  0
   20.2541  -11.8571   18.5705 C   0  0  0  0  0  0
   19.0408  -11.7455   19.4852 C   0  0  0  0  0  0
   18.9535  -13.0698   20.1003 N   0  0  0  0  0  0
   17.8158  -13.6858   20.5100 C   0  0  0  0  0  0
   16.6022  -12.7965   20.9072 C   0  0  2  0  0  0
   16.4163  -13.0529   22.3484 N   0  0  0  0  0  0
   15.2735  -13.1099   20.1381 C   0  0  0  0  0  0
   15.3873  -13.0492   18.6058 C   0  0  0  0  0  0
   14.0897  -12.2976   20.7024 C   0  0  0  0  0  0
   15.1727  -14.2073   17.8486 C   0  0  0  0  0  0
   15.2841  -14.1704   16.4615 C   0  0  0  0  0  0
   15.6153  -12.9751   15.8274 C   0  0  0  0  0  0
   15.8264  -11.8150   16.5681 C   0  0  0  0  0  0
   15.7137  -11.8546   17.9543 C   0  0  0  0  0  0
   14.1520  -10.8982   20.7838 C   0  0  0  0  0  0
   13.1148  -10.1796   21.3728 C   0  0  0  0  0  0
   12.0184  -10.8584   21.8962 C   0  0  0  0  0  0
   11.9456  -12.2461   21.8246 C   0  0  0  0  0  0
   12.9754  -12.9656   21.2243 C   0  0  0  0  0  0
   17.7336  -14.9071   20.6740 O   0  0  0  0  0  0
   19.5430  -15.7238   21.4510 H   0  0  0  0  0  0
   19.9069  -16.6539   23.5069 H   0  0  0  0  0  0
   21.5558  -16.5876   22.9697 H   0  0  0  0  0  0
   23.1156  -15.5484   24.4548 H   0  0  0  0  0  0
   23.5763  -13.9633   26.3169 H   0  0  0  0  0  0
   19.6159  -12.7933   26.5079 H   0  0  0  0  0  0
   18.9762  -14.3388   24.6435 H   0  0  0  0  0  0
   20.2471  -14.5904   19.4616 H   0  0  0  0  0  0
   22.0159  -13.0527   18.8619 H   0  0  0  0  0  0
   21.6332  -11.9625   20.1665 H   0  0  0  0  0  0
   19.9977  -12.4358   17.6810 H   0  0  0  0  0  0
   20.7148  -10.9351   18.2425 H   0  0  0  0  0  0
   18.1584  -11.4697   18.9150 H   0  0  0  0  0  0
   19.1972  -10.9993   20.2665 H   0  0  0  0  0  0
   16.8389  -11.7402   20.7784 H   0  0  0  0  0  0
   15.4600  -13.3487   22.5067 H   0  0  0  0  0  0
   16.9706  -13.8603   22.6112 H   0  0  0  0  0  0
   15.0529  -14.1543   20.3719 H   0  0  0  0  0  0
   14.9139  -15.1401   18.3292 H   0  0  0  0  0  0
   15.1059  -15.0615   15.8773 H   0  0  0  0  0  0
   15.6899  -12.9478   14.7493 H   0  0  0  0  0  0
   16.0703  -10.8896   16.0675 H   0  0  0  0  0  0
   15.8900  -10.9567   18.5223 H   0  0  0  0  0  0
   15.0127  -10.3593   20.4204 H   0  0  0  0  0  0
   13.1667   -9.1027   21.4383 H   0  0  0  0  0  0
   11.2155  -10.3071   22.3654 H   0  0  0  0  0  0
   11.0907  -12.7614   22.2386 H   0  0  0  0  0  0
   12.9099  -14.0434   21.1886 H   0  0  0  0  0  0
  1  2  1  0  0  0
  1 10  1  0  0  0
  1 11  2  0  0  0
  2  3  1  0  0  0
  2 33  1  0  0  0
  3  4  1  0  0  0
  3 34  1  0  0  0
  3 35  1  0  0  0
  4  5  2  0  0  0
  4  9  1  0  0  0
  5  6  1  0  0  0
  5 36  1  0  0  0
  6  7  2  0  0  0
  6 37  1  0  0  0
  7  8  1  0  0  0
  8  9  2  0  0  0
  8 38  1  0  0  0
  9 39  1  0  0  0
 10 12  1  0  0  0
 10 15  1  0  0  0
 10 40  1  0  0  0
 12 13  1  0  0  0
 12 41  1  0  0  0
 12 42  1  0  0  0
 13 14  1  0  0  0
 13 43  1  0  0  0
 13 44  1  0  0  0
 14 15  1  0  0  0
 14 45  1  0  0  0
 14 46  1  0  0  0
 15 16  1  0  0  0
 16 17  1  0  0  0
 16 32  2  0  0  0
 17 18  1  0  0  0
 17 19  1  0  0  0
 17 47  1  0  0  0
 18 48  1  0  0  0
 18 49  1  0  0  0
 19 20  1  0  0  0
 19 21  1  0  0  0
 19 50  1  0  0  0
 20 22  2  0  0  0
 20 26  1  0  0  0
 21 27  2  0  0  0
 21 31  1  0  0  0
 22 23  1  0  0  0
 22 51  1  0  0  0
 23 24  2  0  0  0
 23 52  1  0  0  0
 24 25  1  0  0  0
 24 53  1  0  0  0
 25 26  2  0  0  0
 25 54  1  0  0  0
 26 55  1  0  0  0
 27 28  1  0  0  0
 27 56  1  0  0  0
 28 29  2  0  0  0
 28 57  1  0  0  0
 29 30  1  0  0  0
 29 58  1  0  0  0
 30 31  2  0  0  0
 30 59  1  0  0  0
 31 60  1  0  0  0
M  END
> <s_m_entry_id>
35574

> <s_m_entry_name>
dock_pv.424

> <s_m_Source_Path>
/home/csk/Desktop/cluster/DUD-E-result/thrb

> <s_m_Source_File>
dock_pv.maegz

> <i_m_Source_File_Index>
424

> <chembl_id>
CHEMBL4465587

> <chembl_pref_name>
None

> <i_lp_mmshare_version>
53161

> <r_lp_tautomer_probability>
1

> <s_lp_Force_Field>
OPLS_2005

> <r_lp_Energy>
24.270317

> <b_lp_Chiralities_Consistent>
1

> <s_lp_Variant>
CHEMBL204_lig5146-1

> <s_i_glide_gridfile>
glide-grid_1ype

> <i_i_glide_lignum>
7041

> <i_i_glide_rotatable_bonds>
9

> <r_i_docking_score>
-6.83194753866678

> <r_i_glide_ligand_efficiency>
-0.213498360583337

> <r_i_glide_ligand_efficiency_sa>
-0.677815043583907

> <r_i_glide_ligand_efficiency_ln>
-1.52985928576376

> <r_i_glide_gscore>
-6.83194753866678

> <r_i_glide_lipo>
-3.37650104208831

> <r_i_glide_hbond>
-0.234888543027396

> <r_i_glide_metal>
0

> <r_i_glide_rewards>
-1.07334579591988

> <r_i_glide_evdw>
-45.2218627929688

> <r_i_glide_ecoul>
-5.01006603240967

> <r_i_glide_erotb>
0.865390886878702

> <r_i_glide_esite>
0

> <r_i_glide_emodel>
-67.3044375292343

> <r_i_glide_energy>
-50.2319288253784

> <r_i_glide_einternal>
5.90736865997314

> <i_i_glide_confnum>
50

> <i_i_glide_posenum>
369

> <r_i_glide_eff_state_penalty>
0

> <s_user_duplicate_titles>
CHEMBL204_lig5146

> <i_f3d_flags>
0

> <s_m_subgroup_title>
dock_pv

> <s_m_subgroupid>
dock_pv

> <b_m_subgroup_collapsed>
1

$$$$
CHEMBL204_lig5123
                    3D
 Schrodinger Suite 2021-1.
 49 51  0  0  1  0            999 V2000
   18.2817  -10.9028   20.8264 C   0  0  0  0  0  0
   18.4911  -12.3493   20.2887 C   0  0  1  0  0  0
   19.4110  -12.3720   19.0428 C   0  0  0  0  0  0
   20.8104  -12.5495   19.5956 C   0  0  0  0  0  0
   20.6110  -13.5092   20.7612 C   0  0  0  0  0  0
   19.2873  -13.1285   21.2941 N   0  0  0  0  0  0
   18.7831  -13.5274   22.5046 C   0  0  0  0  0  0
   17.5813  -13.4535   22.7648 O   0  0  0  0  0  0
   19.6761  -13.9312   23.5716 C   0  0  0  0  0  0
   19.3382  -14.6035   24.7488 C   0  0  0  0  0  0
   20.4426  -14.6053   25.6080 C   0  0  0  0  0  0
   21.4439  -13.8767   24.9936 C   0  0  0  0  0  0
   23.0251  -13.4540   25.5158 Cl  0  0  0  0  0  0
   20.9499  -13.4527   23.7880 N   0  0  0  0  0  0
   17.1235  -13.0098   19.8845 C   0  0  0  0  0  0
   17.0103  -14.2364   19.8610 O   0  0  0  0  0  0
   16.0921  -12.1887   19.6079 N   0  0  0  0  0  0
   14.6926  -12.5792   19.4234 C   0  0  0  0  0  0
   13.7388  -11.9778   20.4696 C   0  0  0  0  0  0
   14.0146  -10.7185   21.0279 C   0  0  0  0  0  0
   13.1918  -10.1712   22.0097 C   0  0  0  0  0  0
   13.5901   -8.6530   22.7210 Cl  0  0  0  0  0  0
   12.0710  -10.8685   22.4478 C   0  0  0  0  0  0
   11.7908  -12.1242   21.9202 C   0  0  0  0  0  0
   12.6170  -12.6919   20.9409 C   0  0  0  0  0  0
   12.2724  -14.0856   20.4342 C   0  0  0  0  0  0
   13.0248  -15.0900   21.1598 N   0  0  0  0  0  0
   17.8185  -10.2530   20.0895 H   0  0  0  0  0  0
   17.6342  -10.8942   21.7037 H   0  0  0  0  0  0
   19.2162  -10.4306   21.1205 H   0  0  0  0  0  0
   19.1877  -13.1924   18.3555 H   0  0  0  0  0  0
   19.3410  -11.4556   18.4612 H   0  0  0  0  0  0
   21.5231  -12.9302   18.8638 H   0  0  0  0  0  0
   21.2003  -11.5973   19.9597 H   0  0  0  0  0  0
   20.5600  -14.5376   20.3988 H   0  0  0  0  0  0
   21.4436  -13.4135   21.4523 H   0  0  0  0  0  0
   18.3726  -15.0406   24.9636 H   0  0  0  0  0  0
   20.4930  -15.0548   26.5888 H   0  0  0  0  0  0
   21.4482  -12.8455   23.1548 H   0  0  0  0  0  0
   16.2785  -11.1993   19.5847 H   0  0  0  0  0  0
   14.6169  -13.6671   19.4310 H   0  0  0  0  0  0
   14.3631  -12.2696   18.4309 H   0  0  0  0  0  0
   14.8813  -10.1550   20.7161 H   0  0  0  0  0  0
   11.4274  -10.4521   23.2101 H   0  0  0  0  0  0
   10.9237  -12.6545   22.2878 H   0  0  0  0  0  0
   11.2161  -14.2860   20.5767 H   0  0  0  0  0  0
   12.4555  -14.1679   19.3621 H   0  0  0  0  0  0
   12.7251  -15.0610   22.1257 H   0  0  0  0  0  0
   12.7852  -16.0089   20.8184 H   0  0  0  0  0  0
  1  2  1  0  0  0
  1 28  1  0  0  0
  1 29  1  0  0  0
  1 30  1  0  0  0
  2  3  1  0  0  0
  2  6  1  0  0  0
  2 15  1  0  0  0
  3  4  1  0  0  0
  3 31  1  0  0  0
  3 32  1  0  0  0
  4  5  1  0  0  0
  4 33  1  0  0  0
  4 34  1  0  0  0
  5  6  1  0  0  0
  5 35  1  0  0  0
  5 36  1  0  0  0
  6  7  1  0  0  0
  7  8  2  0  0  0
  7  9  1  0  0  0
  9 10  2  0  0  0
  9 14  1  0  0  0
 10 11  1  0  0  0
 10 37  1  0  0  0
 11 12  2  0  0  0
 11 38  1  0  0  0
 12 13  1  0  0  0
 12 14  1  0  0  0
 14 39  1  0  0  0
 15 16  2  0  0  0
 15 17  1  0  0  0
 17 18  1  0  0  0
 17 40  1  0  0  0
 18 19  1  0  0  0
 18 41  1  0  0  0
 18 42  1  0  0  0
 19 20  2  0  0  0
 19 25  1  0  0  0
 20 21  1  0  0  0
 20 43  1  0  0  0
 21 22  1  0  0  0
 21 23  2  0  0  0
 23 24  1  0  0  0
 23 44  1  0  0  0
 24 25  2  0  0  0
 24 45  1  0  0  0
 25 26  1  0  0  0
 26 27  1  0  0  0
 26 46  1  0  0  0
 26 47  1  0  0  0
 27 48  1  0  0  0
 27 49  1  0  0  0
M  END
> <s_m_entry_id>
35575

> <s_m_entry_name>
dock_pv.425

> <s_m_Source_Path>
/home/csk/Desktop/cluster/DUD-E-result/thrb

> <s_m_Source_File>
dock_pv.maegz

> <i_m_Source_File_Index>
425

> <chembl_id>
CHEMBL3962366

> <chembl_pref_name>
None

> <i_lp_mmshare_version>
53161

> <r_lp_tautomer_probability>
1

> <s_lp_Force_Field>
OPLS_2005

> <r_lp_Energy>
47.705874

> <b_lp_Chiralities_Consistent>
1

> <s_lp_Variant>
CHEMBL204_lig5123-1

> <s_i_glide_gridfile>
glide-grid_1ype

> <i_i_glide_lignum>
7021

> <i_i_glide_rotatable_bonds>
7

> <r_i_docking_score>
-6.83173225333208

> <r_i_glide_ligand_efficiency>
-0.253027120493781

> <r_i_glide_ligand_efficiency_sa>
-0.759081360647406

> <r_i_glide_ligand_efficiency_ln>
-1.59031463866701

> <r_i_glide_gscore>
-6.83173225333208

> <r_i_glide_lipo>
-3.61747763202753

> <r_i_glide_hbond>
0

> <r_i_glide_metal>
0

> <r_i_glide_rewards>
-1.27460707325432

> <r_i_glide_evdw>
-44.1049194335938

> <r_i_glide_ecoul>
-2.93037867546082

> <r_i_glide_erotb>
0.705155224948578

> <r_i_glide_esite>
0

> <r_i_glide_emodel>
-59.6106653190643

> <r_i_glide_energy>
-47.0352981090546

> <r_i_glide_einternal>
10.3188648223877

> <i_i_glide_confnum>
132

> <i_i_glide_posenum>
278

> <r_i_glide_eff_state_penalty>
0

> <s_user_duplicate_titles>
CHEMBL204_lig5123

> <i_f3d_flags>
0

> <s_m_subgroup_title>
dock_pv

> <s_m_subgroupid>
dock_pv

> <b_m_subgroup_collapsed>
1

$$$$
CHEMBL204_lig4647
                    3D
 Schrodinger Suite 2021-1.
 66 69  0  0  1  0            999 V2000
   17.0307  -16.7293   21.1865 C   0  0  0  0  0  0
   16.8182  -17.5829   20.0996 C   0  0  0  0  0  0
   15.5318  -17.7931   19.6005 C   0  0  0  0  0  0
   15.9281  -16.1282   21.8136 C   0  0  0  0  0  0
   14.6541  -16.3182   21.2899 C   0  0  0  0  0  0
   14.4379  -17.1181   20.1621 C   0  0  0  0  0  0
   13.1207  -17.1909   19.6575 N   0  0  0  0  0  0
   12.1579  -16.2610   19.9130 C   0  0  0  0  0  0
   12.6659  -15.1549   20.9224 C   0  0  1  0  0  0
   13.6084  -15.6259   21.8648 O   0  0  0  0  0  0
   12.8214  -18.2248   18.6523 C   0  0  0  0  0  0
   11.0233  -16.2526   19.4321 O   0  0  0  0  0  0
   13.2216  -14.1302   20.1367 O   0  0  0  0  0  0
   12.4035  -13.0025   19.8441 C   0  0  0  0  0  0
   12.4743  -11.9458   20.9453 C   0  0  0  0  0  0
   13.3482  -10.8613   20.8467 C   0  0  0  0  0  0
   13.3181   -9.8476   21.8067 C   0  0  0  0  0  0
   12.4169   -9.8850   22.8871 C   0  0  0  0  0  0
   11.5889  -11.0178   22.9897 C   0  0  0  0  0  0
   11.6161  -12.0270   22.0358 C   0  0  0  0  0  0
   12.3555   -8.7689   23.8807 C   0  0  0  0  0  0
   11.2775   -8.8216   24.7210 N   0  0  0  0  0  0
   13.2162   -7.8531   23.9208 N   0  0  0  0  0  0
   18.3602  -16.3954   21.4902 N   0  0  0  0  0  0
   18.8305  -15.7862   22.6006 C   0  0  0  0  0  0
   20.1581  -15.0049   22.4196 C   0  0  2  0  0  0
   18.2456  -15.8144   23.6848 O   0  0  0  0  0  0
   20.7093  -14.4110   23.7335 C   0  0  0  0  0  0
   20.0029  -13.8876   21.3596 C   0  0  0  0  0  0
   19.1642  -12.9890   21.4746 O   0  0  0  0  0  0
   21.9324  -14.8695   24.2391 C   0  0  0  0  0  0
   22.4162  -14.3878   25.4540 C   0  0  0  0  0  0
   21.6707  -13.4538   26.1695 C   0  0  0  0  0  0
   20.4642  -12.9792   25.6741 C   0  0  0  0  0  0
   19.9866  -13.4523   24.4586 C   0  0  0  0  0  0
   20.8078  -14.0693   20.2883 O   0  0  0  0  0  0
   20.6167  -13.3340   19.0822 C   0  0  0  0  0  0
   21.0197  -11.8552   19.1807 C   0  0  0  0  0  0
   17.6521  -18.0578   19.6038 H   0  0  0  0  0  0
   15.4131  -18.4317   18.7383 H   0  0  0  0  0  0
   16.0429  -15.4482   22.6447 H   0  0  0  0  0  0
   11.8118  -14.8418   21.5215 H   0  0  0  0  0  0
   11.7566  -18.3249   18.4302 H   0  0  0  0  0  0
   13.3328  -17.9988   17.7152 H   0  0  0  0  0  0
   13.1631  -19.1983   19.0033 H   0  0  0  0  0  0
   12.7716  -12.5658   18.9151 H   0  0  0  0  0  0
   11.3703  -13.2925   19.6416 H   0  0  0  0  0  0
   14.0354  -10.7891   20.0164 H   0  0  0  0  0  0
   13.9960   -9.0134   21.6930 H   0  0  0  0  0  0
   10.8809  -11.1327   23.7984 H   0  0  0  0  0  0
   10.9223  -12.8484   22.1320 H   0  0  0  0  0  0
   11.0906   -8.0518   25.3433 H   0  0  0  0  0  0
   10.5529   -9.5210   24.6204 H   0  0  0  0  0  0
   13.0366   -7.2011   24.6702 H   0  0  0  0  0  0
   19.0141  -16.5262   20.7347 H   0  0  0  0  0  0
   20.8841  -15.7302   22.0469 H   0  0  0  0  0  0
   22.5041  -15.6112   23.7003 H   0  0  0  0  0  0
   23.3552  -14.7474   25.8505 H   0  0  0  0  0  0
   22.0160  -13.0922   27.1249 H   0  0  0  0  0  0
   19.9017  -12.2521   26.2377 H   0  0  0  0  0  0
   19.0380  -13.0933   24.0900 H   0  0  0  0  0  0
   21.2161  -13.8167   18.3104 H   0  0  0  0  0  0
   19.5781  -13.4207   18.7573 H   0  0  0  0  0  0
   20.8974  -11.3718   18.2122 H   0  0  0  0  0  0
   20.4046  -11.3118   19.8982 H   0  0  0  0  0  0
   22.0578  -11.7498   19.4882 H   0  0  0  0  0  0
  1 24  1  0  0  0
  1  2  2  0  0  0
  1  4  1  0  0  0
  2  3  1  0  0  0
  2 39  1  0  0  0
  3  6  2  0  0  0
  3 40  1  0  0  0
  4  5  2  0  0  0
  4 41  1  0  0  0
  5 10  1  0  0  0
  5  6  1  0  0  0
  6  7  1  0  0  0
  7  8  1  0  0  0
  7 11  1  0  0  0
  8  9  1  0  0  0
  8 12  2  0  0  0
  9 10  1  0  0  0
  9 13  1  0  0  0
  9 42  1  0  0  0
 11 43  1  0  0  0
 11 44  1  0  0  0
 11 45  1  0  0  0
 13 14  1  0  0  0
 14 15  1  0  0  0
 14 46  1  0  0  0
 14 47  1  0  0  0
 15 20  1  0  0  0
 15 16  2  0  0  0
 16 17  1  0  0  0
 16 48  1  0  0  0
 17 18  2  0  0  0
 17 49  1  0  0  0
 18 19  1  0  0  0
 18 21  1  0  0  0
 19 20  2  0  0  0
 19 50  1  0  0  0
 20 51  1  0  0  0
 21 22  1  0  0  0
 21 23  2  0  0  0
 22 52  1  0  0  0
 22 53  1  0  0  0
 23 54  1  0  0  0
 24 25  1  0  0  0
 24 55  1  0  0  0
 25 26  1  0  0  0
 25 27  2  0  0  0
 26 28  1  0  0  0
 26 29  1  0  0  0
 26 56  1  0  0  0
 28 31  2  0  0  0
 28 35  1  0  0  0
 29 36  1  0  0  0
 29 30  2  0  0  0
 31 32  1  0  0  0
 31 57  1  0  0  0
 32 33  2  0  0  0
 32 58  1  0  0  0
 33 34  1  0  0  0
 33 59  1  0  0  0
 34 35  2  0  0  0
 34 60  1  0  0  0
 35 61  1  0  0  0
 36 37  1  0  0  0
 37 38  1  0  0  0
 37 62  1  0  0  0
 37 63  1  0  0  0
 38 64  1  0  0  0
 38 65  1  0  0  0
 38 66  1  0  0  0
M  END
> <s_m_entry_id>
35576

> <s_m_entry_name>
dock_pv.426

> <s_m_Source_Path>
/home/csk/Desktop/cluster/DUD-E-result/thrb

> <s_m_Source_File>
dock_pv.maegz

> <i_m_Source_File_Index>
426

> <chembl_id>
CHEMBL461191

> <chembl_pref_name>
None

> <i_lp_mmshare_version>
53161

> <r_lp_tautomer_probability>
1

> <s_lp_Force_Field>
OPLS_2005

> <r_lp_Energy>
37.790466

> <b_lp_Chiralities_Consistent>
1

> <s_lp_Variant>
CHEMBL204_lig4647-2

> <s_i_glide_gridfile>
glide-grid_1ype

> <i_i_glide_lignum>
6350

> <i_i_glide_rotatable_bonds>
11

> <r_i_docking_score>
-6.82893950938937

> <r_i_glide_ligand_efficiency>
-0.179708934457615

> <r_i_glide_ligand_efficiency_sa>
-0.604177017295966

> <r_i_glide_ligand_efficiency_ln>
-1.47252024527179

> <r_i_glide_gscore>
-6.82893950938937

> <r_i_glide_lipo>
-3.39986464612264

> <r_i_glide_hbond>
-0.0450985563207006

> <r_i_glide_metal>
0

> <r_i_glide_rewards>
-0.879262341475175

> <r_i_glide_evdw>
-50.71240234375

> <r_i_glide_ecoul>
-3.59577417373657

> <r_i_glide_erotb>
0.615436066620791

> <r_i_glide_esite>
-0.0451637888436537

> <r_i_glide_emodel>
-66.3305680079031

> <r_i_glide_energy>
-54.3081765174866

> <r_i_glide_einternal>
15.2001323699951

> <i_i_glide_confnum>
8

> <i_i_glide_posenum>
50

> <r_i_glide_eff_state_penalty>
0

> <s_user_duplicate_titles>
CHEMBL204_lig4647

> <i_f3d_flags>
0

> <s_m_subgroup_title>
dock_pv

> <s_m_subgroupid>
dock_pv

> <b_m_subgroup_collapsed>
1

$$$$
CHEMBL204_lig3406
                    3D
 Schrodinger Suite 2021-1.
 49 53  0  0  1  0            999 V2000
   17.0276  -17.8221   21.8753 S   0  0  0  0  0  0
   18.1317  -16.7046   22.7903 C   0  0  0  0  0  0
   15.9523  -16.6721   21.0593 N   0  0  2  0  0  0
   12.0453  -11.5483   22.0996 C   0  0  0  0  0  0
   19.6970  -16.2433   22.1605 S   0  0  0  0  0  0
   15.6249  -14.7684   19.3747 C   0  0  0  0  0  0
   16.5651  -15.8663   19.9670 C   0  0  0  0  0  0
   14.4014  -14.5755   19.9679 N   0  0  0  0  0  0
   13.0079  -12.5834   20.3616 C   0  0  0  0  0  0
   17.8541  -16.1439   24.0237 C   0  0  0  0  0  0
   13.5905  -11.4034   20.4217 N   0  0  0  0  0  0
   13.0283  -10.7519   21.4782 C   0  0  0  0  0  0
   20.0190  -15.3006   23.6081 C   0  0  0  0  0  0
   12.0160  -12.7167   21.3149 C   0  0  0  0  0  0
   11.3789  -11.0753   23.2363 C   0  0  0  0  0  0
   18.9213  -15.3456   24.5197 C   0  0  0  0  0  0
   15.0366  -15.9272   21.9210 C   0  0  0  0  0  0
   13.4437  -13.6313   19.3594 C   0  0  0  0  0  0
   16.2520  -18.5636   22.8772 O   0  0  0  0  0  0
   17.8395  -18.5071   20.8626 O   0  0  0  0  0  0
   21.1865  -14.5803   23.9002 C   0  0  0  0  0  0
   11.6824   -9.8499   23.6843 N   0  0  0  0  0  0
   13.8842  -15.4633   21.0376 C   0  0  0  0  0  0
   16.0159  -14.0961   18.4190 O   0  0  0  0  0  0
   19.0289  -14.6403   25.7301 C   0  0  0  0  0  0
   21.2606  -13.9067   25.1165 C   0  0  0  0  0  0
   13.3188   -9.4746   21.9895 C   0  0  0  0  0  0
   10.4601  -11.8530   23.9210 N   0  0  0  0  0  0
   12.6107   -9.0529   23.1209 C   0  0  0  0  0  0
   20.1952  -13.9270   26.0125 C   0  0  0  0  0  0
   22.7040  -13.0530   25.5210 Cl  0  0  0  0  0  0
   16.8156  -16.5443   19.1508 H   0  0  0  0  0  0
   17.4683  -15.3707   20.3210 H   0  0  0  0  0  0
   16.9316  -16.3054   24.5626 H   0  0  0  0  0  0
   11.3891  -13.5847   21.4538 H   0  0  0  0  0  0
   15.5646  -15.0529   22.3075 H   0  0  0  0  0  0
   14.6815  -16.5545   22.7384 H   0  0  0  0  0  0
   12.5752  -14.2046   19.0338 H   0  0  0  0  0  0
   13.8288  -13.1598   18.4538 H   0  0  0  0  0  0
   22.0160  -14.5579   23.2080 H   0  0  0  0  0  0
   11.1810   -9.5210   24.4977 H   0  0  0  0  0  0
   13.1716  -14.9480   21.6781 H   0  0  0  0  0  0
   13.3654  -16.2968   20.5610 H   0  0  0  0  0  0
   18.2194  -14.6530   26.4449 H   0  0  0  0  0  0
   14.0781   -8.8541   21.5383 H   0  0  0  0  0  0
   10.3744  -12.8312   23.6609 H   0  0  0  0  0  0
    9.7733  -11.4467   24.5553 H   0  0  0  0  0  0
   12.7655   -8.1008   23.6083 H   0  0  0  0  0  0
   20.2773  -13.3895   26.9476 H   0  0  0  0  0  0
  1  2  1  0  0  0
  1  3  1  0  0  0
  1 19  2  0  0  0
  1 20  2  0  0  0
  2  5  1  0  0  0
  2 10  2  0  0  0
  3  7  1  0  0  0
  3 17  1  0  0  0
  4 14  1  0  0  0
  4 15  2  0  0  0
  4 12  1  0  0  0
  5 13  1  0  0  0
  6  7  1  0  0  0
  6 24  2  0  0  0
  6  8  1  0  0  0
  7 32  1  0  0  0
  7 33  1  0  0  0
  8 23  1  0  0  0
  8 18  1  0  0  0
  9 18  1  0  0  0
  9 11  1  0  0  0
  9 14  2  0  0  0
 10 16  1  0  0  0
 10 34  1  0  0  0
 11 12  2  0  0  0
 12 27  1  0  0  0
 13 21  1  0  0  0
 13 16  2  0  0  0
 14 35  1  0  0  0
 15 22  1  0  0  0
 15 28  1  0  0  0
 16 25  1  0  0  0
 17 23  1  0  0  0
 17 36  1  0  0  0
 17 37  1  0  0  0
 18 38  1  0  0  0
 18 39  1  0  0  0
 21 26  2  0  0  0
 21 40  1  0  0  0
 22 29  1  0  0  0
 22 41  1  0  0  0
 23 42  1  0  0  0
 23 43  1  0  0  0
 25 30  2  0  0  0
 25 44  1  0  0  0
 26 31  1  0  0  0
 26 30  1  0  0  0
 27 29  2  0  0  0
 27 45  1  0  0  0
 28 46  1  0  0  0
 28 47  1  0  0  0
 29 48  1  0  0  0
 30 49  1  0  0  0
M  END
> <s_m_entry_id>
35577

> <s_m_entry_name>
dock_pv.427

> <s_m_Source_Path>
/home/csk/Desktop/cluster/DUD-E-result/thrb

> <s_m_Source_File>
dock_pv.maegz

> <i_m_Source_File_Index>
427

> <chembl_id>
CHEMBL348778

> <chembl_pref_name>
None

> <i_lp_mmshare_version>
53161

> <r_lp_tautomer_probability>
1

> <s_lp_Force_Field>
OPLS_2005

> <r_lp_Energy>
17.028024

> <b_lp_Chiralities_Consistent>
1

> <s_lp_Variant>
CHEMBL204_lig3406-1

> <s_i_glide_gridfile>
glide-grid_1ype

> <i_i_glide_lignum>
4753

> <i_i_glide_rotatable_bonds>
4

> <r_i_docking_score>
-6.82838488119944

> <r_i_glide_ligand_efficiency>
-0.220270480038692

> <r_i_glide_ligand_efficiency_sa>
-0.691953423494457

> <r_i_glide_ligand_efficiency_ln>
-1.54001005557532

> <r_i_glide_gscore>
-6.82838488119944

> <r_i_glide_lipo>
-3.07060028778099

> <r_i_glide_hbond>
-0.444051615430525

> <r_i_glide_metal>
0

> <r_i_glide_rewards>
-0.264065006120635

> <r_i_glide_evdw>
-40.8021812438965

> <r_i_glide_ecoul>
-8.5243501663208

> <r_i_glide_erotb>
0.357471233876615

> <r_i_glide_esite>
-0.0883776186009573

> <r_i_glide_emodel>
-69.1652256950583

> <r_i_glide_energy>
-49.3265314102173

> <r_i_glide_einternal>
3.62744426727295

> <i_i_glide_confnum>
32

> <i_i_glide_posenum>
96

> <r_i_glide_eff_state_penalty>
0

> <s_user_duplicate_titles>
CHEMBL204_lig3406

> <i_f3d_flags>
0

> <s_m_subgroup_title>
dock_pv

> <s_m_subgroupid>
dock_pv

> <b_m_subgroup_collapsed>
1

$$$$
CHEMBL204_lig3027
                    3D
 Schrodinger Suite 2021-1.
 60 64  0  0  1  0            999 V2000
   14.4842  -17.1475   20.1901 N   0  0  0  0  0  0
   14.6921  -16.9037   21.5435 C   0  0  0  0  0  0
   12.2571  -10.6629   22.4283 C   0  0  0  0  0  0
   13.0514   -8.6532   23.1199 N   0  0  0  0  0  0
   16.1306  -17.0097   21.9683 C   0  0  0  0  0  0
   17.1045  -17.3459   21.1897 N   0  0  0  0  0  0
   18.3885  -15.4207   24.1756 C   0  0  0  0  0  0
   12.1450   -9.5807   23.3372 C   0  0  0  0  0  0
   13.3203  -10.2776   21.6029 C   0  0  0  0  0  0
   13.8022   -9.0678   22.0090 O   0  0  0  0  0  0
   15.5559  -17.5022   19.3665 C   0  0  0  0  0  0
   16.8103  -17.6023   19.8808 C   0  0  0  0  0  0
   18.0222  -14.7203   25.4772 C   0  0  0  0  0  0
   19.3544  -15.3981   25.3501 C   0  0  0  0  0  0
   13.0893  -16.9704   19.6973 C   0  0  0  0  0  0
   16.3913  -16.7111   23.3050 N   0  0  0  0  0  0
   11.6171  -11.8888   22.1980 C   0  0  0  0  0  0
   12.7589  -15.5137   19.3021 C   0  0  0  0  0  0
   18.6899  -14.5944   22.9293 C   0  0  0  0  0  0
   17.6975  -16.7880   23.9647 C   0  0  0  0  0  0
   13.7702  -16.6287   22.3209 O   0  0  0  0  0  0
   13.7802  -11.0604   20.5389 C   0  0  0  0  0  0
   13.7109  -14.5664   19.4205 N   0  0  0  0  0  0
   11.6257  -15.2651   18.8931 O   0  0  0  0  0  0
   11.2162   -9.5105   24.3215 N   0  0  0  0  0  0
   19.9345  -14.6967   22.3018 C   0  0  0  0  0  0
   17.7159  -13.7356   22.4128 C   0  0  0  0  0  0
   13.1189  -12.2741   20.3032 C   0  0  0  0  0  0
   12.0641  -12.6751   21.1375 C   0  0  0  0  0  0
   13.5482  -13.1422   19.1204 C   0  0  0  0  0  0
   19.2392  -13.0663   20.6694 C   0  0  0  0  0  0
   20.2095  -13.9303   21.1718 C   0  0  0  0  0  0
   17.9912  -12.9673   21.2840 C   0  0  0  0  0  0
   19.5067  -12.3178   19.5754 F   0  0  0  0  0  0
   15.2685  -17.7589   17.8901 C   0  0  0  0  0  0
   17.6357  -17.8822   19.2454 H   0  0  0  0  0  0
   18.0161  -13.6332   25.5192 H   0  0  0  0  0  0
   17.2546  -15.1583   26.1156 H   0  0  0  0  0  0
   19.5381  -16.3154   25.9132 H   0  0  0  0  0  0
   20.2527  -14.7792   25.2855 H   0  0  0  0  0  0
   12.3700  -17.3000   20.4491 H   0  0  0  0  0  0
   12.8961  -17.6293   18.8525 H   0  0  0  0  0  0
   15.6868  -16.1694   23.8047 H   0  0  0  0  0  0
   10.7945  -12.2190   22.8201 H   0  0  0  0  0  0
   17.5333  -17.2723   24.9272 H   0  0  0  0  0  0
   18.3717  -17.4545   23.4243 H   0  0  0  0  0  0
   14.6042  -10.7274   19.9234 H   0  0  0  0  0  0
   14.5944  -14.8335   19.8221 H   0  0  0  0  0  0
   10.4843  -10.2067   24.4118 H   0  0  0  0  0  0
   11.1156   -8.6964   24.9034 H   0  0  0  0  0  0
   20.6879  -15.3657   22.6910 H   0  0  0  0  0  0
   16.7496  -13.6691   22.8896 H   0  0  0  0  0  0
   11.5607  -13.6122   20.9623 H   0  0  0  0  0  0
   12.8156  -13.0043   18.3235 H   0  0  0  0  0  0
   14.5005  -12.7842   18.7266 H   0  0  0  0  0  0
   21.1733  -14.0051   20.6860 H   0  0  0  0  0  0
   17.2432  -12.2976   20.8868 H   0  0  0  0  0  0
   16.1836  -17.9650   17.3346 H   0  0  0  0  0  0
   14.6162  -18.6226   17.7701 H   0  0  0  0  0  0
   14.7940  -16.8950   17.4260 H   0  0  0  0  0  0
  1  2  1  0  0  0
  1 11  1  0  0  0
  1 15  1  0  0  0
  2  5  1  0  0  0
  2 21  2  0  0  0
  3 17  2  0  0  0
  3  8  1  0  0  0
  3  9  1  0  0  0
  4 10  1  0  0  0
  4  8  2  0  0  0
  5 16  1  0  0  0
  5  6  2  0  0  0
  6 12  1  0  0  0
  7 20  1  0  0  0
  7 13  1  0  0  0
  7 14  1  0  0  0
  7 19  1  0  0  0
  8 25  1  0  0  0
  9 22  2  0  0  0
  9 10  1  0  0  0
 11 12  2  0  0  0
 11 35  1  0  0  0
 12 36  1  0  0  0
 13 14  1  0  0  0
 13 37  1  0  0  0
 13 38  1  0  0  0
 14 39  1  0  0  0
 14 40  1  0  0  0
 15 18  1  0  0  0
 15 41  1  0  0  0
 15 42  1  0  0  0
 16 20  1  0  0  0
 16 43  1  0  0  0
 17 29  1  0  0  0
 17 44  1  0  0  0
 18 23  1  0  0  0
 18 24  2  0  0  0
 19 26  1  0  0  0
 19 27  2  0  0  0
 20 45  1  0  0  0
 20 46  1  0  0  0
 22 28  1  0  0  0
 22 47  1  0  0  0
 23 30  1  0  0  0
 23 48  1  0  0  0
 25 49  1  0  0  0
 25 50  1  0  0  0
 26 32  2  0  0  0
 26 51  1  0  0  0
 27 33  1  0  0  0
 27 52  1  0  0  0
 28 30  1  0  0  0
 28 29  2  0  0  0
 29 53  1  0  0  0
 30 54  1  0  0  0
 30 55  1  0  0  0
 31 33  2  0  0  0
 31 34  1  0  0  0
 31 32  1  0  0  0
 32 56  1  0  0  0
 33 57  1  0  0  0
 35 58  1  0  0  0
 35 59  1  0  0  0
 35 60  1  0  0  0
M  END
> <s_m_entry_id>
35578

> <s_m_entry_name>
dock_pv.428

> <s_m_Source_Path>
/home/csk/Desktop/cluster/DUD-E-result/thrb

> <s_m_Source_File>
dock_pv.maegz

> <i_m_Source_File_Index>
428

> <chembl_id>
CHEMBL97950

> <chembl_pref_name>
None

> <i_lp_mmshare_version>
53161

> <r_lp_tautomer_probability>
1

> <s_lp_Force_Field>
OPLS_2005

> <r_lp_Energy>
42.30882

> <b_lp_Chiralities_Consistent>
1

> <s_lp_Variant>
CHEMBL204_lig3027-1

> <s_i_glide_gridfile>
glide-grid_1ype

> <i_i_glide_lignum>
4300

> <i_i_glide_rotatable_bonds>
9

> <r_i_docking_score>
-6.82834492335918

> <r_i_glide_ligand_efficiency>
-0.195095569238834

> <r_i_glide_ligand_efficiency_sa>
-0.638170543047908

> <r_i_glide_ligand_efficiency_ln>
-1.49897325762778

> <r_i_glide_gscore>
-6.82834492335918

> <r_i_glide_lipo>
-3.06758660727764

> <r_i_glide_hbond>
-0.608

> <r_i_glide_metal>
0

> <r_i_glide_rewards>
-0.632649928926817

> <r_i_glide_evdw>
-45.7927474975586

> <r_i_glide_ecoul>
-6.31269216537476

> <r_i_glide_erotb>
0.802678648756257

> <r_i_glide_esite>
-0.0862458362268398

> <r_i_glide_emodel>
-70.1472263077893

> <r_i_glide_energy>
-52.1054396629333

> <r_i_glide_einternal>
6.93381977081299

> <i_i_glide_confnum>
39

> <i_i_glide_posenum>
183

> <r_i_glide_eff_state_penalty>
0

> <s_user_duplicate_titles>
CHEMBL204_lig3027

> <i_f3d_flags>
0

> <s_m_subgroup_title>
dock_pv

> <s_m_subgroupid>
dock_pv

> <b_m_subgroup_collapsed>
1

$$$$
CHEMBL204_lig4163
                    3D
 Schrodinger Suite 2021-1.
 55 59  0  0  1  0            999 V2000
   18.0134  -12.6558   20.6051 C   0  0  0  0  0  0
   16.6727  -12.5207   20.8558 N   0  0  0  0  0  0
   16.1784  -12.1200   19.6991 C   0  0  0  0  0  0
   12.5841  -13.6396   20.4915 N   0  0  0  0  0  0
   17.0857  -11.9857   18.6849 O   0  0  0  0  0  0
   18.2692  -12.3167   19.2673 C   0  0  0  0  0  0
   20.6110  -14.8275   23.9438 C   0  0  0  0  0  0
   13.8139  -11.4948   20.5114 C   0  0  0  0  0  0
   12.3807  -15.8302   20.3426 N   0  0  0  0  0  0
   19.1098  -13.0294   21.4054 C   0  0  0  0  0  0
   12.7971  -12.3452   20.9985 C   0  0  0  0  0  0
   12.1026  -13.8649   19.2673 N   0  0  0  0  0  0
   12.7335  -14.8423   21.1255 C   0  0  0  0  0  0
   12.0167  -15.1804   19.2496 C   0  0  0  0  0  0
   14.7247  -11.8715   19.3393 C   0  0  0  0  0  0
   18.9130  -13.3216   22.7655 N   0  0  0  0  0  0
   20.3703  -13.0525   20.8798 N   0  0  0  0  0  0
   11.9870  -11.9305   22.0597 C   0  0  0  0  0  0
   20.0402  -13.4069   23.7008 C   0  0  0  0  0  0
   21.9561  -14.7816   24.7378 C   0  0  1  0  0  0
   22.4001  -16.0803   25.2750 N   0  0  1  0  0  0
   14.0035  -10.2517   21.1317 C   0  0  0  0  0  0
   20.7899  -15.4743   22.7899 F   0  0  0  0  0  0
   19.6991  -15.5241   24.6282 F   0  0  0  0  0  0
   19.5504  -12.3398   18.7042 C   0  0  0  0  0  0
   13.2140   -9.8637   22.2184 C   0  0  0  0  0  0
   12.1882  -10.6923   22.6644 C   0  0  0  0  0  0
   20.5702  -12.7216   19.5765 C   0  0  0  0  0  0
   13.5574   -8.3968   23.0663 Cl  0  0  0  0  0  0
   23.6763  -16.0731   25.9949 C   0  0  0  0  0  0
   23.0987  -14.0730   23.9518 C   0  0  0  0  0  0
   24.8070  -15.4846   25.1385 C   0  0  0  0  0  0
   24.4577  -14.0715   24.6653 C   0  0  0  0  0  0
   13.0834  -14.8939   22.1480 H   0  0  0  0  0  0
   11.6517  -15.7080   18.3798 H   0  0  0  0  0  0
   14.6697  -11.0535   18.6223 H   0  0  0  0  0  0
   14.3490  -12.7271   18.7822 H   0  0  0  0  0  0
   17.9790  -13.5232   23.0895 H   0  0  0  0  0  0
   11.1973  -12.5688   22.4258 H   0  0  0  0  0  0
   19.7210  -12.9752   24.6516 H   0  0  0  0  0  0
   20.8208  -12.7334   23.3580 H   0  0  0  0  0  0
   21.7644  -14.2041   25.6452 H   0  0  0  0  0  0
   21.6750  -16.4695   25.8609 H   0  0  0  0  0  0
   14.7999   -9.6003   20.8041 H   0  0  0  0  0  0
   19.7350  -12.0964   17.6704 H   0  0  0  0  0  0
   11.5679  -10.3964   23.4991 H   0  0  0  0  0  0
   21.5941  -12.7635   19.2315 H   0  0  0  0  0  0
   23.5630  -15.4870   26.9089 H   0  0  0  0  0  0
   23.9206  -17.0933   26.2949 H   0  0  0  0  0  0
   22.8535  -13.0358   23.7437 H   0  0  0  0  0  0
   23.2193  -14.5760   22.9939 H   0  0  0  0  0  0
   25.7280  -15.4554   25.7236 H   0  0  0  0  0  0
   25.0224  -16.1456   24.2959 H   0  0  0  0  0  0
   24.4126  -13.3957   25.5214 H   0  0  0  0  0  0
   25.2383  -13.6851   24.0063 H   0  0  0  0  0  0
  1  2  1  0  0  0
  1  6  2  0  0  0
  1 10  1  0  0  0
  2  3  2  0  0  0
  3 15  1  0  0  0
  3  5  1  0  0  0
  4 11  1  0  0  0
  4 12  1  0  0  0
  4 13  1  0  0  0
  5  6  1  0  0  0
  6 25  1  0  0  0
  7 19  1  0  0  0
  7 20  1  0  0  0
  7 23  1  0  0  0
  7 24  1  0  0  0
  8 15  1  0  0  0
  8 11  1  0  0  0
  8 22  2  0  0  0
  9 13  2  0  0  0
  9 14  1  0  0  0
 10 16  1  0  0  0
 10 17  2  0  0  0
 11 18  2  0  0  0
 12 14  2  0  0  0
 13 34  1  0  0  0
 14 35  1  0  0  0
 15 36  1  0  0  0
 15 37  1  0  0  0
 16 19  1  0  0  0
 16 38  1  0  0  0
 17 28  1  0  0  0
 18 27  1  0  0  0
 18 39  1  0  0  0
 19 40  1  0  0  0
 19 41  1  0  0  0
 20 21  1  0  0  0
 20 31  1  0  0  0
 20 42  1  0  0  0
 21 30  1  0  0  0
 21 43  1  0  0  0
 22 26  1  0  0  0
 22 44  1  0  0  0
 25 28  2  0  0  0
 25 45  1  0  0  0
 26 27  2  0  0  0
 26 29  1  0  0  0
 27 46  1  0  0  0
 28 47  1  0  0  0
 30 32  1  0  0  0
 30 48  1  0  0  0
 30 49  1  0  0  0
 31 33  1  0  0  0
 31 50  1  0  0  0
 31 51  1  0  0  0
 32 33  1  0  0  0
 32 52  1  0  0  0
 32 53  1  0  0  0
 33 54  1  0  0  0
 33 55  1  0  0  0
M  END
> <s_m_entry_id>
35579

> <s_m_entry_name>
dock_pv.429

> <s_m_Source_Path>
/home/csk/Desktop/cluster/DUD-E-result/thrb

> <s_m_Source_File>
dock_pv.maegz

> <i_m_Source_File_Index>
429

> <chembl_id>
CHEMBL198735

> <chembl_pref_name>
None

> <i_lp_mmshare_version>
53161

> <r_lp_tautomer_probability>
1

> <s_lp_Force_Field>
OPLS_2005

> <r_lp_Energy>
33.846424

> <b_lp_Chiralities_Consistent>
1

> <s_lp_Variant>
CHEMBL204_lig4163-2

> <s_i_glide_gridfile>
glide-grid_1ype

> <i_i_glide_lignum>
5785

> <i_i_glide_rotatable_bonds>
7

> <r_i_docking_score>
-6.82673760596149

> <r_i_glide_ligand_efficiency>
-0.206870836544288

> <r_i_glide_ligand_efficiency_sa>
-0.663545309317394

> <r_i_glide_ligand_efficiency_ln>
-1.51823109661024

> <r_i_glide_gscore>
-6.82673760596149

> <r_i_glide_lipo>
-3.54415687870585

> <r_i_glide_hbond>
0

> <r_i_glide_metal>
0

> <r_i_glide_rewards>
-0.934019889672314

> <r_i_glide_evdw>
-50.0560607910156

> <r_i_glide_ecoul>
-2.57495951652527

> <r_i_glide_erotb>
0.540486129446245

> <r_i_glide_esite>
0

> <r_i_glide_emodel>
-71.7006976820914

> <r_i_glide_energy>
-52.6310203075409

> <r_i_glide_einternal>
4.16586923599243

> <i_i_glide_confnum>
59

> <i_i_glide_posenum>
248

> <r_i_glide_eff_state_penalty>
0

> <s_user_duplicate_titles>
CHEMBL204_lig4163,329951

> <i_f3d_flags>
0

> <s_m_subgroup_title>
dock_pv

> <s_m_subgroupid>
dock_pv

> <b_m_subgroup_collapsed>
1

$$$$
CHEMBL204_lig3277
                    3D
 Schrodinger Suite 2021-1.
 49 52  0  0  1  0            999 V2000
   16.8971  -15.1216   21.7854 C   0  0  0  0  0  0
   17.3152  -14.0573   20.4407 S   0  0  0  0  0  0
   17.9122  -15.2056   22.7432 C   0  0  0  0  0  0
   12.5622  -14.7516   19.9527 C   0  0  0  0  0  0
   15.6352  -15.8463   21.7555 C   0  0  0  0  0  0
   12.6484  -13.2769   20.2465 C   0  0  0  0  0  0
   13.4885  -15.6819   20.4752 C   0  0  0  0  0  0
   19.0881  -14.4922   22.3292 C   0  0  0  0  0  0
   14.6428  -15.1892   21.1192 N   0  0  0  0  0  0
   18.9242  -13.8346   21.0734 C   0  0  0  0  0  0
   12.0825  -12.9147   21.4188 N   0  0  0  0  0  0
   11.5254  -15.2060   19.1316 C   0  0  0  0  0  0
   15.5351  -16.9788   22.2299 O   0  0  0  0  0  0
   13.2187  -12.5257   19.4555 O   0  0  0  0  0  0
   13.2871  -17.0525   20.2336 C   0  0  0  0  0  0
   12.1069  -11.6634   22.0646 C   0  0  0  0  0  0
   11.3407  -16.5652   18.8886 C   0  0  0  0  0  0
   12.1041   -9.3035   23.5503 C   0  0  0  0  0  0
   17.8742  -15.9643   24.0622 C   0  0  0  0  0  0
   12.2152  -17.4891   19.4577 C   0  0  0  0  0  0
   12.1220   -8.1700   24.2890 F   0  0  0  0  0  0
   11.2161  -11.4956   23.1284 C   0  0  0  0  0  0
   12.9928  -10.6243   21.7378 C   0  0  0  0  0  0
   12.9828   -9.4461   22.4789 C   0  0  0  0  0  0
   11.2162  -10.3219   23.8749 C   0  0  0  0  0  0
   20.3369  -14.3726   22.9697 C   0  0  0  0  0  0
   19.9635  -13.1163   20.4650 C   0  0  0  0  0  0
   10.1834  -17.0239   18.0228 C   0  0  0  0  0  0
   21.3686  -13.6628   22.3580 C   0  0  0  0  0  0
   21.1870  -13.0533   21.1214 C   0  0  0  0  0  0
   14.8260  -14.2163   20.9284 H   0  0  0  0  0  0
   11.5843  -13.6372   21.9245 H   0  0  0  0  0  0
   10.8234  -14.5022   18.7073 H   0  0  0  0  0  0
   13.9723  -17.7998   20.6016 H   0  0  0  0  0  0
   16.8705  -16.2817   24.3452 H   0  0  0  0  0  0
   18.4968  -16.8589   24.0293 H   0  0  0  0  0  0
   18.2380  -15.3517   24.8877 H   0  0  0  0  0  0
   12.0852  -18.5461   19.2761 H   0  0  0  0  0  0
   10.5072  -12.2648   23.3947 H   0  0  0  0  0  0
   13.7122  -10.7158   20.9399 H   0  0  0  0  0  0
   13.6760   -8.6528   22.2450 H   0  0  0  0  0  0
   10.5210  -10.2045   24.6945 H   0  0  0  0  0  0
   20.5079  -14.8472   23.9239 H   0  0  0  0  0  0
   19.8259  -12.6347   19.5076 H   0  0  0  0  0  0
   10.3524  -16.7415   16.9830 H   0  0  0  0  0  0
   10.0333  -18.1031   18.0781 H   0  0  0  0  0  0
    9.2557  -16.5503   18.3482 H   0  0  0  0  0  0
   22.3296  -13.5880   22.8471 H   0  0  0  0  0  0
   22.0115  -12.5195   20.6700 H   0  0  0  0  0  0
  1  2  1  0  0  0
  1  3  2  0  0  0
  1  5  1  0  0  0
  2 10  1  0  0  0
  3  8  1  0  0  0
  3 19  1  0  0  0
  4  7  2  0  0  0
  4  6  1  0  0  0
  4 12  1  0  0  0
  5  9  1  0  0  0
  5 13  2  0  0  0
  6 11  1  0  0  0
  6 14  2  0  0  0
  7  9  1  0  0  0
  7 15  1  0  0  0
  8 26  1  0  0  0
  8 10  2  0  0  0
  9 31  1  0  0  0
 10 27  1  0  0  0
 11 16  1  0  0  0
 11 32  1  0  0  0
 12 17  2  0  0  0
 12 33  1  0  0  0
 15 20  2  0  0  0
 15 34  1  0  0  0
 16 22  2  0  0  0
 16 23  1  0  0  0
 17 20  1  0  0  0
 17 28  1  0  0  0
 18 24  1  0  0  0
 18 21  1  0  0  0
 18 25  2  0  0  0
 19 35  1  0  0  0
 19 36  1  0  0  0
 19 37  1  0  0  0
 20 38  1  0  0  0
 22 25  1  0  0  0
 22 39  1  0  0  0
 23 24  2  0  0  0
 23 40  1  0  0  0
 24 41  1  0  0  0
 25 42  1  0  0  0
 26 29  2  0  0  0
 26 43  1  0  0  0
 27 30  2  0  0  0
 27 44  1  0  0  0
 28 45  1  0  0  0
 28 46  1  0  0  0
 28 47  1  0  0  0
 29 30  1  0  0  0
 29 48  1  0  0  0
 30 49  1  0  0  0
M  END
> <s_m_entry_id>
35580

> <s_m_entry_name>
dock_pv.430

> <s_m_Source_Path>
/home/csk/Desktop/cluster/DUD-E-result/thrb

> <s_m_Source_File>
dock_pv.maegz

> <i_m_Source_File_Index>
430

> <chembl_id>
CHEMBL147518

> <chembl_pref_name>
None

> <i_lp_mmshare_version>
53161

> <r_lp_tautomer_probability>
1

> <s_lp_Force_Field>
OPLS_2005

> <r_lp_Energy>
38.641296

> <b_lp_Chiralities_Consistent>
1

> <s_lp_Variant>
CHEMBL204_lig3277-1

> <s_i_glide_gridfile>
glide-grid_1ype

> <i_i_glide_lignum>
4608

> <i_i_glide_rotatable_bonds>
6

> <r_i_docking_score>
-6.82527363925139

> <r_i_glide_ligand_efficiency>
-0.22750912130838

> <r_i_glide_ligand_efficiency_sa>
-0.706923736328934

> <r_i_glide_ligand_efficiency_ln>
-1.55077653815057

> <r_i_glide_gscore>
-6.82527363925139

> <r_i_glide_lipo>
-2.99901579703535

> <r_i_glide_hbond>
-0.237108412464535

> <r_i_glide_metal>
0

> <r_i_glide_rewards>
-1.37342675746485

> <r_i_glide_evdw>
-44.5363502502441

> <r_i_glide_ecoul>
-4.30399036407471

> <r_i_glide_erotb>
0.677489586847766

> <r_i_glide_esite>
-0.0207961920110074

> <r_i_glide_emodel>
-63.7504811990749

> <r_i_glide_energy>
-48.8403406143188

> <r_i_glide_einternal>
14.991907119751

> <i_i_glide_confnum>
70

> <i_i_glide_posenum>
25

> <r_i_glide_eff_state_penalty>
0

> <s_user_duplicate_titles>
CHEMBL204_lig3277

> <i_f3d_flags>
0

> <s_m_subgroup_title>
dock_pv

> <s_m_subgroupid>
dock_pv

> <b_m_subgroup_collapsed>
1

$$$$
CHEMBL204_lig5113
                    3D
 Schrodinger Suite 2021-1.
 51 54  0  0  1  0            999 V2000
   13.6170  -15.6618   21.9191 N   0  0  0  0  0  0
   12.8031  -14.8985   20.9870 C   0  0  0  0  0  0
   13.1182  -13.4107   21.1022 C   0  0  0  0  0  0
   12.2342  -12.6220   21.8530 C   0  0  0  0  0  0
   12.4810  -11.2721   22.0676 C   0  0  0  0  0  0
   13.6183  -10.6936   21.5206 C   0  0  0  0  0  0
   13.9943   -9.0528   21.8486 Cl  0  0  0  0  0  0
   14.4830  -11.4485   20.7366 C   0  0  0  0  0  0
   14.2572  -12.8141   20.5135 C   0  0  0  0  0  0
   15.2639  -13.5951   19.6521 C   0  0  0  0  0  0
   16.6655  -13.4426   20.0672 N   0  0  0  0  0  0
   17.5318  -12.5022   19.6437 C   0  0  0  0  0  0
   17.2390  -11.6724   18.7813 O   0  0  0  0  0  0
   18.9145  -12.4181   20.3433 C   0  0  2  0  0  0
   20.0858  -12.2072   19.3527 C   0  0  0  0  0  0
   20.7711  -13.5043   19.8292 C   0  0  0  0  0  0
   19.5837  -13.7037   20.6973 N   0  0  0  0  0  0
   19.2684  -14.7434   21.4960 C   0  0  0  0  0  0
   19.5675  -15.8923   21.1669 O   0  0  0  0  0  0
   18.4293  -14.4611   22.7738 C   0  0  1  0  0  0
   17.6062  -15.6090   23.1619 N   0  0  1  0  0  0
   17.7005  -15.7648   24.6042 C   0  0  0  0  0  0
   18.8229  -14.8781   25.0564 C   0  0  0  0  0  0
   19.3786  -14.7118   26.3210 C   0  0  0  0  0  0
   20.4062  -13.7885   26.5078 C   0  0  0  0  0  0
   20.8873  -13.0535   25.4269 C   0  0  0  0  0  0
   20.3385  -13.2345   24.1563 C   0  0  0  0  0  0
   19.2887  -14.1402   23.9777 C   0  0  0  0  0  0
   14.5532  -15.7762   21.5570 H   0  0  0  0  0  0
   13.7007  -15.1452   22.7916 H   0  0  0  0  0  0
   11.7519  -15.0668   21.2280 H   0  0  0  0  0  0
   12.9393  -15.2540   19.9638 H   0  0  0  0  0  0
   11.3505  -13.0526   22.2981 H   0  0  0  0  0  0
   11.8013  -10.6862   22.6706 H   0  0  0  0  0  0
   15.3445  -10.9536   20.3153 H   0  0  0  0  0  0
   15.0487  -14.6622   19.6585 H   0  0  0  0  0  0
   15.1255  -13.2731   18.6186 H   0  0  0  0  0  0
   16.9852  -14.0891   20.7728 H   0  0  0  0  0  0
   18.8983  -11.7122   21.1754 H   0  0  0  0  0  0
   19.7621  -12.2303   18.3086 H   0  0  0  0  0  0
   20.6073  -11.2845   19.6134 H   0  0  0  0  0  0
   20.7978  -14.3166   19.1011 H   0  0  0  0  0  0
   21.6443  -13.4021   20.4719 H   0  0  0  0  0  0
   17.7758  -13.6136   22.5709 H   0  0  0  0  0  0
   16.6357  -15.4461   22.9244 H   0  0  0  0  0  0
   16.7701  -15.4710   25.0829 H   0  0  0  0  0  0
   17.8971  -16.8128   24.8300 H   0  0  0  0  0  0
   19.0042  -15.2802   27.1577 H   0  0  0  0  0  0
   20.8217  -13.6349   27.4921 H   0  0  0  0  0  0
   21.6798  -12.3392   25.5874 H   0  0  0  0  0  0
   20.7144  -12.6533   23.3295 H   0  0  0  0  0  0
  1  2  1  0  0  0
  1 29  1  0  0  0
  1 30  1  0  0  0
  2  3  1  0  0  0
  2 31  1  0  0  0
  2 32  1  0  0  0
  3  4  2  0  0  0
  3  9  1  0  0  0
  4  5  1  0  0  0
  4 33  1  0  0  0
  5  6  2  0  0  0
  5 34  1  0  0  0
  6  7  1  0  0  0
  6  8  1  0  0  0
  8  9  2  0  0  0
  8 35  1  0  0  0
  9 10  1  0  0  0
 10 11  1  0  0  0
 10 36  1  0  0  0
 10 37  1  0  0  0
 11 12  1  0  0  0
 11 38  1  0  0  0
 12 13  2  0  0  0
 12 14  1  0  0  0
 14 15  1  0  0  0
 14 17  1  0  0  0
 14 39  1  0  0  0
 15 16  1  0  0  0
 15 40  1  0  0  0
 15 41  1  0  0  0
 16 17  1  0  0  0
 16 42  1  0  0  0
 16 43  1  0  0  0
 17 18  1  0  0  0
 18 19  2  0  0  0
 18 20  1  0  0  0
 20 21  1  0  0  0
 20 28  1  0  0  0
 20 44  1  0  0  0
 21 22  1  0  0  0
 21 45  1  0  0  0
 22 23  1  0  0  0
 22 46  1  0  0  0
 22 47  1  0  0  0
 23 24  2  0  0  0
 23 28  1  0  0  0
 24 25  1  0  0  0
 24 48  1  0  0  0
 25 26  2  0  0  0
 25 49  1  0  0  0
 26 27  1  0  0  0
 26 50  1  0  0  0
 27 28  2  0  0  0
 27 51  1  0  0  0
M  END
> <s_m_entry_id>
35581

> <s_m_entry_name>
dock_pv.431

> <s_m_Source_Path>
/home/csk/Desktop/cluster/DUD-E-result/thrb

> <s_m_Source_File>
dock_pv.maegz

> <i_m_Source_File_Index>
431

> <chembl_id>
CHEMBL3933799

> <chembl_pref_name>
None

> <i_lp_mmshare_version>
53161

> <r_lp_tautomer_probability>
1

> <s_lp_Force_Field>
OPLS_2005

> <r_lp_Energy>
43.370401

> <b_lp_Chiralities_Consistent>
1

> <s_lp_Variant>
CHEMBL204_lig5113-2

> <s_i_glide_gridfile>
glide-grid_1ype

> <i_i_glide_lignum>
7007

> <i_i_glide_rotatable_bonds>
7

> <r_i_docking_score>
-6.82509417360605

> <r_i_glide_ligand_efficiency>
-0.243753363343073

> <r_i_glide_ligand_efficiency_sa>
-0.740178774163035

> <r_i_glide_ligand_efficiency_ln>
-1.57543212874085

> <r_i_glide_gscore>
-6.82509417360605

> <r_i_glide_lipo>
-3.7436851248739

> <r_i_glide_hbond>
-0.314749301944859

> <r_i_glide_metal>
0

> <r_i_glide_rewards>
-0.559174317841243

> <r_i_glide_evdw>
-41.3187599182129

> <r_i_glide_ecoul>
-5.86831474304199

> <r_i_glide_erotb>
0.738699778420897

> <r_i_glide_esite>
0

> <r_i_glide_emodel>
-62.6316198214985

> <r_i_glide_energy>
-47.1870746612549

> <r_i_glide_einternal>
2.5451979637146

> <i_i_glide_confnum>
135

> <i_i_glide_posenum>
217

> <r_i_glide_eff_state_penalty>
0

> <s_user_duplicate_titles>
CHEMBL204_lig5113

> <i_f3d_flags>
0

> <s_m_subgroup_title>
dock_pv

> <s_m_subgroupid>
dock_pv

> <b_m_subgroup_collapsed>
1

$$$$
CHEMBL204_lig4572
                    3D
 Schrodinger Suite 2021-1.
 54 55  0  0  1  0            999 V2000
   22.3929  -13.4532   25.6336 C   0  0  0  0  0  0
   21.1372  -12.9222   25.9347 C   0  0  0  0  0  0
   20.0164  -13.6815   26.0083 N   0  0  0  0  0  0
   20.1305  -15.0213   25.7882 C   0  0  0  0  0  0
   21.3633  -15.6276   25.5101 C   0  0  0  0  0  0
   22.5047  -14.8285   25.4313 C   0  0  0  0  0  0
   18.8342  -15.8373   25.8192 C   0  0  0  0  0  0
   18.2019  -16.0251   24.4154 C   0  0  0  0  0  0
   17.9702  -15.2919   26.6769 F   0  0  0  0  0  0
   19.1225  -17.0440   26.3129 F   0  0  0  0  0  0
   17.6167  -14.8334   23.7878 N   0  0  0  0  0  0
   18.2070  -14.2892   22.6305 C   0  0  0  0  0  0
   17.4257  -14.0909   21.4865 C   0  0  0  0  0  0
   17.9882  -13.5774   20.3039 C   0  0  0  0  0  0
   19.3577  -13.2324   20.2857 C   0  0  0  0  0  0
   20.1375  -13.4530   21.4222 C   0  0  0  0  0  0
   19.5694  -13.9850   22.5746 C   0  0  0  0  0  0
   17.0840  -13.4314   19.0705 C   0  0  0  0  0  0
   16.2105  -12.1775   19.1525 C   0  0  0  0  0  0
   14.8902  -12.3922   19.2699 N   0  0  0  0  0  0
   16.7271  -11.0617   19.1272 O   0  0  0  0  0  0
   13.8612  -11.3684   19.4339 C   0  0  0  0  0  0
   13.9319  -10.6317   20.7916 C   0  0  0  0  0  0
   16.1084  -14.4116   21.5138 F   0  0  0  0  0  0
   12.6115  -10.3167   21.2350 O   0  0  0  0  0  0
   12.3035  -11.0373   22.4474 N   0  0  0  0  0  0
   11.7356  -10.2549   23.5024 C   0  0  0  0  0  0
   10.8160  -10.9327   24.3211 N   0  0  0  0  0  0
   12.0163   -9.0525   23.7257 N   0  0  0  0  0  0
   20.0140  -12.6498   19.1185 C   0  0  0  0  0  0
   20.5330  -12.1869   18.1917 N   0  0  0  0  0  0
   11.8090  -12.3735   22.1057 C   0  0  0  0  0  0
   23.2634  -12.8160   25.5666 H   0  0  0  0  0  0
   21.0089  -11.8639   26.1170 H   0  0  0  0  0  0
   21.4363  -16.6928   25.3424 H   0  0  0  0  0  0
   23.4672  -15.2686   25.2156 H   0  0  0  0  0  0
   17.3897  -16.7433   24.5190 H   0  0  0  0  0  0
   18.9177  -16.5015   23.7447 H   0  0  0  0  0  0
   16.6330  -14.6530   23.9682 H   0  0  0  0  0  0
   21.1948  -13.2159   21.4270 H   0  0  0  0  0  0
   20.2108  -14.1429   23.4221 H   0  0  0  0  0  0
   16.4641  -14.3242   18.9836 H   0  0  0  0  0  0
   17.6481  -13.3953   18.1396 H   0  0  0  0  0  0
   14.5710  -13.3492   19.3008 H   0  0  0  0  0  0
   12.8927  -11.8525   19.3030 H   0  0  0  0  0  0
   13.9264  -10.6541   18.6126 H   0  0  0  0  0  0
   14.4972   -9.7041   20.6925 H   0  0  0  0  0  0
   14.4984  -11.2225   21.5181 H   0  0  0  0  0  0
   10.2219  -10.4422   24.9798 H   0  0  0  0  0  0
   10.4664  -11.8449   24.0682 H   0  0  0  0  0  0
   11.5046   -8.7075   24.5211 H   0  0  0  0  0  0
   12.0157  -13.0526   22.9340 H   0  0  0  0  0  0
   10.7347  -12.3705   21.9211 H   0  0  0  0  0  0
   12.3044  -12.7981   21.2347 H   0  0  0  0  0  0
  1  6  1  0  0  0
  1  2  2  0  0  0
  1 33  1  0  0  0
  2  3  1  0  0  0
  2 34  1  0  0  0
  3  4  2  0  0  0
  4  5  1  0  0  0
  4  7  1  0  0  0
  5  6  2  0  0  0
  5 35  1  0  0  0
  6 36  1  0  0  0
  7  8  1  0  0  0
  7  9  1  0  0  0
  7 10  1  0  0  0
  8 11  1  0  0  0
  8 37  1  0  0  0
  8 38  1  0  0  0
 11 12  1  0  0  0
 11 39  1  0  0  0
 12 17  1  0  0  0
 12 13  2  0  0  0
 13 24  1  0  0  0
 13 14  1  0  0  0
 14 18  1  0  0  0
 14 15  2  0  0  0
 15 16  1  0  0  0
 15 30  1  0  0  0
 16 17  2  0  0  0
 16 40  1  0  0  0
 17 41  1  0  0  0
 18 19  1  0  0  0
 18 42  1  0  0  0
 18 43  1  0  0  0
 19 20  1  0  0  0
 19 21  2  0  0  0
 20 22  1  0  0  0
 20 44  1  0  0  0
 22 23  1  0  0  0
 22 45  1  0  0  0
 22 46  1  0  0  0
 23 25  1  0  0  0
 23 47  1  0  0  0
 23 48  1  0  0  0
 25 26  1  0  0  0
 26 27  1  0  0  0
 26 32  1  0  0  0
 27 28  1  0  0  0
 27 29  2  0  0  0
 28 49  1  0  0  0
 28 50  1  0  0  0
 29 51  1  0  0  0
 30 31  3  0  0  0
 32 52  1  0  0  0
 32 53  1  0  0  0
 32 54  1  0  0  0
M  END
> <s_m_entry_id>
35582

> <s_m_entry_name>
dock_pv.432

> <s_m_Source_Path>
/home/csk/Desktop/cluster/DUD-E-result/thrb

> <s_m_Source_File>
dock_pv.maegz

> <i_m_Source_File_Index>
432

> <chembl_id>
CHEMBL258225

> <chembl_pref_name>
None

> <i_lp_mmshare_version>
53161

> <r_lp_tautomer_probability>
1

> <s_lp_Force_Field>
OPLS_2005

> <r_lp_Energy>
7.035131

> <b_lp_Chiralities_Consistent>
1

> <s_lp_Variant>
CHEMBL204_lig4572-1

> <s_i_glide_gridfile>
glide-grid_1ype

> <i_i_glide_lignum>
6243

> <i_i_glide_rotatable_bonds>
12

> <r_i_docking_score>
-6.8250288717853

> <r_i_glide_ligand_efficiency>
-0.213282152243291

> <r_i_glide_ligand_efficiency_sa>
-0.677128624891833

> <r_i_glide_ligand_efficiency_ln>
-1.52831000765326

> <r_i_glide_gscore>
-6.8250288717853

> <r_i_glide_lipo>
-2.70806915904071

> <r_i_glide_hbond>
-0.418129298855115

> <r_i_glide_metal>
0

> <r_i_glide_rewards>
-1.31218531479985

> <r_i_glide_evdw>
-50.0673179626465

> <r_i_glide_ecoul>
-5.77387619018555

> <r_i_glide_erotb>
1.09140280021962

> <r_i_glide_esite>
-0.108600572649087

> <r_i_glide_emodel>
-75.6142425793025

> <r_i_glide_energy>
-55.841194152832

> <r_i_glide_einternal>
10.1057214736938

> <i_i_glide_confnum>
128

> <i_i_glide_posenum>
315

> <r_i_glide_eff_state_penalty>
0

> <s_user_duplicate_titles>
CHEMBL204_lig4572,426090

> <i_f3d_flags>
0

> <s_m_subgroup_title>
dock_pv

> <s_m_subgroupid>
dock_pv

> <b_m_subgroup_collapsed>
1

$$$$
CHEMBL204_lig1718
                    3D
 Schrodinger Suite 2021-1.
 59 61  0  0  1  0            999 V2000
   13.6164  -11.6918   19.5318 P   0  0  0  0  0  0
   16.2775  -11.7746   19.3597 N   0  0  0  0  0  0
   15.1200  -12.4723   18.7908 C   0  0  2  0  0  0
   17.5782  -12.1791   19.1370 C   0  0  0  0  0  0
   12.4717  -12.8597   19.4456 O   0  0  0  0  0  0
   13.9428  -11.6154   21.1209 O   0  0  0  0  0  0
   13.2160  -10.3737   18.9729 O   0  0  0  0  0  0
   17.9414  -13.0528   18.3530 O   0  0  0  0  0  0
   16.1682  -10.2498   14.3458 N   0  0  0  0  0  0
   18.4013  -11.4695   19.9252 O   0  0  0  0  0  0
   12.5617  -14.1841   19.8107 C   0  0  0  0  0  0
   13.0668  -11.0235   21.9873 C   0  0  0  0  0  0
   19.7607  -11.8658   20.0953 C   0  0  0  0  0  0
   19.8742  -13.0555   21.0460 C   0  0  0  0  0  0
   15.0340  -12.5080   17.2330 C   0  0  0  0  0  0
   15.4812  -11.3740   14.9596 C   0  0  0  0  0  0
   13.3786  -14.6377   20.8551 C   0  0  0  0  0  0
   11.7608  -15.0946   19.1213 C   0  0  0  0  0  0
   13.2345   -9.6784   22.3162 C   0  0  0  0  0  0
   12.0473  -11.7725   22.5764 C   0  0  0  0  0  0
   19.1765  -13.0635   22.2588 C   0  0  0  0  0  0
   20.6777  -14.1423   20.6975 C   0  0  0  0  0  0
   15.4142  -11.2039   16.4874 C   0  0  0  0  0  0
   12.4160   -9.0937   23.2790 C   0  0  0  0  0  0
   11.2161  -11.1821   23.5221 C   0  0  0  0  0  0
   13.4032  -15.9890   21.1888 C   0  0  0  0  0  0
   20.7896  -15.2300   21.5596 C   0  0  0  0  0  0
   19.2882  -14.1501   23.1217 C   0  0  0  0  0  0
   11.7787  -16.4461   19.4554 C   0  0  0  0  0  0
   20.0962  -15.2285   22.7683 C   0  0  0  0  0  0
   12.6038  -16.8880   20.4866 C   0  0  0  0  0  0
   11.4184   -9.8536   23.8869 C   0  0  0  0  0  0
   16.1191  -11.0366   20.0307 H   0  0  0  0  0  0
   15.1565  -13.4994   19.1545 H   0  0  0  0  0  0
   16.1690  -10.3691   13.3406 H   0  0  0  0  0  0
   15.6462   -9.3972   14.5020 H   0  0  0  0  0  0
   20.2129  -12.1057   19.1307 H   0  0  0  0  0  0
   20.3218  -11.0235   20.4958 H   0  0  0  0  0  0
   15.7019  -13.2968   16.8836 H   0  0  0  0  0  0
   14.0377  -12.8336   16.9281 H   0  0  0  0  0  0
   16.0192  -12.2866   14.6994 H   0  0  0  0  0  0
   14.4788  -11.4523   14.5393 H   0  0  0  0  0  0
   13.9961  -13.9600   21.4222 H   0  0  0  0  0  0
   11.1123  -14.7510   18.3292 H   0  0  0  0  0  0
   14.0244   -9.1048   21.8549 H   0  0  0  0  0  0
   11.9038  -12.8113   22.3208 H   0  0  0  0  0  0
   18.5480  -12.2295   22.5316 H   0  0  0  0  0  0
   21.2147  -14.1501   19.7596 H   0  0  0  0  0  0
   14.7019  -10.4140   16.7211 H   0  0  0  0  0  0
   16.3856  -10.8602   16.8438 H   0  0  0  0  0  0
   12.5637   -8.0635   23.5664 H   0  0  0  0  0  0
   10.4214  -11.7531   23.9841 H   0  0  0  0  0  0
   14.0381  -16.3333   21.9920 H   0  0  0  0  0  0
   21.4166  -16.0684   21.2912 H   0  0  0  0  0  0
   18.7509  -14.1565   24.0591 H   0  0  0  0  0  0
   11.1536  -17.1455   18.9190 H   0  0  0  0  0  0
   20.1851  -16.0719   23.4377 H   0  0  0  0  0  0
   12.6181  -17.9366   20.7460 H   0  0  0  0  0  0
   10.7773   -9.4088   24.6352 H   0  0  0  0  0  0
  1  3  1  0  0  0
  1  5  1  0  0  0
  1  6  1  0  0  0
  1  7  2  0  0  0
  2  3  1  0  0  0
  2  4  1  0  0  0
  2 33  1  0  0  0
  3 15  1  0  0  0
  3 34  1  0  0  0
  4  8  2  0  0  0
  4 10  1  0  0  0
  5 11  1  0  0  0
  6 12  1  0  0  0
  9 16  1  0  0  0
  9 35  1  0  0  0
  9 36  1  0  0  0
 10 13  1  0  0  0
 11 17  2  0  0  0
 11 18  1  0  0  0
 12 19  1  0  0  0
 12 20  2  0  0  0
 13 14  1  0  0  0
 13 37  1  0  0  0
 13 38  1  0  0  0
 14 21  1  0  0  0
 14 22  2  0  0  0
 15 23  1  0  0  0
 15 39  1  0  0  0
 15 40  1  0  0  0
 16 23  1  0  0  0
 16 41  1  0  0  0
 16 42  1  0  0  0
 17 26  1  0  0  0
 17 43  1  0  0  0
 18 29  2  0  0  0
 18 44  1  0  0  0
 19 24  2  0  0  0
 19 45  1  0  0  0
 20 25  1  0  0  0
 20 46  1  0  0  0
 21 28  2  0  0  0
 21 47  1  0  0  0
 22 27  1  0  0  0
 22 48  1  0  0  0
 23 49  1  0  0  0
 23 50  1  0  0  0
 24 32  1  0  0  0
 24 51  1  0  0  0
 25 32  2  0  0  0
 25 52  1  0  0  0
 26 31  2  0  0  0
 26 53  1  0  0  0
 27 30  2  0  0  0
 27 54  1  0  0  0
 28 30  1  0  0  0
 28 55  1  0  0  0
 29 31  1  0  0  0
 29 56  1  0  0  0
 30 57  1  0  0  0
 31 58  1  0  0  0
 32 59  1  0  0  0
M  END
> <s_m_entry_id>
35583

> <s_m_entry_name>
dock_pv.433

> <s_m_Source_Path>
/home/csk/Desktop/cluster/DUD-E-result/thrb

> <s_m_Source_File>
dock_pv.maegz

> <i_m_Source_File_Index>
433

> <chembl_id>
CHEMBL1179439

> <chembl_pref_name>
None

> <i_lp_mmshare_version>
53161

> <r_lp_tautomer_probability>
1

> <s_lp_Force_Field>
OPLS_2005

> <r_lp_Energy>
7.137144

> <b_lp_Chiralities_Consistent>
1

> <s_lp_Variant>
CHEMBL204_lig1718-2

> <s_i_glide_gridfile>
glide-grid_1ype

> <i_i_glide_lignum>
2499

> <i_i_glide_rotatable_bonds>
13

> <r_i_docking_score>
-6.82349005322471

> <r_i_glide_ligand_efficiency>
-0.213234064163272

> <r_i_glide_ligand_efficiency_sa>
-0.676975954754392

> <r_i_glide_ligand_efficiency_ln>
-1.52796542423094

> <r_i_glide_gscore>
-6.82349005322471

> <r_i_glide_lipo>
-3.33763179916765

> <r_i_glide_hbond>
-0.284823137374555

> <r_i_glide_metal>
0

> <r_i_glide_rewards>
-0.537805974635511

> <r_i_glide_evdw>
-46.1378021240234

> <r_i_glide_ecoul>
-8.20950126647949

> <r_i_glide_erotb>
0.875086154126102

> <r_i_glide_esite>
0

> <r_i_glide_emodel>
-74.557690675042

> <r_i_glide_energy>
-54.3473033905029

> <r_i_glide_einternal>
5.19437789916992

> <i_i_glide_confnum>
6

> <i_i_glide_posenum>
393

> <r_i_glide_eff_state_penalty>
0

> <s_user_duplicate_titles>
CHEMBL204_lig1718

> <i_f3d_flags>
0

> <s_m_subgroup_title>
dock_pv

> <s_m_subgroupid>
dock_pv

> <b_m_subgroup_collapsed>
1

$$$$
CHEMBL204_lig2199
                    3D
 Schrodinger Suite 2021-1.
 54 57  0  0  1  0            999 V2000
   14.0673  -14.0643   19.6085 C   0  0  0  0  0  0
   13.3123  -13.4300   20.5199 C   0  0  0  0  0  0
   18.5456  -16.6087   24.3325 S   0  0  0  0  0  0
   15.1012  -13.5496   18.7339 C   0  0  0  0  0  0
   13.6567  -15.3407   19.5611 N   0  0  0  0  0  0
   12.6879  -15.5692   20.4652 C   0  0  0  0  0  0
   12.4867  -14.3679   21.0321 N   0  0  0  0  0  0
   19.3803  -15.0732   24.7757 C   0  0  0  0  0  0
   13.2948  -12.0275   21.0478 C   0  0  0  0  0  0
   19.3719  -13.9113   23.9733 C   0  0  0  0  0  0
   11.5977  -10.0357   23.8683 C   0  0  0  0  0  0
   16.3880  -13.4070   19.1351 N   0  0  0  0  0  0
   12.4424  -11.6774   22.1108 C   0  0  0  0  0  0
   12.4502  -10.3996   22.7050 C   0  0  0  0  0  0
   18.3021  -16.6499   22.8885 O   0  0  0  0  0  0
   19.2663  -17.6998   24.9949 O   0  0  0  0  0  0
   18.6094  -13.8006   22.7027 C   0  0  0  0  0  0
   11.6160   -8.8706   24.3416 N   0  0  0  0  0  0
   14.8258  -13.2809   17.5677 O   0  0  0  0  0  0
   12.1183  -16.6273   20.7171 O   0  0  0  0  0  0
   17.0017  -16.4868   25.1248 N   0  0  0  0  0  0
   17.0653  -13.5769   20.3617 C   0  0  0  0  0  0
   19.2336  -13.7275   21.4556 C   0  0  0  0  0  0
   17.2220  -13.7446   22.7624 C   0  0  0  0  0  0
   10.8155  -11.0509   24.3539 N   0  0  0  0  0  0
   16.4504  -13.6464   21.6152 C   0  0  0  0  0  0
   18.4647  -13.6138   20.2953 C   0  0  0  0  0  0
   14.1559  -11.0357   20.5591 C   0  0  0  0  0  0
   20.0165  -15.0448   26.0217 C   0  0  0  0  0  0
   20.0220  -12.7711   24.4587 C   0  0  0  0  0  0
   13.3369   -9.4531   22.1716 C   0  0  0  0  0  0
   14.1831   -9.7653   21.1198 C   0  0  0  0  0  0
   20.6457  -13.8887   26.4768 C   0  0  0  0  0  0
   20.6553  -12.7504   25.6932 C   0  0  0  0  0  0
   11.8006  -14.2018   21.7542 H   0  0  0  0  0  0
   16.9925  -13.1176   18.3834 H   0  0  0  0  0  0
   11.7804  -12.4327   22.5052 H   0  0  0  0  0  0
   10.9659   -8.7950   25.1115 H   0  0  0  0  0  0
   13.9971  -16.0274   18.9036 H   0  0  0  0  0  0
   16.2696  -16.0361   24.5691 H   0  0  0  0  0  0
   16.7004  -17.3447   25.5903 H   0  0  0  0  0  0
   20.3113  -13.7660   21.3847 H   0  0  0  0  0  0
   16.7530  -13.7518   23.7310 H   0  0  0  0  0  0
   10.0793  -10.8374   25.0212 H   0  0  0  0  0  0
   10.7051  -11.9109   23.8403 H   0  0  0  0  0  0
   15.3917  -13.6027   21.7607 H   0  0  0  0  0  0
   18.9710  -13.5637   19.3421 H   0  0  0  0  0  0
   14.8397  -11.2195   19.7499 H   0  0  0  0  0  0
   19.9995  -15.9169   26.6586 H   0  0  0  0  0  0
   19.9962  -11.8477   23.9197 H   0  0  0  0  0  0
   13.4024   -8.4600   22.5943 H   0  0  0  0  0  0
   14.8760   -9.0221   20.7540 H   0  0  0  0  0  0
   21.1062  -13.8530   27.4505 H   0  0  0  0  0  0
   21.1197  -11.8443   26.0558 H   0  0  0  0  0  0
  1  2  2  0  0  0
  1  4  1  0  0  0
  1  5  1  0  0  0
  2  7  1  0  0  0
  2  9  1  0  0  0
  3  8  1  0  0  0
  3 15  2  0  0  0
  3 16  2  0  0  0
  3 21  1  0  0  0
  4 12  1  0  0  0
  4 19  2  0  0  0
  5 39  1  0  0  0
  5  6  1  0  0  0
  6 20  2  0  0  0
  6  7  1  0  0  0
  7 35  1  0  0  0
  8 10  2  0  0  0
  8 29  1  0  0  0
  9 13  2  0  0  0
  9 28  1  0  0  0
 10 17  1  0  0  0
 10 30  1  0  0  0
 11 14  1  0  0  0
 11 18  2  0  0  0
 11 25  1  0  0  0
 12 22  1  0  0  0
 12 36  1  0  0  0
 13 14  1  0  0  0
 13 37  1  0  0  0
 14 31  2  0  0  0
 17 24  2  0  0  0
 17 23  1  0  0  0
 18 38  1  0  0  0
 21 40  1  0  0  0
 21 41  1  0  0  0
 22 26  2  0  0  0
 22 27  1  0  0  0
 23 27  2  0  0  0
 23 42  1  0  0  0
 24 26  1  0  0  0
 24 43  1  0  0  0
 25 44  1  0  0  0
 25 45  1  0  0  0
 26 46  1  0  0  0
 27 47  1  0  0  0
 28 32  2  0  0  0
 28 48  1  0  0  0
 29 33  2  0  0  0
 29 49  1  0  0  0
 30 34  2  0  0  0
 30 50  1  0  0  0
 31 32  1  0  0  0
 31 51  1  0  0  0
 32 52  1  0  0  0
 33 34  1  0  0  0
 33 53  1  0  0  0
 34 54  1  0  0  0
M  END
> <s_m_entry_id>
35584

> <s_m_entry_name>
dock_pv.434

> <s_m_Source_Path>
/home/csk/Desktop/cluster/DUD-E-result/thrb

> <s_m_Source_File>
dock_pv.maegz

> <i_m_Source_File_Index>
434

> <chembl_id>
CHEMBL156505

> <chembl_pref_name>
None

> <i_lp_mmshare_version>
53161

> <r_lp_tautomer_probability>
0.999999968840427

> <s_lp_Force_Field>
OPLS_2005

> <r_lp_Energy>
64.002926

> <b_lp_Chiralities_Consistent>
1

> <s_lp_Variant>
CHEMBL204_lig2199-1

> <s_i_glide_gridfile>
glide-grid_1ype

> <i_i_glide_lignum>
3230

> <i_i_glide_rotatable_bonds>
7

> <r_i_docking_score>
-6.82236708570045

> <r_i_glide_ligand_efficiency>
-0.200657855461778

> <r_i_glide_ligand_efficiency_sa>
-0.650053555808899

> <r_i_glide_ligand_efficiency_ln>
-1.50725225014616

> <r_i_glide_gscore>
-6.82236708570045

> <r_i_glide_lipo>
-3.58317989738636

> <r_i_glide_hbond>
-0.555751186834475

> <r_i_glide_metal>
0

> <r_i_glide_rewards>
0.726344571017274

> <r_i_glide_evdw>
-47.5968246459961

> <r_i_glide_ecoul>
-9.2025671005249

> <r_i_glide_erotb>
0.445922502730168

> <r_i_glide_esite>
-0.0954767778485126

> <r_i_glide_emodel>
-64.0655640983119

> <r_i_glide_energy>
-56.799391746521

> <r_i_glide_einternal>
21.1763381958008

> <i_i_glide_confnum>
119

> <i_i_glide_posenum>
36

> <r_i_glide_eff_state_penalty>
0

> <s_user_duplicate_titles>
CHEMBL204_lig2199

> <i_f3d_flags>
0

> <s_m_subgroup_title>
dock_pv

> <s_m_subgroupid>
dock_pv

> <b_m_subgroup_collapsed>
1

$$$$
CHEMBL204_lig2187
                    3D
 Schrodinger Suite 2021-1.
 53 54  0  0  1  0            999 V2000
   18.7410  -14.2531   24.4944 C   0  0  0  0  0  0
   11.6161  -10.8587   23.2708 C   0  0  0  0  0  0
   18.5998  -14.0282   23.0222 C   0  0  0  0  0  0
   15.8266  -11.6602   16.5135 C   0  0  0  0  0  0
   12.5148  -11.2648   22.1529 C   0  0  0  0  0  0
   19.8190  -13.9894   25.0916 N   0  0  0  0  0  0
   11.6168   -9.6841   23.7228 N   0  0  0  0  0  0
   15.3012  -12.4092   18.9889 C   0  0  1  0  0  0
   14.7966  -11.8604   17.6300 C   0  0  0  0  0  0
   14.3042  -12.0265   20.0941 C   0  0  0  0  0  0
   17.4372  -14.3740   22.3037 C   0  0  0  0  0  0
   17.0434  -11.7275   16.7040 O   0  0  0  0  0  0
   12.3521  -12.4760   21.4540 C   0  0  0  0  0  0
   13.5759  -10.4319   21.7600 C   0  0  0  0  0  0
   13.2180  -12.8428   20.4266 C   0  0  0  0  0  0
   14.4648  -10.8099   20.7582 C   0  0  0  0  0  0
   15.6481  -13.9265   18.8988 C   0  0  0  0  0  0
   17.6194  -14.7452   25.1211 N   0  0  0  0  0  0
   10.8156  -11.8523   23.7731 N   0  0  0  0  0  0
   17.3192  -14.1584   20.9259 C   0  0  0  0  0  0
   16.0570  -14.6371   20.2121 C   0  0  0  0  0  0
   15.2152  -11.3925   15.3446 O   0  0  0  0  0  0
   19.6488  -13.4519   22.2815 C   0  0  0  0  0  0
   19.5414  -13.2164   20.9116 C   0  0  0  0  0  0
   18.3806  -13.5678   20.2330 C   0  0  0  0  0  0
   15.9601  -11.1915   14.1543 C   0  0  0  0  0  0
   14.9916  -11.0488   12.9754 C   0  0  0  0  0  0
   19.7616  -14.1816   26.0803 H   0  0  0  0  0  0
   10.9382   -9.5885   24.4651 H   0  0  0  0  0  0
   16.2311  -11.8953   19.2391 H   0  0  0  0  0  0
   14.0158  -12.5199   17.2541 H   0  0  0  0  0  0
   14.3229  -10.8937   17.7898 H   0  0  0  0  0  0
   16.6052  -14.8429   22.8075 H   0  0  0  0  0  0
   11.5373  -13.1441   21.6904 H   0  0  0  0  0  0
   13.7398   -9.4827   22.2535 H   0  0  0  0  0  0
   13.0458  -13.7730   19.9057 H   0  0  0  0  0  0
   15.2821  -10.1502   20.5049 H   0  0  0  0  0  0
   14.7800  -14.4561   18.5008 H   0  0  0  0  0  0
   16.4239  -14.0806   18.1461 H   0  0  0  0  0  0
   17.6410  -14.9133   26.1150 H   0  0  0  0  0  0
   16.7232  -14.7703   24.6511 H   0  0  0  0  0  0
   10.0785  -11.6132   24.4312 H   0  0  0  0  0  0
   10.8885  -12.8215   23.4856 H   0  0  0  0  0  0
   15.2208  -14.5946   20.9130 H   0  0  0  0  0  0
   16.2015  -15.6961   19.9953 H   0  0  0  0  0  0
   20.5706  -13.1685   22.7671 H   0  0  0  0  0  0
   20.3677  -12.7744   20.3738 H   0  0  0  0  0  0
   18.3260  -13.3985   19.1673 H   0  0  0  0  0  0
   16.5697  -10.2907   14.2428 H   0  0  0  0  0  0
   16.6313  -12.0318   13.9796 H   0  0  0  0  0  0
   15.5304  -10.8770   12.0444 H   0  0  0  0  0  0
   14.3916  -11.9515   12.8445 H   0  0  0  0  0  0
   14.3099  -10.2115   13.1182 H   0  0  0  0  0  0
  1  3  1  0  0  0
  1  6  2  0  0  0
  1 18  1  0  0  0
  2  5  1  0  0  0
  2  7  2  0  0  0
  2 19  1  0  0  0
  3 11  1  0  0  0
  3 23  2  0  0  0
  4  9  1  0  0  0
  4 12  2  0  0  0
  4 22  1  0  0  0
  5 14  1  0  0  0
  5 13  2  0  0  0
  6 28  1  0  0  0
  7 29  1  0  0  0
  8 17  1  0  0  0
  8  9  1  0  0  0
  8 10  1  0  0  0
  8 30  1  0  0  0
  9 31  1  0  0  0
  9 32  1  0  0  0
 10 15  2  0  0  0
 10 16  1  0  0  0
 11 20  2  0  0  0
 11 33  1  0  0  0
 13 15  1  0  0  0
 13 34  1  0  0  0
 14 16  2  0  0  0
 14 35  1  0  0  0
 15 36  1  0  0  0
 16 37  1  0  0  0
 17 21  1  0  0  0
 17 38  1  0  0  0
 17 39  1  0  0  0
 18 40  1  0  0  0
 18 41  1  0  0  0
 19 42  1  0  0  0
 19 43  1  0  0  0
 20 21  1  0  0  0
 20 25  1  0  0  0
 21 44  1  0  0  0
 21 45  1  0  0  0
 22 26  1  0  0  0
 23 24  1  0  0  0
 23 46  1  0  0  0
 24 25  2  0  0  0
 24 47  1  0  0  0
 25 48  1  0  0  0
 26 27  1  0  0  0
 26 49  1  0  0  0
 26 50  1  0  0  0
 27 51  1  0  0  0
 27 52  1  0  0  0
 27 53  1  0  0  0
M  END
> <s_m_entry_id>
35585

> <s_m_entry_name>
dock_pv.435

> <s_m_Source_Path>
/home/csk/Desktop/cluster/DUD-E-result/thrb

> <s_m_Source_File>
dock_pv.maegz

> <i_m_Source_File_Index>
435

> <chembl_id>
CHEMBL158207

> <chembl_pref_name>
None

> <i_lp_mmshare_version>
53161

> <r_lp_tautomer_probability>
1

> <s_lp_Force_Field>
OPLS_2005

> <r_lp_Energy>
-1.067072

> <b_lp_Chiralities_Consistent>
1

> <s_lp_Variant>
CHEMBL204_lig2187-2

> <s_i_glide_gridfile>
glide-grid_1ype

> <i_i_glide_lignum>
3210

> <i_i_glide_rotatable_bonds>
10

> <r_i_docking_score>
-6.82067942493904

> <r_i_glide_ligand_efficiency>
-0.252617756479224

> <r_i_glide_ligand_efficiency_sa>
-0.757853268605084

> <r_i_glide_ligand_efficiency_ln>
-1.58774172243722

> <r_i_glide_gscore>
-6.82067942493904

> <r_i_glide_lipo>
-2.25838021359638

> <r_i_glide_hbond>
-0.675656236944057

> <r_i_glide_metal>
0

> <r_i_glide_rewards>
-1.41374592636647

> <r_i_glide_evdw>
-41.3648071289062

> <r_i_glide_ecoul>
-8.72825908660889

> <r_i_glide_erotb>
1.00329821099825

> <r_i_glide_esite>
-0.0987160395937462

> <r_i_glide_emodel>
-71.1966274070578

> <r_i_glide_energy>
-50.0930662155151

> <r_i_glide_einternal>
5.98705291748047

> <i_i_glide_confnum>
51

> <i_i_glide_posenum>
305

> <r_i_glide_eff_state_penalty>
0

> <s_user_duplicate_titles>
CHEMBL204_lig2187

> <i_f3d_flags>
0

> <s_m_subgroup_title>
dock_pv

> <s_m_subgroupid>
dock_pv

> <b_m_subgroup_collapsed>
1

$$$$
CHEMBL204_lig4118
                    3D
 Schrodinger Suite 2021-1.
 59 63  0  0  1  0            999 V2000
   18.4948  -15.1126   22.9852 C   0  0  1  0  0  0
   18.1076  -13.8707   22.1025 C   0  0  0  0  0  0
   18.7954  -13.5595   20.9640 N   0  0  0  0  0  0
   18.4596  -16.4043   22.1828 C   0  0  0  0  0  0
   19.9340  -15.1085   23.4992 C   0  0  0  0  0  0
   19.6645  -17.0829   22.3114 C   0  0  0  0  0  0
   20.5887  -16.2945   23.1435 C   0  0  0  0  0  0
   18.4325  -12.4266   20.0733 C   0  0  2  0  0  0
   17.0254  -12.3886   19.4368 C   0  0  0  0  0  0
   16.2261  -13.4627   19.5583 N   0  0  0  0  0  0
   21.9178  -16.5139   23.5185 C   0  0  0  0  0  0
   19.9375  -18.2636   21.6988 N   0  0  0  0  0  0
   13.8620  -12.7608   19.9734 C   0  0  0  0  0  0
   17.1222  -13.2043   22.4390 O   0  0  0  0  0  0
   20.6178  -14.1427   24.2477 C   0  0  0  0  0  0
   14.8428  -13.5264   19.0775 C   0  0  0  0  0  0
   13.1375  -13.3773   21.0126 C   0  0  0  0  0  0
   17.6165  -15.2010   24.0972 O   0  0  0  0  0  0
   16.7064  -11.3789   18.8130 O   0  0  0  0  0  0
   13.6193  -11.4100   19.6916 C   0  0  0  0  0  0
   12.2942  -12.6025   21.8174 C   0  0  0  0  0  0
   20.0019  -14.2290   20.4581 C   0  0  0  0  0  0
   21.9400  -14.3592   24.6261 C   0  0  0  0  0  0
   12.7464  -10.6579   20.4759 C   0  0  0  0  0  0
   17.4631  -16.9804   21.3869 C   0  0  0  0  0  0
   22.5856  -15.5431   24.2675 C   0  0  0  0  0  0
   12.1001  -11.2482   21.5561 C   0  0  0  0  0  0
   12.4229   -9.0027   20.1001 Cl  0  0  0  0  0  0
   22.7918  -13.1561   25.5227 Cl  0  0  0  0  0  0
   14.4874  -15.1953   21.9207 N   0  0  0  0  0  0
   19.4903  -12.4502   18.9590 C   0  0  0  0  0  0
   20.6509  -13.2347   19.5143 C   0  0  0  0  0  0
   13.2207  -14.8685   21.3001 C   0  0  0  0  0  0
   18.9510  -18.8056   20.9295 C   0  0  0  0  0  0
   17.7115  -18.1965   20.7474 C   0  0  0  0  0  0
   18.5490  -11.5222   20.6728 H   0  0  0  0  0  0
   16.5472  -14.2548   20.0878 H   0  0  0  0  0  0
   22.4423  -17.4167   23.2298 H   0  0  0  0  0  0
   20.1296  -13.2263   24.5372 H   0  0  0  0  0  0
   14.5354  -14.5682   18.9716 H   0  0  0  0  0  0
   14.7839  -13.1253   18.0658 H   0  0  0  0  0  0
   16.8261  -14.6790   23.9049 H   0  0  0  0  0  0
   14.1209  -10.9440   18.8526 H   0  0  0  0  0  0
   11.7462  -13.0525   22.6338 H   0  0  0  0  0  0
   19.7046  -15.1297   19.9216 H   0  0  0  0  0  0
   20.7394  -14.4950   21.2114 H   0  0  0  0  0  0
   16.5178  -16.4995   21.2409 H   0  0  0  0  0  0
   23.5995  -15.7156   24.5887 H   0  0  0  0  0  0
   11.4211  -10.6704   22.1693 H   0  0  0  0  0  0
   15.1541  -14.4956   21.6181 H   0  0  0  0  0  0
   14.4181  -15.0530   22.9305 H   0  0  0  0  0  0
   19.1025  -12.9743   18.0802 H   0  0  0  0  0  0
   19.7880  -11.4538   18.6437 H   0  0  0  0  0  0
   21.2341  -13.7103   18.7295 H   0  0  0  0  0  0
   21.3090  -12.5762   20.0771 H   0  0  0  0  0  0
   12.3933  -15.1953   21.9324 H   0  0  0  0  0  0
   13.1058  -15.4267   20.3749 H   0  0  0  0  0  0
   19.1904  -19.7317   20.4305 H   0  0  0  0  0  0
   16.9615  -18.6429   20.1140 H   0  0  0  0  0  0
  1  2  1  0  0  0
  1  4  1  0  0  0
  1  5  1  0  0  0
  1 18  1  0  0  0
  2  3  1  0  0  0
  2 14  2  0  0  0
  3  8  1  0  0  0
  3 22  1  0  0  0
  4  6  2  0  0  0
  4 25  1  0  0  0
  5  7  2  0  0  0
  5 15  1  0  0  0
  6 12  1  0  0  0
  6  7  1  0  0  0
  7 11  1  0  0  0
  8  9  1  0  0  0
  8 31  1  0  0  0
  8 36  1  0  0  0
  9 10  1  0  0  0
  9 19  2  0  0  0
 10 16  1  0  0  0
 10 37  1  0  0  0
 11 26  2  0  0  0
 11 38  1  0  0  0
 12 34  2  0  0  0
 13 16  1  0  0  0
 13 17  1  0  0  0
 13 20  2  0  0  0
 15 23  2  0  0  0
 15 39  1  0  0  0
 16 40  1  0  0  0
 16 41  1  0  0  0
 17 21  2  0  0  0
 17 33  1  0  0  0
 18 42  1  0  0  0
 20 24  1  0  0  0
 20 43  1  0  0  0
 21 27  1  0  0  0
 21 44  1  0  0  0
 22 32  1  0  0  0
 22 45  1  0  0  0
 22 46  1  0  0  0
 23 26  1  0  0  0
 23 29  1  0  0  0
 24 27  2  0  0  0
 24 28  1  0  0  0
 25 35  2  0  0  0
 25 47  1  0  0  0
 26 48  1  0  0  0
 27 49  1  0  0  0
 30 33  1  0  0  0
 30 50  1  0  0  0
 30 51  1  0  0  0
 31 32  1  0  0  0
 31 52  1  0  0  0
 31 53  1  0  0  0
 32 54  1  0  0  0
 32 55  1  0  0  0
 33 56  1  0  0  0
 33 57  1  0  0  0
 34 35  1  0  0  0
 34 58  1  0  0  0
 35 59  1  0  0  0
M  END
> <s_m_entry_id>
35586

> <s_m_entry_name>
dock_pv.436

> <s_m_Source_Path>
/home/csk/Desktop/cluster/DUD-E-result/thrb

> <s_m_Source_File>
dock_pv.maegz

> <i_m_Source_File_Index>
436

> <chembl_id>
CHEMBL191441

> <chembl_pref_name>
None

> <i_lp_mmshare_version>
53161

> <r_lp_tautomer_probability>
1

> <s_lp_Force_Field>
OPLS_2005

> <r_lp_Energy>
52.509923

> <b_lp_Chiralities_Consistent>
1

> <s_lp_Variant>
CHEMBL204_lig4118-2

> <s_i_glide_gridfile>
glide-grid_1ype

> <i_i_glide_lignum>
5729

> <i_i_glide_rotatable_bonds>
8

> <r_i_docking_score>
-6.81942967067762

> <r_i_glide_ligand_efficiency>
-0.194840847733646

> <r_i_glide_ligand_efficiency_sa>
-0.637337332114797

> <r_i_glide_ligand_efficiency_ln>
-1.49701616180081

> <r_i_glide_gscore>
-6.81942967067762

> <r_i_glide_lipo>
-3.00186013359813

> <r_i_glide_hbond>
-0.309009863208454

> <r_i_glide_metal>
0

> <r_i_glide_rewards>
-0.587246310160307

> <r_i_glide_evdw>
-39.7748947143555

> <r_i_glide_ecoul>
-9.3514289855957

> <r_i_glide_erotb>
0.470145719846397

> <r_i_glide_esite>
0

> <r_i_glide_emodel>
-65.5319585133037

> <r_i_glide_energy>
-49.1263236999512

> <r_i_glide_einternal>
3.91093754768372

> <i_i_glide_confnum>
117

> <i_i_glide_posenum>
260

> <r_i_glide_eff_state_penalty>
0

> <s_user_duplicate_titles>
CHEMBL204_lig4118

> <i_f3d_flags>
0

> <s_m_subgroup_title>
dock_pv

> <s_m_subgroupid>
dock_pv

> <b_m_subgroup_collapsed>
1

$$$$
CHEMBL204_lig2191
                    3D
 Schrodinger Suite 2021-1.
 53 54  0  0  1  0            999 V2000
   19.5659  -13.9265   22.4942 C   0  0  0  0  0  0
   11.8498   -9.7388   23.7046 C   0  0  0  0  0  0
   15.6871  -11.1869   15.8830 C   0  0  0  0  0  0
   18.6691  -13.3995   21.4208 C   0  0  0  0  0  0
   12.3093  -10.6360   22.6148 C   0  0  0  0  0  0
   20.0202  -15.0998   22.4446 N   0  0  0  0  0  0
   12.3998   -8.6231   23.9209 N   0  0  0  0  0  0
   15.8473  -12.0656   18.3593 C   0  0  2  0  0  0
   16.4826  -11.9705   16.9435 C   0  0  0  0  0  0
   16.8856  -12.5084   19.4021 C   0  0  0  0  0  0
   14.6004  -10.6530   16.1190 O   0  0  0  0  0  0
   18.0864  -14.2910   20.5070 C   0  0  0  0  0  0
   18.3571  -12.0338   21.2688 C   0  0  0  0  0  0
   17.2119  -13.8532   19.5206 C   0  0  0  0  0  0
   17.4860  -11.5925   20.2713 C   0  0  0  0  0  0
   14.5303  -12.9098   18.3748 C   0  0  0  0  0  0
   13.4874  -10.3293   21.9209 C   0  0  0  0  0  0
   11.6338  -11.8225   22.2642 C   0  0  0  0  0  0
   10.8160  -10.2539   24.4341 N   0  0  0  0  0  0
   19.8257  -13.0530   23.5188 N   0  0  0  0  0  0
   13.3575  -12.3909   20.6714 C   0  0  0  0  0  0
   13.9701  -13.4218   19.7281 C   0  0  0  0  0  0
   12.1494  -12.6837   21.3023 C   0  0  0  0  0  0
   14.0158  -11.2035   20.9869 C   0  0  0  0  0  0
   16.3427  -11.1356   14.7026 O   0  0  0  0  0  0
   15.8331  -10.3842   13.6011 C   0  0  0  0  0  0
   14.6354  -11.0541   12.9081 C   0  0  0  0  0  0
   20.6020  -15.3145   23.2393 H   0  0  0  0  0  0
   11.9790   -8.1581   24.7109 H   0  0  0  0  0  0
   15.5619  -11.0512   18.6127 H   0  0  0  0  0  0
   17.4557  -11.4873   17.0278 H   0  0  0  0  0  0
   16.6746  -12.9731   16.5608 H   0  0  0  0  0  0
   18.2874  -15.3517   20.5670 H   0  0  0  0  0  0
   18.7842  -11.2872   21.9206 H   0  0  0  0  0  0
   16.7558  -14.5773   18.8628 H   0  0  0  0  0  0
   17.2595  -10.5382   20.2038 H   0  0  0  0  0  0
   13.7328  -12.3506   17.8933 H   0  0  0  0  0  0
   14.6866  -13.7873   17.7451 H   0  0  0  0  0  0
   14.0473   -9.4326   22.1474 H   0  0  0  0  0  0
   10.7104  -12.1178   22.7420 H   0  0  0  0  0  0
   10.2829   -9.6922   25.0911 H   0  0  0  0  0  0
   10.3374  -11.0841   24.1177 H   0  0  0  0  0  0
   20.4049  -13.3368   24.2938 H   0  0  0  0  0  0
   19.3705  -12.1565   23.5599 H   0  0  0  0  0  0
   13.2020  -14.1610   19.4923 H   0  0  0  0  0  0
   14.7170  -13.9805   20.2888 H   0  0  0  0  0  0
   11.6196  -13.6012   21.0877 H   0  0  0  0  0  0
   14.9630  -10.9429   20.5642 H   0  0  0  0  0  0
   15.5678   -9.3769   13.9243 H   0  0  0  0  0  0
   16.6408  -10.2699   12.8777 H   0  0  0  0  0  0
   14.3715  -10.5152   11.9972 H   0  0  0  0  0  0
   14.8586  -12.0858   12.6327 H   0  0  0  0  0  0
   13.7522  -11.0577   13.5470 H   0  0  0  0  0  0
  1  4  1  0  0  0
  1  6  2  0  0  0
  1 20  1  0  0  0
  2  5  1  0  0  0
  2  7  2  0  0  0
  2 19  1  0  0  0
  3  9  1  0  0  0
  3 11  2  0  0  0
  3 25  1  0  0  0
  4 12  1  0  0  0
  4 13  2  0  0  0
  5 17  2  0  0  0
  5 18  1  0  0  0
  6 28  1  0  0  0
  7 29  1  0  0  0
  8 10  1  0  0  0
  8  9  1  0  0  0
  8 16  1  0  0  0
  8 30  1  0  0  0
  9 31  1  0  0  0
  9 32  1  0  0  0
 10 15  2  0  0  0
 10 14  1  0  0  0
 12 14  2  0  0  0
 12 33  1  0  0  0
 13 15  1  0  0  0
 13 34  1  0  0  0
 14 35  1  0  0  0
 15 36  1  0  0  0
 16 22  1  0  0  0
 16 37  1  0  0  0
 16 38  1  0  0  0
 17 24  1  0  0  0
 17 39  1  0  0  0
 18 23  2  0  0  0
 18 40  1  0  0  0
 19 41  1  0  0  0
 19 42  1  0  0  0
 20 43  1  0  0  0
 20 44  1  0  0  0
 21 22  1  0  0  0
 21 23  1  0  0  0
 21 24  2  0  0  0
 22 45  1  0  0  0
 22 46  1  0  0  0
 23 47  1  0  0  0
 24 48  1  0  0  0
 25 26  1  0  0  0
 26 27  1  0  0  0
 26 49  1  0  0  0
 26 50  1  0  0  0
 27 51  1  0  0  0
 27 52  1  0  0  0
 27 53  1  0  0  0
M  END
> <s_m_entry_id>
35587

> <s_m_entry_name>
dock_pv.437

> <s_m_Source_Path>
/home/csk/Desktop/cluster/DUD-E-result/thrb

> <s_m_Source_File>
dock_pv.maegz

> <i_m_Source_File_Index>
437

> <chembl_id>
CHEMBL156578

> <chembl_pref_name>
None

> <i_lp_mmshare_version>
53161

> <r_lp_tautomer_probability>
1

> <s_lp_Force_Field>
OPLS_2005

> <r_lp_Energy>
3.193185

> <b_lp_Chiralities_Consistent>
1

> <s_lp_Variant>
CHEMBL204_lig2191-2

> <s_i_glide_gridfile>
glide-grid_1ype

> <i_i_glide_lignum>
3216

> <i_i_glide_rotatable_bonds>
10

> <r_i_docking_score>
-6.81755445337173

> <r_i_glide_ligand_efficiency>
-0.252502016791546

> <r_i_glide_ligand_efficiency_sa>
-0.757506049542432

> <r_i_glide_ligand_efficiency_ln>
-1.58701428057554

> <r_i_glide_gscore>
-6.81755445337173

> <r_i_glide_lipo>
-2.60849099416455

> <r_i_glide_hbond>
-0.284521388744733

> <r_i_glide_metal>
0

> <r_i_glide_rewards>
-1.65763707303275

> <r_i_glide_evdw>
-40.3592147827148

> <r_i_glide_ecoul>
-7.77679634094238

> <r_i_glide_erotb>
1.00329821099825

> <r_i_glide_esite>
-0.0857230181508617

> <r_i_glide_emodel>
-67.0485132015795

> <r_i_glide_energy>
-48.1360111236572

> <r_i_glide_einternal>
4.40160322189331

> <i_i_glide_confnum>
24

> <i_i_glide_posenum>
289

> <r_i_glide_eff_state_penalty>
0

> <s_user_duplicate_titles>
CHEMBL204_lig2191

> <i_f3d_flags>
0

> <s_m_subgroup_title>
dock_pv

> <s_m_subgroupid>
dock_pv

> <b_m_subgroup_collapsed>
1

$$$$
CHEMBL204_lig5069
                    3D
 Schrodinger Suite 2021-1.
 50 52  0  0  1  0            999 V2000
   21.4837  -13.8606   25.0026 C   0  0  0  0  0  0
   11.2236  -10.7823   23.6426 C   0  0  0  0  0  0
   20.7966  -13.6905   23.6807 C   0  0  0  0  0  0
   12.1258  -10.9766   22.4708 C   0  0  0  0  0  0
   20.8260  -13.9047   26.0702 N   0  0  0  0  0  0
   11.2177   -9.7102   24.3031 N   0  0  0  0  0  0
   16.4998  -13.9947   19.7439 C   0  0  0  0  0  0
   15.2650  -13.8738   19.0683 C   0  0  0  0  0  0
   17.4852  -12.8163   19.8271 C   0  0  0  0  0  0
   14.8219  -12.5735   18.3908 C   0  0  0  0  0  0
   12.0170  -12.0898   21.6174 C   0  0  0  0  0  0
   13.1273  -10.0359   22.1795 C   0  0  0  0  0  0
   19.4067  -13.4576   23.6273 C   0  0  0  0  0  0
   21.4840  -13.7437   22.4529 C   0  0  0  0  0  0
   18.8529  -13.2224   19.9644 O   0  0  0  0  0  0
   14.8405  -11.4578   19.2848 O   0  0  0  0  0  0
   10.4169  -11.8532   23.9211 N   0  0  0  0  0  0
   22.8534  -13.9661   24.9483 N   0  0  0  0  0  0
   19.4382  -13.3527   21.2119 C   0  0  0  0  0  0
   13.9049  -11.3439   20.2991 C   0  0  0  0  0  0
   18.7382  -13.2799   22.4205 C   0  0  0  0  0  0
   20.8107  -13.5943   21.2413 C   0  0  0  0  0  0
   12.8794  -12.2634   20.5415 C   0  0  0  0  0  0
   14.0109  -10.2259   21.1205 C   0  0  0  0  0  0
   16.8204  -15.2235   20.3432 C   0  0  0  0  0  0
   14.4113  -14.9836   18.9829 C   0  0  0  0  0  0
   15.9547  -16.3106   20.2672 C   0  0  0  0  0  0
   14.7498  -16.1923   19.5837 C   0  0  0  0  0  0
   21.4189  -14.0206   26.8789 H   0  0  0  0  0  0
   10.5069   -9.7520   25.0240 H   0  0  0  0  0  0
   17.1719  -12.0878   20.5773 H   0  0  0  0  0  0
   17.4628  -12.2795   18.8800 H   0  0  0  0  0  0
   15.5056  -12.3600   17.5705 H   0  0  0  0  0  0
   13.8382  -12.6722   17.9287 H   0  0  0  0  0  0
   11.2540  -12.8405   21.7637 H   0  0  0  0  0  0
   13.2493   -9.1582   22.7991 H   0  0  0  0  0  0
   18.8134  -13.3648   24.5299 H   0  0  0  0  0  0
   22.5530  -13.9031   22.4113 H   0  0  0  0  0  0
    9.6614  -11.7560   24.6012 H   0  0  0  0  0  0
   10.5841  -12.7791   23.5421 H   0  0  0  0  0  0
   23.3867  -14.1311   25.7896 H   0  0  0  0  0  0
   23.3505  -13.8402   24.0829 H   0  0  0  0  0  0
   17.6700  -13.1071   22.4439 H   0  0  0  0  0  0
   21.3659  -13.6585   20.3165 H   0  0  0  0  0  0
   12.7358  -13.1291   19.9172 H   0  0  0  0  0  0
   14.7935   -9.5030   20.9424 H   0  0  0  0  0  0
   17.7487  -15.3598   20.8724 H   0  0  0  0  0  0
   13.4699  -14.9175   18.4523 H   0  0  0  0  0  0
   16.2197  -17.2470   20.7353 H   0  0  0  0  0  0
   14.0800  -17.0365   19.5148 H   0  0  0  0  0  0
  1  3  1  0  0  0
  1  5  2  0  0  0
  1 18  1  0  0  0
  2  4  1  0  0  0
  2  6  2  0  0  0
  2 17  1  0  0  0
  3 13  1  0  0  0
  3 14  2  0  0  0
  4 12  2  0  0  0
  4 11  1  0  0  0
  5 29  1  0  0  0
  6 30  1  0  0  0
  7  9  1  0  0  0
  7  8  1  0  0  0
  7 25  2  0  0  0
  8 10  1  0  0  0
  8 26  2  0  0  0
  9 15  1  0  0  0
  9 31  1  0  0  0
  9 32  1  0  0  0
 10 16  1  0  0  0
 10 33  1  0  0  0
 10 34  1  0  0  0
 11 23  2  0  0  0
 11 35  1  0  0  0
 12 24  1  0  0  0
 12 36  1  0  0  0
 13 21  2  0  0  0
 13 37  1  0  0  0
 14 22  1  0  0  0
 14 38  1  0  0  0
 15 19  1  0  0  0
 16 20  1  0  0  0
 17 39  1  0  0  0
 17 40  1  0  0  0
 18 41  1  0  0  0
 18 42  1  0  0  0
 19 22  2  0  0  0
 19 21  1  0  0  0
 20 23  1  0  0  0
 20 24  2  0  0  0
 21 43  1  0  0  0
 22 44  1  0  0  0
 23 45  1  0  0  0
 24 46  1  0  0  0
 25 27  1  0  0  0
 25 47  1  0  0  0
 26 28  1  0  0  0
 26 48  1  0  0  0
 27 28  2  0  0  0
 27 49  1  0  0  0
 28 50  1  0  0  0
M  END
> <s_m_entry_id>
35588

> <s_m_entry_name>
dock_pv.438

> <s_m_Source_Path>
/home/csk/Desktop/cluster/DUD-E-result/thrb

> <s_m_Source_File>
dock_pv.maegz

> <i_m_Source_File_Index>
438

> <chembl_id>
CHEMBL181480

> <chembl_pref_name>
None

> <i_lp_mmshare_version>
53161

> <r_lp_tautomer_probability>
1

> <s_lp_Force_Field>
OPLS_2005

> <r_lp_Energy>
19.987539

> <b_lp_Chiralities_Consistent>
1

> <s_lp_Variant>
CHEMBL204_lig5069-1

> <s_i_glide_gridfile>
glide-grid_1ype

> <i_i_glide_lignum>
6944

> <i_i_glide_rotatable_bonds>
8

> <r_i_docking_score>
-6.81492569415673

> <r_i_glide_ligand_efficiency>
-0.24339020336274

> <r_i_glide_ligand_efficiency_sa>
-0.739076006572954

> <r_i_glide_ligand_efficiency_ln>
-1.57308494512442

> <r_i_glide_gscore>
-6.81492569415673

> <r_i_glide_lipo>
-2.75131669237038

> <r_i_glide_hbond>
-0.518018651894716

> <r_i_glide_metal>
0

> <r_i_glide_rewards>
-1.23350915872435

> <r_i_glide_evdw>
-40.3790473937988

> <r_i_glide_ecoul>
-6.5829930305481

> <r_i_glide_erotb>
0.827490022591296

> <r_i_glide_esite>
-0.133169889486418

> <r_i_glide_emodel>
-64.3225396166513

> <r_i_glide_energy>
-46.9620404243469

> <r_i_glide_einternal>
7.39680242538452

> <i_i_glide_confnum>
29

> <i_i_glide_posenum>
344

> <r_i_glide_eff_state_penalty>
0

> <s_user_duplicate_titles>
CHEMBL204_lig5069

> <i_f3d_flags>
0

> <s_m_subgroup_title>
dock_pv

> <s_m_subgroupid>
dock_pv

> <b_m_subgroup_collapsed>
1

$$$$
CHEMBL204_lig1771
                    3D
 Schrodinger Suite 2021-1.
 61 64  0  0  1  0            999 V2000
   20.8361  -11.8273   18.4254 C   0  0  0  0  0  0
   19.4870  -12.2529   18.2641 O   0  0  0  0  0  0
   18.7673  -12.4923   19.4148 C   0  0  0  0  0  0
   17.4344  -12.0890   19.5284 C   0  0  0  0  0  0
   16.6634  -12.3703   20.6700 C   0  0  0  0  0  0
   17.2323  -13.0530   21.7606 C   0  0  0  0  0  0
   18.5566  -13.4902   21.6566 C   0  0  0  0  0  0
   19.3217  -14.1999   22.5312 N   0  0  0  0  0  0
   20.4684  -14.3290   21.9014 C   0  0  0  0  0  0
   21.6160  -14.9498   22.3210 N   0  0  0  0  0  0
   21.8342  -15.7878   23.4981 C   0  0  2  0  0  0
   21.3640  -17.2472   23.2914 C   0  0  0  0  0  0
   20.0884  -17.3925   22.9278 F   0  0  0  0  0  0
   21.2998  -15.0625   24.7300 C   0  0  0  0  0  0
   21.9836  -13.9298   25.1875 C   0  0  0  0  0  0
   21.4273  -13.1305   26.1794 C   0  0  0  0  0  0
   20.1907  -13.4593   26.7211 C   0  0  0  0  0  0
   19.5297  -14.6180   26.3189 C   0  0  0  0  0  0
   18.0161  -15.0530   27.0203 Cl  0  0  0  0  0  0
   20.0846  -15.4208   25.3283 C   0  0  0  0  0  0
   20.5317  -13.7609   20.6630 O   0  0  0  0  0  0
   19.2959  -13.2116   20.4993 C   0  0  0  0  0  0
   15.2242  -11.9099   20.7211 C   0  0  0  0  0  0
   14.9936  -10.7146   20.5272 O   0  0  0  0  0  0
   14.2366  -12.8202   20.9706 N   0  0  0  0  0  0
   14.4903  -14.2735   21.1603 C   0  0  0  0  0  0
   13.4990  -15.0753   20.2873 C   0  0  2  0  0  0
   13.8505  -15.0765   18.7836 C   0  0  0  0  0  0
   12.1716  -14.6446   20.5598 O   0  0  0  0  0  0
   11.9473  -13.2717   20.2737 C   0  0  0  0  0  0
   12.8357  -12.3548   21.1486 C   0  0  1  0  0  0
   12.4161  -12.2538   22.6349 C   0  0  0  0  0  0
   10.9909  -11.7295   22.8886 C   0  0  0  0  0  0
   10.8160  -11.4194   24.2558 O   0  0  0  0  0  0
   21.1937  -11.4024   17.4875 H   0  0  0  0  0  0
   20.9210  -11.0534   19.1932 H   0  0  0  0  0  0
   21.4999  -12.6553   18.6751 H   0  0  0  0  0  0
   16.9880  -11.5548   18.7014 H   0  0  0  0  0  0
   16.6638  -13.2700   22.6539 H   0  0  0  0  0  0
   22.3302  -15.0936   21.6140 H   0  0  0  0  0  0
   22.9143  -15.8400   23.6430 H   0  0  0  0  0  0
   21.9530  -17.7255   22.5080 H   0  0  0  0  0  0
   21.5060  -17.8355   24.1985 H   0  0  0  0  0  0
   22.9218  -13.6365   24.7389 H   0  0  0  0  0  0
   21.9469  -12.2514   26.5186 H   0  0  0  0  0  0
   19.7608  -12.8334   27.4884 H   0  0  0  0  0  0
   19.5299  -16.2828   24.9920 H   0  0  0  0  0  0
   14.3536  -14.5414   22.2087 H   0  0  0  0  0  0
   15.4805  -14.5873   20.8339 H   0  0  0  0  0  0
   13.5510  -16.1189   20.6013 H   0  0  0  0  0  0
   14.8133  -15.5574   18.6092 H   0  0  0  0  0  0
   13.1021  -15.6239   18.2090 H   0  0  0  0  0  0
   13.9189  -14.0705   18.3704 H   0  0  0  0  0  0
   10.8985  -13.0530   20.4355 H   0  0  0  0  0  0
   12.1146  -13.0691   19.2157 H   0  0  0  0  0  0
   12.7200  -11.3488   20.7405 H   0  0  0  0  0  0
   13.1166  -11.5753   23.1210 H   0  0  0  0  0  0
   12.5293  -13.2232   23.1209 H   0  0  0  0  0  0
   10.2382  -12.4419   22.5520 H   0  0  0  0  0  0
   10.8161  -10.8271   22.3030 H   0  0  0  0  0  0
    9.8697  -11.3621   24.4619 H   0  0  0  0  0  0
  1  2  1  0  0  0
  1 35  1  0  0  0
  1 36  1  0  0  0
  1 37  1  0  0  0
  2  3  1  0  0  0
  3  4  2  0  0  0
  3 22  1  0  0  0
  4  5  1  0  0  0
  4 38  1  0  0  0
  5  6  2  0  0  0
  5 23  1  0  0  0
  6  7  1  0  0  0
  6 39  1  0  0  0
  7  8  1  0  0  0
  7 22  2  0  0  0
  8  9  2  0  0  0
  9 10  1  0  0  0
  9 21  1  0  0  0
 10 11  1  0  0  0
 10 40  1  0  0  0
 11 12  1  0  0  0
 11 14  1  0  0  0
 11 41  1  0  0  0
 12 13  1  0  0  0
 12 42  1  0  0  0
 12 43  1  0  0  0
 14 15  2  0  0  0
 14 20  1  0  0  0
 15 16  1  0  0  0
 15 44  1  0  0  0
 16 17  2  0  0  0
 16 45  1  0  0  0
 17 18  1  0  0  0
 17 46  1  0  0  0
 18 19  1  0  0  0
 18 20  2  0  0  0
 20 47  1  0  0  0
 21 22  1  0  0  0
 23 24  2  0  0  0
 23 25  1  0  0  0
 25 26  1  0  0  0
 25 31  1  0  0  0
 26 27  1  0  0  0
 26 48  1  0  0  0
 26 49  1  0  0  0
 27 28  1  0  0  0
 27 29  1  0  0  0
 27 50  1  0  0  0
 28 51  1  0  0  0
 28 52  1  0  0  0
 28 53  1  0  0  0
 29 30  1  0  0  0
 30 31  1  0  0  0
 30 54  1  0  0  0
 30 55  1  0  0  0
 31 32  1  0  0  0
 31 56  1  0  0  0
 32 33  1  0  0  0
 32 57  1  0  0  0
 32 58  1  0  0  0
 33 34  1  0  0  0
 33 59  1  0  0  0
 33 60  1  0  0  0
 34 61  1  0  0  0
M  END
> <s_m_entry_id>
35589

> <s_m_entry_name>
dock_pv.439

> <s_m_Source_Path>
/home/csk/Desktop/cluster/DUD-E-result/thrb

> <s_m_Source_File>
dock_pv.maegz

> <i_m_Source_File_Index>
439

> <chembl_id>
CHEMBL3941250

> <chembl_pref_name>
None

> <i_lp_mmshare_version>
53161

> <r_lp_tautomer_probability>
1

> <s_lp_Force_Field>
OPLS_2005

> <r_lp_Energy>
43.646053

> <b_lp_Chiralities_Consistent>
1

> <s_lp_Variant>
CHEMBL204_lig1771-1

> <s_i_glide_gridfile>
glide-grid_1ype

> <i_i_glide_lignum>
2597

> <i_i_glide_rotatable_bonds>
10

> <r_i_docking_score>
-6.81455135898561

> <r_i_glide_ligand_efficiency>
-0.200427981146635

> <r_i_glide_ligand_efficiency_sa>
-0.649308852265629

> <r_i_glide_ligand_efficiency_ln>
-1.50552553689114

> <r_i_glide_gscore>
-6.81455135898561

> <r_i_glide_lipo>
-3.38248874844415

> <r_i_glide_hbond>
-0.456

> <r_i_glide_metal>
0

> <r_i_glide_rewards>
-0.551986754702957

> <r_i_glide_evdw>
-42.7802772521973

> <r_i_glide_ecoul>
-5.8267183303833

> <r_i_glide_erotb>
0.588945756328861

> <r_i_glide_esite>
0

> <r_i_glide_emodel>
-63.7263492103733

> <r_i_glide_energy>
-48.6069955825806

> <r_i_glide_einternal>
9.41649532318115

> <i_i_glide_confnum>
24

> <i_i_glide_posenum>
189

> <r_i_glide_eff_state_penalty>
0

> <s_user_duplicate_titles>
CHEMBL204_lig1771,CHEMBL204_lig1772

> <i_f3d_flags>
0

> <s_m_subgroup_title>
dock_pv

> <s_m_subgroupid>
dock_pv

> <b_m_subgroup_collapsed>
1

$$$$
CHEMBL204_lig4964
                    3D
 Schrodinger Suite 2021-1.
 75 78  0  0  1  0            999 V2000
   11.5818   -9.8526   23.7912 N   0  0  0  0  0  0
   12.5010   -9.0528   23.2037 C   0  0  0  0  0  0
   13.2581   -9.4334   22.0987 C   0  0  0  0  0  0
   11.3692  -11.0759   23.2591 C   0  0  0  0  0  0
   12.0620  -11.5645   22.1141 C   0  0  0  0  0  0
   13.0511  -10.7157   21.5378 C   0  0  0  0  0  0
   13.8123  -11.1852   20.4411 C   0  0  0  0  0  0
   13.6106  -12.4739   19.9400 C   0  0  0  0  0  0
   12.6016  -13.2730   20.4559 C   0  0  0  0  0  0
   11.8320  -12.8292   21.5212 C   0  0  0  0  0  0
   10.4196  -11.8531   23.9204 N   0  0  0  0  0  0
   14.4269  -12.9986   18.9336 N   0  0  0  0  0  0
   15.8685  -12.8371   18.9113 C   0  0  1  0  0  0
   16.5926  -14.0542   19.5248 C   0  0  0  0  0  0
   17.8478  -13.7829   19.9255 N   0  0  0  0  0  0
   16.0701  -15.1715   19.5533 O   0  0  0  0  0  0
   16.3912  -12.5261   17.5355 C   0  0  0  0  0  0
   16.2944  -13.4012   16.4415 C   0  0  0  0  0  0
   16.7435  -12.9992   15.1767 C   0  0  0  0  0  0
   17.2159  -11.6960   14.9970 C   0  0  0  0  0  0
   17.4540  -10.8971   16.1121 C   0  0  0  0  0  0
   17.0252  -11.3021   17.3642 C   0  0  0  0  0  0
   16.8202  -13.9004   14.1428 O   0  0  0  0  0  0
   15.6156  -14.1857   13.4489 C   0  0  0  0  0  0
   15.2150  -13.0456   12.5016 C   0  0  0  0  0  0
   17.4051  -11.1933   13.7275 O   0  0  0  0  0  0
   16.7849   -9.9354   13.3705 C   0  0  0  0  0  0
   17.9141   -8.8931   13.1226 C   0  0  0  0  0  0
   15.6296   -9.4543   14.3210 C   0  0  0  0  0  0
   18.8514  -14.7481   20.3446 C   0  0  0  0  0  0
   19.5191  -14.3365   21.6466 C   0  0  0  0  0  0
   18.8471  -14.4840   22.8669 C   0  0  0  0  0  0
   19.4677  -14.1147   24.0653 C   0  0  0  0  0  0
   20.7608  -13.5901   24.0389 C   0  0  0  0  0  0
   21.4430  -13.4645   22.8297 C   0  0  0  0  0  0
   20.8255  -13.8420   21.6375 C   0  0  0  0  0  0
   18.8218  -14.2543   25.2971 N   0  0  0  0  0  0
   18.2566  -15.8331   25.8513 S   0  0  0  0  0  0
   19.6416  -16.8677   25.6401 N   0  0  0  0  0  0
   18.0160  -15.7071   27.2894 O   0  0  0  0  0  0
   17.2183  -16.3015   24.9288 O   0  0  0  0  0  0
   12.6492   -8.0893   23.6678 H   0  0  0  0  0  0
   14.0053   -8.7740   21.6813 H   0  0  0  0  0  0
   14.5716  -10.5411   20.0269 H   0  0  0  0  0  0
   12.4248  -14.2616   20.0576 H   0  0  0  0  0  0
   11.0534  -13.4536   21.9200 H   0  0  0  0  0  0
   10.4144  -12.8555   23.7809 H   0  0  0  0  0  0
    9.7829  -11.4369   24.5989 H   0  0  0  0  0  0
   14.1702  -13.9469   18.6965 H   0  0  0  0  0  0
   16.1269  -12.0256   19.5940 H   0  0  0  0  0  0
   18.1739  -12.8316   19.8328 H   0  0  0  0  0  0
   15.8870  -14.3948   16.5738 H   0  0  0  0  0  0
   17.8882   -9.9172   15.9886 H   0  0  0  0  0  0
   17.1482  -10.6468   18.2099 H   0  0  0  0  0  0
   15.7768  -15.0945   12.8676 H   0  0  0  0  0  0
   14.8235  -14.4127   14.1618 H   0  0  0  0  0  0
   14.4158  -13.3586   11.8307 H   0  0  0  0  0  0
   14.8551  -12.1783   13.0542 H   0  0  0  0  0  0
   16.0557  -12.7420   11.8786 H   0  0  0  0  0  0
   16.3329  -10.1618   12.4045 H   0  0  0  0  0  0
   17.6160   -7.9196   12.7266 H   0  0  0  0  0  0
   18.4162   -8.6531   14.0572 H   0  0  0  0  0  0
   18.6112   -9.2609   12.3708 H   0  0  0  0  0  0
   14.9744   -8.6887   13.9211 H   0  0  0  0  0  0
   14.9689  -10.2829   14.5791 H   0  0  0  0  0  0
   16.0165   -9.0310   15.2421 H   0  0  0  0  0  0
   19.5864  -14.8061   19.5325 H   0  0  0  0  0  0
   18.4362  -15.7536   20.4592 H   0  0  0  0  0  0
   17.8385  -14.8741   22.8764 H   0  0  0  0  0  0
   21.2485  -13.2939   24.9548 H   0  0  0  0  0  0
   22.4481  -13.0705   22.8150 H   0  0  0  0  0  0
   21.3680  -13.7403   20.7079 H   0  0  0  0  0  0
   19.2130  -13.7112   26.0498 H   0  0  0  0  0  0
   19.9255  -17.3545   26.4928 H   0  0  0  0  0  0
   19.5469  -17.4968   24.8398 H   0  0  0  0  0  0
  1  2  2  0  0  0
  1  4  1  0  0  0
  2  3  1  0  0  0
  2 42  1  0  0  0
  3  6  2  0  0  0
  3 43  1  0  0  0
  4  5  2  0  0  0
  4 11  1  0  0  0
  5  6  1  0  0  0
  5 10  1  0  0  0
  6  7  1  0  0  0
  7  8  2  0  0  0
  7 44  1  0  0  0
  8  9  1  0  0  0
  8 12  1  0  0  0
  9 10  2  0  0  0
  9 45  1  0  0  0
 10 46  1  0  0  0
 11 47  1  0  0  0
 11 48  1  0  0  0
 12 13  1  0  0  0
 12 49  1  0  0  0
 13 14  1  0  0  0
 13 17  1  0  0  0
 13 50  1  0  0  0
 14 15  1  0  0  0
 14 16  2  0  0  0
 15 30  1  0  0  0
 15 51  1  0  0  0
 17 18  2  0  0  0
 17 22  1  0  0  0
 18 19  1  0  0  0
 18 52  1  0  0  0
 19 20  2  0  0  0
 19 23  1  0  0  0
 20 21  1  0  0  0
 20 26  1  0  0  0
 21 22  2  0  0  0
 21 53  1  0  0  0
 22 54  1  0  0  0
 23 24  1  0  0  0
 24 25  1  0  0  0
 24 55  1  0  0  0
 24 56  1  0  0  0
 25 57  1  0  0  0
 25 58  1  0  0  0
 25 59  1  0  0  0
 26 27  1  0  0  0
 27 28  1  0  0  0
 27 29  1  0  0  0
 27 60  1  0  0  0
 28 61  1  0  0  0
 28 62  1  0  0  0
 28 63  1  0  0  0
 29 64  1  0  0  0
 29 65  1  0  0  0
 29 66  1  0  0  0
 30 31  1  0  0  0
 30 67  1  0  0  0
 30 68  1  0  0  0
 31 32  2  0  0  0
 31 36  1  0  0  0
 32 33  1  0  0  0
 32 69  1  0  0  0
 33 34  2  0  0  0
 33 37  1  0  0  0
 34 35  1  0  0  0
 34 70  1  0  0  0
 35 36  2  0  0  0
 35 71  1  0  0  0
 36 72  1  0  0  0
 37 38  1  0  0  0
 37 73  1  0  0  0
 38 39  1  0  0  0
 38 40  2  0  0  0
 38 41  2  0  0  0
 39 74  1  0  0  0
 39 75  1  0  0  0
M  END
> <s_m_entry_id>
35592

> <s_m_entry_name>
dock_pv.442

> <s_m_Source_Path>
/home/csk/Desktop/cluster/DUD-E-result/thrb

> <s_m_Source_File>
dock_pv.maegz

> <i_m_Source_File_Index>
442

> <chembl_id>
CHEMBL3114853

> <chembl_pref_name>
None

> <i_lp_mmshare_version>
53161

> <r_lp_tautomer_probability>
1

> <s_lp_Force_Field>
OPLS_2005

> <r_lp_Energy>
25.414377

> <b_lp_Chiralities_Consistent>
1

> <s_lp_Variant>
CHEMBL204_lig4964-2

> <s_i_glide_gridfile>
glide-grid_1ype

> <i_i_glide_lignum>
6768

> <i_i_glide_rotatable_bonds>
13

> <r_i_docking_score>
-6.80768046250442

> <r_i_glide_ligand_efficiency>
-0.166040986890352

> <r_i_glide_ligand_efficiency_sa>
-0.572545392896744

> <r_i_glide_ligand_efficiency_ln>
-1.44427206504223

> <r_i_glide_gscore>
-6.80768046250442

> <r_i_glide_lipo>
-2.84481911444796

> <r_i_glide_hbond>
-0.525502830059696

> <r_i_glide_metal>
0

> <r_i_glide_rewards>
-0.209562918222248

> <r_i_glide_evdw>
-43.8977699279785

> <r_i_glide_ecoul>
-9.78890800476074

> <r_i_glide_erotb>
0.525649498294944

> <r_i_glide_esite>
-0.0902204009564161

> <r_i_glide_emodel>
-55.0394184880218

> <r_i_glide_energy>
-53.6866779327393

> <r_i_glide_einternal>
35.702579498291

> <i_i_glide_confnum>
32

> <i_i_glide_posenum>
191

> <r_i_glide_eff_state_penalty>
0

> <s_user_duplicate_titles>
CHEMBL204_lig4964

> <i_f3d_flags>
0

> <s_m_subgroup_title>
dock_pv

> <s_m_subgroupid>
dock_pv

> <b_m_subgroup_collapsed>
1

$$$$
CHEMBL204_lig1121
                    3D
 Schrodinger Suite 2021-1.
 61 63  0  0  1  0            999 V2000
   19.8382  -16.8913   22.1002 S   0  0  0  0  0  0
   19.1924  -16.1575   23.6058 C   0  0  0  0  0  0
   18.7656  -16.2490   20.9835 O   0  0  0  0  0  0
   19.6152  -18.3399   22.1535 O   0  0  0  0  0  0
   21.1824  -16.3556   21.8591 O   0  0  0  0  0  0
   18.6469  -14.8916   20.8024 C   0  0  0  0  0  0
   18.0456  -16.6697   24.2300 C   0  0  0  0  0  0
   19.8686  -15.0733   24.1794 C   0  0  0  0  0  0
   17.3640  -14.3424   20.7892 C   0  0  0  0  0  0
   17.1606  -12.9820   20.5107 C   0  0  0  0  0  0
   19.5596  -12.7092   20.2670 C   0  0  0  0  0  0
   17.6154  -16.1161   25.4355 C   0  0  0  0  0  0
   19.7407  -14.0696   20.5184 C   0  0  0  0  0  0
   18.2714  -12.1677   20.2878 C   0  0  0  0  0  0
   19.4274  -14.5176   25.3830 C   0  0  0  0  0  0
   18.3038  -15.0533   26.0146 C   0  0  0  0  0  0
   15.9150  -12.3944   20.4057 O   0  0  0  0  0  0
   12.1986   -9.9188   23.0358 C   0  0  0  0  0  0
   13.0550  -11.5016   20.9049 C   0  0  0  0  0  0
   17.3589  -17.7431   23.7242 O   0  0  0  0  0  0
   12.4008   -7.8532   24.4535 N   0  0  0  0  0  0
   13.1999   -9.4557   22.1735 C   0  0  0  0  0  0
   12.0416  -11.9584   21.7478 C   0  0  0  0  0  0
   11.6162  -11.1673   22.8091 C   0  0  0  0  0  0
   13.6278  -10.2464   21.1127 C   0  0  0  0  0  0
   14.7760  -13.2367   20.2133 C   0  0  0  0  0  0
   11.7661   -9.1537   24.2834 C   0  0  0  0  0  0
   20.7586  -11.8548   19.8980 C   0  0  0  0  0  0
   13.5638  -12.3921   19.7846 C   0  0  0  0  0  0
   20.1782  -13.3525   26.0046 C   0  0  0  0  0  0
   16.2120  -17.4021   22.9568 C   0  0  0  0  0  0
   21.0863  -11.9612   18.4022 C   0  0  0  0  0  0
   20.7487  -14.6665   23.7004 H   0  0  0  0  0  0
   16.5266  -14.9966   20.9695 H   0  0  0  0  0  0
   16.7430  -16.5252   25.9209 H   0  0  0  0  0  0
   20.7324  -14.4881   20.4475 H   0  0  0  0  0  0
   18.1213  -11.1188   20.0753 H   0  0  0  0  0  0
   17.9621  -14.6527   26.9570 H   0  0  0  0  0  0
   11.8799   -7.3142   25.1304 H   0  0  0  0  0  0
   13.3133   -7.9972   24.8673 H   0  0  0  0  0  0
   13.6812   -8.5052   22.3416 H   0  0  0  0  0  0
   11.5946  -12.9322   21.6035 H   0  0  0  0  0  0
   10.8435  -11.5378   23.4693 H   0  0  0  0  0  0
   14.4272   -9.8976   20.4749 H   0  0  0  0  0  0
   14.5485  -13.7977   21.1222 H   0  0  0  0  0  0
   14.9837  -13.9594   19.4211 H   0  0  0  0  0  0
   10.6804   -9.0519   24.3173 H   0  0  0  0  0  0
   12.0319   -9.7868   25.1211 H   0  0  0  0  0  0
   20.5802  -10.8167   20.1818 H   0  0  0  0  0  0
   21.6157  -12.1785   20.4922 H   0  0  0  0  0  0
   12.7535  -13.0459   19.4576 H   0  0  0  0  0  0
   13.8136  -11.7809   18.9158 H   0  0  0  0  0  0
   21.2262  -13.6165   26.1560 H   0  0  0  0  0  0
   20.1553  -12.4876   25.3415 H   0  0  0  0  0  0
   19.7631  -13.0596   26.9701 H   0  0  0  0  0  0
   15.6068  -18.2950   22.8009 H   0  0  0  0  0  0
   15.5815  -16.6542   23.4444 H   0  0  0  0  0  0
   16.5020  -17.0288   21.9750 H   0  0  0  0  0  0
   22.0160  -11.4527   18.1673 H   0  0  0  0  0  0
   21.2083  -13.0011   18.0936 H   0  0  0  0  0  0
   20.3018  -11.5175   17.7891 H   0  0  0  0  0  0
  1  2  1  0  0  0
  1  3  1  0  0  0
  1  4  2  0  0  0
  1  5  2  0  0  0
  2  7  1  0  0  0
  2  8  2  0  0  0
  3  6  1  0  0  0
  6  9  2  0  0  0
  6 13  1  0  0  0
  7 12  2  0  0  0
  7 20  1  0  0  0
  8 15  1  0  0  0
  8 33  1  0  0  0
  9 10  1  0  0  0
  9 34  1  0  0  0
 10 17  1  0  0  0
 10 14  2  0  0  0
 11 13  2  0  0  0
 11 14  1  0  0  0
 11 28  1  0  0  0
 12 16  1  0  0  0
 12 35  1  0  0  0
 13 36  1  0  0  0
 14 37  1  0  0  0
 15 16  2  0  0  0
 15 30  1  0  0  0
 16 38  1  0  0  0
 17 26  1  0  0  0
 18 22  2  0  0  0
 18 27  1  0  0  0
 18 24  1  0  0  0
 19 29  1  0  0  0
 19 23  1  0  0  0
 19 25  2  0  0  0
 20 31  1  0  0  0
 21 27  1  0  0  0
 21 39  1  0  0  0
 21 40  1  0  0  0
 22 25  1  0  0  0
 22 41  1  0  0  0
 23 24  2  0  0  0
 23 42  1  0  0  0
 24 43  1  0  0  0
 25 44  1  0  0  0
 26 29  1  0  0  0
 26 45  1  0  0  0
 26 46  1  0  0  0
 27 47  1  0  0  0
 27 48  1  0  0  0
 28 32  1  0  0  0
 28 49  1  0  0  0
 28 50  1  0  0  0
 29 51  1  0  0  0
 29 52  1  0  0  0
 30 53  1  0  0  0
 30 54  1  0  0  0
 30 55  1  0  0  0
 31 56  1  0  0  0
 31 57  1  0  0  0
 31 58  1  0  0  0
 32 59  1  0  0  0
 32 60  1  0  0  0
 32 61  1  0  0  0
M  END
> <s_m_entry_id>
35593

> <s_m_entry_name>
dock_pv.443

> <s_m_Source_Path>
/home/csk/Desktop/cluster/DUD-E-result/thrb

> <s_m_Source_File>
dock_pv.maegz

> <i_m_Source_File_Index>
443

> <chembl_id>
CHEMBL115413

> <chembl_pref_name>
None

> <i_lp_mmshare_version>
53161

> <r_lp_tautomer_probability>
1

> <s_lp_Force_Field>
OPLS_2005

> <r_lp_Energy>
22.417931

> <b_lp_Chiralities_Consistent>
1

> <s_lp_Variant>
CHEMBL204_lig1121-1

> <s_i_glide_gridfile>
glide-grid_1ype

> <i_i_glide_lignum>
1784

> <i_i_glide_rotatable_bonds>
10

> <r_i_docking_score>
-6.80676749893915

> <r_i_glide_ligand_efficiency>
-0.212711484341848

> <r_i_glide_ligand_efficiency_sa>
-0.675316867239778

> <r_i_glide_ligand_efficiency_ln>
-1.52422078848679

> <r_i_glide_gscore>
-6.80676749893915

> <r_i_glide_lipo>
-4.04760549140194

> <r_i_glide_hbond>
-0.121053511990159

> <r_i_glide_metal>
0

> <r_i_glide_rewards>
-0.361856269938352

> <r_i_glide_evdw>
-48.6061897277832

> <r_i_glide_ecoul>
-3.41078567504883

> <r_i_glide_erotb>
0.677601919413075

> <r_i_glide_esite>
-0.0119268073752929

> <r_i_glide_emodel>
-65.3183240180031

> <r_i_glide_energy>
-52.016975402832

> <r_i_glide_einternal>
11.2886819839478

> <i_i_glide_confnum>
30

> <i_i_glide_posenum>
383

> <r_i_glide_eff_state_penalty>
0

> <s_user_duplicate_titles>
CHEMBL204_lig1121

> <i_f3d_flags>
0

> <s_m_subgroup_title>
dock_pv

> <s_m_subgroupid>
dock_pv

> <b_m_subgroup_collapsed>
1

$$$$
CHEMBL204_lig4083
                    3D
 Schrodinger Suite 2021-1.
 63 65  0  0  1  0            999 V2000
   15.8893  -12.0147   18.9960 C   0  0  2  0  0  0
   16.2768  -12.5329   17.5747 C   0  0  0  0  0  0
   16.8119  -12.5641   20.0851 C   0  0  0  0  0  0
   11.7269   -9.8532   23.7106 C   0  0  0  0  0  0
   14.4600  -12.1663   19.2634 N   0  0  0  0  0  0
   18.1824  -12.2867   20.0332 C   0  0  0  0  0  0
   15.3999  -13.2623   16.8538 N   0  0  0  0  0  0
   19.0866  -12.8172   20.9651 C   0  0  0  0  0  0
   12.3896  -10.4409   22.5108 C   0  0  0  0  0  0
   12.0160   -8.6928   24.1108 N   0  0  0  0  0  0
   18.5929  -13.5483   22.0553 C   0  0  0  0  0  0
   16.3452  -13.3396   21.1567 C   0  0  0  0  0  0
   17.3919  -12.2367   17.1371 O   0  0  0  0  0  0
   17.2163  -13.8084   22.1366 C   0  0  0  0  0  0
   13.4898   -9.7890   21.9283 C   0  0  0  0  0  0
   11.9677  -11.6501   21.9240 C   0  0  0  0  0  0
   13.7515  -11.5525   20.3057 C   0  0  0  0  0  0
   10.8160  -10.6726   24.3215 N   0  0  0  0  0  0
   15.6859  -13.8412   15.5344 C   0  0  0  0  0  0
   14.1698  -10.3408   20.8522 C   0  0  0  0  0  0
   12.6343  -12.1952   20.8296 C   0  0  0  0  0  0
   20.4589  -12.6531   20.8727 O   0  0  0  0  0  0
   19.5051  -13.9669   23.0082 O   0  0  0  0  0  0
   16.0741  -12.8750   14.4101 C   0  0  0  0  0  0
   21.0301  -11.8071   19.8779 C   0  0  0  0  0  0
   19.0363  -14.4943   24.2465 C   0  0  0  0  0  0
   15.7541  -11.5134   14.4714 C   0  0  0  0  0  0
   16.8035  -13.3641   13.3216 C   0  0  0  0  0  0
   20.2144  -14.5600   25.2220 C   0  0  0  0  0  0
   21.0876  -12.4862   18.5017 C   0  0  0  0  0  0
   17.2030  -12.5037   12.3018 C   0  0  0  0  0  0
   16.1658  -10.6533   13.4615 C   0  0  0  0  0  0
   16.8814  -11.1502   12.3754 C   0  0  0  0  0  0
   16.0780  -10.9429   18.9510 H   0  0  0  0  0  0
   14.0446  -13.0248   18.9371 H   0  0  0  0  0  0
   18.5406  -11.6654   19.2309 H   0  0  0  0  0  0
   14.4905  -13.4613   17.2387 H   0  0  0  0  0  0
   11.4797   -8.4513   24.9297 H   0  0  0  0  0  0
   15.2988  -13.5867   21.2518 H   0  0  0  0  0  0
   16.8044  -14.3878   22.9488 H   0  0  0  0  0  0
   13.8585   -8.8572   22.3352 H   0  0  0  0  0  0
   11.1187  -12.1965   22.3108 H   0  0  0  0  0  0
   10.1751  -10.2923   25.0128 H   0  0  0  0  0  0
   10.5280  -11.5361   23.8886 H   0  0  0  0  0  0
   14.8145  -14.4052   15.2017 H   0  0  0  0  0  0
   16.4745  -14.5861   15.6589 H   0  0  0  0  0  0
   15.0369   -9.8238   20.4739 H   0  0  0  0  0  0
   12.2930  -13.1339   20.4186 H   0  0  0  0  0  0
   20.5187  -10.8445   19.8412 H   0  0  0  0  0  0
   22.0455  -11.5814   20.1998 H   0  0  0  0  0  0
   18.2620  -13.8560   24.6761 H   0  0  0  0  0  0
   18.6101  -15.4874   24.0983 H   0  0  0  0  0  0
   15.1928  -11.1145   15.3030 H   0  0  0  0  0  0
   17.0548  -14.4136   13.2596 H   0  0  0  0  0  0
   19.8929  -14.9145   26.2000 H   0  0  0  0  0  0
   20.9900  -15.2326   24.8575 H   0  0  0  0  0  0
   20.6625  -13.5757   25.3576 H   0  0  0  0  0  0
   21.6155  -11.8636   17.7802 H   0  0  0  0  0  0
   21.6153  -13.4349   18.5763 H   0  0  0  0  0  0
   20.1023  -12.7019   18.0921 H   0  0  0  0  0  0
   17.7528  -12.8877   11.4553 H   0  0  0  0  0  0
   15.9207   -9.6042   13.5211 H   0  0  0  0  0  0
   17.1803  -10.4803   11.5820 H   0  0  0  0  0  0
  1  2  1  0  0  0
  1  3  1  0  0  0
  1  5  1  0  0  0
  1 34  1  0  0  0
  2  7  1  0  0  0
  2 13  2  0  0  0
  3  6  1  0  0  0
  3 12  2  0  0  0
  4  9  1  0  0  0
  4 10  2  0  0  0
  4 18  1  0  0  0
  5 17  1  0  0  0
  5 35  1  0  0  0
  6  8  2  0  0  0
  6 36  1  0  0  0
  7 19  1  0  0  0
  7 37  1  0  0  0
  8 22  1  0  0  0
  8 11  1  0  0  0
  9 16  1  0  0  0
  9 15  2  0  0  0
 10 38  1  0  0  0
 11 14  2  0  0  0
 11 23  1  0  0  0
 12 14  1  0  0  0
 12 39  1  0  0  0
 14 40  1  0  0  0
 15 20  1  0  0  0
 15 41  1  0  0  0
 16 21  2  0  0  0
 16 42  1  0  0  0
 17 20  2  0  0  0
 17 21  1  0  0  0
 18 43  1  0  0  0
 18 44  1  0  0  0
 19 24  1  0  0  0
 19 45  1  0  0  0
 19 46  1  0  0  0
 20 47  1  0  0  0
 21 48  1  0  0  0
 22 25  1  0  0  0
 23 26  1  0  0  0
 24 27  1  0  0  0
 24 28  2  0  0  0
 25 30  1  0  0  0
 25 49  1  0  0  0
 25 50  1  0  0  0
 26 29  1  0  0  0
 26 51  1  0  0  0
 26 52  1  0  0  0
 27 32  2  0  0  0
 27 53  1  0  0  0
 28 31  1  0  0  0
 28 54  1  0  0  0
 29 55  1  0  0  0
 29 56  1  0  0  0
 29 57  1  0  0  0
 30 58  1  0  0  0
 30 59  1  0  0  0
 30 60  1  0  0  0
 31 33  2  0  0  0
 31 61  1  0  0  0
 32 33  1  0  0  0
 32 62  1  0  0  0
 33 63  1  0  0  0
M  END
> <s_m_entry_id>
35594

> <s_m_entry_name>
dock_pv.444

> <s_m_Source_Path>
/home/csk/Desktop/cluster/DUD-E-result/thrb

> <s_m_Source_File>
dock_pv.maegz

> <i_m_Source_File_Index>
444

> <chembl_id>
CHEMBL360313

> <chembl_pref_name>
None

> <i_lp_mmshare_version>
53161

> <r_lp_tautomer_probability>
1

> <s_lp_Force_Field>
OPLS_2005

> <r_lp_Energy>
18.277107

> <b_lp_Chiralities_Consistent>
1

> <s_lp_Variant>
CHEMBL204_lig4083-1

> <s_i_glide_gridfile>
glide-grid_1ype

> <i_i_glide_lignum>
5675

> <i_i_glide_rotatable_bonds>
12

> <r_i_docking_score>
-6.80618416045914

> <r_i_glide_ligand_efficiency>
-0.206248004862398

> <r_i_glide_ligand_efficiency_sa>
-0.661547555318253

> <r_i_glide_ligand_efficiency_ln>
-1.51366011675056

> <r_i_glide_gscore>
-6.80618416045914

> <r_i_glide_lipo>
-3.04980577414088

> <r_i_glide_hbond>
-0.156958089967966

> <r_i_glide_metal>
0

> <r_i_glide_rewards>
-0.730869781910084

> <r_i_glide_evdw>
-50.4577713012695

> <r_i_glide_ecoul>
-7.09489631652832

> <r_i_glide_erotb>
0.803103052803259

> <r_i_glide_esite>
-0.0845305547007441

> <r_i_glide_emodel>
-80.0882721981355

> <r_i_glide_energy>
-57.5526676177979

> <r_i_glide_einternal>
4.52931785583496

> <i_i_glide_confnum>
3

> <i_i_glide_posenum>
128

> <r_i_glide_eff_state_penalty>
0

> <s_user_duplicate_titles>
CHEMBL204_lig4083

> <i_f3d_flags>
0

> <s_m_subgroup_title>
dock_pv

> <s_m_subgroupid>
dock_pv

> <b_m_subgroup_collapsed>
1

$$$$
CHEMBL204_lig4420
                    3D
 Schrodinger Suite 2021-1.
 46 49  0  0  1  0            999 V2000
   12.9302   -9.4523   22.4103 C   0  0  0  0  0  0
   12.1036   -9.2867   23.5202 C   0  0  0  0  0  0
   11.2286  -10.2966   23.9046 C   0  0  0  0  0  0
   11.2159  -11.4940   23.1978 C   0  0  0  0  0  0
   12.0637  -11.6937   22.1059 C   0  0  0  0  0  0
   12.9126  -10.6501   21.7004 C   0  0  0  0  0  0
   12.0221  -12.9775   21.5214 N   0  0  0  0  0  0
   12.8526  -13.5172   20.6024 C   0  0  0  0  0  0
   12.7595  -15.0199   20.4774 C   0  0  0  0  0  0
   13.6927  -12.9056   19.9419 O   0  0  0  0  0  0
   11.6160  -15.5846   19.9110 C   0  0  0  0  0  0
   11.4642  -16.9634   19.8171 C   0  0  0  0  0  0
   12.4711  -17.8071   20.2776 C   0  0  0  0  0  0
   13.6477  -17.2668   20.7962 C   0  0  0  0  0  0
   13.8122  -15.8736   20.8793 C   0  0  0  0  0  0
   10.0253  -17.6082   19.1207 Cl  0  0  0  0  0  0
   15.0151  -15.2688   21.2726 N   0  0  0  0  0  0
   16.1830  -15.7696   21.7191 C   0  0  0  0  0  0
   17.2918  -14.8432   21.5207 C   0  0  0  0  0  0
   16.3344  -16.9027   22.1748 O   0  0  0  0  0  0
   18.6469  -15.1476   21.3446 C   0  0  0  0  0  0
   16.9749  -13.1048   21.4245 S   0  0  0  0  0  0
   18.5817  -12.8186   20.8336 C   0  0  0  0  0  0
   19.3823  -13.9972   20.8975 C   0  0  0  0  0  0
   20.7275  -13.8901   20.4944 C   0  0  0  0  0  0
   21.2107  -12.6828   19.9963 C   0  0  0  0  0  0
   20.3963  -11.5663   19.9209 C   0  0  0  0  0  0
   19.0767  -11.6013   20.3518 C   0  0  0  0  0  0
   12.1670   -7.8178   24.4247 Cl  0  0  0  0  0  0
   19.3319  -16.4997   21.5018 C   0  0  0  0  0  0
   13.5978   -8.6557   22.1145 H   0  0  0  0  0  0
   10.5626  -10.1634   24.7455 H   0  0  0  0  0  0
   10.5275  -12.2607   23.5209 H   0  0  0  0  0  0
   13.5790  -10.7434   20.8592 H   0  0  0  0  0  0
   11.3922  -13.6203   21.9873 H   0  0  0  0  0  0
   10.8248  -14.9565   19.5268 H   0  0  0  0  0  0
   12.3539  -18.8782   20.2029 H   0  0  0  0  0  0
   14.4314  -17.9450   21.0962 H   0  0  0  0  0  0
   15.0457  -14.2869   21.0356 H   0  0  0  0  0  0
   21.3824  -14.7480   20.5299 H   0  0  0  0  0  0
   22.2274  -12.6052   19.6522 H   0  0  0  0  0  0
   20.8149  -10.6529   19.5460 H   0  0  0  0  0  0
   18.4556  -10.7154   20.3250 H   0  0  0  0  0  0
   18.6505  -17.3486   21.4576 H   0  0  0  0  0  0
   20.0722  -16.6789   20.7211 H   0  0  0  0  0  0
   19.8586  -16.5645   22.4556 H   0  0  0  0  0  0
  1  6  1  0  0  0
  1  2  2  0  0  0
  1 31  1  0  0  0
  2  3  1  0  0  0
  2 29  1  0  0  0
  3  4  2  0  0  0
  3 32  1  0  0  0
  4  5  1  0  0  0
  4 33  1  0  0  0
  5  6  2  0  0  0
  5  7  1  0  0  0
  6 34  1  0  0  0
  7  8  1  0  0  0
  7 35  1  0  0  0
  8  9  1  0  0  0
  8 10  2  0  0  0
  9 15  1  0  0  0
  9 11  2  0  0  0
 11 12  1  0  0  0
 11 36  1  0  0  0
 12 16  1  0  0  0
 12 13  2  0  0  0
 13 14  1  0  0  0
 13 37  1  0  0  0
 14 15  2  0  0  0
 14 38  1  0  0  0
 15 17  1  0  0  0
 17 18  1  0  0  0
 17 39  1  0  0  0
 18 19  1  0  0  0
 18 20  2  0  0  0
 19 21  2  0  0  0
 19 22  1  0  0  0
 21 24  1  0  0  0
 21 30  1  0  0  0
 22 23  1  0  0  0
 23 24  2  0  0  0
 23 28  1  0  0  0
 24 25  1  0  0  0
 25 26  2  0  0  0
 25 40  1  0  0  0
 26 27  1  0  0  0
 26 41  1  0  0  0
 27 28  2  0  0  0
 27 42  1  0  0  0
 28 43  1  0  0  0
 30 44  1  0  0  0
 30 45  1  0  0  0
 30 46  1  0  0  0
M  END
> <s_m_entry_id>
35595

> <s_m_entry_name>
dock_pv.445

> <s_m_Source_Path>
/home/csk/Desktop/cluster/DUD-E-result/thrb

> <s_m_Source_File>
dock_pv.maegz

> <i_m_Source_File_Index>
445

> <chembl_id>
CHEMBL244247

> <chembl_pref_name>
None

> <i_lp_mmshare_version>
53161

> <r_lp_tautomer_probability>
1

> <s_lp_Force_Field>
OPLS_2005

> <r_lp_Energy>
38.228329

> <b_lp_Chiralities_Consistent>
1

> <s_lp_Variant>
CHEMBL204_lig4420-1

> <s_i_glide_gridfile>
glide-grid_1ype

> <i_i_glide_lignum>
6082

> <i_i_glide_rotatable_bonds>
6

> <r_i_docking_score>
-6.80273507020653

> <r_i_glide_ligand_efficiency>
-0.226757835673551

> <r_i_glide_ligand_efficiency_sa>
-0.704589317185786

> <r_i_glide_ligand_efficiency_ln>
-1.5456555296862

> <r_i_glide_gscore>
-6.80273507020653

> <r_i_glide_lipo>
-3.40542826099896

> <r_i_glide_hbond>
-0.32

> <r_i_glide_metal>
0

> <r_i_glide_rewards>
-0.599725759409151

> <r_i_glide_evdw>
-45.1834716796875

> <r_i_glide_ecoul>
-5.19498348236084

> <r_i_glide_erotb>
0.581290892437701

> <r_i_glide_esite>
-0.0204508358976184

> <r_i_glide_emodel>
-66.7540361233248

> <r_i_glide_energy>
-50.3784551620483

> <r_i_glide_einternal>
12.8690071105957

> <i_i_glide_confnum>
11

> <i_i_glide_posenum>
183

> <r_i_glide_eff_state_penalty>
0

> <s_user_duplicate_titles>
CHEMBL204_lig4420

> <i_f3d_flags>
0

> <s_m_subgroup_title>
dock_pv

> <s_m_subgroupid>
dock_pv

> <b_m_subgroup_collapsed>
1

$$$$
346935
                    3D
 Schrodinger Suite 2021-1.
 65 67  0  0  1  0            999 V2000
   13.0382  -12.4931   20.6446 C   0  0  0  0  0  0
   12.1283  -12.2873   21.6837 C   0  0  0  0  0  0
   12.1627  -11.0938   22.4241 C   0  0  0  0  0  0
   13.0779  -10.1238   22.1181 N   0  0  0  0  0  0
   13.9637  -10.3365   21.1131 C   0  0  0  0  0  0
   13.9873  -11.5099   20.3505 C   0  0  0  0  0  0
   15.0360  -11.7311   19.2640 C   0  0  0  0  0  0
   16.3837  -11.5543   19.7912 N   0  0  0  0  0  0
   17.5309  -11.9332   19.2122 C   0  0  0  0  0  0
   17.6054  -12.3666   18.0632 O   0  0  0  0  0  0
   18.7794  -11.8539   20.1211 C   0  0  2  0  0  0
   20.1211  -11.8514   19.3799 C   0  0  0  0  0  0
   20.5600  -13.3068   19.4231 C   0  0  0  0  0  0
   19.7954  -13.9238   20.4709 N   0  0  0  0  0  0
   18.8927  -13.1263   20.9166 N   0  3  0  0  0  0
   18.0510  -13.4482   22.0375 C   0  0  0  0  0  0
   17.0560  -12.7762   22.3211 O   0  0  0  0  0  0
   18.4358  -14.6825   22.9117 C   0  0  1  0  0  0
   19.0113  -14.2560   24.2900 C   0  0  0  0  0  0
   20.1832  -13.2280   24.3007 C   0  0  0  0  0  0
   20.5258  -12.7624   25.7370 C   0  0  0  0  0  0
   21.2505  -13.8464   26.5527 C   0  0  0  0  0  0
   22.5097  -14.3698   25.8341 C   0  0  0  0  0  0
   22.2031  -14.8262   24.3948 C   0  0  0  0  0  0
   21.4750  -13.7255   23.5975 C   0  0  0  0  0  0
   17.2179  -15.5038   23.1182 N   0  0  2  0  0  0
   16.6208  -16.1227   21.9269 C   0  0  0  0  0  0
   15.5669  -17.1654   22.3254 C   0  0  0  0  0  0
   15.5760  -18.3120   21.8853 O   0  0  0  0  0  0
   14.5820  -16.6532   23.1197 O   0  0  0  0  0  0
   11.2369  -10.8076   23.5660 C   0  0  0  0  0  0
   11.2158   -9.6913   24.1458 N   0  0  0  0  0  0
   10.4188  -11.8529   23.9211 N   0  0  0  0  0  0
   18.6765  -11.0099   20.8091 H   0  0  0  0  0  0
   19.1901  -15.3073   22.4326 H   0  0  0  0  0  0
   13.0087  -13.4200   20.0895 H   0  0  0  0  0  0
   11.4066  -13.0524   21.9137 H   0  0  0  0  0  0
   14.6761   -9.5422   20.9449 H   0  0  0  0  0  0
   14.8564  -11.0507   18.4349 H   0  0  0  0  0  0
   14.9350  -12.7359   18.8479 H   0  0  0  0  0  0
   16.4283  -11.2071   20.7401 H   0  0  0  0  0  0
   20.8411  -11.2258   19.9136 H   0  0  0  0  0  0
   20.0727  -11.4746   18.3568 H   0  0  0  0  0  0
   21.6198  -13.4129   19.6465 H   0  0  0  0  0  0
   20.3577  -13.8347   18.4908 H   0  0  0  0  0  0
   19.3234  -15.1583   24.8174 H   0  0  0  0  0  0
   18.1966  -13.8561   24.8975 H   0  0  0  0  0  0
   19.8662  -12.3249   23.7791 H   0  0  0  0  0  0
   19.6177  -12.4708   26.2597 H   0  0  0  0  0  0
   21.1402  -11.8630   25.7139 H   0  0  0  0  0  0
   20.5679  -14.6711   26.7524 H   0  0  0  0  0  0
   21.5294  -13.4388   27.5214 H   0  0  0  0  0  0
   22.9519  -15.1900   26.4013 H   0  0  0  0  0  0
   23.2645  -13.5819   25.8126 H   0  0  0  0  0  0
   21.5956  -15.7310   24.4196 H   0  0  0  0  0  0
   23.1295  -15.1016   23.8896 H   0  0  0  0  0  0
   22.1561  -12.8875   23.4511 H   0  0  0  0  0  0
   21.2603  -14.1044   22.6029 H   0  0  0  0  0  0
   16.5694  -15.0519   23.7582 H   0  0  0  0  0  0
   16.1533  -15.3778   21.2805 H   0  0  0  0  0  0
   17.3909  -16.6247   21.3386 H   0  0  0  0  0  0
   14.7560  -15.7493   23.4249 H   0  0  0  0  0  0
   10.4967   -9.6782   24.8594 H   0  0  0  0  0  0
    9.6638  -11.7028   24.5921 H   0  0  0  0  0  0
   10.5103  -12.7822   23.5271 H   0  0  0  0  0  0
  1  6  1  0  0  0
  1  2  2  0  0  0
  1 36  1  0  0  0
  2  3  1  0  0  0
  2 37  1  0  0  0
  3  4  2  0  0  0
  3 31  1  0  0  0
  4  5  1  0  0  0
  5  6  2  0  0  0
  5 38  1  0  0  0
  6  7  1  0  0  0
  7  8  1  0  0  0
  7 39  1  0  0  0
  7 40  1  0  0  0
  8  9  1  0  0  0
  8 41  1  0  0  0
  9 10  2  0  0  0
  9 11  1  0  0  0
 11 34  1  0  0  0
 11 15  1  0  0  0
 11 12  1  0  0  0
 12 13  1  0  0  0
 12 42  1  0  0  0
 12 43  1  0  0  0
 13 14  1  0  0  0
 13 44  1  0  0  0
 13 45  1  0  0  0
 14 15  2  0  0  0
 15 16  1  0  0  0
 16 17  2  0  0  0
 16 18  1  0  0  0
 18 35  1  0  0  0
 18 19  1  0  0  0
 18 26  1  0  0  0
 19 20  1  0  0  0
 19 46  1  0  0  0
 19 47  1  0  0  0
 20 25  1  0  0  0
 20 21  1  0  0  0
 20 48  1  0  0  0
 21 22  1  0  0  0
 21 49  1  0  0  0
 21 50  1  0  0  0
 22 23  1  0  0  0
 22 51  1  0  0  0
 22 52  1  0  0  0
 23 24  1  0  0  0
 23 53  1  0  0  0
 23 54  1  0  0  0
 24 25  1  0  0  0
 24 55  1  0  0  0
 24 56  1  0  0  0
 25 57  1  0  0  0
 25 58  1  0  0  0
 26 27  1  0  0  0
 26 59  1  0  0  0
 27 28  1  0  0  0
 27 60  1  0  0  0
 27 61  1  0  0  0
 28 29  2  0  0  0
 28 30  1  0  0  0
 30 62  1  0  0  0
 31 32  2  3  0  0
 31 33  1  0  0  0
 32 63  1  0  0  0
 33 64  1  0  0  0
 33 65  1  0  0  0
M  CHG  1  15   1
M  END
> <s_m_entry_id>
37656

> <s_m_entry_name>
ligand_docking-pose.3

> <s_m_Source_Path>
/home/csk/Desktop/cluster/DUD-E-result/thrb

> <s_m_Source_File>
ligand_docking-pose.sdf

> <i_m_Source_File_Index>
3

> <i_lp_mmshare_version>
53161

> <i_f3d_flags>
0

> <r_lp_tautomer_probability>
1

> <s_lp_Force_Field>
OPLS_2005

> <r_lp_Energy>
22.490566

> <b_lp_Chiralities_Consistent>
1

> <s_lp_Variant>
346935-1

> <s_i_glide_gridfile>
glide-grid_1ype

> <i_i_glide_lignum>
2019

> <i_i_glide_rotatable_bonds>
13

> <r_i_docking_score>
-9.69929407449229

> <r_i_glide_ligand_efficiency>
-0.293918002257342

> <r_i_glide_ligand_efficiency_sa>
-0.942752081345436

> <r_i_glide_ligand_efficiency_ln>
-2.1570727819101

> <r_i_glide_gscore>
-9.69929407449229

> <r_i_glide_lipo>
-3.36383172485724

> <r_i_glide_hbond>
-0.872198855430474

> <r_i_glide_metal>
0

> <r_i_glide_rewards>
-0.895047776832097

> <r_i_glide_evdw>
-42.8187828063965

> <r_i_glide_ecoul>
-21.6377468109131

> <r_i_glide_erotb>
0.956632122097624

> <r_i_glide_esite>
-0.138246677513316

> <r_i_glide_emodel>
-91.9022971152661

> <r_i_glide_energy>
-64.4565296173096

> <r_i_glide_einternal>
19.5648574829102

> <i_i_glide_confnum>
31

> <i_i_glide_posenum>
115

> <r_i_glide_eff_state_penalty>
0

> <s_user_duplicate_titles>
346935

> <s_m_subgroup_title>
dock_pv

> <s_m_subgroupid>
dock_pv1

> <b_m_subgroup_collapsed>
0

$$$$
347019
                    3D
 Schrodinger Suite 2021-1.
 66 68  0  0  1  0            999 V2000
   12.2962  -13.0836   21.6634 C   0  0  0  0  0  0
   12.8597  -11.6712   21.6943 C   0  0  0  0  0  0
   12.4567  -10.6200   22.5806 C   0  0  0  0  0  0
   13.1780   -9.4529   22.3518 C   0  0  0  0  0  0
   14.3386   -9.6040   21.1210 S   0  0  0  0  0  0
   13.8876  -11.2532   20.8202 C   0  0  0  0  0  0
   14.6447  -12.0204   19.7456 C   0  0  0  0  0  0
   15.9955  -12.3063   20.2246 N   0  0  0  0  0  0
   17.1617  -11.9826   19.6410 C   0  0  0  0  0  0
   17.2160  -11.4541   18.5279 O   0  0  0  0  0  0
   18.4581  -12.2382   20.4708 C   0  0  2  0  0  0
   19.7180  -12.2308   19.6197 C   0  0  0  0  0  0
   20.3158  -13.4273   19.6420 C   0  0  0  0  0  0
   19.5465  -14.3671   20.5294 C   0  0  0  0  0  0
   18.5248  -13.5406   21.1629 N   0  0  0  0  0  0
   17.8148  -13.8652   22.2769 C   0  0  0  0  0  0
   16.9236  -13.1343   22.7210 O   0  0  0  0  0  0
   18.0925  -15.2067   23.0277 C   0  0  1  0  0  0
   18.6243  -14.9643   24.4710 C   0  0  0  0  0  0
   19.9275  -14.1360   24.6280 C   0  0  0  0  0  0
   20.1951  -13.7955   26.1119 C   0  0  0  0  0  0
   21.4122  -12.8596   26.2637 C   0  0  0  0  0  0
   22.6747  -13.4252   25.5634 C   0  0  0  0  0  0
   22.4044  -13.9355   24.1315 C   0  0  0  0  0  0
   21.1785  -14.8674   24.0922 C   0  0  0  0  0  0
   16.8160  -15.9533   23.1222 N   0  0  2  0  0  0
   16.3065  -16.5099   21.8641 C   0  0  0  0  0  0
   15.0641  -17.3671   22.1368 C   0  0  0  0  0  0
   14.9726  -18.5399   21.7850 O   0  0  0  0  0  0
   14.0583  -16.6529   22.7210 O   0  0  0  0  0  0
   11.4385  -10.6530   23.6643 C   0  0  0  0  0  0
   11.2160   -9.6016   24.3210 N   0  0  0  0  0  0
   10.8157  -11.8530   23.8733 N   0  0  0  0  0  0
   18.4856  -11.4295   21.2035 H   0  0  0  0  0  0
   18.8202  -15.8189   22.4990 H   0  0  0  0  0  0
   12.4728  -13.5936   22.6101 H   0  0  0  0  0  0
   11.2162  -13.0744   21.5209 H   0  0  0  0  0  0
   12.7008  -13.7233   20.8827 H   0  0  0  0  0  0
   13.1027   -8.5228   22.8954 H   0  0  0  0  0  0
   14.6625  -11.4400   18.8205 H   0  0  0  0  0  0
   14.1681  -12.9652   19.4900 H   0  0  0  0  0  0
   16.0618  -12.6744   21.1681 H   0  0  0  0  0  0
   20.0630  -11.3680   19.0803 H   0  0  0  0  0  0
   21.2160  -13.7150   19.1218 H   0  0  0  0  0  0
   20.2144  -14.8404   21.2414 H   0  0  0  0  0  0
   19.0936  -15.1763   19.9568 H   0  0  0  0  0  0
   18.7695  -15.9325   24.9540 H   0  0  0  0  0  0
   17.8345  -14.4789   25.0496 H   0  0  0  0  0  0
   19.8149  -13.1952   24.0852 H   0  0  0  0  0  0
   20.3247  -14.7089   26.6947 H   0  0  0  0  0  0
   19.3160  -13.3194   26.5451 H   0  0  0  0  0  0
   21.6161  -12.6972   27.3219 H   0  0  0  0  0  0
   21.1646  -11.8762   25.8639 H   0  0  0  0  0  0
   23.0762  -14.2435   26.1640 H   0  0  0  0  0  0
   23.4563  -12.6655   25.5239 H   0  0  0  0  0  0
   23.2838  -14.4561   23.7508 H   0  0  0  0  0  0
   22.2406  -13.0864   23.4652 H   0  0  0  0  0  0
   21.0230  -15.2095   23.0744 H   0  0  0  0  0  0
   21.3525  -15.7878   24.6525 H   0  0  0  0  0  0
   16.1435  -15.3832   23.6341 H   0  0  0  0  0  0
   16.0509  -15.7281   21.1473 H   0  0  0  0  0  0
   17.0677  -17.1385   21.3993 H   0  0  0  0  0  0
   14.3363  -15.7601   22.9528 H   0  0  0  0  0  0
   10.4759   -9.7444   24.9997 H   0  0  0  0  0  0
    9.9924  -11.8742   24.4700 H   0  0  0  0  0  0
   11.0390  -12.6921   23.3541 H   0  0  0  0  0  0
  1  2  1  0  0  0
  1 36  1  0  0  0
  1 37  1  0  0  0
  1 38  1  0  0  0
  2  6  2  0  0  0
  2  3  1  0  0  0
  3  4  2  0  0  0
  3 31  1  0  0  0
  4  5  1  0  0  0
  4 39  1  0  0  0
  5  6  1  0  0  0
  6  7  1  0  0  0
  7  8  1  0  0  0
  7 40  1  0  0  0
  7 41  1  0  0  0
  8  9  1  0  0  0
  8 42  1  0  0  0
  9 10  2  0  0  0
  9 11  1  0  0  0
 11 34  1  0  0  0
 11 15  1  0  0  0
 11 12  1  0  0  0
 12 13  2  0  0  0
 12 43  1  0  0  0
 13 14  1  0  0  0
 13 44  1  0  0  0
 14 15  1  0  0  0
 14 45  1  0  0  0
 14 46  1  0  0  0
 15 16  1  0  0  0
 16 17  2  0  0  0
 16 18  1  0  0  0
 18 35  1  0  0  0
 18 19  1  0  0  0
 18 26  1  0  0  0
 19 20  1  0  0  0
 19 47  1  0  0  0
 19 48  1  0  0  0
 20 25  1  0  0  0
 20 21  1  0  0  0
 20 49  1  0  0  0
 21 22  1  0  0  0
 21 50  1  0  0  0
 21 51  1  0  0  0
 22 23  1  0  0  0
 22 52  1  0  0  0
 22 53  1  0  0  0
 23 24  1  0  0  0
 23 54  1  0  0  0
 23 55  1  0  0  0
 24 25  1  0  0  0
 24 56  1  0  0  0
 24 57  1  0  0  0
 25 58  1  0  0  0
 25 59  1  0  0  0
 26 27  1  0  0  0
 26 60  1  0  0  0
 27 28  1  0  0  0
 27 61  1  0  0  0
 27 62  1  0  0  0
 28 29  2  0  0  0
 28 30  1  0  0  0
 30 63  1  0  0  0
 31 32  2  3  0  0
 31 33  1  0  0  0
 32 64  1  0  0  0
 33 65  1  0  0  0
 33 66  1  0  0  0
M  END
> <s_m_entry_id>
37659

> <s_m_entry_name>
ligand_docking-pose.6

> <s_m_Source_Path>
/home/csk/Desktop/cluster/DUD-E-result/thrb

> <s_m_Source_File>
ligand_docking-pose.sdf

> <i_m_Source_File_Index>
6

> <i_lp_mmshare_version>
53161

> <i_f3d_flags>
0

> <r_lp_tautomer_probability>
1

> <s_lp_Force_Field>
OPLS_2005

> <r_lp_Energy>
27.212223

> <b_lp_Chiralities_Consistent>
1

> <s_lp_Variant>
347019-1

> <s_i_glide_gridfile>
glide-grid_1ype

> <i_i_glide_lignum>
3002

> <i_i_glide_rotatable_bonds>
13

> <r_i_docking_score>
-9.33359044113328

> <r_i_glide_ligand_efficiency>
-0.282836073973736

> <r_i_glide_ligand_efficiency_sa>
-0.907206415974645

> <r_i_glide_ligand_efficiency_ln>
-2.07574218736313

> <r_i_glide_gscore>
-9.33359044113328

> <r_i_glide_lipo>
-3.85527531631628

> <r_i_glide_hbond>
-0.911125570132337

> <r_i_glide_metal>
0

> <r_i_glide_rewards>
-0.785238233581476

> <r_i_glide_evdw>
-46.352481842041

> <r_i_glide_ecoul>
-15.0868110656738

> <r_i_glide_erotb>
0.894941707056267

> <r_i_glide_esite>
-0.096247276206325

> <r_i_glide_emodel>
-90.2118094221594

> <r_i_glide_energy>
-61.4392929077148

> <r_i_glide_einternal>
13.2009220123291

> <i_i_glide_confnum>
174

> <i_i_glide_posenum>
294

> <r_i_glide_eff_state_penalty>
0

> <s_user_duplicate_titles>
347019

> <s_m_subgroup_title>
dock_pv

> <s_m_subgroupid>
dock_pv1

> <b_m_subgroup_collapsed>
0

$$$$
347477
                    3D
 Schrodinger Suite 2021-1.
 65 67  0  0  1  0            999 V2000
   12.0555  -11.7312   22.1420 C   0  0  0  0  0  0
   12.7598  -12.2800   21.0710 C   0  0  0  0  0  0
   13.7798  -11.5241   20.4945 C   0  0  0  0  0  0
   14.0564  -10.2543   20.8836 N   0  0  0  0  0  0
   13.3553   -9.7401   21.9211 C   0  0  0  0  0  0
   12.3632  -10.4420   22.6305 C   0  0  0  0  0  0
   11.7198   -9.8525   23.8357 C   0  0  0  0  0  0
   12.0160   -8.6965   24.2484 N   0  0  0  0  0  0
   10.8160  -10.6746   24.4419 N   0  0  0  0  0  0
   14.7360  -12.1318   19.4825 C   0  0  0  0  0  0
   16.0551  -12.2900   20.0903 N   0  0  0  0  0  0
   17.2420  -11.9274   19.5860 C   0  0  0  0  0  0
   17.3581  -11.4532   18.4536 O   0  0  0  0  0  0
   18.4682  -12.0721   20.5366 C   0  0  2  0  0  0
   19.7954  -11.9568   19.8053 C   0  0  0  0  0  0
   20.4643  -13.1159   19.8579 C   0  0  0  0  0  0
   19.6791  -14.1237   20.6573 C   0  0  0  0  0  0
   18.5675  -13.3717   21.2301 N   0  0  0  0  0  0
   17.8112  -13.7448   22.3007 C   0  0  0  0  0  0
   16.8727  -13.0538   22.7142 O   0  0  0  0  0  0
   18.0905  -15.0983   23.0331 C   0  0  1  0  0  0
   18.6181  -14.8813   24.4805 C   0  0  0  0  0  0
   19.9475  -14.1008   24.6484 C   0  0  0  0  0  0
   20.1853  -13.7318   26.1298 C   0  0  0  0  0  0
   21.4285  -12.8345   26.2938 C   0  0  0  0  0  0
   22.6893  -13.4530   25.6361 C   0  0  0  0  0  0
   22.4387  -14.0079   24.2163 C   0  0  0  0  0  0
   21.1835  -14.9005   24.1784 C   0  0  0  0  0  0
   16.8160  -15.8530   23.1207 N   0  0  2  0  0  0
   16.3376  -16.4167   21.8533 C   0  0  0  0  0  0
   15.1211  -17.3167   22.1036 C   0  0  0  0  0  0
   15.0580  -18.4769   21.7067 O   0  0  0  0  0  0
   14.1013  -16.6529   22.7210 O   0  0  0  0  0  0
   18.3592  -11.2686   21.2678 H   0  0  0  0  0  0
   18.8201  -15.6951   22.4882 H   0  0  0  0  0  0
   11.2996  -12.3494   22.6057 H   0  0  0  0  0  0
   12.5539  -13.2907   20.7490 H   0  0  0  0  0  0
   13.6615   -8.7440   22.2044 H   0  0  0  0  0  0
   12.7192   -8.2414   23.6916 H   0  0  0  0  0  0
   10.1822  -10.2632   25.1210 H   0  0  0  0  0  0
   10.4692  -11.4932   23.9682 H   0  0  0  0  0  0
   14.7665  -11.5028   18.5898 H   0  0  0  0  0  0
   14.3791  -13.1086   19.1521 H   0  0  0  0  0  0
   16.0657  -12.6910   21.0216 H   0  0  0  0  0  0
   20.1188  -11.0530   19.3160 H   0  0  0  0  0  0
   21.4271  -13.3359   19.4189 H   0  0  0  0  0  0
   20.3113  -14.5764   21.4136 H   0  0  0  0  0  0
   19.3207  -14.9399   20.0288 H   0  0  0  0  0  0
   18.7289  -15.8560   24.9601 H   0  0  0  0  0  0
   17.8392  -14.3744   25.0557 H   0  0  0  0  0  0
   19.8876  -13.1735   24.0748 H   0  0  0  0  0  0
   20.2646  -14.6351   26.7361 H   0  0  0  0  0  0
   19.3130  -13.2122   26.5244 H   0  0  0  0  0  0
   21.6159  -12.6574   27.3527 H   0  0  0  0  0  0
   21.2160  -11.8531   25.8716 H   0  0  0  0  0  0
   23.0581  -14.2594   26.2724 H   0  0  0  0  0  0
   23.4903  -12.7146   25.5903 H   0  0  0  0  0  0
   23.3098  -14.5708   23.8791 H   0  0  0  0  0  0
   22.3209  -13.1800   23.5147 H   0  0  0  0  0  0
   21.0440  -15.2857   23.1731 H   0  0  0  0  0  0
   21.3081  -15.8019   24.7812 H   0  0  0  0  0  0
   16.1318  -15.2625   23.5945 H   0  0  0  0  0  0
   16.0662  -15.6364   21.1411 H   0  0  0  0  0  0
   17.1219  -17.0182   21.3912 H   0  0  0  0  0  0
   14.3593  -15.7632   22.9861 H   0  0  0  0  0  0
  1  6  1  0  0  0
  1  2  2  0  0  0
  1 36  1  0  0  0
  2  3  1  0  0  0
  2 37  1  0  0  0
  3  4  2  0  0  0
  3 10  1  0  0  0
  4  5  1  0  0  0
  5  6  2  0  0  0
  5 38  1  0  0  0
  6  7  1  0  0  0
  7  8  2  3  0  0
  7  9  1  0  0  0
  8 39  1  0  0  0
  9 40  1  0  0  0
  9 41  1  0  0  0
 10 11  1  0  0  0
 10 42  1  0  0  0
 10 43  1  0  0  0
 11 12  1  0  0  0
 11 44  1  0  0  0
 12 13  2  0  0  0
 12 14  1  0  0  0
 14 34  1  0  0  0
 14 18  1  0  0  0
 14 15  1  0  0  0
 15 16  2  0  0  0
 15 45  1  0  0  0
 16 17  1  0  0  0
 16 46  1  0  0  0
 17 18  1  0  0  0
 17 47  1  0  0  0
 17 48  1  0  0  0
 18 19  1  0  0  0
 19 20  2  0  0  0
 19 21  1  0  0  0
 21 35  1  0  0  0
 21 22  1  0  0  0
 21 29  1  0  0  0
 22 23  1  0  0  0
 22 49  1  0  0  0
 22 50  1  0  0  0
 23 28  1  0  0  0
 23 24  1  0  0  0
 23 51  1  0  0  0
 24 25  1  0  0  0
 24 52  1  0  0  0
 24 53  1  0  0  0
 25 26  1  0  0  0
 25 54  1  0  0  0
 25 55  1  0  0  0
 26 27  1  0  0  0
 26 56  1  0  0  0
 26 57  1  0  0  0
 27 28  1  0  0  0
 27 58  1  0  0  0
 27 59  1  0  0  0
 28 60  1  0  0  0
 28 61  1  0  0  0
 29 30  1  0  0  0
 29 62  1  0  0  0
 30 31  1  0  0  0
 30 63  1  0  0  0
 30 64  1  0  0  0
 31 32  2  0  0  0
 31 33  1  0  0  0
 33 65  1  0  0  0
M  END
> <s_m_entry_id>
37660

> <s_m_entry_name>
ligand_docking-pose.7

> <s_m_Source_Path>
/home/csk/Desktop/cluster/DUD-E-result/thrb

> <s_m_Source_File>
ligand_docking-pose.sdf

> <i_m_Source_File_Index>
7

> <i_lp_mmshare_version>
53161

> <i_f3d_flags>
0

> <r_lp_tautomer_probability>
1

> <s_lp_Force_Field>
OPLS_2005

> <r_lp_Energy>
31.956622

> <b_lp_Chiralities_Consistent>
1

> <s_lp_Variant>
347477-2

> <s_i_glide_gridfile>
glide-grid_1ype

> <i_i_glide_lignum>
2032

> <i_i_glide_rotatable_bonds>
13

> <r_i_docking_score>
-9.32611190525129

> <r_i_glide_ligand_efficiency>
-0.282609451674281

> <r_i_glide_ligand_efficiency_sa>
-0.90647951717005

> <r_i_glide_ligand_efficiency_ln>
-2.07407899970476

> <r_i_glide_gscore>
-9.32611190525129

> <r_i_glide_lipo>
-3.70501660203568

> <r_i_glide_hbond>
-0.674223375176855

> <r_i_glide_metal>
0

> <r_i_glide_rewards>
-1.17589570448385

> <r_i_glide_evdw>
-48.6695671081543

> <r_i_glide_ecoul>
-14.6825294494629

> <r_i_glide_erotb>
0.96426047203715

> <r_i_glide_esite>
-0.0993789227649026

> <r_i_glide_emodel>
-90.777342586513

> <r_i_glide_energy>
-63.3520965576172

> <r_i_glide_einternal>
16.1107997894287

> <i_i_glide_confnum>
201

> <i_i_glide_posenum>
275

> <r_i_glide_eff_state_penalty>
0

> <s_user_duplicate_titles>
347477

> <s_m_subgroup_title>
dock_pv

> <s_m_subgroupid>
dock_pv1

> <b_m_subgroup_collapsed>
0

$$$$
434935
                    3D
 Schrodinger Suite 2021-1.
 78 81  0  0  1  0            999 V2000
   16.6785  -16.9933   22.3062 C   0  0  0  0  0  0
   16.8156  -16.2531   23.5550 N   0  0  1  0  0  0
   18.0760  -15.4862   23.6754 C   0  0  2  0  0  0
   18.4308  -15.3151   25.1699 C   0  0  0  0  0  0
   19.8324  -14.8146   25.4560 C   0  0  0  0  0  0
   20.0557  -13.4533   25.7364 C   0  0  0  0  0  0
   21.3496  -12.9918   25.9221 C   0  0  0  0  0  0
   22.4317  -13.8532   25.7878 C   0  0  0  0  0  0
   22.2274  -15.1915   25.4783 C   0  0  0  0  0  0
   20.9379  -15.6785   25.3078 C   0  0  0  0  0  0
   17.8864  -14.1309   22.9204 C   0  0  0  0  0  0
   16.8697  -13.4594   23.1208 O   0  0  0  0  0  0
   18.8118  -13.7669   22.0016 N   0  0  0  0  0  0
   20.0940  -14.4178   21.7523 C   0  0  0  0  0  0
   20.8861  -13.4099   20.9383 C   0  0  0  0  0  0
   19.8271  -12.6694   20.1442 C   0  0  0  0  0  0
   18.5437  -12.7144   20.9977 C   0  0  1  0  0  0
   17.3320  -13.0488   20.1073 C   0  0  0  0  0  0
   17.0381  -14.2283   19.9079 O   0  0  0  0  0  0
   16.6938  -12.0058   19.5441 N   0  0  0  0  0  0
   15.6130  -12.0787   18.5378 C   0  0  1  0  0  0
   16.1318  -12.8027   17.2590 C   0  0  0  0  0  0
   15.2339  -12.6374   16.0251 C   0  0  0  0  0  0
   15.5724  -13.6626   14.9256 C   0  0  0  0  0  0
   15.6159  -13.0379   13.6166 N   0  0  0  0  0  0
   16.5818  -12.1535   13.1655 C   0  0  0  0  0  0
   17.6159  -11.8530   13.8249 N   0  0  0  0  0  0
   16.2811  -11.6367   11.9199 N   0  0  0  0  0  0
   14.3611  -12.7214   19.1585 C   0  0  0  0  0  0
   13.9347  -13.7875   18.7114 O   0  0  0  0  0  0
   13.6888  -12.0047   20.2655 C   0  0  0  0  0  0
   13.9846  -10.7938   20.6780 N   0  0  0  0  0  0
   13.1182  -10.5518   21.7056 C   0  0  0  0  0  0
   13.0127   -9.4083   22.5074 C   0  0  0  0  0  0
   12.0530   -9.4044   23.5213 C   0  0  0  0  0  0
   11.2160  -10.4964   23.7308 C   0  0  0  0  0  0
   11.2849  -11.6422   22.9344 C   0  0  0  0  0  0
   12.2554  -11.6540   21.9238 C   0  0  0  0  0  0
   12.6305  -12.5834   20.9678 N   0  0  0  0  0  0
   12.0246  -13.9026   20.7986 C   0  0  0  0  0  0
   18.8733  -16.0665   23.2112 H   0  0  0  0  0  0
   18.3934  -11.7667   21.5204 H   0  0  0  0  0  0
   15.3676  -11.0531   18.2631 H   0  0  0  0  0  0
   15.7283  -17.5283   22.2943 H   0  0  0  0  0  0
   16.7005  -16.3289   21.4421 H   0  0  0  0  0  0
   17.4769  -17.7269   22.1985 H   0  0  0  0  0  0
   16.0493  -15.5786   23.6189 H   0  0  0  0  0  0
   17.7027  -14.6672   25.6619 H   0  0  0  0  0  0
   18.3339  -16.2820   25.6666 H   0  0  0  0  0  0
   19.2255  -12.7684   25.8176 H   0  0  0  0  0  0
   21.5134  -11.9507   26.1629 H   0  0  0  0  0  0
   23.4381  -13.4808   25.9214 H   0  0  0  0  0  0
   23.0751  -15.8533   25.3713 H   0  0  0  0  0  0
   20.7862  -16.7175   25.0578 H   0  0  0  0  0  0
   19.9175  -15.3251   21.1738 H   0  0  0  0  0  0
   20.6291  -14.6823   22.6635 H   0  0  0  0  0  0
   21.6161  -13.8884   20.2943 H   0  0  0  0  0  0
   21.4024  -12.7203   21.6056 H   0  0  0  0  0  0
   19.6833  -13.1889   19.1934 H   0  0  0  0  0  0
   20.1345  -11.6496   19.9089 H   0  0  0  0  0  0
   17.0273  -11.0787   19.7609 H   0  0  0  0  0  0
   17.1304  -12.4442   17.0040 H   0  0  0  0  0  0
   16.2502  -13.8693   17.4653 H   0  0  0  0  0  0
   14.1911  -12.7460   16.3210 H   0  0  0  0  0  0
   15.3358  -11.6164   15.6532 H   0  0  0  0  0  0
   16.5425  -14.1283   15.1001 H   0  0  0  0  0  0
   14.8277  -14.4641   14.9265 H   0  0  0  0  0  0
   14.8610  -13.2821   12.9873 H   0  0  0  0  0  0
   17.6063  -12.3647   14.6962 H   0  0  0  0  0  0
   16.6194  -10.6969   11.7701 H   0  0  0  0  0  0
   15.2964  -11.6561   11.6934 H   0  0  0  0  0  0
   13.6688   -8.5649   22.3607 H   0  0  0  0  0  0
   11.9583   -8.5414   24.1641 H   0  0  0  0  0  0
   10.4702  -10.4508   24.5154 H   0  0  0  0  0  0
   10.6097  -12.4682   23.1056 H   0  0  0  0  0  0
   11.6131  -13.9894   19.7921 H   0  0  0  0  0  0
   12.7790  -14.6741   20.9562 H   0  0  0  0  0  0
   11.2192  -14.0482   21.5136 H   0  0  0  0  0  0
  1  2  1  0  0  0
  1 44  1  0  0  0
  1 45  1  0  0  0
  1 46  1  0  0  0
  2  3  1  0  0  0
  2 47  1  0  0  0
  3 41  1  0  0  0
  3  4  1  0  0  0
  3 11  1  0  0  0
  4  5  1  0  0  0
  4 48  1  0  0  0
  4 49  1  0  0  0
  5 10  1  0  0  0
  5  6  2  0  0  0
  6  7  1  0  0  0
  6 50  1  0  0  0
  7  8  2  0  0  0
  7 51  1  0  0  0
  8  9  1  0  0  0
  8 52  1  0  0  0
  9 10  2  0  0  0
  9 53  1  0  0  0
 10 54  1  0  0  0
 11 12  2  0  0  0
 11 13  1  0  0  0
 13 17  1  0  0  0
 13 14  1  0  0  0
 14 15  1  0  0  0
 14 55  1  0  0  0
 14 56  1  0  0  0
 15 16  1  0  0  0
 15 57  1  0  0  0
 15 58  1  0  0  0
 16 17  1  0  0  0
 16 59  1  0  0  0
 16 60  1  0  0  0
 17 42  1  0  0  0
 17 18  1  0  0  0
 18 19  2  0  0  0
 18 20  1  0  0  0
 20 21  1  0  0  0
 20 61  1  0  0  0
 21 43  1  0  0  0
 21 22  1  0  0  0
 21 29  1  0  0  0
 22 23  1  0  0  0
 22 62  1  0  0  0
 22 63  1  0  0  0
 23 24  1  0  0  0
 23 64  1  0  0  0
 23 65  1  0  0  0
 24 25  1  0  0  0
 24 66  1  0  0  0
 24 67  1  0  0  0
 25 26  1  0  0  0
 25 68  1  0  0  0
 26 27  2  3  0  0
 26 28  1  0  0  0
 27 69  1  0  0  0
 28 70  1  0  0  0
 28 71  1  0  0  0
 29 30  2  0  0  0
 29 31  1  0  0  0
 31 39  1  0  0  0
 31 32  2  0  0  0
 32 33  1  0  0  0
 33 38  2  0  0  0
 33 34  1  0  0  0
 34 35  2  0  0  0
 34 72  1  0  0  0
 35 36  1  0  0  0
 35 73  1  0  0  0
 36 37  2  0  0  0
 36 74  1  0  0  0
 37 38  1  0  0  0
 37 75  1  0  0  0
 38 39  1  0  0  0
 39 40  1  0  0  0
 40 76  1  0  0  0
 40 77  1  0  0  0
 40 78  1  0  0  0
M  END
> <s_m_entry_id>
37662

> <s_m_entry_name>
ligand_docking-pose.9

> <s_m_Source_Path>
/home/csk/Desktop/cluster/DUD-E-result/thrb

> <s_m_Source_File>
ligand_docking-pose.sdf

> <i_m_Source_File_Index>
9

> <i_lp_mmshare_version>
53161

> <i_f3d_flags>
0

> <r_lp_tautomer_probability>
0.99990000499975

> <s_lp_Force_Field>
OPLS_2005

> <r_lp_Energy>
28.786904

> <b_lp_Chiralities_Consistent>
1

> <s_lp_Variant>
434935-2

> <s_i_glide_gridfile>
glide-grid_1ype

> <i_i_glide_lignum>
4480

> <i_i_glide_rotatable_bonds>
15

> <r_i_docking_score>
-9.22043469111737

> <r_i_glide_ligand_efficiency>
-0.230510867277934

> <r_i_glide_ligand_efficiency_sa>
-0.788336076016346

> <r_i_glide_ligand_efficiency_ln>
-1.96644737433536

> <r_i_glide_gscore>
-9.22043469111737

> <r_i_glide_lipo>
-3.60546804835254

> <r_i_glide_hbond>
-0.696727846092325

> <r_i_glide_metal>
0

> <r_i_glide_rewards>
-1.21425234470823

> <r_i_glide_evdw>
-52.0840148925781

> <r_i_glide_ecoul>
-12.7880773544312

> <r_i_glide_erotb>
0.90097043798205

> <r_i_glide_esite>
-0.0825445421527432

> <r_i_glide_emodel>
-94.0140739018103

> <r_i_glide_energy>
-64.8720922470093

> <r_i_glide_einternal>
18.5391044616699

> <i_i_glide_confnum>
39

> <i_i_glide_posenum>
186

> <r_i_glide_eff_state_penalty>
0

> <s_user_duplicate_titles>
434935

> <s_m_subgroup_title>
dock_pv

> <s_m_subgroupid>
dock_pv1

> <b_m_subgroup_collapsed>
0

$$$$
167290
                    3D
 Schrodinger Suite 2021-1.
 55 58  0  0  1  0            999 V2000
   13.3931  -15.6934   18.8485 C   0  0  0  0  0  0
   12.5362  -15.7445   19.9399 C   0  0  0  0  0  0
   12.2967  -14.5957   20.6888 C   0  0  0  0  0  0
   12.8917  -13.3629   20.3716 C   0  0  0  0  0  0
   13.7576  -13.3251   19.2510 C   0  0  0  0  0  0
   13.9996  -14.4891   18.5088 C   0  0  0  0  0  0
   14.4434  -12.0534   18.7756 C   0  0  0  0  0  0
   15.5575  -11.7099   19.6515 N   0  0  0  0  0  0
   16.8196  -11.4534   19.2849 C   0  0  0  0  0  0
   17.2166  -11.4563   18.1197 O   0  0  0  0  0  0
   17.7828  -11.1185   20.4334 C   0  0  0  0  0  0
   18.3766  -12.3651   20.9627 N   0  0  0  0  0  0
   19.6260  -12.8458   20.5779 C   0  0  0  0  0  0
   20.1480  -13.9710   21.1274 C   0  0  0  0  0  0
   19.4828  -14.6885   22.0849 N   0  0  0  0  0  0
   18.3183  -14.2697   22.4597 C   0  0  0  0  0  0
   17.6361  -13.0441   21.9251 C   0  0  0  0  0  0
   16.5228  -12.6618   22.3202 O   0  0  0  0  0  0
   17.6160  -14.9759   23.4338 N   0  0  0  0  0  0
   18.1056  -16.1438   24.1773 C   0  0  0  0  0  0
   18.6790  -15.8383   25.5853 C   0  0  0  0  0  0
   19.9676  -15.0053   25.5707 C   0  0  0  0  0  0
   20.0526  -13.7678   26.2178 C   0  0  0  0  0  0
   21.2464  -13.0530   26.1667 C   0  0  0  0  0  0
   22.3366  -13.5890   25.4797 C   0  0  0  0  0  0
   22.1859  -14.8296   24.8582 C   0  0  0  0  0  0
   21.0268  -15.5358   24.8959 N   0  0  0  0  0  0
   17.7456  -15.2274   26.3218 F   0  0  0  0  0  0
   18.9536  -16.9846   26.2132 F   0  0  0  0  0  0
   20.5241  -11.9369   19.3480 Cl  0  0  0  0  0  0
   12.5577  -12.1855   21.2668 C   0  0  0  0  0  0
   12.9671  -10.8429   21.3450 C   0  0  0  0  0  0
   12.3997  -10.1558   22.3210 N   0  0  0  0  0  0
   11.6161  -11.0210   22.9076 C   0  0  0  0  0  0
   11.6695  -12.2531   22.3204 N   0  0  0  0  0  0
   11.1558  -13.0765   22.6175 H   0  0  0  0  0  0
   13.5863  -16.5809   18.2645 H   0  0  0  0  0  0
   12.0550  -16.6750   20.2034 H   0  0  0  0  0  0
   11.6162  -14.6818   21.5209 H   0  0  0  0  0  0
   14.6618  -14.4684   17.6535 H   0  0  0  0  0  0
   14.7742  -12.1652   17.7398 H   0  0  0  0  0  0
   13.7210  -11.2405   18.7355 H   0  0  0  0  0  0
   15.3520  -11.7263   20.6421 H   0  0  0  0  0  0
   18.5306  -10.3937   20.1229 H   0  0  0  0  0  0
   17.2215  -10.5928   21.2069 H   0  0  0  0  0  0
   21.1211  -14.3308   20.8226 H   0  0  0  0  0  0
   16.6830  -14.6536   23.6822 H   0  0  0  0  0  0
   17.2580  -16.8164   24.3092 H   0  0  0  0  0  0
   18.8363  -16.7032   23.5912 H   0  0  0  0  0  0
   19.2163  -13.3617   26.7588 H   0  0  0  0  0  0
   21.3234  -12.0938   26.6591 H   0  0  0  0  0  0
   23.2750  -13.0530   25.4298 H   0  0  0  0  0  0
   23.0052  -15.2800   24.3183 H   0  0  0  0  0  0
   13.6717  -10.3352   20.7094 H   0  0  0  0  0  0
   10.9610  -10.8470   23.7494 H   0  0  0  0  0  0
  1  6  1  0  0  0
  1  2  2  0  0  0
  1 37  1  0  0  0
  2  3  1  0  0  0
  2 38  1  0  0  0
  3  4  2  0  0  0
  3 39  1  0  0  0
  4  5  1  0  0  0
  4 31  1  0  0  0
  5  6  2  0  0  0
  5  7  1  0  0  0
  6 40  1  0  0  0
  7  8  1  0  0  0
  7 41  1  0  0  0
  7 42  1  0  0  0
  8  9  1  0  0  0
  8 43  1  0  0  0
  9 10  2  0  0  0
  9 11  1  0  0  0
 11 12  1  0  0  0
 11 44  1  0  0  0
 11 45  1  0  0  0
 12 17  1  0  0  0
 12 13  1  0  0  0
 13 14  2  0  0  0
 13 30  1  0  0  0
 14 15  1  0  0  0
 14 46  1  0  0  0
 15 16  2  0  0  0
 16 17  1  0  0  0
 16 19  1  0  0  0
 17 18  2  0  0  0
 19 20  1  0  0  0
 19 47  1  0  0  0
 20 21  1  0  0  0
 20 48  1  0  0  0
 20 49  1  0  0  0
 21 22  1  0  0  0
 21 28  1  0  0  0
 21 29  1  0  0  0
 22 27  1  0  0  0
 22 23  2  0  0  0
 23 24  1  0  0  0
 23 50  1  0  0  0
 24 25  2  0  0  0
 24 51  1  0  0  0
 25 26  1  0  0  0
 25 52  1  0  0  0
 26 27  2  0  0  0
 26 53  1  0  0  0
 31 32  2  0  0  0
 31 35  1  0  0  0
 32 54  1  0  0  0
 32 33  1  0  0  0
 33 34  2  0  0  0
 34 35  1  0  0  0
 34 55  1  0  0  0
 35 36  1  0  0  0
M  END
> <s_m_entry_id>
37663

> <s_m_entry_name>
ligand_docking-pose.10

> <s_m_Source_Path>
/home/csk/Desktop/cluster/DUD-E-result/thrb

> <s_m_Source_File>
ligand_docking-pose.sdf

> <i_m_Source_File_Index>
10

> <i_lp_mmshare_version>
53161

> <i_f3d_flags>
0

> <r_lp_tautomer_probability>
0.499999999999999

> <s_lp_Force_Field>
OPLS_2005

> <r_lp_Energy>
24.230829

> <b_lp_Chiralities_Consistent>
1

> <s_lp_Variant>
167290-2

> <s_i_glide_gridfile>
glide-grid_1ype

> <i_i_glide_lignum>
1356

> <i_i_glide_rotatable_bonds>
10

> <r_i_docking_score>
-9.17914067943508

> <r_i_glide_ligand_efficiency>
-0.262261162269574

> <r_i_glide_ligand_efficiency_sa>
-0.857873651354225

> <r_i_glide_ligand_efficiency_ln>
-2.01502509918723

> <r_i_glide_gscore>
-9.17914067943508

> <r_i_glide_lipo>
-3.83513963921912

> <r_i_glide_hbond>
-0.777335644570123

> <r_i_glide_metal>
0

> <r_i_glide_rewards>
-0.850465935705111

> <r_i_glide_evdw>
-54.0433044433594

> <r_i_glide_ecoul>
-11.3639316558838

> <r_i_glide_erotb>
0.735269288507411

> <r_i_glide_esite>
-0.0447137778975999

> <r_i_glide_emodel>
-98.5546470478933

> <r_i_glide_energy>
-65.4072360992432

> <r_i_glide_einternal>
5.83261489868164

> <i_i_glide_confnum>
81

> <i_i_glide_posenum>
48

> <r_i_glide_eff_state_penalty>
0

> <s_user_duplicate_titles>
167290

> <s_m_subgroup_title>
dock_pv

> <s_m_subgroupid>
dock_pv1

> <b_m_subgroup_collapsed>
0

$$$$
290834
                    3D
 Schrodinger Suite 2021-1.
 54 57  0  0  1  0            999 V2000
   22.3247  -13.4532   25.3457 C   0  0  0  0  0  0
   21.3541  -13.2919   26.3320 C   0  0  0  0  0  0
   20.0173  -13.5663   26.0579 C   0  0  0  0  0  0
   19.6411  -13.9887   24.7855 C   0  0  0  0  0  0
   20.6063  -14.1327   23.7805 C   0  0  0  0  0  0
   21.9481  -13.8619   24.0685 C   0  0  0  0  0  0
   20.2193  -14.5846   22.3823 C   0  0  0  0  0  0
   19.9556  -13.4161   21.4081 C   0  0  0  0  0  0
   19.8415  -13.9212   19.9660 C   0  0  0  0  0  0
   19.6788  -12.7428   18.9821 C   0  0  0  0  0  0
   18.4489  -12.0087   19.3615 N   0  0  0  0  0  0
   18.4144  -11.4669   20.7409 C   0  0  0  0  0  0
   18.6544  -12.6431   21.7124 C   0  0  0  0  0  0
   17.3608  -12.0543   18.5468 C   0  0  0  0  0  0
   17.3645  -12.6530   17.4728 O   0  0  0  0  0  0
   16.1210  -11.1935   18.8316 C   0  0  0  0  0  0
   14.9831  -11.9025   19.4239 N   0  0  0  0  0  0
   14.4895  -13.1221   19.0032 C   0  0  0  0  0  0
   13.3916  -13.4754   19.7560 C   0  0  0  0  0  0
   13.1619  -12.4078   20.6782 C   0  0  0  0  0  0
   14.1488  -11.4112   20.4215 C   0  0  0  0  0  0
   14.1635  -10.2025   21.1243 C   0  0  0  0  0  0
   13.2075  -10.0338   22.1245 C   0  0  0  0  0  0
   12.2475  -11.0059   22.4540 C   0  0  0  0  0  0
   12.2218  -12.1910   21.6925 C   0  0  0  0  0  0
   11.2925  -10.7700   23.5808 C   0  0  0  0  0  0
   11.2185   -9.6582   24.1662 N   0  0  0  0  0  0
   10.5230  -11.8530   23.9210 N   0  0  0  0  0  0
   18.3389  -14.2533   24.5329 F   0  0  0  0  0  0
   23.3615  -13.2473   25.5659 H   0  0  0  0  0  0
   21.6319  -12.9552   27.3193 H   0  0  0  0  0  0
   19.2700  -13.4533   26.8307 H   0  0  0  0  0  0
   22.7018  -13.9721   23.3023 H   0  0  0  0  0  0
   19.3567  -15.2488   22.4330 H   0  0  0  0  0  0
   21.0294  -15.2075   21.9982 H   0  0  0  0  0  0
   20.7953  -12.7202   21.4497 H   0  0  0  0  0  0
   19.0200  -14.6362   19.9147 H   0  0  0  0  0  0
   20.7324  -14.4925   19.7024 H   0  0  0  0  0  0
   19.7048  -13.0503   17.9352 H   0  0  0  0  0  0
   20.5156  -12.0537   19.0990 H   0  0  0  0  0  0
   19.2246  -10.7433   20.8276 H   0  0  0  0  0  0
   17.5056  -10.9329   21.0062 H   0  0  0  0  0  0
   18.6891  -12.2541   22.7252 H   0  0  0  0  0  0
   17.7952  -13.3172   21.7087 H   0  0  0  0  0  0
   15.7852  -10.7836   17.8782 H   0  0  0  0  0  0
   16.3818  -10.3353   19.4468 H   0  0  0  0  0  0
   14.9766  -13.6512   18.1937 H   0  0  0  0  0  0
   12.8281  -14.3919   19.6524 H   0  0  0  0  0  0
   14.8960   -9.4312   20.9315 H   0  0  0  0  0  0
   13.2397   -9.1081   22.6844 H   0  0  0  0  0  0
   11.4858  -12.9598   21.8794 H   0  0  0  0  0  0
   10.4954   -9.6842   24.8733 H   0  0  0  0  0  0
    9.7494  -11.7354   24.5755 H   0  0  0  0  0  0
   10.6802  -12.7744   23.5320 H   0  0  0  0  0  0
  1  6  1  0  0  0
  1  2  2  0  0  0
  1 30  1  0  0  0
  2  3  1  0  0  0
  2 31  1  0  0  0
  3  4  2  0  0  0
  3 32  1  0  0  0
  4  5  1  0  0  0
  4 29  1  0  0  0
  5  6  2  0  0  0
  5  7  1  0  0  0
  6 33  1  0  0  0
  7  8  1  0  0  0
  7 34  1  0  0  0
  7 35  1  0  0  0
  8 13  1  0  0  0
  8  9  1  0  0  0
  8 36  1  0  0  0
  9 10  1  0  0  0
  9 37  1  0  0  0
  9 38  1  0  0  0
 10 11  1  0  0  0
 10 39  1  0  0  0
 10 40  1  0  0  0
 11 12  1  0  0  0
 11 14  1  0  0  0
 12 13  1  0  0  0
 12 41  1  0  0  0
 12 42  1  0  0  0
 13 43  1  0  0  0
 13 44  1  0  0  0
 14 15  2  0  0  0
 14 16  1  0  0  0
 16 17  1  0  0  0
 16 45  1  0  0  0
 16 46  1  0  0  0
 17 21  1  0  0  0
 17 18  1  0  0  0
 18 19  2  0  0  0
 18 47  1  0  0  0
 19 20  1  0  0  0
 19 48  1  0  0  0
 20 25  2  0  0  0
 20 21  1  0  0  0
 21 22  2  0  0  0
 22 23  1  0  0  0
 22 49  1  0  0  0
 23 24  2  0  0  0
 23 50  1  0  0  0
 24 25  1  0  0  0
 24 26  1  0  0  0
 25 51  1  0  0  0
 26 27  2  3  0  0
 26 28  1  0  0  0
 27 52  1  0  0  0
 28 53  1  0  0  0
 28 54  1  0  0  0
M  END
> <s_m_entry_id>
37664

> <s_m_entry_name>
ligand_docking-pose.11

> <s_m_Source_Path>
/home/csk/Desktop/cluster/DUD-E-result/thrb

> <s_m_Source_File>
ligand_docking-pose.sdf

> <i_m_Source_File_Index>
11

> <i_lp_mmshare_version>
53161

> <i_f3d_flags>
0

> <r_lp_tautomer_probability>
1

> <s_lp_Force_Field>
OPLS_2005

> <r_lp_Energy>
27.613393

> <b_lp_Chiralities_Consistent>
1

> <s_lp_Variant>
290834-1

> <s_i_glide_gridfile>
glide-grid_1ype

> <i_i_glide_lignum>
845

> <i_i_glide_rotatable_bonds>
6

> <r_i_docking_score>
-9.14687646967245

> <r_i_glide_ligand_efficiency>
-0.315409533436981

> <r_i_glide_ligand_efficiency_sa>
-0.96903801547248

> <r_i_glide_ligand_efficiency_ln>
-2.09440276678046

> <r_i_glide_gscore>
-9.14687646967245

> <r_i_glide_lipo>
-4.13279362537824

> <r_i_glide_hbond>
-0.513676238274289

> <r_i_glide_metal>
0

> <r_i_glide_rewards>
-1.57011679080374

> <r_i_glide_evdw>
-42.7641868591309

> <r_i_glide_ecoul>
-8.70622730255127

> <r_i_glide_erotb>
0.633798823392737

> <r_i_glide_esite>
-0.119945200269686

> <r_i_glide_emodel>
-73.5545996954713

> <r_i_glide_energy>
-51.4704141616821

> <r_i_glide_einternal>
10.0719051361084

> <i_i_glide_confnum>
2

> <i_i_glide_posenum>
140

> <r_i_glide_eff_state_penalty>
0

> <s_user_duplicate_titles>
290834

> <s_m_subgroup_title>
dock_pv

> <s_m_subgroupid>
dock_pv1

> <b_m_subgroup_collapsed>
0

$$$$
346857
                    3D
 Schrodinger Suite 2021-1.
 68 70  0  0  1  0            999 V2000
   20.8788  -12.6999   18.7963 C   0  0  0  0  0  0
   19.8030  -12.6395   19.5877 C   0  0  0  0  0  0
   18.7162  -11.5962   19.5155 C   0  0  0  0  0  0
   17.5712  -12.0905   20.3930 C   0  0  2  0  0  0
   18.1265  -13.1618   21.2183 N   0  0  0  0  0  0
   19.4201  -13.5873   20.7077 C   0  0  0  0  0  0
   17.4899  -13.6267   22.3212 C   0  0  0  0  0  0
   16.4465  -13.0978   22.7210 O   0  0  0  0  0  0
   17.9805  -14.9414   23.0085 C   0  0  1  0  0  0
   18.5255  -14.7019   24.4416 C   0  0  0  0  0  0
   19.8539  -13.9206   24.5829 C   0  0  0  0  0  0
   20.1469  -13.6391   26.0745 C   0  0  0  0  0  0
   21.4096  -12.7781   26.2622 C   0  0  0  0  0  0
   22.6386  -13.3807   25.5332 C   0  0  0  0  0  0
   22.3416  -13.8331   24.0846 C   0  0  0  0  0  0
   21.0654  -14.6912   24.0076 C   0  0  0  0  0  0
   16.8160  -15.8529   23.1209 N   0  0  2  0  0  0
   16.3559  -16.4610   21.8686 C   0  0  0  0  0  0
   15.1362  -17.3475   22.1482 C   0  0  0  0  0  0
   15.0792  -18.5285   21.8161 O   0  0  0  0  0  0
   14.1086  -16.6530   22.7209 O   0  0  0  0  0  0
   16.2999  -12.4951   19.6054 C   0  0  0  0  0  0
   15.9968  -13.6766   19.4276 O   0  0  0  0  0  0
   15.5220  -11.4734   19.2224 N   0  0  0  0  0  0
   14.0875  -11.5800   18.9796 C   0  0  0  0  0  0
   13.3453  -11.1624   20.2390 C   0  0  0  0  0  0
   12.5202  -12.0471   20.9388 C   0  0  0  0  0  0
   11.9486  -11.6429   22.1472 C   0  0  0  0  0  0
   12.2012  -10.3441   22.6363 C   0  0  0  0  0  0
   12.9883   -9.4797   21.9339 N   0  0  0  0  0  0
   13.5408   -9.8879   20.7755 C   0  0  0  0  0  0
   11.6757   -9.8066   23.9210 C   0  0  0  0  0  0
   12.0160   -8.6637   24.3454 N   0  0  0  0  0  0
   10.8160  -10.6532   24.5607 N   0  0  0  0  0  0
   17.2157  -11.2845   21.0396 H   0  0  0  0  0  0
   18.7494  -15.4225   22.4061 H   0  0  0  0  0  0
   21.0478  -11.9717   18.0174 H   0  0  0  0  0  0
   21.6157  -13.4783   18.9171 H   0  0  0  0  0  0
   19.0827  -10.6530   19.9210 H   0  0  0  0  0  0
   18.4127  -11.4482   18.4787 H   0  0  0  0  0  0
   20.1866  -13.6016   21.4815 H   0  0  0  0  0  0
   19.3871  -14.6168   20.3473 H   0  0  0  0  0  0
   18.6535  -15.6700   24.9307 H   0  0  0  0  0  0
   17.7512  -14.1977   25.0248 H   0  0  0  0  0  0
   19.7657  -12.9646   24.0621 H   0  0  0  0  0  0
   20.2351  -14.5768   26.6266 H   0  0  0  0  0  0
   19.2941  -13.1362   26.5281 H   0  0  0  0  0  0
   21.6160  -12.6815   27.3275 H   0  0  0  0  0  0
   21.2157  -11.7621   25.9210 H   0  0  0  0  0  0
   22.9990  -14.2384   26.1041 H   0  0  0  0  0  0
   23.4587  -12.6617   25.5210 H   0  0  0  0  0  0
   23.1914  -14.3920   23.6909 H   0  0  0  0  0  0
   22.2284  -12.9628   23.4383 H   0  0  0  0  0  0
   20.8887  -14.9902   22.9767 H   0  0  0  0  0  0
   21.1953  -15.6371   24.5366 H   0  0  0  0  0  0
   16.0820  -15.3263   23.5948 H   0  0  0  0  0  0
   16.0790  -15.7101   21.1275 H   0  0  0  0  0  0
   17.1498  -17.0695   21.4330 H   0  0  0  0  0  0
   14.3508  -15.7416   22.9182 H   0  0  0  0  0  0
   15.8777  -10.5350   19.3272 H   0  0  0  0  0  0
   13.8113  -10.9120   18.1651 H   0  0  0  0  0  0
   13.7876  -12.5875   18.6783 H   0  0  0  0  0  0
   12.3475  -13.0502   20.5753 H   0  0  0  0  0  0
   11.3335  -12.3484   22.6883 H   0  0  0  0  0  0
   14.1998   -9.1684   20.3210 H   0  0  0  0  0  0
   12.6707   -8.2282   23.7129 H   0  0  0  0  0  0
   10.2258  -10.2538   25.2838 H   0  0  0  0  0  0
   10.4040  -11.4206   24.0517 H   0  0  0  0  0  0
  1  2  2  0  0  0
  1 37  1  0  0  0
  1 38  1  0  0  0
  2  6  1  0  0  0
  2  3  1  0  0  0
  3  4  1  0  0  0
  3 39  1  0  0  0
  3 40  1  0  0  0
  4 35  1  0  0  0
  4  5  1  0  0  0
  4 22  1  0  0  0
  5  6  1  0  0  0
  5  7  1  0  0  0
  6 41  1  0  0  0
  6 42  1  0  0  0
  7  8  2  0  0  0
  7  9  1  0  0  0
  9 36  1  0  0  0
  9 10  1  0  0  0
  9 17  1  0  0  0
 10 11  1  0  0  0
 10 43  1  0  0  0
 10 44  1  0  0  0
 11 16  1  0  0  0
 11 12  1  0  0  0
 11 45  1  0  0  0
 12 13  1  0  0  0
 12 46  1  0  0  0
 12 47  1  0  0  0
 13 14  1  0  0  0
 13 48  1  0  0  0
 13 49  1  0  0  0
 14 15  1  0  0  0
 14 50  1  0  0  0
 14 51  1  0  0  0
 15 16  1  0  0  0
 15 52  1  0  0  0
 15 53  1  0  0  0
 16 54  1  0  0  0
 16 55  1  0  0  0
 17 18  1  0  0  0
 17 56  1  0  0  0
 18 19  1  0  0  0
 18 57  1  0  0  0
 18 58  1  0  0  0
 19 20  2  0  0  0
 19 21  1  0  0  0
 21 59  1  0  0  0
 22 23  2  0  0  0
 22 24  1  0  0  0
 24 25  1  0  0  0
 24 60  1  0  0  0
 25 26  1  0  0  0
 25 61  1  0  0  0
 25 62  1  0  0  0
 26 31  1  0  0  0
 26 27  2  0  0  0
 27 28  1  0  0  0
 27 63  1  0  0  0
 28 29  2  0  0  0
 28 64  1  0  0  0
 29 30  1  0  0  0
 29 32  1  0  0  0
 30 31  2  0  0  0
 31 65  1  0  0  0
 32 33  2  3  0  0
 32 34  1  0  0  0
 33 66  1  0  0  0
 34 67  1  0  0  0
 34 68  1  0  0  0
M  END
> <s_m_entry_id>
37665

> <s_m_entry_name>
ligand_docking-pose.12

> <s_m_Source_Path>
/home/csk/Desktop/cluster/DUD-E-result/thrb

> <s_m_Source_File>
ligand_docking-pose.sdf

> <i_m_Source_File_Index>
12

> <i_lp_mmshare_version>
53161

> <i_f3d_flags>
0

> <r_lp_tautomer_probability>
1

> <s_lp_Force_Field>
OPLS_2005

> <r_lp_Energy>
33.546796

> <b_lp_Chiralities_Consistent>
1

> <s_lp_Variant>
346857-2

> <s_i_glide_gridfile>
glide-grid_1ype

> <i_i_glide_lignum>
2845

> <i_i_glide_rotatable_bonds>
13

> <r_i_docking_score>
-9.14660818464083

> <r_i_glide_ligand_efficiency>
-0.269017887783554

> <r_i_glide_ligand_efficiency_sa>
-0.871513522993919

> <r_i_glide_ligand_efficiency_ln>
-2.02074230165669

> <r_i_glide_gscore>
-9.14660818464083

> <r_i_glide_lipo>
-3.64293322410676

> <r_i_glide_hbond>
-0.881289071208577

> <r_i_glide_metal>
0

> <r_i_glide_rewards>
-0.949386003960087

> <r_i_glide_evdw>
-48.2716445922852

> <r_i_glide_ecoul>
-13.7941303253174

> <r_i_glide_erotb>
0.912519336920554

> <r_i_glide_esite>
-0.102817443874091

> <r_i_glide_emodel>
-79.3057819898375

> <r_i_glide_energy>
-62.0657749176025

> <r_i_glide_einternal>
26.1385326385498

> <i_i_glide_confnum>
17

> <i_i_glide_posenum>
122

> <r_i_glide_eff_state_penalty>
0

> <s_user_duplicate_titles>
346857

> <s_m_subgroup_title>
dock_pv

> <s_m_subgroupid>
dock_pv1

> <b_m_subgroup_collapsed>
0

$$$$
346806
                    3D
 Schrodinger Suite 2021-1.
 65 67  0  0  1  0            999 V2000
   13.9107  -10.2508   20.9882 C   0  0  0  0  0  0
   13.0451   -9.9909   22.0511 C   0  0  0  0  0  0
   12.1146  -10.9689   22.4433 C   0  0  0  0  0  0
   12.0170  -12.1482   21.7535 N   0  0  0  0  0  0
   12.8537  -12.3841   20.7156 C   0  0  0  0  0  0
   13.8358  -11.4760   20.3175 C   0  0  0  0  0  0
   14.8355  -11.8382   19.2336 C   0  0  0  0  0  0
   16.1309  -12.0672   19.8522 N   0  0  0  0  0  0
   17.3477  -11.8933   19.3250 C   0  0  0  0  0  0
   17.5133  -11.5411   18.1561 O   0  0  0  0  0  0
   18.5367  -12.1160   20.3044 C   0  0  1  0  0  0
   18.5613  -13.4683   20.9318 N   0  0  0  0  0  0
   19.7146  -14.2720   20.4982 C   0  0  0  0  0  0
   20.8783  -13.3122   20.2614 C   0  0  0  0  0  0
   20.1553  -11.8535   19.5210 S   0  0  0  0  0  0
   17.7265  -13.8072   21.9631 C   0  0  0  0  0  0
   16.8258  -13.0519   22.3425 O   0  0  0  0  0  0
   17.8352  -15.1908   22.6918 C   0  0  1  0  0  0
   18.3256  -15.0153   24.1590 C   0  0  0  0  0  0
   19.7224  -14.3709   24.3822 C   0  0  0  0  0  0
   19.8999  -13.9333   25.8555 C   0  0  0  0  0  0
   21.2356  -13.1930   26.0711 C   0  0  0  0  0  0
   22.4401  -14.0404   25.6045 C   0  0  0  0  0  0
   22.2521  -14.5998   24.1758 C   0  0  0  0  0  0
   20.8929  -15.3163   24.0223 C   0  0  0  0  0  0
   16.4965  -15.8435   22.7209 N   0  0  2  0  0  0
   15.9018  -16.2126   21.4318 C   0  0  0  0  0  0
   14.6183  -17.0357   21.6346 C   0  0  0  0  0  0
   14.1222  -17.3352   22.7208 O   0  0  0  0  0  0
   14.0823  -17.3834   20.4342 O   0  0  0  0  0  0
   11.2165  -10.7804   23.6228 C   0  0  0  0  0  0
   11.2162   -9.7038   24.2769 N   0  0  0  0  0  0
   10.4162  -11.8530   23.9210 N   0  0  0  0  0  0
   18.4387  -11.3214   21.0487 H   0  0  0  0  0  0
   18.5152  -15.8733   22.1904 H   0  0  0  0  0  0
   14.6633   -9.5223   20.7215 H   0  0  0  0  0  0
   13.1256   -9.0565   22.5887 H   0  0  0  0  0  0
   12.7498  -13.3482   20.2383 H   0  0  0  0  0  0
   14.8814  -11.0530   18.4769 H   0  0  0  0  0  0
   14.5253  -12.7480   18.7161 H   0  0  0  0  0  0
   16.1044  -12.4472   20.7941 H   0  0  0  0  0  0
   20.0110  -15.0969   21.1355 H   0  0  0  0  0  0
   19.4258  -14.6564   19.5212 H   0  0  0  0  0  0
   21.3698  -13.0227   21.1908 H   0  0  0  0  0  0
   21.6159  -13.7390   19.5862 H   0  0  0  0  0  0
   18.3187  -15.9924   24.6459 H   0  0  0  0  0  0
   17.5770  -14.4336   24.7023 H   0  0  0  0  0  0
   19.8077  -13.4733   23.7671 H   0  0  0  0  0  0
   19.8184  -14.7943   26.5219 H   0  0  0  0  0  0
   19.0762  -13.2821   26.1438 H   0  0  0  0  0  0
   21.3501  -12.9240   27.1217 H   0  0  0  0  0  0
   21.2150  -12.2530   25.5212 H   0  0  0  0  0  0
   22.5805  -14.8717   26.2973 H   0  0  0  0  0  0
   23.3558  -13.4490   25.6577 H   0  0  0  0  0  0
   23.0645  -15.2871   23.9364 H   0  0  0  0  0  0
   22.3195  -13.7838   23.4541 H   0  0  0  0  0  0
   20.7880  -15.6950   23.0082 H   0  0  0  0  0  0
   20.8535  -16.2128   24.6436 H   0  0  0  0  0  0
   15.8495  -15.3802   23.3648 H   0  0  0  0  0  0
   15.6546  -15.3172   20.8604 H   0  0  0  0  0  0
   16.6122  -16.8074   20.8566 H   0  0  0  0  0  0
   13.2769  -17.8892   20.5588 H   0  0  0  0  0  0
   10.5137   -9.7418   25.0071 H   0  0  0  0  0  0
    9.6643  -11.7631   24.6048 H   0  0  0  0  0  0
   10.5519  -12.7562   23.4792 H   0  0  0  0  0  0
  1  6  1  0  0  0
  1  2  2  0  0  0
  1 36  1  0  0  0
  2  3  1  0  0  0
  2 37  1  0  0  0
  3  4  2  0  0  0
  3 31  1  0  0  0
  4  5  1  0  0  0
  5  6  2  0  0  0
  5 38  1  0  0  0
  6  7  1  0  0  0
  7  8  1  0  0  0
  7 39  1  0  0  0
  7 40  1  0  0  0
  8  9  1  0  0  0
  8 41  1  0  0  0
  9 10  2  0  0  0
  9 11  1  0  0  0
 11 34  1  0  0  0
 11 15  1  0  0  0
 11 12  1  0  0  0
 12 13  1  0  0  0
 12 16  1  0  0  0
 13 14  1  0  0  0
 13 42  1  0  0  0
 13 43  1  0  0  0
 14 15  1  0  0  0
 14 44  1  0  0  0
 14 45  1  0  0  0
 16 17  2  0  0  0
 16 18  1  0  0  0
 18 35  1  0  0  0
 18 19  1  0  0  0
 18 26  1  0  0  0
 19 20  1  0  0  0
 19 46  1  0  0  0
 19 47  1  0  0  0
 20 25  1  0  0  0
 20 21  1  0  0  0
 20 48  1  0  0  0
 21 22  1  0  0  0
 21 49  1  0  0  0
 21 50  1  0  0  0
 22 23  1  0  0  0
 22 51  1  0  0  0
 22 52  1  0  0  0
 23 24  1  0  0  0
 23 53  1  0  0  0
 23 54  1  0  0  0
 24 25  1  0  0  0
 24 55  1  0  0  0
 24 56  1  0  0  0
 25 57  1  0  0  0
 25 58  1  0  0  0
 26 27  1  0  0  0
 26 59  1  0  0  0
 27 28  1  0  0  0
 27 60  1  0  0  0
 27 61  1  0  0  0
 28 29  2  0  0  0
 28 30  1  0  0  0
 30 62  1  0  0  0
 31 32  2  3  0  0
 31 33  1  0  0  0
 32 63  1  0  0  0
 33 64  1  0  0  0
 33 65  1  0  0  0
M  END
> <s_m_entry_id>
37668

> <s_m_entry_name>
ligand_docking-pose.15

> <s_m_Source_Path>
/home/csk/Desktop/cluster/DUD-E-result/thrb

> <s_m_Source_File>
ligand_docking-pose.sdf

> <i_m_Source_File_Index>
15

> <i_lp_mmshare_version>
53161

> <i_f3d_flags>
0

> <r_lp_tautomer_probability>
1

> <s_lp_Force_Field>
OPLS_2005

> <r_lp_Energy>
27.19765

> <b_lp_Chiralities_Consistent>
1

> <s_lp_Variant>
346806-1

> <s_i_glide_gridfile>
glide-grid_1ype

> <i_i_glide_lignum>
2027

> <i_i_glide_rotatable_bonds>
13

> <r_i_docking_score>
-9.08704568712597

> <r_i_glide_ligand_efficiency>
-0.275365020821999

> <r_i_glide_ligand_efficiency_sa>
-0.883242756537156

> <r_i_glide_ligand_efficiency_ln>
-2.02091191061232

> <r_i_glide_gscore>
-9.08704568712597

> <r_i_glide_lipo>
-3.40875186615392

> <r_i_glide_hbond>
-1.21017679362405

> <r_i_glide_metal>
0

> <r_i_glide_rewards>
-0.787350831713338

> <r_i_glide_evdw>
-46.4781074523926

> <r_i_glide_ecoul>
-14.1078367233276

> <r_i_glide_erotb>
0.891555930813567

> <r_i_glide_esite>
-0.13224124532945

> <r_i_glide_emodel>
-90.6143490434564

> <r_i_glide_energy>
-60.5859441757202

> <r_i_glide_einternal>
11.9071559906006

> <i_i_glide_confnum>
204

> <i_i_glide_posenum>
24

> <r_i_glide_eff_state_penalty>
0

> <s_user_duplicate_titles>
346806

> <s_m_subgroup_title>
dock_pv

> <s_m_subgroupid>
dock_pv1

> <b_m_subgroup_collapsed>
0

$$$$
346956
                    3D
 Schrodinger Suite 2021-1.
 63 65  0  0  1  0            999 V2000
   13.4676  -10.4938   21.4147 C   0  0  0  0  0  0
   12.4047  -10.7343   22.3073 C   0  0  0  0  0  0
   11.9836  -12.0155   21.9470 C   0  0  0  0  0  0
   12.7328  -12.5454   20.9495 O   0  0  0  0  0  0
   13.6603  -11.6156   20.6242 C   0  0  0  0  0  0
   14.6485  -11.9907   19.5466 C   0  0  0  0  0  0
   15.9502  -12.2176   20.1662 N   0  0  0  0  0  0
   17.1473  -11.9023   19.6487 C   0  0  0  0  0  0
   17.2672  -11.4535   18.5068 O   0  0  0  0  0  0
   18.3831  -12.0891   20.5793 C   0  0  2  0  0  0
   19.7021  -11.9730   19.8364 C   0  0  0  0  0  0
   20.3037  -13.1670   19.7659 C   0  0  0  0  0  0
   19.5243  -14.1856   20.5550 C   0  0  0  0  0  0
   18.4769  -13.4161   21.2127 N   0  0  0  0  0  0
   17.7471  -13.8069   22.2895 C   0  0  0  0  0  0
   16.8163  -13.1203   22.7209 O   0  0  0  0  0  0
   18.0692  -15.1543   23.0132 C   0  0  1  0  0  0
   18.6124  -14.9215   24.4548 C   0  0  0  0  0  0
   19.9216  -14.1019   24.6102 C   0  0  0  0  0  0
   20.1872  -13.7617   26.0956 C   0  0  0  0  0  0
   21.4113  -12.8362   26.2513 C   0  0  0  0  0  0
   22.6724  -13.4094   25.5557 C   0  0  0  0  0  0
   22.4029  -13.9181   24.1221 C   0  0  0  0  0  0
   21.1706  -14.8429   24.0791 C   0  0  0  0  0  0
   16.8138  -15.9346   23.1212 N   0  0  2  0  0  0
   16.2728  -16.4763   21.8704 C   0  0  0  0  0  0
   15.0488  -17.3552   22.1660 C   0  0  0  0  0  0
   14.9915  -18.5406   21.8511 O   0  0  0  0  0  0
   14.0164  -16.6530   22.7210 O   0  0  0  0  0  0
   11.8776   -9.8530   23.3562 C   0  0  0  0  0  0
   12.4162   -8.7277   23.5224 N   0  0  0  0  0  0
   10.8163  -10.3940   24.0402 N   0  0  0  0  0  0
   18.2960  -11.3138   21.3418 H   0  0  0  0  0  0
   18.8020  -15.7421   22.4624 H   0  0  0  0  0  0
   14.0629   -9.5919   21.3819 H   0  0  0  0  0  0
   11.1949  -12.6485   22.3181 H   0  0  0  0  0  0
   14.6861  -11.2072   18.7868 H   0  0  0  0  0  0
   14.3426  -12.9085   19.0410 H   0  0  0  0  0  0
   15.9409  -12.5703   21.1177 H   0  0  0  0  0  0
   20.0583  -11.0535   19.4090 H   0  0  0  0  0  0
   21.2192  -13.4061   19.2558 H   0  0  0  0  0  0
   20.1801  -14.6933   21.2540 H   0  0  0  0  0  0
   19.1019  -14.9650   19.9211 H   0  0  0  0  0  0
   18.7556  -15.8925   24.9342 H   0  0  0  0  0  0
   17.8281  -14.4338   25.0403 H   0  0  0  0  0  0
   19.8183  -13.1608   24.0654 H   0  0  0  0  0  0
   20.3077  -14.6740   26.6819 H   0  0  0  0  0  0
   19.3119  -13.2755   26.5248 H   0  0  0  0  0  0
   21.6110  -12.6751   27.3098 H   0  0  0  0  0  0
   21.1716  -11.8522   25.8502 H   0  0  0  0  0  0
   23.0667  -14.2310   26.1575 H   0  0  0  0  0  0
   23.4603  -12.6546   25.5212 H   0  0  0  0  0  0
   23.2803  -14.4462   23.7452 H   0  0  0  0  0  0
   22.2471  -13.0684   23.4545 H   0  0  0  0  0  0
   21.0178  -15.1878   23.0623 H   0  0  0  0  0  0
   21.3380  -15.7627   24.6429 H   0  0  0  0  0  0
   16.1401  -15.3892   23.6586 H   0  0  0  0  0  0
   15.9898  -15.6880   21.1709 H   0  0  0  0  0  0
   17.0287  -17.0886   21.3749 H   0  0  0  0  0  0
   14.2630  -15.7422   22.9185 H   0  0  0  0  0  0
   11.9750   -8.2195   24.2745 H   0  0  0  0  0  0
   10.2889   -9.8542   24.7177 H   0  0  0  0  0  0
   10.3595  -11.2280   23.7008 H   0  0  0  0  0  0
  1  5  2  0  0  0
  1  2  1  0  0  0
  1 35  1  0  0  0
  2  3  2  0  0  0
  2 30  1  0  0  0
  3  4  1  0  0  0
  3 36  1  0  0  0
  4  5  1  0  0  0
  5  6  1  0  0  0
  6  7  1  0  0  0
  6 37  1  0  0  0
  6 38  1  0  0  0
  7  8  1  0  0  0
  7 39  1  0  0  0
  8  9  2  0  0  0
  8 10  1  0  0  0
 10 33  1  0  0  0
 10 14  1  0  0  0
 10 11  1  0  0  0
 11 12  2  0  0  0
 11 40  1  0  0  0
 12 13  1  0  0  0
 12 41  1  0  0  0
 13 14  1  0  0  0
 13 42  1  0  0  0
 13 43  1  0  0  0
 14 15  1  0  0  0
 15 16  2  0  0  0
 15 17  1  0  0  0
 17 34  1  0  0  0
 17 18  1  0  0  0
 17 25  1  0  0  0
 18 19  1  0  0  0
 18 44  1  0  0  0
 18 45  1  0  0  0
 19 24  1  0  0  0
 19 20  1  0  0  0
 19 46  1  0  0  0
 20 21  1  0  0  0
 20 47  1  0  0  0
 20 48  1  0  0  0
 21 22  1  0  0  0
 21 49  1  0  0  0
 21 50  1  0  0  0
 22 23  1  0  0  0
 22 51  1  0  0  0
 22 52  1  0  0  0
 23 24  1  0  0  0
 23 53  1  0  0  0
 23 54  1  0  0  0
 24 55  1  0  0  0
 24 56  1  0  0  0
 25 26  1  0  0  0
 25 57  1  0  0  0
 26 27  1  0  0  0
 26 58  1  0  0  0
 26 59  1  0  0  0
 27 28  2  0  0  0
 27 29  1  0  0  0
 29 60  1  0  0  0
 30 31  2  3  0  0
 30 32  1  0  0  0
 31 61  1  0  0  0
 32 62  1  0  0  0
 32 63  1  0  0  0
M  END
> <s_m_entry_id>
37669

> <s_m_entry_name>
ligand_docking-pose.16

> <s_m_Source_Path>
/home/csk/Desktop/cluster/DUD-E-result/thrb

> <s_m_Source_File>
ligand_docking-pose.sdf

> <i_m_Source_File_Index>
16

> <i_lp_mmshare_version>
53161

> <i_f3d_flags>
0

> <r_lp_tautomer_probability>
1

> <s_lp_Force_Field>
OPLS_2005

> <r_lp_Energy>
17.281512

> <b_lp_Chiralities_Consistent>
1

> <s_lp_Variant>
346956-1

> <s_i_glide_gridfile>
glide-grid_1ype

> <i_i_glide_lignum>
2069

> <i_i_glide_rotatable_bonds>
13

> <r_i_docking_score>
-8.99994220814204

> <r_i_glide_ligand_efficiency>
-0.281248194004439

> <r_i_glide_ligand_efficiency_sa>
-0.892907357022078

> <r_i_glide_ligand_efficiency_ln>
-2.01533238956197

> <r_i_glide_gscore>
-8.99994220814204

> <r_i_glide_lipo>
-3.44024589184575

> <r_i_glide_hbond>
-0.649572414409108

> <r_i_glide_metal>
0

> <r_i_glide_rewards>
-1.40371133689107

> <r_i_glide_evdw>
-46.46337890625

> <r_i_glide_ecoul>
-14.2156925201416

> <r_i_glide_erotb>
1.00809694502426

> <r_i_glide_esite>
-0.0589866866866327

> <r_i_glide_emodel>
-88.0161904321632

> <r_i_glide_energy>
-60.6790714263916

> <r_i_glide_einternal>
13.7843341827393

> <i_i_glide_confnum>
182

> <i_i_glide_posenum>
300

> <r_i_glide_eff_state_penalty>
0

> <s_user_duplicate_titles>
346956

> <s_m_subgroup_title>
dock_pv

> <s_m_subgroupid>
dock_pv1

> <b_m_subgroup_collapsed>
0

$$$$
347394
                    3D
 Schrodinger Suite 2021-1.
 63 65  0  0  1  0            999 V2000
   12.0228  -12.4144   21.6875 C   0  0  0  0  0  0
   12.1604  -11.2297   22.4098 C   0  0  0  0  0  0
   13.2614  -10.4804   21.9214 C   0  0  0  0  0  0
   13.9847  -11.1305   20.9146 C   0  0  0  0  0  0
   13.2565  -12.6542   20.5139 S   0  0  0  0  0  0
   15.2086  -10.6553   20.1744 C   0  0  0  0  0  0
   16.4323  -11.2692   20.6603 N   0  0  0  0  0  0
   17.4903  -11.6025   19.9084 C   0  0  0  0  0  0
   17.5097  -11.4533   18.6837 O   0  0  0  0  0  0
   18.7326  -12.1110   20.6836 C   0  0  2  0  0  0
   19.9754  -12.1871   19.8140 C   0  0  0  0  0  0
   20.3963  -13.4533   19.7182 C   0  0  0  0  0  0
   19.5482  -14.3510   20.5765 C   0  0  0  0  0  0
   18.5826  -13.4708   21.2231 N   0  0  0  0  0  0
   17.7337  -13.8393   22.2180 C   0  0  0  0  0  0
   16.9094  -13.0672   22.7200 O   0  0  0  0  0  0
   17.7880  -15.2942   22.7716 C   0  0  1  0  0  0
   18.3156  -15.2887   24.2366 C   0  0  0  0  0  0
   19.7483  -14.7184   24.4519 C   0  0  0  0  0  0
   19.9716  -14.2482   25.9079 C   0  0  0  0  0  0
   21.3532  -13.5809   26.0753 C   0  0  0  0  0  0
   22.4960  -14.5130   25.6127 C   0  0  0  0  0  0
   22.2547  -15.0966   24.2020 C   0  0  0  0  0  0
   20.8540  -15.7339   24.0840 C   0  0  0  0  0  0
   16.4160  -15.8545   22.7211 N   0  0  2  0  0  0
   15.8242  -16.0508   21.3940 C   0  0  0  0  0  0
   14.4143  -16.6310   21.5380 C   0  0  0  0  0  0
   14.0470  -17.6413   20.9455 O   0  0  0  0  0  0
   13.6068  -15.8554   22.3193 O   0  0  0  0  0  0
   13.7430   -8.9147   22.4718 Cl  0  0  0  0  0  0
   11.2515  -10.8474   23.5209 C   0  0  0  0  0  0
   11.2777   -9.6959   24.0168 N   0  0  0  0  0  0
   10.4187  -11.8531   23.9226 N   0  0  0  0  0  0
   18.8680  -11.4062   21.5057 H   0  0  0  0  0  0
   18.4454  -15.9368   22.1882 H   0  0  0  0  0  0
   11.2578  -13.1634   21.7977 H   0  0  0  0  0  0
   15.3401   -9.5825   20.3212 H   0  0  0  0  0  0
   15.0723  -10.8338   19.1072 H   0  0  0  0  0  0
   16.4506  -11.5557   21.6321 H   0  0  0  0  0  0
   20.4125  -11.3293   19.3285 H   0  0  0  0  0  0
   21.2161  -13.8235   19.1302 H   0  0  0  0  0  0
   20.1636  -14.8818   21.3020 H   0  0  0  0  0  0
   19.0465  -15.1175   19.9855 H   0  0  0  0  0  0
   18.2842  -16.3093   24.6222 H   0  0  0  0  0  0
   17.6080  -14.7399   24.8627 H   0  0  0  0  0  0
   19.8872  -13.8358   23.8257 H   0  0  0  0  0  0
   19.8490  -15.0816   26.6017 H   0  0  0  0  0  0
   19.1941  -13.5363   26.1866 H   0  0  0  0  0  0
   21.5042  -13.2904   27.1159 H   0  0  0  0  0  0
   21.3811  -12.6556   25.4979 H   0  0  0  0  0  0
   22.5954  -15.3361   26.3214 H   0  0  0  0  0  0
   23.4466  -13.9781   25.6399 H   0  0  0  0  0  0
   23.0212  -15.8371   23.9695 H   0  0  0  0  0  0
   22.3596  -14.3060   23.4572 H   0  0  0  0  0  0
   20.7055  -16.1050   23.0706 H   0  0  0  0  0  0
   20.7715  -16.6225   24.7122 H   0  0  0  0  0  0
   15.8261  -15.3909   23.4138 H   0  0  0  0  0  0
   15.7530  -15.1152   20.8375 H   0  0  0  0  0  0
   16.4382  -16.7338   20.8052 H   0  0  0  0  0  0
   14.0600  -15.1251   22.7539 H   0  0  0  0  0  0
   10.5631   -9.6030   24.7280 H   0  0  0  0  0  0
    9.6682  -11.6665   24.5869 H   0  0  0  0  0  0
   10.5127  -12.8038   23.5813 H   0  0  0  0  0  0
  1  5  1  0  0  0
  1  2  2  0  0  0
  1 36  1  0  0  0
  2  3  1  0  0  0
  2 31  1  0  0  0
  3  4  2  0  0  0
  3 30  1  0  0  0
  4  5  1  0  0  0
  4  6  1  0  0  0
  6  7  1  0  0  0
  6 37  1  0  0  0
  6 38  1  0  0  0
  7  8  1  0  0  0
  7 39  1  0  0  0
  8  9  2  0  0  0
  8 10  1  0  0  0
 10 34  1  0  0  0
 10 14  1  0  0  0
 10 11  1  0  0  0
 11 12  2  0  0  0
 11 40  1  0  0  0
 12 13  1  0  0  0
 12 41  1  0  0  0
 13 14  1  0  0  0
 13 42  1  0  0  0
 13 43  1  0  0  0
 14 15  1  0  0  0
 15 16  2  0  0  0
 15 17  1  0  0  0
 17 35  1  0  0  0
 17 18  1  0  0  0
 17 25  1  0  0  0
 18 19  1  0  0  0
 18 44  1  0  0  0
 18 45  1  0  0  0
 19 24  1  0  0  0
 19 20  1  0  0  0
 19 46  1  0  0  0
 20 21  1  0  0  0
 20 47  1  0  0  0
 20 48  1  0  0  0
 21 22  1  0  0  0
 21 49  1  0  0  0
 21 50  1  0  0  0
 22 23  1  0  0  0
 22 51  1  0  0  0
 22 52  1  0  0  0
 23 24  1  0  0  0
 23 53  1  0  0  0
 23 54  1  0  0  0
 24 55  1  0  0  0
 24 56  1  0  0  0
 25 26  1  0  0  0
 25 57  1  0  0  0
 26 27  1  0  0  0
 26 58  1  0  0  0
 26 59  1  0  0  0
 27 28  2  0  0  0
 27 29  1  0  0  0
 29 60  1  0  0  0
 31 32  2  3  0  0
 31 33  1  0  0  0
 32 61  1  0  0  0
 33 62  1  0  0  0
 33 63  1  0  0  0
M  END
> <s_m_entry_id>
37671

> <s_m_entry_name>
ligand_docking-pose.18

> <s_m_Source_Path>
/home/csk/Desktop/cluster/DUD-E-result/thrb

> <s_m_Source_File>
ligand_docking-pose.sdf

> <i_m_Source_File_Index>
18

> <i_lp_mmshare_version>
53161

> <i_f3d_flags>
0

> <r_lp_tautomer_probability>
1

> <s_lp_Force_Field>
OPLS_2005

> <r_lp_Energy>
26.176623

> <b_lp_Chiralities_Consistent>
1

> <s_lp_Variant>
347394-1

> <s_i_glide_gridfile>
glide-grid_1ype

> <i_i_glide_lignum>
1940

> <i_i_glide_rotatable_bonds>
13

> <r_i_docking_score>
-8.98374409692778

> <r_i_glide_ligand_efficiency>
-0.272234669603872

> <r_i_glide_ligand_efficiency_sa>
-0.873202047551772

> <r_i_glide_ligand_efficiency_ln>
-1.99793817181925

> <r_i_glide_gscore>
-8.98374409692778

> <r_i_glide_lipo>
-3.26145101084768

> <r_i_glide_hbond>
-1.00772315367227

> <r_i_glide_metal>
0

> <r_i_glide_rewards>
-0.705863960578314

> <r_i_glide_evdw>
-42.3540573120117

> <r_i_glide_ecoul>
-17.2285251617432

> <r_i_glide_erotb>
0.828706239788879

> <r_i_glide_esite>
-0.135430571756327

> <r_i_glide_emodel>
-86.7529422578278

> <r_i_glide_energy>
-59.5825824737549

> <r_i_glide_einternal>
14.5478467941284

> <i_i_glide_confnum>
129

> <i_i_glide_posenum>
338

> <r_i_glide_eff_state_penalty>
0

> <s_user_duplicate_titles>
347394

> <s_m_subgroup_title>
dock_pv

> <s_m_subgroupid>
dock_pv1

> <b_m_subgroup_collapsed>
0

$$$$
202506
                    3D
 Schrodinger Suite 2021-1.
 68 71  0  0  1  0            999 V2000
   12.0157  -15.0023   19.3624 C   0  0  0  0  0  0
   11.6728  -16.2229   19.9409 C   0  0  0  0  0  0
   12.6748  -17.1200   20.2976 C   0  0  0  0  0  0
   14.0144  -16.7928   20.0702 C   0  0  0  0  0  0
   14.3509  -15.5680   19.4873 C   0  0  0  0  0  0
   13.3482  -14.6717   19.1287 C   0  0  0  0  0  0
   15.1087  -17.7609   20.4869 C   0  0  0  0  0  0
   15.6192  -17.5269   22.2861 S   0  0  0  0  0  0
   14.4161  -17.6195   23.1201 O   0  0  0  0  0  0
   16.7765  -18.3915   22.5376 O   0  0  0  0  0  0
   16.1505  -15.8535   22.3214 N   0  0  2  0  0  0
   17.5757  -15.5083   22.5529 C   0  0  2  0  0  0
   17.9891  -15.8048   24.0265 C   0  0  0  0  0  0
   19.3639  -15.2709   24.4266 C   0  0  0  0  0  0
   20.5268  -15.8818   23.9488 C   0  0  0  0  0  0
   21.7782  -15.3344   24.2334 C   0  0  0  0  0  0
   21.8826  -14.1927   25.0293 C   0  0  0  0  0  0
   20.7256  -13.6165   25.5673 C   0  0  0  0  0  0
   19.4732  -14.1478   25.2538 C   0  0  0  0  0  0
   20.8160  -12.2529   26.6211 Cl  0  0  0  0  0  0
   23.4441  -13.5025   25.3165 Cl  0  0  0  0  0  0
   17.6771  -14.0054   22.1844 C   0  0  0  0  0  0
   16.8959  -13.2123   22.7200 O   0  0  0  0  0  0
   18.6120  -13.5939   21.2898 N   0  0  0  0  0  0
   19.7020  -14.4088   20.7568 C   0  0  0  0  0  0
   20.7515  -13.4041   20.3054 C   0  0  0  0  0  0
   19.9161  -12.2360   19.8175 C   0  0  0  0  0  0
   18.6729  -12.2270   20.7322 C   0  0  1  0  0  0
   17.3858  -11.8106   19.9973 C   0  0  0  0  0  0
   17.1729  -12.1769   18.8409 O   0  0  0  0  0  0
   16.5550  -11.0548   20.7210 N   0  0  0  0  0  0
   15.2688  -10.5321   20.2972 C   0  0  0  0  0  0
   14.0839  -10.9359   21.1537 C   0  0  0  0  0  0
   13.8715  -12.2674   21.5263 C   0  0  0  0  0  0
   12.7701  -12.5881   22.3202 C   0  0  0  0  0  0
   11.9085  -11.5633   22.7173 C   0  0  0  0  0  0
   12.0909  -10.2695   22.3603 N   0  0  0  0  0  0
   13.1680   -9.9732   21.5929 C   0  0  0  0  0  0
   10.8161  -11.8529   23.5200 N   0  0  0  0  0  0
   18.1618  -16.1198   21.8685 H   0  0  0  0  0  0
   18.8447  -11.5461   21.5668 H   0  0  0  0  0  0
   11.2369  -14.3040   19.0950 H   0  0  0  0  0  0
   10.6345  -16.4667   20.1139 H   0  0  0  0  0  0
   12.4088  -18.0622   20.7552 H   0  0  0  0  0  0
   15.3853  -15.3040   19.3207 H   0  0  0  0  0  0
   13.6033  -13.7213   18.6819 H   0  0  0  0  0  0
   14.7818  -18.7944   20.3789 H   0  0  0  0  0  0
   16.0044  -17.6318   19.8810 H   0  0  0  0  0  0
   15.5109  -15.2304   22.8322 H   0  0  0  0  0  0
   17.2384  -15.4014   24.7107 H   0  0  0  0  0  0
   17.9835  -16.8789   24.2122 H   0  0  0  0  0  0
   20.4614  -16.7597   23.3221 H   0  0  0  0  0  0
   22.6667  -15.7926   23.8260 H   0  0  0  0  0  0
   18.5841  -13.6733   25.6436 H   0  0  0  0  0  0
   20.1346  -15.0994   21.4738 H   0  0  0  0  0  0
   19.3211  -14.9930   19.9210 H   0  0  0  0  0  0
   21.3506  -13.0936   21.1631 H   0  0  0  0  0  0
   21.4270  -13.7994   19.5476 H   0  0  0  0  0  0
   20.4672  -11.2961   19.8518 H   0  0  0  0  0  0
   19.6513  -12.4186   18.7750 H   0  0  0  0  0  0
   16.8476  -10.7993   21.6537 H   0  0  0  0  0  0
   15.3730   -9.4493   20.3210 H   0  0  0  0  0  0
   15.0371  -10.8187   19.2707 H   0  0  0  0  0  0
   14.5581  -13.0443   21.2211 H   0  0  0  0  0  0
   12.5976  -13.6101   22.6247 H   0  0  0  0  0  0
   13.2836   -8.9316   21.3350 H   0  0  0  0  0  0
   10.5908  -12.8296   23.6865 H   0  0  0  0  0  0
   10.1201  -11.1353   23.6880 H   0  0  0  0  0  0
  1  6  1  0  0  0
  1  2  2  0  0  0
  1 42  1  0  0  0
  2  3  1  0  0  0
  2 43  1  0  0  0
  3  4  2  0  0  0
  3 44  1  0  0  0
  4  5  1  0  0  0
  4  7  1  0  0  0
  5  6  2  0  0  0
  5 45  1  0  0  0
  6 46  1  0  0  0
  7  8  1  0  0  0
  7 47  1  0  0  0
  7 48  1  0  0  0
  8  9  2  0  0  0
  8 10  2  0  0  0
  8 11  1  0  0  0
 11 12  1  0  0  0
 11 49  1  0  0  0
 12 40  1  0  0  0
 12 13  1  0  0  0
 12 22  1  0  0  0
 13 14  1  0  0  0
 13 50  1  0  0  0
 13 51  1  0  0  0
 14 19  1  0  0  0
 14 15  2  0  0  0
 15 16  1  0  0  0
 15 52  1  0  0  0
 16 17  2  0  0  0
 16 53  1  0  0  0
 17 18  1  0  0  0
 17 21  1  0  0  0
 18 19  2  0  0  0
 18 20  1  0  0  0
 19 54  1  0  0  0
 22 23  2  0  0  0
 22 24  1  0  0  0
 24 28  1  0  0  0
 24 25  1  0  0  0
 25 26  1  0  0  0
 25 55  1  0  0  0
 25 56  1  0  0  0
 26 27  1  0  0  0
 26 57  1  0  0  0
 26 58  1  0  0  0
 27 28  1  0  0  0
 27 59  1  0  0  0
 27 60  1  0  0  0
 28 41  1  0  0  0
 28 29  1  0  0  0
 29 30  2  0  0  0
 29 31  1  0  0  0
 31 32  1  0  0  0
 31 61  1  0  0  0
 32 33  1  0  0  0
 32 62  1  0  0  0
 32 63  1  0  0  0
 33 38  1  0  0  0
 33 34  2  0  0  0
 34 35  1  0  0  0
 34 64  1  0  0  0
 35 36  2  0  0  0
 35 65  1  0  0  0
 36 37  1  0  0  0
 36 39  1  0  0  0
 37 38  2  0  0  0
 38 66  1  0  0  0
 39 67  1  0  0  0
 39 68  1  0  0  0
M  END
> <s_m_entry_id>
37672

> <s_m_entry_name>
ligand_docking-pose.19

> <s_m_Source_Path>
/home/csk/Desktop/cluster/DUD-E-result/thrb

> <s_m_Source_File>
ligand_docking-pose.sdf

> <i_m_Source_File_Index>
19

> <i_lp_mmshare_version>
53161

> <i_f3d_flags>
0

> <r_lp_tautomer_probability>
0.999999772200052

> <s_lp_Force_Field>
OPLS_2005

> <r_lp_Energy>
19.894305

> <b_lp_Chiralities_Consistent>
1

> <s_lp_Variant>
202506-1

> <s_i_glide_gridfile>
glide-grid_1ype

> <i_i_glide_lignum>
1670

> <i_i_glide_rotatable_bonds>
12

> <r_i_docking_score>
-8.98221754705685

> <r_i_glide_ligand_efficiency>
-0.230313270437355

> <r_i_glide_ligand_efficiency_sa>
-0.781040997231378

> <r_i_glide_ligand_efficiency_ln>
-1.92604241749679

> <r_i_glide_gscore>
-8.98221754705685

> <r_i_glide_lipo>
-3.63020937911683

> <r_i_glide_hbond>
-0.815039080225213

> <r_i_glide_metal>
0

> <r_i_glide_rewards>
-0.575135455933426

> <r_i_glide_evdw>
-54.3892631530762

> <r_i_glide_ecoul>
-10.5424909591675

> <r_i_glide_erotb>
0.492055257183069

> <r_i_glide_esite>
-0.153052087435519

> <r_i_glide_emodel>
-98.3826934255217

> <r_i_glide_energy>
-64.9317541122437

> <r_i_glide_einternal>
7.29657173156738

> <i_i_glide_confnum>
36

> <i_i_glide_posenum>
147

> <r_i_glide_eff_state_penalty>
0

> <s_user_duplicate_titles>
202506

> <s_m_subgroup_title>
dock_pv

> <s_m_subgroupid>
dock_pv1

> <b_m_subgroup_collapsed>
0

$$$$
641584
                    3D
 Schrodinger Suite 2021-1.
 63 65  0  0  1  0            999 V2000
   13.0642  -13.0710   20.3334 C   0  0  0  0  0  0
   12.2162  -12.8277   21.4147 C   0  0  0  0  0  0
   12.3688  -11.5624   21.9808 C   0  0  0  0  0  0
   13.6047  -10.6865   21.1105 S   0  0  0  0  0  0
   13.9272  -12.0212   20.0364 C   0  0  0  0  0  0
   15.0237  -11.9473   19.0008 C   0  0  0  0  0  0
   16.3096  -11.9184   19.6856 N   0  0  0  0  0  0
   17.5201  -11.8999   19.1171 C   0  0  0  0  0  0
   17.6714  -11.8526   17.8926 O   0  0  0  0  0  0
   18.7295  -11.9097   20.0968 C   0  0  2  0  0  0
   20.0628  -11.8946   19.3703 C   0  0  0  0  0  0
   20.6843  -13.0697   19.5216 C   0  0  0  0  0  0
   19.8911  -13.9664   20.4345 C   0  0  0  0  0  0
   18.7977  -13.1336   20.9169 N   0  0  0  0  0  0
   17.9892  -13.4164   21.9720 C   0  0  0  0  0  0
   17.0810  -12.6529   22.3208 O   0  0  0  0  0  0
   18.1309  -14.7774   22.7276 C   0  0  1  0  0  0
   18.5539  -14.5829   24.2122 C   0  0  0  0  0  0
   19.9391  -13.9419   24.4932 C   0  0  0  0  0  0
   20.1049  -13.6542   26.0040 C   0  0  0  0  0  0
   21.4282  -12.9228   26.3092 C   0  0  0  0  0  0
   22.6505  -13.6700   25.7237 C   0  0  0  0  0  0
   22.4576  -14.1015   24.2536 C   0  0  0  0  0  0
   21.1205  -14.8441   24.0668 C   0  0  0  0  0  0
   16.8158  -15.4689   22.7211 N   0  0  2  0  0  0
   16.2378  -15.8037   21.4144 C   0  0  0  0  0  0
   15.0436  -16.7570   21.5752 C   0  0  0  0  0  0
   14.9662  -17.8258   20.9763 O   0  0  0  0  0  0
   14.0630  -16.2532   22.3802 O   0  0  0  0  0  0
   11.6490  -10.9696   23.1222 C   0  0  0  0  0  0
   11.8347   -9.7585   23.4144 N   0  0  0  0  0  0
   10.8159  -11.8527   23.7579 N   0  0  0  0  0  0
   18.6148  -11.0352   20.7390 H   0  0  0  0  0  0
   18.8619  -15.4292   22.2526 H   0  0  0  0  0  0
   13.0703  -14.0075   19.7939 H   0  0  0  0  0  0
   11.5102  -13.5606   21.7752 H   0  0  0  0  0  0
   14.9170  -11.0536   18.3850 H   0  0  0  0  0  0
   14.9887  -12.8025   18.3204 H   0  0  0  0  0  0
   16.2808  -11.9793   20.6985 H   0  0  0  0  0  0
   20.4083  -11.0551   18.7883 H   0  0  0  0  0  0
   21.6164  -13.3727   19.0841 H   0  0  0  0  0  0
   20.5215  -14.3203   21.2443 H   0  0  0  0  0  0
   19.5213  -14.8554   19.9213 H   0  0  0  0  0  0
   18.5250  -15.5541   24.7105 H   0  0  0  0  0  0
   17.7861  -13.9908   24.7146 H   0  0  0  0  0  0
   20.0090  -12.9937   23.9562 H   0  0  0  0  0  0
   20.0334  -14.5790   26.5800 H   0  0  0  0  0  0
   19.2673  -13.0532   26.3515 H   0  0  0  0  0  0
   21.5472  -12.8118   27.3871 H   0  0  0  0  0  0
   21.3790  -11.9047   25.9210 H   0  0  0  0  0  0
   22.8434  -14.5576   26.3254 H   0  0  0  0  0  0
   23.5453  -13.0535   25.8088 H   0  0  0  0  0  0
   23.2842  -14.7416   23.9428 H   0  0  0  0  0  0
   22.4865  -13.2258   23.6033 H   0  0  0  0  0  0
   21.0215  -15.1645   23.0353 H   0  0  0  0  0  0
   21.1029  -15.7807   24.6276 H   0  0  0  0  0  0
   16.1819  -15.0538   23.4043 H   0  0  0  0  0  0
   15.9074  -14.9099   20.8821 H   0  0  0  0  0  0
   16.9860  -16.2930   20.7883 H   0  0  0  0  0  0
   14.3336  -15.4478   22.8361 H   0  0  0  0  0  0
   12.4989   -9.3245   22.7922 H   0  0  0  0  0  0
   10.1686  -11.5084   24.4596 H   0  0  0  0  0  0
   10.7873  -12.8395   23.5197 H   0  0  0  0  0  0
  1  5  2  0  0  0
  1  2  1  0  0  0
  1 35  1  0  0  0
  2  3  2  0  0  0
  2 36  1  0  0  0
  3  4  1  0  0  0
  3 30  1  0  0  0
  4  5  1  0  0  0
  5  6  1  0  0  0
  6  7  1  0  0  0
  6 37  1  0  0  0
  6 38  1  0  0  0
  7  8  1  0  0  0
  7 39  1  0  0  0
  8  9  2  0  0  0
  8 10  1  0  0  0
 10 33  1  0  0  0
 10 14  1  0  0  0
 10 11  1  0  0  0
 11 12  2  0  0  0
 11 40  1  0  0  0
 12 13  1  0  0  0
 12 41  1  0  0  0
 13 14  1  0  0  0
 13 42  1  0  0  0
 13 43  1  0  0  0
 14 15  1  0  0  0
 15 16  2  0  0  0
 15 17  1  0  0  0
 17 34  1  0  0  0
 17 18  1  0  0  0
 17 25  1  0  0  0
 18 19  1  0  0  0
 18 44  1  0  0  0
 18 45  1  0  0  0
 19 24  1  0  0  0
 19 20  1  0  0  0
 19 46  1  0  0  0
 20 21  1  0  0  0
 20 47  1  0  0  0
 20 48  1  0  0  0
 21 22  1  0  0  0
 21 49  1  0  0  0
 21 50  1  0  0  0
 22 23  1  0  0  0
 22 51  1  0  0  0
 22 52  1  0  0  0
 23 24  1  0  0  0
 23 53  1  0  0  0
 23 54  1  0  0  0
 24 55  1  0  0  0
 24 56  1  0  0  0
 25 26  1  0  0  0
 25 57  1  0  0  0
 26 27  1  0  0  0
 26 58  1  0  0  0
 26 59  1  0  0  0
 27 28  2  0  0  0
 27 29  1  0  0  0
 29 60  1  0  0  0
 30 31  2  3  0  0
 30 32  1  0  0  0
 31 61  1  0  0  0
 32 62  1  0  0  0
 32 63  1  0  0  0
M  END
> <s_m_entry_id>
37673

> <s_m_entry_name>
ligand_docking-pose.20

> <s_m_Source_Path>
/home/csk/Desktop/cluster/DUD-E-result/thrb

> <s_m_Source_File>
ligand_docking-pose.sdf

> <i_m_Source_File_Index>
20

> <i_lp_mmshare_version>
53161

> <i_f3d_flags>
0

> <r_lp_tautomer_probability>
1

> <s_lp_Force_Field>
OPLS_2005

> <r_lp_Energy>
27.125108

> <b_lp_Chiralities_Consistent>
1

> <s_lp_Variant>
641584-2

> <s_i_glide_gridfile>
glide-grid_1ype

> <i_i_glide_lignum>
2076

> <i_i_glide_rotatable_bonds>
13

> <r_i_docking_score>
-8.9670117960499

> <r_i_glide_ligand_efficiency>
-0.280219118626559

> <r_i_glide_ligand_efficiency_sa>
-0.889640246351052

> <r_i_glide_ligand_efficiency_ln>
-2.00795837264541

> <r_i_glide_gscore>
-8.9670117960499

> <r_i_glide_lipo>
-3.51314893782595

> <r_i_glide_hbond>
-0.700095629687553

> <r_i_glide_metal>
0

> <r_i_glide_rewards>
-0.940719070241716

> <r_i_glide_evdw>
-48.4523277282715

> <r_i_glide_ecoul>
-14.8819303512573

> <r_i_glide_erotb>
0.945169721100284

> <r_i_glide_esite>
-0.103311940292798

> <r_i_glide_emodel>
-90.5088842127582

> <r_i_glide_energy>
-63.3342580795288

> <r_i_glide_einternal>
14.1616077423096

> <i_i_glide_confnum>
141

> <i_i_glide_posenum>
32

> <r_i_glide_eff_state_penalty>
0

> <s_user_duplicate_titles>
641584

> <s_m_subgroup_title>
dock_pv

> <s_m_subgroupid>
dock_pv1

> <b_m_subgroup_collapsed>
0

$$$$
347027
                    3D
 Schrodinger Suite 2021-1.
 62 64  0  0  1  0            999 V2000
   12.0471  -12.0171   21.8602 C   0  0  0  0  0  0
   12.4067  -10.7132   22.2281 C   0  0  0  0  0  0
   13.6948  -10.2222   21.1463 S   0  0  0  0  0  0
   13.6821  -11.8008   20.4244 C   0  0  0  0  0  0
   12.7451  -12.5854   20.8974 N   0  0  0  0  0  0
   14.6995  -12.2615   19.4014 C   0  0  0  0  0  0
   15.9964  -12.4135   20.0587 N   0  0  0  0  0  0
   17.1884  -11.9809   19.6141 C   0  0  0  0  0  0
   17.3243  -11.4559   18.5063 O   0  0  0  0  0  0
   18.3969  -12.1263   20.5872 C   0  0  2  0  0  0
   19.7446  -11.9751   19.9033 C   0  0  0  0  0  0
   20.4139  -13.1338   19.9094 C   0  0  0  0  0  0
   19.6124  -14.1802   20.6376 C   0  0  0  0  0  0
   18.5059  -13.4430   21.2382 N   0  0  0  0  0  0
   17.7624  -13.8297   22.3077 C   0  0  0  0  0  0
   16.8159  -13.1515   22.7210 O   0  0  0  0  0  0
   18.0755  -15.1738   23.0392 C   0  0  1  0  0  0
   18.6146  -14.9330   24.4794 C   0  0  0  0  0  0
   19.9353  -14.1289   24.6277 C   0  0  0  0  0  0
   20.1828  -13.7361   26.1021 C   0  0  0  0  0  0
   21.4237  -12.8308   26.2489 C   0  0  0  0  0  0
   22.6824  -13.4527   25.5957 C   0  0  0  0  0  0
   22.4264  -14.0084   24.1783 C   0  0  0  0  0  0
   21.1780  -14.9115   24.1502 C   0  0  0  0  0  0
   16.8160  -15.9490   23.1348 N   0  0  2  0  0  0
   16.3172  -16.5173   21.8795 C   0  0  0  0  0  0
   15.0746  -17.3736   22.1555 C   0  0  0  0  0  0
   14.9896  -18.5520   21.8278 O   0  0  0  0  0  0
   14.0617  -16.6530   22.7207 O   0  0  0  0  0  0
   11.8831   -9.8535   23.3021 C   0  0  0  0  0  0
   12.4160   -8.7338   23.5211 N   0  0  0  0  0  0
   10.8184  -10.4137   23.9603 N   0  0  0  0  0  0
   18.2562  -11.3458   21.3377 H   0  0  0  0  0  0
   18.8098  -15.7609   22.4925 H   0  0  0  0  0  0
   11.2635  -12.6002   22.3217 H   0  0  0  0  0  0
   14.7474  -11.5443   18.5792 H   0  0  0  0  0  0
   14.4156  -13.2193   18.9623 H   0  0  0  0  0  0
   15.9766  -12.7810   21.0037 H   0  0  0  0  0  0
   20.0922  -11.0530   19.4787 H   0  0  0  0  0  0
   21.3853  -13.3256   19.4829 H   0  0  0  0  0  0
   20.2359  -14.6922   21.3630 H   0  0  0  0  0  0
   19.2464  -14.9447   19.9515 H   0  0  0  0  0  0
   18.7424  -15.8999   24.9695 H   0  0  0  0  0  0
   17.8339  -14.4320   25.0559 H   0  0  0  0  0  0
   19.8579  -13.2084   24.0453 H   0  0  0  0  0  0
   20.2731  -14.6307   26.7201 H   0  0  0  0  0  0
   19.3099  -13.2174   26.4974 H   0  0  0  0  0  0
   21.6160  -12.6358   27.3041 H   0  0  0  0  0  0
   21.2126  -11.8552   25.8142 H   0  0  0  0  0  0
   23.0509  -14.2579   26.2330 H   0  0  0  0  0  0
   23.4836  -12.7126   25.5497 H   0  0  0  0  0  0
   23.2985  -14.5630   23.8345 H   0  0  0  0  0  0
   22.2926  -13.1838   23.4782 H   0  0  0  0  0  0
   21.0342  -15.3003   23.1474 H   0  0  0  0  0  0
   21.3158  -15.8101   24.7536 H   0  0  0  0  0  0
   16.1297  -15.3790   23.6299 H   0  0  0  0  0  0
   16.0649  -15.7438   21.1525 H   0  0  0  0  0  0
   17.0817  -17.1490   21.4252 H   0  0  0  0  0  0
   14.3277  -15.7534   22.9335 H   0  0  0  0  0  0
   13.1925   -8.5690   22.8999 H   0  0  0  0  0  0
   10.3082   -9.8833   24.6561 H   0  0  0  0  0  0
   10.3508  -11.2214   23.5763 H   0  0  0  0  0  0
  1  5  1  0  0  0
  1  2  2  0  0  0
  1 35  1  0  0  0
  2  3  1  0  0  0
  2 30  1  0  0  0
  3  4  1  0  0  0
  4  5  2  0  0  0
  4  6  1  0  0  0
  6  7  1  0  0  0
  6 36  1  0  0  0
  6 37  1  0  0  0
  7  8  1  0  0  0
  7 38  1  0  0  0
  8  9  2  0  0  0
  8 10  1  0  0  0
 10 33  1  0  0  0
 10 14  1  0  0  0
 10 11  1  0  0  0
 11 12  2  0  0  0
 11 39  1  0  0  0
 12 13  1  0  0  0
 12 40  1  0  0  0
 13 14  1  0  0  0
 13 41  1  0  0  0
 13 42  1  0  0  0
 14 15  1  0  0  0
 15 16  2  0  0  0
 15 17  1  0  0  0
 17 34  1  0  0  0
 17 18  1  0  0  0
 17 25  1  0  0  0
 18 19  1  0  0  0
 18 43  1  0  0  0
 18 44  1  0  0  0
 19 24  1  0  0  0
 19 20  1  0  0  0
 19 45  1  0  0  0
 20 21  1  0  0  0
 20 46  1  0  0  0
 20 47  1  0  0  0
 21 22  1  0  0  0
 21 48  1  0  0  0
 21 49  1  0  0  0
 22 23  1  0  0  0
 22 50  1  0  0  0
 22 51  1  0  0  0
 23 24  1  0  0  0
 23 52  1  0  0  0
 23 53  1  0  0  0
 24 54  1  0  0  0
 24 55  1  0  0  0
 25 26  1  0  0  0
 25 56  1  0  0  0
 26 27  1  0  0  0
 26 57  1  0  0  0
 26 58  1  0  0  0
 27 28  2  0  0  0
 27 29  1  0  0  0
 29 59  1  0  0  0
 30 31  2  3  0  0
 30 32  1  0  0  0
 31 60  1  0  0  0
 32 61  1  0  0  0
 32 62  1  0  0  0
M  END
> <s_m_entry_id>
37674

> <s_m_entry_name>
ligand_docking-pose.21

> <s_m_Source_Path>
/home/csk/Desktop/cluster/DUD-E-result/thrb

> <s_m_Source_File>
ligand_docking-pose.sdf

> <i_m_Source_File_Index>
21

> <i_lp_mmshare_version>
53161

> <i_f3d_flags>
0

> <r_lp_tautomer_probability>
1

> <s_lp_Force_Field>
OPLS_2005

> <r_lp_Energy>
24.177651

> <b_lp_Chiralities_Consistent>
1

> <s_lp_Variant>
347027-2

> <s_i_glide_gridfile>
glide-grid_1ype

> <i_i_glide_lignum>
2113

> <i_i_glide_rotatable_bonds>
13

> <r_i_docking_score>
-8.94687003019962

> <r_i_glide_ligand_efficiency>
-0.279589688443738

> <r_i_glide_ligand_efficiency_sa>
-0.887641930084658

> <r_i_glide_ligand_efficiency_ln>
-2.00344808222773

> <r_i_glide_gscore>
-8.94687003019962

> <r_i_glide_lipo>
-3.41522812979566

> <r_i_glide_hbond>
-0.639605420322268

> <r_i_glide_metal>
0

> <r_i_glide_rewards>
-1.28951233825602

> <r_i_glide_evdw>
-48.3289489746094

> <r_i_glide_ecoul>
-13.8384990692139

> <r_i_glide_erotb>
0.941494306592247

> <r_i_glide_esite>
-0.0517961393053714

> <r_i_glide_emodel>
-90.6312509253553

> <r_i_glide_energy>
-62.1674480438232

> <r_i_glide_einternal>
11.5618324279785

> <i_i_glide_confnum>
134

> <i_i_glide_posenum>
169

> <r_i_glide_eff_state_penalty>
0

> <s_user_duplicate_titles>
347027

> <s_m_subgroup_title>
dock_pv

> <s_m_subgroupid>
dock_pv1

> <b_m_subgroup_collapsed>
0

$$$$
167371
                    3D
 Schrodinger Suite 2021-1.
 54 57  0  0  1  0            999 V2000
   21.5049  -13.2845   25.9406 C   0  0  0  0  0  0
   22.5659  -13.9202   25.2971 C   0  0  0  0  0  0
   22.3923  -15.2328   24.8525 C   0  0  0  0  0  0
   21.2138  -15.8653   25.0432 N   0  3  0  0  0  0
   21.1314  -17.0561   24.6350 O   0  5  0  0  0  0
   20.1515  -15.2762   25.6630 C   0  0  0  0  0  0
   20.2998  -13.9601   26.1219 C   0  0  0  0  0  0
   18.8333  -16.0505   25.8511 C   0  0  0  0  0  0
   18.1053  -16.4211   24.5272 C   0  0  0  0  0  0
   17.6215  -15.2883   23.7238 N   0  0  0  0  0  0
   18.3575  -14.6199   22.7471 C   0  0  0  0  0  0
   17.7165  -13.3982   22.1544 C   0  0  0  0  0  0
   16.5570  -13.0519   22.4165 O   0  0  0  0  0  0
   18.5532  -12.6884   21.2925 N   0  0  0  0  0  0
   19.8081  -13.1988   20.9719 C   0  0  0  0  0  0
   20.2584  -14.3547   21.5157 C   0  0  0  0  0  0
   19.5316  -15.0611   22.4311 N   0  0  0  0  0  0
   20.8091  -12.2966   19.8211 Cl  0  0  0  0  0  0
   18.0488  -11.3925   20.7755 C   0  0  0  0  0  0
   17.2095  -11.6390   19.5162 C   0  0  0  0  0  0
   17.7572  -11.8551   18.4364 O   0  0  0  0  0  0
   15.8828  -11.6070   19.6874 N   0  0  0  0  0  0
   14.8767  -11.9263   18.6772 C   0  0  0  0  0  0
   13.9516  -13.0294   19.1795 C   0  0  0  0  0  0
   14.0595  -14.2877   18.5693 C   0  0  0  0  0  0
   13.2962  -15.3657   19.0059 C   0  0  0  0  0  0
   12.4152  -15.2007   20.0693 C   0  0  0  0  0  0
   12.2983  -13.9584   20.6820 C   0  0  0  0  0  0
   13.0345  -12.8506   20.2472 C   0  0  0  0  0  0
   12.8133  -11.6210   20.9297 N   0  0  0  0  0  0
   12.4389  -11.4117   22.2417 C   0  0  0  0  0  0
   12.2412  -10.1424   22.4913 N   0  0  0  0  0  0
   12.4797   -9.4995   21.2850 N   0  0  0  0  0  0
   12.8167  -10.4271   20.3171 N   0  0  0  0  0  0
   13.4467  -16.9017   18.2362 Cl  0  0  0  0  0  0
   18.0093  -15.3389   26.6234 F   0  0  0  0  0  0
   19.1061  -17.1586   26.5436 F   0  0  0  0  0  0
   21.6127  -12.2752   26.3153 H   0  0  0  0  0  0
   23.5110  -13.4100   25.1575 H   0  0  0  0  0  0
   23.1608  -15.8085   24.3546 H   0  0  0  0  0  0
   19.4915  -13.4539   26.6289 H   0  0  0  0  0  0
   17.2344  -17.0210   24.7916 H   0  0  0  0  0  0
   18.7374  -17.0780   23.9256 H   0  0  0  0  0  0
   16.6754  -14.9645   23.9194 H   0  0  0  0  0  0
   21.2314  -14.7476   21.2568 H   0  0  0  0  0  0
   18.8514  -10.6908   20.5571 H   0  0  0  0  0  0
   17.4393  -10.8834   21.5219 H   0  0  0  0  0  0
   15.5254  -11.3806   20.6044 H   0  0  0  0  0  0
   15.3402  -12.2326   17.7362 H   0  0  0  0  0  0
   14.2993  -11.0494   18.4029 H   0  0  0  0  0  0
   14.7519  -14.4395   17.7534 H   0  0  0  0  0  0
   11.8200  -16.0321   20.4158 H   0  0  0  0  0  0
   11.6086  -13.8599   21.5014 H   0  0  0  0  0  0
   12.3196  -12.2355   22.9313 H   0  0  0  0  0  0
  1  7  1  0  0  0
  1  2  2  0  0  0
  1 38  1  0  0  0
  2  3  1  0  0  0
  2 39  1  0  0  0
  3  4  2  0  0  0
  3 40  1  0  0  0
  4  5  1  0  0  0
  4  6  1  0  0  0
  6  7  2  0  0  0
  6  8  1  0  0  0
  7 41  1  0  0  0
  8  9  1  0  0  0
  8 36  1  0  0  0
  8 37  1  0  0  0
  9 10  1  0  0  0
  9 42  1  0  0  0
  9 43  1  0  0  0
 10 11  1  0  0  0
 10 44  1  0  0  0
 11 17  2  0  0  0
 11 12  1  0  0  0
 12 13  2  0  0  0
 12 14  1  0  0  0
 14 15  1  0  0  0
 14 19  1  0  0  0
 15 16  2  0  0  0
 15 18  1  0  0  0
 16 17  1  0  0  0
 16 45  1  0  0  0
 19 20  1  0  0  0
 19 46  1  0  0  0
 19 47  1  0  0  0
 20 21  2  0  0  0
 20 22  1  0  0  0
 22 23  1  0  0  0
 22 48  1  0  0  0
 23 24  1  0  0  0
 23 49  1  0  0  0
 23 50  1  0  0  0
 24 29  1  0  0  0
 24 25  2  0  0  0
 25 26  1  0  0  0
 25 51  1  0  0  0
 26 27  2  0  0  0
 26 35  1  0  0  0
 27 28  1  0  0  0
 27 52  1  0  0  0
 28 29  2  0  0  0
 28 53  1  0  0  0
 29 30  1  0  0  0
 30 34  1  0  0  0
 30 31  1  0  0  0
 31 32  2  0  0  0
 31 54  1  0  0  0
 32 33  1  0  0  0
 33 34  2  0  0  0
M  CHG  2   4   1   5  -1
M  END
> <s_m_entry_id>
37675

> <s_m_entry_name>
ligand_docking-pose.22

> <s_m_Source_Path>
/home/csk/Desktop/cluster/DUD-E-result/thrb

> <s_m_Source_File>
ligand_docking-pose.sdf

> <i_m_Source_File_Index>
22

> <i_lp_mmshare_version>
53161

> <i_f3d_flags>
0

> <r_lp_tautomer_probability>
1

> <s_lp_Force_Field>
OPLS_2005

> <r_lp_Energy>
37.609232

> <b_lp_Chiralities_Consistent>
1

> <s_lp_Variant>
167371-1

> <s_i_glide_gridfile>
glide-grid_1ype

> <i_i_glide_lignum>
2063

> <i_i_glide_rotatable_bonds>
10

> <r_i_docking_score>
-8.93918791446451

> <r_i_glide_ligand_efficiency>
-0.241599673363906

> <r_i_glide_ligand_efficiency_sa>
-0.805063709964725

> <r_i_glide_ligand_efficiency_ln>
-1.93870029434945

> <r_i_glide_gscore>
-8.93918791446451

> <r_i_glide_lipo>
-3.17588220964347

> <r_i_glide_hbond>
-0.488726899224655

> <r_i_glide_metal>
0

> <r_i_glide_rewards>
-1.72036798543885

> <r_i_glide_evdw>
-55.8826560974121

> <r_i_glide_ecoul>
-8.55163192749023

> <r_i_glide_erotb>
0.540850685277361

> <r_i_glide_esite>
-0.0181839114407525

> <r_i_glide_emodel>
-95.1706752815205

> <r_i_glide_energy>
-64.4342880249023

> <r_i_glide_einternal>
6.08897304534912

> <i_i_glide_confnum>
11

> <i_i_glide_posenum>
5

> <r_i_glide_eff_state_penalty>
0

> <s_user_duplicate_titles>
167371

> <s_m_subgroup_title>
dock_pv

> <s_m_subgroupid>
dock_pv1

> <b_m_subgroup_collapsed>
0

$$$$
347251
                    3D
 Schrodinger Suite 2021-1.
 68 70  0  0  1  0            999 V2000
   13.9394  -10.2697   20.9819 C   0  0  0  0  0  0
   13.0578  -10.0540   22.0333 C   0  0  0  0  0  0
   12.1508  -11.0479   22.4456 C   0  0  0  0  0  0
   12.1305  -12.2506   21.7132 C   0  0  0  0  0  0
   13.0083  -12.4703   20.6567 C   0  0  0  0  0  0
   13.9320  -11.4892   20.3055 C   0  0  0  0  0  0
   14.9605  -11.7629   19.2187 C   0  0  0  0  0  0
   16.3182  -11.6359   19.7434 N   0  0  0  0  0  0
   17.2997  -12.5163   19.5141 C   0  0  0  0  0  0
   17.2144  -13.4521   18.7199 O   0  0  0  0  0  0
   18.5765  -12.3408   20.3580 C   0  0  2  0  0  0
   19.8525  -12.2867   19.4864 C   0  0  0  0  0  0
   20.8602  -13.1763   20.1941 C   0  0  0  0  0  0
   19.9851  -14.2276   20.8549 C   0  0  0  0  0  0
   18.7863  -13.4953   21.2586 N   0  0  0  0  0  0
   17.9279  -13.7996   22.2700 C   0  0  0  0  0  0
   16.9631  -13.0823   22.5618 O   0  0  0  0  0  0
   18.1378  -15.1242   23.0765 C   0  0  1  0  0  0
   18.5832  -14.8594   24.5430 C   0  0  0  0  0  0
   19.9382  -14.1350   24.7545 C   0  0  0  0  0  0
   20.0831  -13.6527   26.2168 C   0  0  0  0  0  0
   21.3645  -12.8182   26.4185 C   0  0  0  0  0  0
   22.6265  -13.5716   25.9214 C   0  0  0  0  0  0
   22.4570  -14.2189   24.5292 C   0  0  0  0  0  0
   21.1557  -15.0403   24.4585 C   0  0  0  0  0  0
   16.8426  -15.8532   23.1191 N   0  0  2  0  0  0
   16.3815  -16.4176   21.8464 C   0  0  0  0  0  0
   15.1534  -17.3085   22.0775 C   0  0  0  0  0  0
   15.0803  -18.4600   21.6607 O   0  0  0  0  0  0
   14.1434  -16.6528   22.7209 O   0  0  0  0  0  0
   11.2718  -10.8202   23.6299 C   0  0  0  0  0  0
   11.3437   -9.7533   24.2996 N   0  0  0  0  0  0
   10.4186  -11.8527   23.9209 N   0  0  0  0  0  0
   18.5175  -11.4380   20.9718 H   0  0  0  0  0  0
   18.8713  -15.7720   22.6003 H   0  0  0  0  0  0
   14.6519   -9.4991   20.7212 H   0  0  0  0  0  0
   13.1186   -9.1031   22.5424 H   0  0  0  0  0  0
   11.4500  -13.0511   21.9616 H   0  0  0  0  0  0
   12.9844  -13.4183   20.1382 H   0  0  0  0  0  0
   14.8323  -11.0533   18.4040 H   0  0  0  0  0  0
   14.7769  -12.7420   18.7686 H   0  0  0  0  0  0
   16.4876  -10.8767   20.3888 H   0  0  0  0  0  0
   20.2308  -11.2722   19.3613 H   0  0  0  0  0  0
   19.6745  -12.6906   18.4879 H   0  0  0  0  0  0
   21.3795  -12.6056   20.9656 H   0  0  0  0  0  0
   21.6134  -13.5895   19.5236 H   0  0  0  0  0  0
   20.5245  -14.7002   21.6653 H   0  0  0  0  0  0
   19.6993  -14.9979   20.1385 H   0  0  0  0  0  0
   18.6219  -15.8143   25.0713 H   0  0  0  0  0  0
   17.7956  -14.2929   25.0435 H   0  0  0  0  0  0
   19.9802  -13.2601   24.1030 H   0  0  0  0  0  0
   20.0555  -14.5017   26.9016 H   0  0  0  0  0  0
   19.2175  -13.0533   26.4893 H   0  0  0  0  0  0
   21.4838  -12.5754   27.4744 H   0  0  0  0  0  0
   21.2482  -11.8560   25.9201 H   0  0  0  0  0  0
   22.8711  -14.3564   26.6390 H   0  0  0  0  0  0
   23.4878  -12.9062   25.9111 H   0  0  0  0  0  0
   23.3147  -14.8569   24.3089 H   0  0  0  0  0  0
   22.4429  -13.4450   23.7603 H   0  0  0  0  0  0
   21.0730  -15.5087   23.4838 H   0  0  0  0  0  0
   21.1742  -15.8911   25.1413 H   0  0  0  0  0  0
   16.1594  -15.2619   23.5930 H   0  0  0  0  0  0
   16.1255  -15.6352   21.1313 H   0  0  0  0  0  0
   17.1693  -17.0233   21.3965 H   0  0  0  0  0  0
   14.4019  -15.7632   22.9889 H   0  0  0  0  0  0
   12.0374   -9.1168   23.9447 H   0  0  0  0  0  0
    9.6884  -11.7001   24.6149 H   0  0  0  0  0  0
   10.5076  -12.7786   23.5182 H   0  0  0  0  0  0
  1  6  1  0  0  0
  1  2  2  0  0  0
  1 36  1  0  0  0
  2  3  1  0  0  0
  2 37  1  0  0  0
  3  4  2  0  0  0
  3 31  1  0  0  0
  4  5  1  0  0  0
  4 38  1  0  0  0
  5  6  2  0  0  0
  5 39  1  0  0  0
  6  7  1  0  0  0
  7  8  1  0  0  0
  7 40  1  0  0  0
  7 41  1  0  0  0
  8  9  1  0  0  0
  8 42  1  0  0  0
  9 10  2  0  0  0
  9 11  1  0  0  0
 11 34  1  0  0  0
 11 15  1  0  0  0
 11 12  1  0  0  0
 12 13  1  0  0  0
 12 43  1  0  0  0
 12 44  1  0  0  0
 13 14  1  0  0  0
 13 45  1  0  0  0
 13 46  1  0  0  0
 14 15  1  0  0  0
 14 47  1  0  0  0
 14 48  1  0  0  0
 15 16  1  0  0  0
 16 17  2  0  0  0
 16 18  1  0  0  0
 18 35  1  0  0  0
 18 19  1  0  0  0
 18 26  1  0  0  0
 19 20  1  0  0  0
 19 49  1  0  0  0
 19 50  1  0  0  0
 20 25  1  0  0  0
 20 21  1  0  0  0
 20 51  1  0  0  0
 21 22  1  0  0  0
 21 52  1  0  0  0
 21 53  1  0  0  0
 22 23  1  0  0  0
 22 54  1  0  0  0
 22 55  1  0  0  0
 23 24  1  0  0  0
 23 56  1  0  0  0
 23 57  1  0  0  0
 24 25  1  0  0  0
 24 58  1  0  0  0
 24 59  1  0  0  0
 25 60  1  0  0  0
 25 61  1  0  0  0
 26 27  1  0  0  0
 26 62  1  0  0  0
 27 28  1  0  0  0
 27 63  1  0  0  0
 27 64  1  0  0  0
 28 29  2  0  0  0
 28 30  1  0  0  0
 30 65  1  0  0  0
 31 32  2  3  0  0
 31 33  1  0  0  0
 32 66  1  0  0  0
 33 67  1  0  0  0
 33 68  1  0  0  0
M  END
> <s_m_entry_id>
37676

> <s_m_entry_name>
ligand_docking-pose.23

> <s_m_Source_Path>
/home/csk/Desktop/cluster/DUD-E-result/thrb

> <s_m_Source_File>
ligand_docking-pose.sdf

> <i_m_Source_File_Index>
23

> <i_lp_mmshare_version>
53161

> <i_f3d_flags>
0

> <r_lp_tautomer_probability>
1

> <s_lp_Force_Field>
OPLS_2005

> <r_lp_Energy>
28.205057

> <b_lp_Chiralities_Consistent>
1

> <s_lp_Variant>
347251-2

> <s_i_glide_gridfile>
glide-grid_1ype

> <i_i_glide_lignum>
1349

> <i_i_glide_rotatable_bonds>
13

> <r_i_docking_score>
-8.8651239132169

> <r_i_glide_ligand_efficiency>
-0.26864011858233

> <r_i_glide_ligand_efficiency_sa>
-0.861672401762693

> <r_i_glide_ligand_efficiency_ln>
-1.97155765714439

> <r_i_glide_gscore>
-8.8651239132169

> <r_i_glide_lipo>
-3.72645497300004

> <r_i_glide_hbond>
-0.540199316134099

> <r_i_glide_metal>
0

> <r_i_glide_rewards>
-0.870992579918595

> <r_i_glide_evdw>
-43.7465515136719

> <r_i_glide_ecoul>
-15.7303991317749

> <r_i_glide_erotb>
0.960320944447505

> <r_i_glide_esite>
-0.14091054316184

> <r_i_glide_emodel>
-81.9037637942425

> <r_i_glide_energy>
-59.4769506454468

> <r_i_glide_einternal>
14.8609600067139

> <i_i_glide_confnum>
275

> <i_i_glide_posenum>
192

> <r_i_glide_eff_state_penalty>
0

> <s_user_duplicate_titles>
347251

> <s_m_subgroup_title>
dock_pv

> <s_m_subgroupid>
dock_pv1

> <b_m_subgroup_collapsed>
0

$$$$
216902
                    3D
 Schrodinger Suite 2021-1.
 60 62  0  0  1  0            999 V2000
   21.3902  -12.2424   19.4755 C   0  0  0  0  0  0
   20.3613  -13.3434   19.1721 C   0  0  0  0  0  0
   19.5899  -13.7908   20.4178 C   0  0  0  0  0  0
   19.9163  -14.9192   21.1182 C   0  0  0  0  0  0
   19.2602  -15.2917   22.2544 N   0  0  0  0  0  0
   18.2691  -14.5747   22.6480 C   0  0  0  0  0  0
   17.7705  -13.3453   21.9518 C   0  0  0  0  0  0
   16.7716  -12.7136   22.3210 O   0  0  0  0  0  0
   18.5144  -12.9919   20.8319 N   0  0  0  0  0  0
   18.1060  -11.7340   20.1409 C   0  0  0  0  0  0
   16.9031  -11.8695   19.1866 C   0  0  0  0  0  0
   16.8137  -11.0705   18.2563 O   0  0  0  0  0  0
   15.9479  -12.7713   19.4728 N   0  0  0  0  0  0
   14.5468  -12.6904   19.0586 C   0  0  0  0  0  0
   13.7186  -12.0159   20.1530 C   0  0  0  0  0  0
   12.6722  -12.6936   20.7763 C   0  0  0  0  0  0
   12.0109  -12.1110   21.8560 C   0  0  0  0  0  0
   12.3637  -10.8343   22.3386 C   0  0  0  0  0  0
   13.3856  -10.1513   21.6570 C   0  0  0  0  0  0
   14.0540  -10.7349   20.5900 C   0  0  0  0  0  0
   11.7175  -10.2184   23.5377 C   0  0  0  0  0  0
   12.0160   -9.0530   23.9198 N   0  0  0  0  0  0
   10.8160  -11.0248   24.1804 N   0  0  0  0  0  0
   17.5815  -14.9600   23.7921 N   0  0  0  0  0  0
   17.9123  -16.0888   24.6611 C   0  0  0  0  0  0
   18.5632  -15.6764   25.9943 C   0  0  0  0  0  0
   19.9329  -15.0277   25.8445 C   0  0  0  0  0  0
   20.0741  -13.6534   26.0441 C   0  0  0  0  0  0
   21.3234  -13.0539   25.9231 C   0  0  0  0  0  0
   22.4310  -13.8334   25.5936 C   0  0  0  0  0  0
   22.2987  -15.2053   25.3887 C   0  0  0  0  0  0
   21.0474  -15.8043   25.5175 C   0  0  0  0  0  0
   21.2160  -16.0227   20.6610 Cl  0  0  0  0  0  0
   22.0156  -12.0386   18.6081 H   0  0  0  0  0  0
   20.9480  -11.2978   19.7835 H   0  0  0  0  0  0
   22.0283  -12.5580   20.2970 H   0  0  0  0  0  0
   20.8916  -14.1940   18.7434 H   0  0  0  0  0  0
   19.6753  -13.0386   18.3813 H   0  0  0  0  0  0
   18.9320  -11.3237   19.5747 H   0  0  0  0  0  0
   17.8800  -10.9538   20.8703 H   0  0  0  0  0  0
   16.1169  -13.3762   20.2647 H   0  0  0  0  0  0
   14.1758  -13.6974   18.8582 H   0  0  0  0  0  0
   14.4330  -12.1175   18.1350 H   0  0  0  0  0  0
   12.3900  -13.6876   20.4592 H   0  0  0  0  0  0
   11.2248  -12.6874   22.3210 H   0  0  0  0  0  0
   13.7145   -9.1716   21.9702 H   0  0  0  0  0  0
   14.8748  -10.2057   20.1343 H   0  0  0  0  0  0
   12.7107   -8.6179   23.3367 H   0  0  0  0  0  0
   10.2145  -10.6155   24.8877 H   0  0  0  0  0  0
   10.5093  -11.8921   23.7676 H   0  0  0  0  0  0
   16.6673  -14.5453   23.9581 H   0  0  0  0  0  0
   16.9646  -16.5709   24.9029 H   0  0  0  0  0  0
   18.5007  -16.8608   24.1611 H   0  0  0  0  0  0
   17.8933  -15.0076   26.5375 H   0  0  0  0  0  0
   18.6654  -16.5523   26.6355 H   0  0  0  0  0  0
   19.2160  -13.0530   26.2995 H   0  0  0  0  0  0
   21.4284  -11.9917   26.0897 H   0  0  0  0  0  0
   23.4038  -13.3704   25.5045 H   0  0  0  0  0  0
   23.1630  -15.8018   25.1374 H   0  0  0  0  0  0
   20.9451  -16.8679   25.3590 H   0  0  0  0  0  0
  1  2  1  0  0  0
  1 34  1  0  0  0
  1 35  1  0  0  0
  1 36  1  0  0  0
  2  3  1  0  0  0
  2 37  1  0  0  0
  2 38  1  0  0  0
  3  9  1  0  0  0
  3  4  2  0  0  0
  4  5  1  0  0  0
  4 33  1  0  0  0
  5  6  2  0  0  0
  6  7  1  0  0  0
  6 24  1  0  0  0
  7  8  2  0  0  0
  7  9  1  0  0  0
  9 10  1  0  0  0
 10 11  1  0  0  0
 10 39  1  0  0  0
 10 40  1  0  0  0
 11 12  2  0  0  0
 11 13  1  0  0  0
 13 14  1  0  0  0
 13 41  1  0  0  0
 14 15  1  0  0  0
 14 42  1  0  0  0
 14 43  1  0  0  0
 15 20  1  0  0  0
 15 16  2  0  0  0
 16 17  1  0  0  0
 16 44  1  0  0  0
 17 18  2  0  0  0
 17 45  1  0  0  0
 18 19  1  0  0  0
 18 21  1  0  0  0
 19 20  2  0  0  0
 19 46  1  0  0  0
 20 47  1  0  0  0
 21 22  2  3  0  0
 21 23  1  0  0  0
 22 48  1  0  0  0
 23 49  1  0  0  0
 23 50  1  0  0  0
 24 25  1  0  0  0
 24 51  1  0  0  0
 25 26  1  0  0  0
 25 52  1  0  0  0
 25 53  1  0  0  0
 26 27  1  0  0  0
 26 54  1  0  0  0
 26 55  1  0  0  0
 27 32  1  0  0  0
 27 28  2  0  0  0
 28 29  1  0  0  0
 28 56  1  0  0  0
 29 30  2  0  0  0
 29 57  1  0  0  0
 30 31  1  0  0  0
 30 58  1  0  0  0
 31 32  2  0  0  0
 31 59  1  0  0  0
 32 60  1  0  0  0
M  END
> <s_m_entry_id>
37677

> <s_m_entry_name>
ligand_docking-pose.24

> <s_m_Source_Path>
/home/csk/Desktop/cluster/DUD-E-result/thrb

> <s_m_Source_File>
ligand_docking-pose.sdf

> <i_m_Source_File_Index>
24

> <i_lp_mmshare_version>
53161

> <i_f3d_flags>
0

> <r_lp_tautomer_probability>
1

> <s_lp_Force_Field>
OPLS_2005

> <r_lp_Energy>
24.155764

> <b_lp_Chiralities_Consistent>
1

> <s_lp_Variant>
216902-2

> <s_i_glide_gridfile>
glide-grid_1ype

> <i_i_glide_lignum>
3208

> <i_i_glide_rotatable_bonds>
11

> <r_i_docking_score>
-8.86080246770918

> <r_i_glide_ligand_efficiency>
-0.268509165688157

> <r_i_glide_ligand_efficiency_sa>
-0.861252365859509

> <r_i_glide_ligand_efficiency_ln>
-1.97059659003872

> <r_i_glide_gscore>
-8.86080246770918

> <r_i_glide_lipo>
-4.18434006212464

> <r_i_glide_hbond>
-0.468587671538544

> <r_i_glide_metal>
0

> <r_i_glide_rewards>
-0.935945135331135

> <r_i_glide_evdw>
-53.5571136474609

> <r_i_glide_ecoul>
-8.15884399414062

> <r_i_glide_erotb>
0.740319325861379

> <r_i_glide_esite>
-0.110566643082106

> <r_i_glide_emodel>
-88.7960632001761

> <r_i_glide_energy>
-61.7159576416016

> <r_i_glide_einternal>
10.3044004440308

> <i_i_glide_confnum>
58

> <i_i_glide_posenum>
369

> <r_i_glide_eff_state_penalty>
0

> <s_user_duplicate_titles>
216902

> <s_m_subgroup_title>
dock_pv

> <s_m_subgroupid>
dock_pv1

> <b_m_subgroup_collapsed>
0

$$$$
154833
                    3D
 Schrodinger Suite 2021-1.
 52 54  0  0  1  0            999 V2000
   20.3501  -13.7668   22.0404 C   0  0  0  0  0  0
   21.6131  -13.8521   22.6081 C   0  0  0  0  0  0
   21.7971  -13.9456   23.9977 C   0  0  0  0  0  0
   20.6355  -13.9499   24.7965 C   0  0  0  0  0  0
   19.3670  -13.8531   24.2309 C   0  0  0  0  0  0
   19.2162  -13.7362   22.8493 C   0  0  0  0  0  0
   17.8591  -13.5964   22.2867 C   0  0  0  0  0  0
   17.4449  -12.8305   21.2380 C   0  0  0  0  0  0
   18.3311  -11.8278   20.4905 C   0  0  0  0  0  0
   18.7180  -12.2572   19.0592 C   0  0  0  0  0  0
   17.5835  -12.1662   18.0169 C   0  0  0  0  0  0
   16.3323  -13.0115   18.3234 C   0  0  0  0  0  0
   15.5499  -12.5179   19.5348 C   0  0  0  0  0  0
   14.4349  -11.7587   19.3751 C   0  0  0  0  0  0
   13.6550  -11.1251   20.4459 C   0  0  0  0  0  0
   14.1527   -9.9807   21.0617 C   0  0  0  0  0  0
   13.5007   -9.4479   22.1613 C   0  0  0  0  0  0
   12.3508  -10.0554   22.6890 C   0  0  0  0  0  0
   11.8411  -11.1855   22.0180 C   0  0  0  0  0  0
   12.4774  -11.7084   20.8989 C   0  0  0  0  0  0
   11.7206   -9.5120   23.9202 C   0  0  0  0  0  0
   12.0161   -8.3650   24.3546 N   0  0  0  0  0  0
   10.8161  -10.3609   24.4929 N   0  0  0  0  0  0
   16.0144  -12.8832   20.8922 C   0  0  0  0  0  0
   15.1881  -13.2296   21.7431 O   0  0  0  0  0  0
   23.1758  -14.0444   24.5663 C   0  0  0  0  0  0
   24.1969  -13.9451   23.8319 N   0  0  0  0  0  0
   23.2150  -14.2523   25.9212 N   0  0  0  0  0  0
   20.2695  -13.7191   20.9660 H   0  0  0  0  0  0
   22.4521  -13.8471   21.9341 H   0  0  0  0  0  0
   20.6883  -14.0165   25.8728 H   0  0  0  0  0  0
   18.5015  -13.8501   24.8779 H   0  0  0  0  0  0
   17.1385  -14.2262   22.7954 H   0  0  0  0  0  0
   17.8423  -10.8515   20.4657 H   0  0  0  0  0  0
   19.2326  -11.6460   21.0690 H   0  0  0  0  0  0
   19.5486  -11.6362   18.7222 H   0  0  0  0  0  0
   19.1068  -13.2766   19.0715 H   0  0  0  0  0  0
   17.2845  -11.1225   17.9004 H   0  0  0  0  0  0
   17.9781  -12.4619   17.0458 H   0  0  0  0  0  0
   15.6768  -12.9788   17.4508 H   0  0  0  0  0  0
   16.5950  -14.0648   18.4385 H   0  0  0  0  0  0
   14.0884  -11.5458   18.3748 H   0  0  0  0  0  0
   15.0731   -9.5270   20.7221 H   0  0  0  0  0  0
   13.9472   -8.5841   22.6322 H   0  0  0  0  0  0
   10.9450  -11.6885   22.3534 H   0  0  0  0  0  0
   12.0857  -12.5992   20.4286 H   0  0  0  0  0  0
   12.7086   -7.8998   23.7928 H   0  0  0  0  0  0
   10.1364   -9.9820   25.1462 H   0  0  0  0  0  0
   10.5535  -11.2195   24.0365 H   0  0  0  0  0  0
   25.0535  -14.0323   24.3583 H   0  0  0  0  0  0
   24.0955  -14.3008   26.4238 H   0  0  0  0  0  0
   22.3615  -14.3605   26.4451 H   0  0  0  0  0  0
  1  6  1  0  0  0
  1  2  2  0  0  0
  1 29  1  0  0  0
  2  3  1  0  0  0
  2 30  1  0  0  0
  3  4  2  0  0  0
  3 26  1  0  0  0
  4  5  1  0  0  0
  4 31  1  0  0  0
  5  6  2  0  0  0
  5 32  1  0  0  0
  6  7  1  0  0  0
  7  8  2  0  0  0
  7 33  1  0  0  0
  8 24  1  0  0  0
  8  9  1  0  0  0
  9 10  1  0  0  0
  9 34  1  0  0  0
  9 35  1  0  0  0
 10 11  1  0  0  0
 10 36  1  0  0  0
 10 37  1  0  0  0
 11 12  1  0  0  0
 11 38  1  0  0  0
 11 39  1  0  0  0
 12 13  1  0  0  0
 12 40  1  0  0  0
 12 41  1  0  0  0
 13 14  2  0  0  0
 13 24  1  0  0  0
 14 15  1  0  0  0
 14 42  1  0  0  0
 15 20  1  0  0  0
 15 16  2  0  0  0
 16 17  1  0  0  0
 16 43  1  0  0  0
 17 18  2  0  0  0
 17 44  1  0  0  0
 18 19  1  0  0  0
 18 21  1  0  0  0
 19 20  2  0  0  0
 19 45  1  0  0  0
 20 46  1  0  0  0
 21 22  2  3  0  0
 21 23  1  0  0  0
 22 47  1  0  0  0
 23 48  1  0  0  0
 23 49  1  0  0  0
 24 25  2  0  0  0
 26 27  2  3  0  0
 26 28  1  0  0  0
 27 50  1  0  0  0
 28 51  1  0  0  0
 28 52  1  0  0  0
M  END
> <s_m_entry_id>
37678

> <s_m_entry_name>
ligand_docking-pose.25

> <s_m_Source_Path>
/home/csk/Desktop/cluster/DUD-E-result/thrb

> <s_m_Source_File>
ligand_docking-pose.sdf

> <i_m_Source_File_Index>
25

> <i_lp_mmshare_version>
53161

> <i_f3d_flags>
0

> <r_lp_tautomer_probability>
1

> <s_lp_Force_Field>
OPLS_2005

> <r_lp_Energy>
27.247606

> <b_lp_Chiralities_Consistent>
1

> <s_lp_Variant>
154833-2

> <s_i_glide_gridfile>
glide-grid_1ype

> <i_i_glide_lignum>
772

> <i_i_glide_rotatable_bonds>
4

> <r_i_docking_score>
-8.83302672500524

> <r_i_glide_ligand_efficiency>
-0.315465240178758

> <r_i_glide_ligand_efficiency_sa>
-0.95793826827291

> <r_i_glide_ligand_efficiency_ln>
-2.03892191706527

> <r_i_glide_gscore>
-8.83302672500524

> <r_i_glide_lipo>
-3.40602803656774

> <r_i_glide_hbond>
-0.471124470647136

> <r_i_glide_metal>
0

> <r_i_glide_rewards>
-1.73684654725498

> <r_i_glide_evdw>
-45.9497375488281

> <r_i_glide_ecoul>
-7.37906789779663

> <r_i_glide_erotb>
0.278448852013896

> <r_i_glide_esite>
-0.0931294604383813

> <r_i_glide_emodel>
-73.1974775436931

> <r_i_glide_energy>
-53.3288054466248

> <r_i_glide_einternal>
4.86527872085571

> <i_i_glide_confnum>
2

> <i_i_glide_posenum>
45

> <r_i_glide_eff_state_penalty>
0

> <s_user_duplicate_titles>
154833

> <s_m_subgroup_title>
dock_pv

> <s_m_subgroupid>
dock_pv1

> <b_m_subgroup_collapsed>
0

$$$$
346926
                    3D
 Schrodinger Suite 2021-1.
 65 67  0  0  1  0            999 V2000
   13.4532  -12.4700   21.0521 C   0  0  0  0  0  0
   12.5022  -12.3204   22.0586 C   0  0  0  0  0  0
   12.2235  -11.0390   22.5735 C   0  0  0  0  0  0
   12.8647   -9.9379   22.0757 N   0  0  0  0  0  0
   13.7885  -10.0977   21.0975 C   0  0  0  0  0  0
   14.1252  -11.3468   20.5702 C   0  0  0  0  0  0
   15.1769  -11.4801   19.4884 C   0  0  0  0  0  0
   16.5120  -11.4739   20.0711 N   0  0  0  0  0  0
   17.5174  -12.2817   19.7090 C   0  0  0  0  0  0
   17.4761  -13.0163   18.7214 O   0  0  0  0  0  0
   18.7541  -12.2576   20.6349 C   0  0  2  0  0  0
   20.0808  -12.1891   19.8693 C   0  0  0  0  0  0
   20.5722  -13.5107   19.9223 O   0  0  0  0  0  0
   20.0166  -14.2274   20.9753 C   0  0  0  0  0  0
   18.8499  -13.5070   21.4007 N   0  0  0  0  0  0
   17.9705  -13.8572   22.3840 C   0  0  0  0  0  0
   17.0204  -13.1374   22.7123 O   0  0  0  0  0  0
   18.1265  -15.2278   23.1169 C   0  0  1  0  0  0
   18.5874  -15.0327   24.5861 C   0  0  0  0  0  0
   19.9888  -14.4038   24.7902 C   0  0  0  0  0  0
   20.1704  -13.9131   26.2409 C   0  0  0  0  0  0
   21.5067  -13.1675   26.4077 C   0  0  0  0  0  0
   22.7133  -14.0276   25.9598 C   0  0  0  0  0  0
   22.5057  -14.6849   24.5760 C   0  0  0  0  0  0
   21.1377  -15.3884   24.4721 C   0  0  0  0  0  0
   16.8160  -15.9274   23.1209 N   0  0  2  0  0  0
   16.3176  -16.4036   21.8268 C   0  0  0  0  0  0
   15.0276  -17.2290   22.0057 C   0  0  0  0  0  0
   14.4686  -17.4530   23.0804 O   0  0  0  0  0  0
   14.5714  -17.6756   20.8005 O   0  0  0  0  0  0
   11.2535  -10.7945   23.6804 C   0  0  0  0  0  0
   11.2161   -9.7076   24.3203 N   0  0  0  0  0  0
   10.4166  -11.8530   23.9210 N   0  0  0  0  0  0
   18.6530  -11.4287   21.3383 H   0  0  0  0  0  0
   18.8574  -15.8578   22.6127 H   0  0  0  0  0  0
   13.6784  -13.4557   20.6713 H   0  0  0  0  0  0
   12.0168  -13.2065   22.4377 H   0  0  0  0  0  0
   14.2766   -9.1964   20.7552 H   0  0  0  0  0  0
   15.0851  -10.6575   18.7900 H   0  0  0  0  0  0
   14.9885  -12.3798   18.8966 H   0  0  0  0  0  0
   16.6634  -10.8255   20.8304 H   0  0  0  0  0  0
   20.7959  -11.5001   20.3210 H   0  0  0  0  0  0
   19.9441  -11.9154   18.8217 H   0  0  0  0  0  0
   20.7509  -14.2741   21.7795 H   0  0  0  0  0  0
   19.7684  -15.2277   20.6173 H   0  0  0  0  0  0
   18.5672  -16.0003   25.0915 H   0  0  0  0  0  0
   17.8385  -14.4320   25.1087 H   0  0  0  0  0  0
   20.0892  -13.5324   24.1405 H   0  0  0  0  0  0
   20.0874  -14.7473   26.9383 H   0  0  0  0  0  0
   19.3511  -13.2463   26.5087 H   0  0  0  0  0  0
   21.6165  -12.8558   27.4456 H   0  0  0  0  0  0
   21.4772  -12.2526   25.8207 H   0  0  0  0  0  0
   22.9001  -14.7957   26.7142 H   0  0  0  0  0  0
   23.6168  -13.4177   25.9224 H   0  0  0  0  0  0
   23.3084  -15.3967   24.3796 H   0  0  0  0  0  0
   22.5794  -13.9226   23.7988 H   0  0  0  0  0  0
   21.0193  -15.8090   23.4743 H   0  0  0  0  0  0
   21.0864  -16.2539   25.1351 H   0  0  0  0  0  0
   16.1130  -15.3919   23.6354 H   0  0  0  0  0  0
   16.1081  -15.5547   21.1740 H   0  0  0  0  0  0
   17.0774  -17.0297   21.3566 H   0  0  0  0  0  0
   15.1190  -17.4039   20.0624 H   0  0  0  0  0  0
   10.4602   -9.7231   24.9959 H   0  0  0  0  0  0
    9.6426  -11.7418   24.5769 H   0  0  0  0  0  0
   10.5546  -12.7734   23.5211 H   0  0  0  0  0  0
  1  6  1  0  0  0
  1  2  2  0  0  0
  1 36  1  0  0  0
  2  3  1  0  0  0
  2 37  1  0  0  0
  3  4  2  0  0  0
  3 31  1  0  0  0
  4  5  1  0  0  0
  5  6  2  0  0  0
  5 38  1  0  0  0
  6  7  1  0  0  0
  7  8  1  0  0  0
  7 39  1  0  0  0
  7 40  1  0  0  0
  8  9  1  0  0  0
  8 41  1  0  0  0
  9 10  2  0  0  0
  9 11  1  0  0  0
 11 34  1  0  0  0
 11 15  1  0  0  0
 11 12  1  0  0  0
 12 13  1  0  0  0
 12 42  1  0  0  0
 12 43  1  0  0  0
 13 14  1  0  0  0
 14 15  1  0  0  0
 14 44  1  0  0  0
 14 45  1  0  0  0
 15 16  1  0  0  0
 16 17  2  0  0  0
 16 18  1  0  0  0
 18 35  1  0  0  0
 18 19  1  0  0  0
 18 26  1  0  0  0
 19 20  1  0  0  0
 19 46  1  0  0  0
 19 47  1  0  0  0
 20 25  1  0  0  0
 20 21  1  0  0  0
 20 48  1  0  0  0
 21 22  1  0  0  0
 21 49  1  0  0  0
 21 50  1  0  0  0
 22 23  1  0  0  0
 22 51  1  0  0  0
 22 52  1  0  0  0
 23 24  1  0  0  0
 23 53  1  0  0  0
 23 54  1  0  0  0
 24 25  1  0  0  0
 24 55  1  0  0  0
 24 56  1  0  0  0
 25 57  1  0  0  0
 25 58  1  0  0  0
 26 27  1  0  0  0
 26 59  1  0  0  0
 27 28  1  0  0  0
 27 60  1  0  0  0
 27 61  1  0  0  0
 28 29  2  0  0  0
 28 30  1  0  0  0
 30 62  1  0  0  0
 31 32  2  3  0  0
 31 33  1  0  0  0
 32 63  1  0  0  0
 33 64  1  0  0  0
 33 65  1  0  0  0
M  END
> <s_m_entry_id>
37680

> <s_m_entry_name>
ligand_docking-pose.27

> <s_m_Source_Path>
/home/csk/Desktop/cluster/DUD-E-result/thrb

> <s_m_Source_File>
ligand_docking-pose.sdf

> <i_m_Source_File_Index>
27

> <i_lp_mmshare_version>
53161

> <i_f3d_flags>
0

> <r_lp_tautomer_probability>
1

> <s_lp_Force_Field>
OPLS_2005

> <r_lp_Energy>
23.635545

> <b_lp_Chiralities_Consistent>
1

> <s_lp_Variant>
346926-1

> <s_i_glide_gridfile>
glide-grid_1ype

> <i_i_glide_lignum>
2023

> <i_i_glide_rotatable_bonds>
13

> <r_i_docking_score>
-8.75519866509696

> <r_i_glide_ligand_efficiency>
-0.265309050457484

> <r_i_glide_ligand_efficiency_sa>
-0.850987886409145

> <r_i_glide_ligand_efficiency_ln>
-1.94711085112499

> <r_i_glide_gscore>
-8.75519866509696

> <r_i_glide_lipo>
-2.91278733224278

> <r_i_glide_hbond>
-1.31174299784993

> <r_i_glide_metal>
0

> <r_i_glide_rewards>
-1.06418796984083

> <r_i_glide_evdw>
-42.6690635681152

> <r_i_glide_ecoul>
-14.2698802947998

> <r_i_glide_erotb>
0.94910661391592

> <r_i_glide_esite>
-0.141651756453603

> <r_i_glide_emodel>
-81.5949239848827

> <r_i_glide_energy>
-56.938943862915

> <r_i_glide_einternal>
15.0013113021851

> <i_i_glide_confnum>
231

> <i_i_glide_posenum>
292

> <r_i_glide_eff_state_penalty>
0

> <s_user_duplicate_titles>
346926

> <s_m_subgroup_title>
dock_pv

> <s_m_subgroupid>
dock_pv1

> <b_m_subgroup_collapsed>
0

$$$$
167136
                    3D
 Schrodinger Suite 2021-1.
 54 57  0  0  1  0            999 V2000
   13.0384  -15.2372   19.4403 C   0  0  0  0  0  0
   12.2438  -14.9381   20.5381 C   0  0  0  0  0  0
   12.2468  -13.6523   21.0719 C   0  0  0  0  0  0
   13.0490  -12.6388   20.5288 C   0  0  0  0  0  0
   13.8743  -12.9534   19.4150 C   0  0  0  0  0  0
   13.8478  -14.2512   18.8852 C   0  0  0  0  0  0
   14.7883  -11.9466   18.7205 C   0  0  0  0  0  0
   15.9683  -11.6839   19.5336 N   0  0  0  0  0  0
   17.2502  -11.6744   19.1660 C   0  0  0  0  0  0
   17.6439  -11.8533   18.0136 O   0  0  0  0  0  0
   18.2447  -11.3693   20.2978 C   0  0  0  0  0  0
   18.6886  -12.6291   20.9333 N   0  0  0  0  0  0
   19.8940  -13.2529   20.6166 C   0  0  0  0  0  0
   20.2939  -14.3823   21.2506 C   0  0  0  0  0  0
   19.5357  -14.9797   22.2219 N   0  0  0  0  0  0
   18.4084  -14.4293   22.5387 C   0  0  0  0  0  0
   17.8680  -13.1710   21.9212 C   0  0  0  0  0  0
   16.7944  -12.6573   22.2687 O   0  0  0  0  0  0
   17.6158  -15.0293   23.5174 N   0  0  0  0  0  0
   18.0107  -16.1679   24.3598 C   0  0  0  0  0  0
   18.5949  -15.7852   25.7422 C   0  0  0  0  0  0
   19.9330  -15.0365   25.6586 C   0  0  0  0  0  0
   20.0586  -13.6914   26.0311 C   0  0  0  0  0  0
   21.3116  -13.0811   25.9555 C   0  0  0  0  0  0
   22.4057  -13.8163   25.4955 C   0  0  0  0  0  0
   22.2031  -15.1461   25.1225 C   0  0  0  0  0  0
   20.9953  -15.7583   25.1970 N   0  0  0  0  0  0
   17.6990  -15.0541   26.4077 F   0  0  0  0  0  0
   18.7858  -16.8850   26.4736 F   0  0  0  0  0  0
   20.9026  -12.5251   19.3515 Cl  0  0  0  0  0  0
   12.9765  -11.3566   21.1519 N   0  0  0  0  0  0
   11.9285  -10.7718   21.8228 C   0  0  0  0  0  0
   12.2581   -9.5998   22.2971 N   0  0  0  0  0  0
   13.5172   -9.5037   21.9210 C   0  0  0  0  0  0
   14.0160  -10.5152   21.2491 N   0  0  0  0  0  0
   13.0296  -16.2332   19.0192 H   0  0  0  0  0  0
   11.6125  -15.6969   20.9778 H   0  0  0  0  0  0
   11.6126  -13.4536   21.9215 H   0  0  0  0  0  0
   14.4597  -14.5048   18.0322 H   0  0  0  0  0  0
   15.0647  -12.2948   17.7216 H   0  0  0  0  0  0
   14.2324  -11.0258   18.5539 H   0  0  0  0  0  0
   15.7688  -11.4770   20.5033 H   0  0  0  0  0  0
   19.0722  -10.7703   19.9252 H   0  0  0  0  0  0
   17.7577  -10.7208   21.0298 H   0  0  0  0  0  0
   21.2350  -14.8535   20.9975 H   0  0  0  0  0  0
   16.6904  -14.6498   23.7096 H   0  0  0  0  0  0
   17.1125  -16.7628   24.5363 H   0  0  0  0  0  0
   18.7043  -16.8281   23.8369 H   0  0  0  0  0  0
   19.2140  -13.1190   26.3819 H   0  0  0  0  0  0
   21.4292  -12.0496   26.2537 H   0  0  0  0  0  0
   23.3856  -13.3679   25.4317 H   0  0  0  0  0  0
   23.0219  -15.7496   24.7617 H   0  0  0  0  0  0
   10.9698  -11.2631   21.9202 H   0  0  0  0  0  0
   14.1222   -8.6464   22.1792 H   0  0  0  0  0  0
  1  6  1  0  0  0
  1  2  2  0  0  0
  1 36  1  0  0  0
  2  3  1  0  0  0
  2 37  1  0  0  0
  3  4  2  0  0  0
  3 38  1  0  0  0
  4  5  1  0  0  0
  4 31  1  0  0  0
  5  6  2  0  0  0
  5  7  1  0  0  0
  6 39  1  0  0  0
  7  8  1  0  0  0
  7 40  1  0  0  0
  7 41  1  0  0  0
  8  9  1  0  0  0
  8 42  1  0  0  0
  9 10  2  0  0  0
  9 11  1  0  0  0
 11 12  1  0  0  0
 11 43  1  0  0  0
 11 44  1  0  0  0
 12 17  1  0  0  0
 12 13  1  0  0  0
 13 14  2  0  0  0
 13 30  1  0  0  0
 14 15  1  0  0  0
 14 45  1  0  0  0
 15 16  2  0  0  0
 16 17  1  0  0  0
 16 19  1  0  0  0
 17 18  2  0  0  0
 19 20  1  0  0  0
 19 46  1  0  0  0
 20 21  1  0  0  0
 20 47  1  0  0  0
 20 48  1  0  0  0
 21 22  1  0  0  0
 21 28  1  0  0  0
 21 29  1  0  0  0
 22 27  1  0  0  0
 22 23  2  0  0  0
 23 24  1  0  0  0
 23 49  1  0  0  0
 24 25  2  0  0  0
 24 50  1  0  0  0
 25 26  1  0  0  0
 25 51  1  0  0  0
 26 27  2  0  0  0
 26 52  1  0  0  0
 31 35  1  0  0  0
 31 32  1  0  0  0
 32 33  2  0  0  0
 32 53  1  0  0  0
 33 34  1  0  0  0
 34 35  2  0  0  0
 34 54  1  0  0  0
M  END
> <s_m_entry_id>
37681

> <s_m_entry_name>
ligand_docking-pose.28

> <s_m_Source_Path>
/home/csk/Desktop/cluster/DUD-E-result/thrb

> <s_m_Source_File>
ligand_docking-pose.sdf

> <i_m_Source_File_Index>
28

> <i_lp_mmshare_version>
53161

> <i_f3d_flags>
0

> <r_lp_tautomer_probability>
1

> <s_lp_Force_Field>
OPLS_2005

> <r_lp_Energy>
30.921703

> <b_lp_Chiralities_Consistent>
1

> <s_lp_Variant>
167136-1

> <s_i_glide_gridfile>
glide-grid_1ype

> <i_i_glide_lignum>
1364

> <i_i_glide_rotatable_bonds>
10

> <r_i_docking_score>
-8.71762059629297

> <r_i_glide_ligand_efficiency>
-0.249074874179799

> <r_i_glide_ligand_efficiency_sa>
-0.814740428678441

> <r_i_glide_ligand_efficiency_ln>
-1.91371119805117

> <r_i_glide_gscore>
-8.71762059629297

> <r_i_glide_lipo>
-3.30616248257669

> <r_i_glide_hbond>
-0.371050466168449

> <r_i_glide_metal>
0

> <r_i_glide_rewards>
-1.86966002389025

> <r_i_glide_evdw>
-54.4857940673828

> <r_i_glide_ecoul>
-7.73131656646729

> <r_i_glide_erotb>
0.732612242245949

> <r_i_glide_esite>
-0.0193726775642939

> <r_i_glide_emodel>
-92.3681573626653

> <r_i_glide_energy>
-62.2171106338501

> <r_i_glide_einternal>
5.30467987060547

> <i_i_glide_confnum>
11

> <i_i_glide_posenum>
263

> <r_i_glide_eff_state_penalty>
0

> <s_user_duplicate_titles>
167136

> <s_m_subgroup_title>
dock_pv

> <s_m_subgroupid>
dock_pv1

> <b_m_subgroup_collapsed>
0

$$$$
346903
                    3D
 Schrodinger Suite 2021-1.
 65 67  0  0  1  0            999 V2000
   13.2278  -13.2383   20.5193 C   0  0  0  0  0  0
   12.3494  -12.8121   21.5209 C   0  0  0  0  0  0
   12.3971  -11.4773   21.9742 C   0  0  0  0  0  0
   13.2149  -10.5764   21.3581 N   0  0  0  0  0  0
   14.0285  -10.9992   20.3681 C   0  0  0  0  0  0
   14.1235  -12.3246   19.9584 C   0  0  0  0  0  0
   15.1575  -12.7329   18.9115 C   0  0  0  0  0  0
   16.5187  -12.8779   19.4468 N   0  0  0  0  0  0
   17.2857  -11.8820   19.9412 C   0  0  0  0  0  0
   16.9501  -10.7022   19.9168 O   0  0  0  0  0  0
   18.6413  -12.2269   20.5955 C   0  0  2  0  0  0
   19.7519  -12.2768   19.5670 C   0  0  0  0  0  0
   20.3854  -13.4532   19.6311 C   0  0  0  0  0  0
   19.7784  -14.3155   20.7132 C   0  0  0  0  0  0
   18.6972  -13.5236   21.2874 N   0  0  0  0  0  0
   17.8936  -13.8825   22.3259 C   0  0  0  0  0  0
   16.9632  -13.1726   22.7206 O   0  0  0  0  0  0
   18.1218  -15.2436   23.0531 C   0  0  1  0  0  0
   18.6598  -15.0374   24.4992 C   0  0  0  0  0  0
   19.9824  -14.2366   24.6536 C   0  0  0  0  0  0
   20.2098  -13.8086   26.1180 C   0  0  0  0  0  0
   21.4326  -12.8759   26.2407 C   0  0  0  0  0  0
   22.7082  -13.4879   25.6066 C   0  0  0  0  0  0
   22.4685  -14.1145   24.2132 C   0  0  0  0  0  0
   21.2295  -15.0338   24.2115 C   0  0  0  0  0  0
   16.8161  -15.9444   23.1212 N   0  0  2  0  0  0
   16.3552  -16.5028   21.8443 C   0  0  0  0  0  0
   15.0781  -17.3297   22.0414 C   0  0  0  0  0  0
   14.9303  -18.4457   21.5483 O   0  0  0  0  0  0
   14.1069  -16.6529   22.7210 O   0  0  0  0  0  0
   11.6048  -10.9352   23.1210 C   0  0  0  0  0  0
   11.6526   -9.7257   23.4731 N   0  0  0  0  0  0
   10.8155  -11.8529   23.7587 N   0  0  0  0  0  0
   18.8157  -11.4294   21.3230 H   0  0  0  0  0  0
   18.8379  -15.8552   22.5050 H   0  0  0  0  0  0
   13.2198  -14.2700   20.2018 H   0  0  0  0  0  0
   11.6592  -13.5324   21.9262 H   0  0  0  0  0  0
   14.6520  -10.2487   19.9210 H   0  0  0  0  0  0
   15.1571  -12.0024   18.0980 H   0  0  0  0  0  0
   14.8593  -13.6831   18.4639 H   0  0  0  0  0  0
   16.8578  -13.8198   19.5594 H   0  0  0  0  0  0
   19.9822  -11.4539   18.9076 H   0  0  0  0  0  0
   21.2172  -13.7783   19.0238 H   0  0  0  0  0  0
   20.5290  -14.5697   21.4574 H   0  0  0  0  0  0
   19.4082  -15.2637   20.3202 H   0  0  0  0  0  0
   18.7835  -16.0165   24.9665 H   0  0  0  0  0  0
   17.8793  -14.5448   25.0859 H   0  0  0  0  0  0
   19.9167  -13.3261   24.0537 H   0  0  0  0  0  0
   20.3039  -14.6860   26.7569 H   0  0  0  0  0  0
   19.3258  -13.2914   26.4906 H   0  0  0  0  0  0
   21.6159  -12.6442   27.2901 H   0  0  0  0  0  0
   21.1971  -11.9204   25.7709 H   0  0  0  0  0  0
   23.1025  -14.2529   26.2775 H   0  0  0  0  0  0
   23.4875  -12.7267   25.5217 H   0  0  0  0  0  0
   23.3504  -14.6732   23.9002 H   0  0  0  0  0  0
   22.3330  -13.3208   23.4763 H   0  0  0  0  0  0
   21.0926  -15.4568   23.2199 H   0  0  0  0  0  0
   21.3698  -15.9126   24.8461 H   0  0  0  0  0  0
   16.1582  -15.2647   23.5020 H   0  0  0  0  0  0
   16.1494  -15.7127   21.1216 H   0  0  0  0  0  0
   17.1226  -17.1476   21.4159 H   0  0  0  0  0  0
   14.4149  -15.7970   23.0423 H   0  0  0  0  0  0
   11.0344   -9.5566   24.2523 H   0  0  0  0  0  0
   10.1240  -11.5399   24.4335 H   0  0  0  0  0  0
   10.8162  -12.8394   23.5206 H   0  0  0  0  0  0
  1  6  1  0  0  0
  1  2  2  0  0  0
  1 36  1  0  0  0
  2  3  1  0  0  0
  2 37  1  0  0  0
  3  4  2  0  0  0
  3 31  1  0  0  0
  4  5  1  0  0  0
  5  6  2  0  0  0
  5 38  1  0  0  0
  6  7  1  0  0  0
  7  8  1  0  0  0
  7 39  1  0  0  0
  7 40  1  0  0  0
  8  9  1  0  0  0
  8 41  1  0  0  0
  9 10  2  0  0  0
  9 11  1  0  0  0
 11 34  1  0  0  0
 11 15  1  0  0  0
 11 12  1  0  0  0
 12 13  2  0  0  0
 12 42  1  0  0  0
 13 14  1  0  0  0
 13 43  1  0  0  0
 14 15  1  0  0  0
 14 44  1  0  0  0
 14 45  1  0  0  0
 15 16  1  0  0  0
 16 17  2  0  0  0
 16 18  1  0  0  0
 18 35  1  0  0  0
 18 19  1  0  0  0
 18 26  1  0  0  0
 19 20  1  0  0  0
 19 46  1  0  0  0
 19 47  1  0  0  0
 20 25  1  0  0  0
 20 21  1  0  0  0
 20 48  1  0  0  0
 21 22  1  0  0  0
 21 49  1  0  0  0
 21 50  1  0  0  0
 22 23  1  0  0  0
 22 51  1  0  0  0
 22 52  1  0  0  0
 23 24  1  0  0  0
 23 53  1  0  0  0
 23 54  1  0  0  0
 24 25  1  0  0  0
 24 55  1  0  0  0
 24 56  1  0  0  0
 25 57  1  0  0  0
 25 58  1  0  0  0
 26 27  1  0  0  0
 26 59  1  0  0  0
 27 28  1  0  0  0
 27 60  1  0  0  0
 27 61  1  0  0  0
 28 29  2  0  0  0
 28 30  1  0  0  0
 30 62  1  0  0  0
 31 32  2  3  0  0
 31 33  1  0  0  0
 32 63  1  0  0  0
 33 64  1  0  0  0
 33 65  1  0  0  0
M  END
> <s_m_entry_id>
37682

> <s_m_entry_name>
ligand_docking-pose.29

> <s_m_Source_Path>
/home/csk/Desktop/cluster/DUD-E-result/thrb

> <s_m_Source_File>
ligand_docking-pose.sdf

> <i_m_Source_File_Index>
29

> <i_lp_mmshare_version>
53161

> <i_f3d_flags>
0

> <r_lp_tautomer_probability>
1

> <s_lp_Force_Field>
OPLS_2005

> <r_lp_Energy>
28.226651

> <b_lp_Chiralities_Consistent>
1

> <s_lp_Variant>
346903-1

> <s_i_glide_gridfile>
glide-grid_1ype

> <i_i_glide_lignum>
2013

> <i_i_glide_rotatable_bonds>
13

> <r_i_docking_score>
-8.71138112952441

> <r_i_glide_ligand_efficiency>
-0.263981246349225

> <r_i_glide_ligand_efficiency_sa>
-0.846728909153359

> <r_i_glide_ligand_efficiency_ln>
-1.93736605808871

> <r_i_glide_gscore>
-8.71138112952441

> <r_i_glide_lipo>
-3.25135654723428

> <r_i_glide_hbond>
-0.834373762581201

> <r_i_glide_metal>
0

> <r_i_glide_rewards>
-0.985657325426628

> <r_i_glide_evdw>
-45.7485580444336

> <r_i_glide_ecoul>
-14.7113428115845

> <r_i_glide_erotb>
0.96426047203715

> <r_i_glide_esite>
-0.110124642360101

> <r_i_glide_emodel>
-85.8421551381103

> <r_i_glide_energy>
-60.4599008560181

> <r_i_glide_einternal>
16.2875537872314

> <i_i_glide_confnum>
153

> <i_i_glide_posenum>
135

> <r_i_glide_eff_state_penalty>
0

> <s_user_duplicate_titles>
346903

> <s_m_subgroup_title>
dock_pv

> <s_m_subgroupid>
dock_pv1

> <b_m_subgroup_collapsed>
0

$$$$
167349
                    3D
 Schrodinger Suite 2021-1.
 55 58  0  0  1  0            999 V2000
   13.2849  -15.4728   18.7488 C   0  0  0  0  0  0
   12.4308  -15.4209   19.8418 C   0  0  0  0  0  0
   12.3031  -14.2389   20.5650 C   0  0  0  0  0  0
   13.0084  -13.0751   20.2144 C   0  0  0  0  0  0
   13.8965  -13.1474   19.1092 C   0  0  0  0  0  0
   14.0170  -14.3456   18.3916 C   0  0  0  0  0  0
   14.7330  -11.9680   18.6210 C   0  0  0  0  0  0
   15.8143  -11.6574   19.5516 N   0  0  0  0  0  0
   17.1246  -11.6326   19.2697 C   0  0  0  0  0  0
   17.5954  -11.8491   18.1525 O   0  0  0  0  0  0
   18.0542  -11.2913   20.4423 C   0  0  0  0  0  0
   18.5736  -12.5363   21.0494 N   0  0  0  0  0  0
   19.8254  -13.0687   20.7467 C   0  0  0  0  0  0
   20.2849  -14.1847   21.3697 C   0  0  0  0  0  0
   19.5543  -14.8417   22.3202 N   0  0  0  0  0  0
   18.3864  -14.3720   22.6184 C   0  0  0  0  0  0
   17.7666  -13.1523   22.0006 C   0  0  0  0  0  0
   16.6454  -12.7297   22.3211 O   0  0  0  0  0  0
   17.6161  -15.0198   23.5805 N   0  0  0  0  0  0
   18.0437  -16.1581   24.4071 C   0  0  0  0  0  0
   18.6190  -15.7789   25.7948 C   0  0  0  0  0  0
   19.9523  -15.0218   25.7150 C   0  0  0  0  0  0
   20.0671  -13.6804   26.1055 C   0  0  0  0  0  0
   21.3084  -13.0535   26.0129 C   0  0  0  0  0  0
   22.4074  -13.7676   25.5312 C   0  0  0  0  0  0
   22.2171  -15.0967   25.1493 C   0  0  0  0  0  0
   21.0164  -15.7251   25.2324 N   0  0  0  0  0  0
   17.7206  -15.0539   26.4654 F   0  0  0  0  0  0
   18.8185  -16.8834   26.5190 F   0  0  0  0  0  0
   20.8112  -12.2419   19.5251 Cl  0  0  0  0  0  0
   12.7310  -11.8567   21.0741 C   0  0  0  0  0  0
   12.0683  -11.8195   22.3207 C   0  0  0  0  0  0
   12.0162  -10.4972   22.7099 C   0  0  0  0  0  0
   12.6391   -9.8262   21.6989 N   0  0  0  0  0  0
   13.0674  -10.6291   20.7200 N   0  0  0  0  0  0
   12.7695   -8.8261   21.6653 H   0  0  0  0  0  0
   13.3818  -16.3850   18.1776 H   0  0  0  0  0  0
   11.8556  -16.2931   20.1223 H   0  0  0  0  0  0
   11.6154  -14.2470   21.3982 H   0  0  0  0  0  0
   14.6813  -14.4117   17.5413 H   0  0  0  0  0  0
   15.1173  -12.1756   17.6196 H   0  0  0  0  0  0
   14.1044  -11.0913   18.4713 H   0  0  0  0  0  0
   15.5290  -11.4813   20.5057 H   0  0  0  0  0  0
   18.8539  -10.6355   20.1082 H   0  0  0  0  0  0
   17.5073  -10.6974   21.1757 H   0  0  0  0  0  0
   21.2575  -14.5916   21.1268 H   0  0  0  0  0  0
   16.6838  -14.6578   23.7787 H   0  0  0  0  0  0
   17.1635  -16.7794   24.5746 H   0  0  0  0  0  0
   18.7537  -16.7885   23.8699 H   0  0  0  0  0  0
   19.2164  -13.1287   26.4753 H   0  0  0  0  0  0
   21.4175  -12.0226   26.3182 H   0  0  0  0  0  0
   23.3803  -13.3049   25.4608 H   0  0  0  0  0  0
   23.0413  -15.6862   24.7752 H   0  0  0  0  0  0
   11.6592  -12.6527   22.8754 H   0  0  0  0  0  0
   11.6017   -9.9955   23.5731 H   0  0  0  0  0  0
  1  6  1  0  0  0
  1  2  2  0  0  0
  1 37  1  0  0  0
  2  3  1  0  0  0
  2 38  1  0  0  0
  3  4  2  0  0  0
  3 39  1  0  0  0
  4  5  1  0  0  0
  4 31  1  0  0  0
  5  6  2  0  0  0
  5  7  1  0  0  0
  6 40  1  0  0  0
  7  8  1  0  0  0
  7 41  1  0  0  0
  7 42  1  0  0  0
  8  9  1  0  0  0
  8 43  1  0  0  0
  9 10  2  0  0  0
  9 11  1  0  0  0
 11 12  1  0  0  0
 11 44  1  0  0  0
 11 45  1  0  0  0
 12 17  1  0  0  0
 12 13  1  0  0  0
 13 14  2  0  0  0
 13 30  1  0  0  0
 14 15  1  0  0  0
 14 46  1  0  0  0
 15 16  2  0  0  0
 16 17  1  0  0  0
 16 19  1  0  0  0
 17 18  2  0  0  0
 19 20  1  0  0  0
 19 47  1  0  0  0
 20 21  1  0  0  0
 20 48  1  0  0  0
 20 49  1  0  0  0
 21 22  1  0  0  0
 21 28  1  0  0  0
 21 29  1  0  0  0
 22 27  1  0  0  0
 22 23  2  0  0  0
 23 24  1  0  0  0
 23 50  1  0  0  0
 24 25  2  0  0  0
 24 51  1  0  0  0
 25 26  1  0  0  0
 25 52  1  0  0  0
 26 27  2  0  0  0
 26 53  1  0  0  0
 31 35  2  0  0  0
 31 32  1  0  0  0
 32 33  2  0  0  0
 32 54  1  0  0  0
 33 34  1  0  0  0
 33 55  1  0  0  0
 34 36  1  0  0  0
 34 35  1  0  0  0
M  END
> <s_m_entry_id>
37683

> <s_m_entry_name>
ligand_docking-pose.30

> <s_m_Source_Path>
/home/csk/Desktop/cluster/DUD-E-result/thrb

> <s_m_Source_File>
ligand_docking-pose.sdf

> <i_m_Source_File_Index>
30

> <i_lp_mmshare_version>
53161

> <i_f3d_flags>
0

> <r_lp_tautomer_probability>
0.5

> <s_lp_Force_Field>
OPLS_2005

> <r_lp_Energy>
27.162074

> <b_lp_Chiralities_Consistent>
1

> <s_lp_Variant>
167349-1

> <s_i_glide_gridfile>
glide-grid_1ype

> <i_i_glide_lignum>
1353

> <i_i_glide_rotatable_bonds>
10

> <r_i_docking_score>
-8.70715933182875

> <r_i_glide_ligand_efficiency>
-0.248775980909393

> <r_i_glide_ligand_efficiency_sa>
-0.813762728972431

> <r_i_glide_ligand_efficiency_ln>
-1.91141471832602

> <r_i_glide_gscore>
-8.70715933182875

> <r_i_glide_lipo>
-4.10633010758257

> <r_i_glide_hbond>
-0.465701425489967

> <r_i_glide_metal>
0

> <r_i_glide_rewards>
-0.910522691706529

> <r_i_glide_evdw>
-54.4070167541504

> <r_i_glide_ecoul>
-8.13313293457031

> <r_i_glide_erotb>
0.735269288507411

> <r_i_glide_esite>
-0.0195536176640284

> <r_i_glide_emodel>
-92.6794889257623

> <r_i_glide_energy>
-62.5401496887207

> <r_i_glide_einternal>
5.32687282562256

> <i_i_glide_confnum>
24

> <i_i_glide_posenum>
227

> <r_i_glide_eff_state_penalty>
0

> <s_user_duplicate_titles>
167349

> <s_m_subgroup_title>
dock_pv

> <s_m_subgroupid>
dock_pv1

> <b_m_subgroup_collapsed>
0

$$$$
167609
                    3D
 Schrodinger Suite 2021-1.
 53 56  0  0  1  0            999 V2000
   13.1760  -15.3682   19.0927 C   0  0  0  0  0  0
   12.2830  -15.1588   20.1365 C   0  0  0  0  0  0
   12.1758  -13.8986   20.7185 C   0  0  0  0  0  0
   12.9552  -12.8229   20.2704 C   0  0  0  0  0  0
   13.8700  -13.0389   19.2089 C   0  0  0  0  0  0
   13.9669  -14.3159   18.6375 C   0  0  0  0  0  0
   14.7897  -11.9528   18.6552 C   0  0  0  0  0  0
   15.8320  -11.6076   19.6175 N   0  0  0  0  0  0
   17.1496  -11.6093   19.3838 C   0  0  0  0  0  0
   17.6486  -11.8506   18.2854 O   0  0  0  0  0  0
   18.0410  -11.2911   20.5914 C   0  0  0  0  0  0
   18.5703  -12.5561   21.1531 N   0  0  0  0  0  0
   19.8379  -13.0522   20.8596 C   0  0  0  0  0  0
   20.3062  -14.1809   21.4504 C   0  0  0  0  0  0
   19.5716  -14.8867   22.3620 N   0  0  0  0  0  0
   18.3834  -14.4579   22.6432 C   0  0  0  0  0  0
   17.7452  -13.2408   22.0405 C   0  0  0  0  0  0
   16.5942  -12.8754   22.3209 O   0  0  0  0  0  0
   17.6164  -15.1408   23.5825 N   0  0  0  0  0  0
   18.0777  -16.2432   24.4371 C   0  0  0  0  0  0
   18.6322  -15.8041   25.8156 C   0  0  0  0  0  0
   19.9629  -15.0436   25.7260 C   0  0  0  0  0  0
   20.0721  -13.6959   26.0950 C   0  0  0  0  0  0
   21.3120  -13.0653   25.9958 C   0  0  0  0  0  0
   22.4120  -13.7836   25.5226 C   0  0  0  0  0  0
   22.2287  -15.1204   25.1636 C   0  0  0  0  0  0
   21.0303  -15.7515   25.2581 N   0  0  0  0  0  0
   17.7222  -15.0542   26.4440 F   0  0  0  0  0  0
   18.8281  -16.8758   26.5892 F   0  0  0  0  0  0
   20.8311  -12.1614   19.6943 Cl  0  0  0  0  0  0
   12.7953  -11.5820   20.9446 N   0  0  0  0  0  0
   12.5227  -11.3564   22.2777 C   0  0  0  0  0  0
   12.4016  -10.0782   22.5295 N   0  0  0  0  0  0
   12.5852   -9.4529   21.3034 N   0  0  0  0  0  0
   12.8161  -10.3947   20.3206 N   0  0  0  0  0  0
   13.2563  -16.3436   18.6333 H   0  0  0  0  0  0
   11.6660  -15.9706   20.4931 H   0  0  0  0  0  0
   11.4651  -13.7666   21.5211 H   0  0  0  0  0  0
   14.6599  -14.5056   17.8301 H   0  0  0  0  0  0
   15.2202  -12.2842   17.7052 H   0  0  0  0  0  0
   14.2226  -11.0654   18.3815 H   0  0  0  0  0  0
   15.5160  -11.3739   20.5466 H   0  0  0  0  0  0
   18.8269  -10.5910   20.3146 H   0  0  0  0  0  0
   17.4573  -10.7523   21.3400 H   0  0  0  0  0  0
   21.2947  -14.5537   21.2154 H   0  0  0  0  0  0
   16.6808  -14.7915   23.7831 H   0  0  0  0  0  0
   17.2197  -16.8907   24.6163 H   0  0  0  0  0  0
   18.8115  -16.8622   23.9176 H   0  0  0  0  0  0
   19.2177  -13.1435   26.4542 H   0  0  0  0  0  0
   21.4172  -12.0305   26.2917 H   0  0  0  0  0  0
   23.3830  -13.3178   25.4409 H   0  0  0  0  0  0
   23.0544  -15.7132   24.7979 H   0  0  0  0  0  0
   12.4325  -12.1739   22.9789 H   0  0  0  0  0  0
  1  6  1  0  0  0
  1  2  2  0  0  0
  1 36  1  0  0  0
  2  3  1  0  0  0
  2 37  1  0  0  0
  3  4  2  0  0  0
  3 38  1  0  0  0
  4  5  1  0  0  0
  4 31  1  0  0  0
  5  6  2  0  0  0
  5  7  1  0  0  0
  6 39  1  0  0  0
  7  8  1  0  0  0
  7 40  1  0  0  0
  7 41  1  0  0  0
  8  9  1  0  0  0
  8 42  1  0  0  0
  9 10  2  0  0  0
  9 11  1  0  0  0
 11 12  1  0  0  0
 11 43  1  0  0  0
 11 44  1  0  0  0
 12 17  1  0  0  0
 12 13  1  0  0  0
 13 14  2  0  0  0
 13 30  1  0  0  0
 14 15  1  0  0  0
 14 45  1  0  0  0
 15 16  2  0  0  0
 16 17  1  0  0  0
 16 19  1  0  0  0
 17 18  2  0  0  0
 19 20  1  0  0  0
 19 46  1  0  0  0
 20 21  1  0  0  0
 20 47  1  0  0  0
 20 48  1  0  0  0
 21 22  1  0  0  0
 21 28  1  0  0  0
 21 29  1  0  0  0
 22 27  1  0  0  0
 22 23  2  0  0  0
 23 24  1  0  0  0
 23 49  1  0  0  0
 24 25  2  0  0  0
 24 50  1  0  0  0
 25 26  1  0  0  0
 25 51  1  0  0  0
 26 27  2  0  0  0
 26 52  1  0  0  0
 31 35  1  0  0  0
 31 32  1  0  0  0
 32 33  2  0  0  0
 32 53  1  0  0  0
 33 34  1  0  0  0
 34 35  2  0  0  0
M  END
> <s_m_entry_id>
37684

> <s_m_entry_name>
ligand_docking-pose.31

> <s_m_Source_Path>
/home/csk/Desktop/cluster/DUD-E-result/thrb

> <s_m_Source_File>
ligand_docking-pose.sdf

> <i_m_Source_File_Index>
31

> <i_lp_mmshare_version>
53161

> <i_f3d_flags>
0

> <r_lp_tautomer_probability>
1

> <s_lp_Force_Field>
OPLS_2005

> <r_lp_Energy>
33.274271

> <b_lp_Chiralities_Consistent>
1

> <s_lp_Variant>
167609-1

> <s_i_glide_gridfile>
glide-grid_1ype

> <i_i_glide_lignum>
1366

> <i_i_glide_rotatable_bonds>
10

> <r_i_docking_score>
-8.69842820144258

> <r_i_glide_ligand_efficiency>
-0.248526520041217

> <r_i_glide_ligand_efficiency_sa>
-0.812946725931797

> <r_i_glide_ligand_efficiency_ln>
-1.90949804142925

> <r_i_glide_gscore>
-8.69842820144258

> <r_i_glide_lipo>
-3.42975058040235

> <r_i_glide_hbond>
-0.465104106799416

> <r_i_glide_metal>
0

> <r_i_glide_rewards>
-1.56176188652511

> <r_i_glide_evdw>
-55.2810325622559

> <r_i_glide_ecoul>
-7.92309236526489

> <r_i_glide_erotb>
0.729969611939356

> <r_i_glide_esite>
-0.0192657567525378

> <r_i_glide_emodel>
-93.6240207467019

> <r_i_glide_energy>
-63.2041249275208

> <r_i_glide_einternal>
5.81382656097412

> <i_i_glide_confnum>
14

> <i_i_glide_posenum>
370

> <r_i_glide_eff_state_penalty>
0

> <s_user_duplicate_titles>
167609

> <s_m_subgroup_title>
dock_pv

> <s_m_subgroupid>
dock_pv1

> <b_m_subgroup_collapsed>
0

$$$$
347331
                    3D
 Schrodinger Suite 2021-1.
 63 65  0  0  1  0            999 V2000
   12.5602  -12.8017   20.7505 C   0  0  0  0  0  0
   11.8414  -12.2256   21.7956 C   0  0  0  0  0  0
   12.4456  -11.0130   22.1143 C   0  0  0  0  0  0
   13.5286  -10.8604   21.2948 O   0  0  0  0  0  0
   13.6041  -11.9379   20.4679 C   0  0  0  0  0  0
   14.7409  -11.9634   19.4720 C   0  0  0  0  0  0
   16.0169  -12.1269   20.1619 N   0  0  0  0  0  0
   17.2300  -11.8571   19.6526 C   0  0  0  0  0  0
   17.3773  -11.4530   18.4953 O   0  0  0  0  0  0
   18.4514  -12.0503   20.5995 C   0  0  2  0  0  0
   19.7883  -11.9551   19.8827 C   0  0  0  0  0  0
   20.4076  -13.1402   19.8686 C   0  0  0  0  0  0
   19.5888  -14.1512   20.6218 C   0  0  0  0  0  0
   18.5198  -13.3736   21.2421 N   0  0  0  0  0  0
   17.7671  -13.7533   22.3080 C   0  0  0  0  0  0
   16.8287  -13.0622   22.7209 O   0  0  0  0  0  0
   18.0715  -15.1004   23.0412 C   0  0  1  0  0  0
   18.5953  -14.8732   24.4877 C   0  0  0  0  0  0
   19.9243  -14.0926   24.6445 C   0  0  0  0  0  0
   20.1799  -13.7355   26.1250 C   0  0  0  0  0  0
   21.4237  -12.8372   26.2777 C   0  0  0  0  0  0
   22.6785  -13.4485   25.5994 C   0  0  0  0  0  0
   22.4090  -13.9942   24.1800 C   0  0  0  0  0  0
   21.1542  -14.8857   24.1507 C   0  0  0  0  0  0
   16.8159  -15.8764   23.1199 N   0  0  2  0  0  0
   16.3573  -16.4353   21.8412 C   0  0  0  0  0  0
   15.1149  -17.3110   22.0565 C   0  0  0  0  0  0
   15.0163  -18.4507   21.6047 O   0  0  0  0  0  0
   14.1217  -16.6524   22.7210 O   0  0  0  0  0  0
   12.1708   -9.9816   23.1210 C   0  0  0  0  0  0
   12.8161   -8.9023   23.1076 N   0  0  0  0  0  0
   11.2150  -10.3686   24.0209 N   0  0  0  0  0  0
   18.3571  -11.2690   21.3572 H   0  0  0  0  0  0
   18.8092  -15.6935   22.5044 H   0  0  0  0  0  0
   12.3457  -13.7439   20.2650 H   0  0  0  0  0  0
   10.9631  -12.6397   22.2693 H   0  0  0  0  0  0
   14.7365  -11.0536   18.8726 H   0  0  0  0  0  0
   14.6202  -12.7970   18.7788 H   0  0  0  0  0  0
   15.9779  -12.4240   21.1300 H   0  0  0  0  0  0
   20.1633  -11.0530   19.4423 H   0  0  0  0  0  0
   21.3552  -13.3727   19.4132 H   0  0  0  0  0  0
   20.2100  -14.6754   21.3389 H   0  0  0  0  0  0
   19.1840  -14.9096   19.9522 H   0  0  0  0  0  0
   18.7066  -15.8433   24.9771 H   0  0  0  0  0  0
   17.8158  -14.3584   25.0539 H   0  0  0  0  0  0
   19.8564  -13.1614   24.0787 H   0  0  0  0  0  0
   20.2684  -14.6433   26.7236 H   0  0  0  0  0  0
   19.3114  -13.2198   26.5343 H   0  0  0  0  0  0
   21.6154  -12.6667   27.3371 H   0  0  0  0  0  0
   21.2076  -11.8527   25.8633 H   0  0  0  0  0  0
   23.0585  -14.2575   26.2255 H   0  0  0  0  0  0
   23.4743  -12.7049   25.5435 H   0  0  0  0  0  0
   23.2742  -14.5569   23.8296 H   0  0  0  0  0  0
   22.2823  -13.1623   23.4846 H   0  0  0  0  0  0
   21.0024  -15.2601   23.1435 H   0  0  0  0  0  0
   21.2882  -15.7934   24.7445 H   0  0  0  0  0  0
   16.1250  -15.2906   23.5892 H   0  0  0  0  0  0
   16.1106  -15.6493   21.1267 H   0  0  0  0  0  0
   17.1411  -17.0487   21.3943 H   0  0  0  0  0  0
   14.4118  -15.7790   23.0090 H   0  0  0  0  0  0
   12.5544   -8.3049   23.8769 H   0  0  0  0  0  0
   10.8867   -9.7289   24.7284 H   0  0  0  0  0  0
   10.6472  -11.1852   23.8456 H   0  0  0  0  0  0
  1  5  2  0  0  0
  1  2  1  0  0  0
  1 35  1  0  0  0
  2  3  2  0  0  0
  2 36  1  0  0  0
  3  4  1  0  0  0
  3 30  1  0  0  0
  4  5  1  0  0  0
  5  6  1  0  0  0
  6  7  1  0  0  0
  6 37  1  0  0  0
  6 38  1  0  0  0
  7  8  1  0  0  0
  7 39  1  0  0  0
  8  9  2  0  0  0
  8 10  1  0  0  0
 10 33  1  0  0  0
 10 14  1  0  0  0
 10 11  1  0  0  0
 11 12  2  0  0  0
 11 40  1  0  0  0
 12 13  1  0  0  0
 12 41  1  0  0  0
 13 14  1  0  0  0
 13 42  1  0  0  0
 13 43  1  0  0  0
 14 15  1  0  0  0
 15 16  2  0  0  0
 15 17  1  0  0  0
 17 34  1  0  0  0
 17 18  1  0  0  0
 17 25  1  0  0  0
 18 19  1  0  0  0
 18 44  1  0  0  0
 18 45  1  0  0  0
 19 24  1  0  0  0
 19 20  1  0  0  0
 19 46  1  0  0  0
 20 21  1  0  0  0
 20 47  1  0  0  0
 20 48  1  0  0  0
 21 22  1  0  0  0
 21 49  1  0  0  0
 21 50  1  0  0  0
 22 23  1  0  0  0
 22 51  1  0  0  0
 22 52  1  0  0  0
 23 24  1  0  0  0
 23 53  1  0  0  0
 23 54  1  0  0  0
 24 55  1  0  0  0
 24 56  1  0  0  0
 25 26  1  0  0  0
 25 57  1  0  0  0
 26 27  1  0  0  0
 26 58  1  0  0  0
 26 59  1  0  0  0
 27 28  2  0  0  0
 27 29  1  0  0  0
 29 60  1  0  0  0
 30 31  2  3  0  0
 30 32  1  0  0  0
 31 61  1  0  0  0
 32 62  1  0  0  0
 32 63  1  0  0  0
M  END
> <s_m_entry_id>
37685

> <s_m_entry_name>
ligand_docking-pose.32

> <s_m_Source_Path>
/home/csk/Desktop/cluster/DUD-E-result/thrb

> <s_m_Source_File>
ligand_docking-pose.sdf

> <i_m_Source_File_Index>
32

> <i_lp_mmshare_version>
53161

> <i_f3d_flags>
0

> <r_lp_tautomer_probability>
1

> <s_lp_Force_Field>
OPLS_2005

> <r_lp_Energy>
18.048285

> <b_lp_Chiralities_Consistent>
1

> <s_lp_Variant>
347331-1

> <s_i_glide_gridfile>
glide-grid_1ype

> <i_i_glide_lignum>
2071

> <i_i_glide_rotatable_bonds>
13

> <r_i_docking_score>
-8.69336567630336

> <r_i_glide_ligand_efficiency>
-0.27166767738448

> <r_i_glide_ligand_efficiency_sa>
-0.862491112735373

> <r_i_glide_ligand_efficiency_ln>
-1.94668154712265

> <r_i_glide_gscore>
-8.69336567630336

> <r_i_glide_lipo>
-3.22589843520136

> <r_i_glide_hbond>
-0.54256399550709

> <r_i_glide_metal>
0

> <r_i_glide_rewards>
-1.47014406089347

> <r_i_glide_evdw>
-46.4739303588867

> <r_i_glide_ecoul>
-14.0030183792114

> <r_i_glide_erotb>
1.00809694502426

> <r_i_glide_esite>
-0.0387068548996473

> <r_i_glide_emodel>
-86.5443252128487

> <r_i_glide_energy>
-60.4769487380981

> <r_i_glide_einternal>
12.7603769302368

> <i_i_glide_confnum>
187

> <i_i_glide_posenum>
166

> <r_i_glide_eff_state_penalty>
0

> <s_user_duplicate_titles>
347331

> <s_m_subgroup_title>
dock_pv

> <s_m_subgroupid>
dock_pv1

> <b_m_subgroup_collapsed>
0

$$$$
347329
                    3D
 Schrodinger Suite 2021-1.
 67 69  0  0  1  0            999 V2000
   14.1824   -9.9072   21.0783 C   0  0  0  0  0  0
   13.3738   -9.5107   22.1368 C   0  0  0  0  0  0
   12.4160  -10.4035   22.6462 C   0  0  0  0  0  0
   12.2361  -11.6345   22.0744 N   0  0  0  0  0  0
   13.0222  -12.0025   21.0342 C   0  0  0  0  0  0
   14.0209  -11.1768   20.5147 C   0  0  0  0  0  0
   14.9438  -11.6598   19.4091 C   0  0  0  0  0  0
   16.3374  -11.5844   19.8355 N   0  0  0  0  0  0
   17.2614  -12.5111   19.5644 C   0  0  0  0  0  0
   17.0891  -13.4530   18.7925 O   0  0  0  0  0  0
   18.5874  -12.3790   20.3339 C   0  0  2  0  0  0
   19.8097  -12.4403   19.3955 C   0  0  0  0  0  0
   20.8632  -13.1927   20.1811 C   0  0  0  0  0  0
   20.0427  -14.1903   20.9834 C   0  0  0  0  0  0
   18.7971  -13.4891   21.2909 N   0  0  0  0  0  0
   17.9220  -13.7883   22.2898 C   0  0  0  0  0  0
   16.9519  -13.0735   22.5657 O   0  0  0  0  0  0
   18.1144  -15.1179   23.0917 C   0  0  1  0  0  0
   18.5606  -14.8621   24.5585 C   0  0  0  0  0  0
   19.9718  -14.2562   24.7695 C   0  0  0  0  0  0
   20.1418  -13.7498   26.2190 C   0  0  0  0  0  0
   21.5017  -13.0528   26.4318 C   0  0  0  0  0  0
   22.6975  -13.9163   25.9546 C   0  0  0  0  0  0
   22.4750  -14.5745   24.5752 C   0  0  0  0  0  0
   21.1050  -15.2759   24.5079 C   0  0  0  0  0  0
   16.8164  -15.8422   23.1210 N   0  0  2  0  0  0
   16.3532  -16.3840   21.8385 C   0  0  0  0  0  0
   15.1353  -17.2900   22.0623 C   0  0  0  0  0  0
   15.0669  -18.4340   21.6213 O   0  0  0  0  0  0
   14.1237  -16.6530   22.7210 O   0  0  0  0  0  0
   11.5843  -10.0613   23.8322 C   0  0  0  0  0  0
   11.6176   -8.9030   24.3226 N   0  0  0  0  0  0
   10.8160  -11.0853   24.3210 N   0  0  0  0  0  0
   18.6127  -11.4458   20.9011 H   0  0  0  0  0  0
   18.8469  -15.7666   22.6129 H   0  0  0  0  0  0
   14.9502   -9.2361   20.7210 H   0  0  0  0  0  0
   13.5393   -8.5390   22.5775 H   0  0  0  0  0  0
   12.8531  -12.9967   20.6458 H   0  0  0  0  0  0
   14.8034  -11.0530   18.5165 H   0  0  0  0  0  0
   14.6659  -12.6733   19.1073 H   0  0  0  0  0  0
   16.5796  -10.8206   20.4504 H   0  0  0  0  0  0
   20.1566  -11.4530   19.0927 H   0  0  0  0  0  0
   19.5879  -13.0005   18.4852 H   0  0  0  0  0  0
   21.3735  -12.5091   20.8610 H   0  0  0  0  0  0
   21.6160  -13.6607   19.5490 H   0  0  0  0  0  0
   20.5992  -14.4898   21.8649 H   0  0  0  0  0  0
   19.8167  -15.0775   20.3897 H   0  0  0  0  0  0
   18.5152  -15.8060   25.1058 H   0  0  0  0  0  0
   17.8160  -14.2250   25.0415 H   0  0  0  0  0  0
   20.0979  -13.4047   24.0979 H   0  0  0  0  0  0
   20.0154  -14.5751   26.9209 H   0  0  0  0  0  0
   19.3382  -13.0557   26.4611 H   0  0  0  0  0  0
   21.6160  -12.8120   27.4886 H   0  0  0  0  0  0
   21.5020  -12.0919   25.9210 H   0  0  0  0  0  0
   22.8864  -14.6985   26.6910 H   0  0  0  0  0  0
   23.6063  -13.3145   25.9210 H   0  0  0  0  0  0
   23.2732  -15.2899   24.3730 H   0  0  0  0  0  0
   22.5385  -13.8164   23.7926 H   0  0  0  0  0  0
   20.9882  -15.7583   23.5401 H   0  0  0  0  0  0
   21.0412  -16.1065   25.2132 H   0  0  0  0  0  0
   16.1350  -15.2586   23.6070 H   0  0  0  0  0  0
   16.0872  -15.5888   21.1403 H   0  0  0  0  0  0
   17.1435  -16.9743   21.3721 H   0  0  0  0  0  0
   14.3817  -15.7676   23.0007 H   0  0  0  0  0  0
   12.2472   -8.2869   23.8365 H   0  0  0  0  0  0
   10.0871  -10.8691   24.9946 H   0  0  0  0  0  0
   10.7134  -11.9322   23.7812 H   0  0  0  0  0  0
  1  6  1  0  0  0
  1  2  2  0  0  0
  1 36  1  0  0  0
  2  3  1  0  0  0
  2 37  1  0  0  0
  3  4  2  0  0  0
  3 31  1  0  0  0
  4  5  1  0  0  0
  5  6  2  0  0  0
  5 38  1  0  0  0
  6  7  1  0  0  0
  7  8  1  0  0  0
  7 39  1  0  0  0
  7 40  1  0  0  0
  8  9  1  0  0  0
  8 41  1  0  0  0
  9 10  2  0  0  0
  9 11  1  0  0  0
 11 34  1  0  0  0
 11 15  1  0  0  0
 11 12  1  0  0  0
 12 13  1  0  0  0
 12 42  1  0  0  0
 12 43  1  0  0  0
 13 14  1  0  0  0
 13 44  1  0  0  0
 13 45  1  0  0  0
 14 15  1  0  0  0
 14 46  1  0  0  0
 14 47  1  0  0  0
 15 16  1  0  0  0
 16 17  2  0  0  0
 16 18  1  0  0  0
 18 35  1  0  0  0
 18 19  1  0  0  0
 18 26  1  0  0  0
 19 20  1  0  0  0
 19 48  1  0  0  0
 19 49  1  0  0  0
 20 25  1  0  0  0
 20 21  1  0  0  0
 20 50  1  0  0  0
 21 22  1  0  0  0
 21 51  1  0  0  0
 21 52  1  0  0  0
 22 23  1  0  0  0
 22 53  1  0  0  0
 22 54  1  0  0  0
 23 24  1  0  0  0
 23 55  1  0  0  0
 23 56  1  0  0  0
 24 25  1  0  0  0
 24 57  1  0  0  0
 24 58  1  0  0  0
 25 59  1  0  0  0
 25 60  1  0  0  0
 26 27  1  0  0  0
 26 61  1  0  0  0
 27 28  1  0  0  0
 27 62  1  0  0  0
 27 63  1  0  0  0
 28 29  2  0  0  0
 28 30  1  0  0  0
 30 64  1  0  0  0
 31 32  2  3  0  0
 31 33  1  0  0  0
 32 65  1  0  0  0
 33 66  1  0  0  0
 33 67  1  0  0  0
M  END
> <s_m_entry_id>
37686

> <s_m_entry_name>
ligand_docking-pose.33

> <s_m_Source_Path>
/home/csk/Desktop/cluster/DUD-E-result/thrb

> <s_m_Source_File>
ligand_docking-pose.sdf

> <i_m_Source_File_Index>
33

> <i_lp_mmshare_version>
53161

> <i_f3d_flags>
0

> <r_lp_tautomer_probability>
1

> <s_lp_Force_Field>
OPLS_2005

> <r_lp_Energy>
26.766788

> <b_lp_Chiralities_Consistent>
1

> <s_lp_Variant>
347329-2

> <s_i_glide_gridfile>
glide-grid_1ype

> <i_i_glide_lignum>
2016

> <i_i_glide_rotatable_bonds>
13

> <r_i_docking_score>
-8.66724971967414

> <r_i_glide_ligand_efficiency>
-0.262643930899216

> <r_i_glide_ligand_efficiency_sa>
-0.842439423942422

> <r_i_glide_ligand_efficiency_ln>
-1.92755146103822

> <r_i_glide_gscore>
-8.66724971967414

> <r_i_glide_lipo>
-3.57433848414422

> <r_i_glide_hbond>
-0.532552767423998

> <r_i_glide_metal>
0

> <r_i_glide_rewards>
-1.0612105415402

> <r_i_glide_evdw>
-46.3108406066895

> <r_i_glide_ecoul>
-13.6067123413086

> <r_i_glide_erotb>
0.95655660167864

> <r_i_glide_esite>
-0.099155646713594

> <r_i_glide_emodel>
-82.0395655277975

> <r_i_glide_energy>
-59.917552947998

> <r_i_glide_einternal>
15.2886810302734

> <i_i_glide_confnum>
278

> <i_i_glide_posenum>
145

> <r_i_glide_eff_state_penalty>
0

> <s_user_duplicate_titles>
347329

> <s_m_subgroup_title>
dock_pv

> <s_m_subgroupid>
dock_pv1

> <b_m_subgroup_collapsed>
0

$$$$
346924
                    3D
 Schrodinger Suite 2021-1.
 66 68  0  0  1  0            999 V2000
   14.3321  -10.7062   20.6585 C   0  0  0  0  0  0
   13.4199  -10.3346   21.6391 C   0  0  0  0  0  0
   12.4979  -11.2554   22.1681 C   0  0  0  0  0  0
   12.4745  -12.5470   21.6073 C   0  0  0  0  0  0
   13.3854  -12.9219   20.6244 C   0  0  0  0  0  0
   14.3431  -12.0147   20.1730 C   0  0  0  0  0  0
   15.4425  -12.4800   19.2120 C   0  0  0  0  0  0
   16.8439  -12.4362   19.6801 N   0  0  0  0  0  0
   17.3039  -12.3892   20.9481 C   0  0  0  0  0  0
   16.5724  -12.2539   21.9198 O   0  0  0  0  0  0
   18.8203  -12.5129   21.2202 C   0  0  2  0  0  0
   19.6203  -11.5993   20.3178 C   0  0  0  0  0  0
   20.5213  -12.2992   19.6130 C   0  0  0  0  0  0
   20.4136  -13.7653   19.9577 C   0  0  0  0  0  0
   19.3625  -13.8542   20.9628 N   0  0  0  0  0  0
   19.0853  -15.0279   21.5968 C   0  0  0  0  0  0
   19.5679  -16.1046   21.2316 O   0  0  0  0  0  0
   18.1878  -15.0208   22.8739 C   0  0  2  0  0  0
   18.9961  -15.3711   24.1517 C   0  0  0  0  0  0
   20.1837  -14.4176   24.4848 C   0  0  0  0  0  0
   20.2723  -14.1117   26.0000 C   0  0  0  0  0  0
   21.4060  -13.1146   26.3167 C   0  0  0  0  0  0
   22.7620  -13.6123   25.7717 C   0  0  0  0  0  0
   22.6948  -14.0051   24.2816 C   0  0  0  0  0  0
   21.5447  -14.9953   24.0231 C   0  0  0  0  0  0
   17.0444  -15.9602   22.7147 N   0  0  2  0  0  0
   16.0514  -15.4983   21.7375 C   0  0  0  0  0  0
   14.8790  -16.4724   21.6884 C   0  0  0  0  0  0
   14.7145  -17.2965   20.7894 O   0  0  0  0  0  0
   14.0160  -16.2530   22.7204 O   0  0  0  0  0  0
   11.6132  -10.8552   23.3004 C   0  0  0  0  0  0
   11.6161   -9.6771   23.7479 N   0  0  0  0  0  0
   10.8158  -11.8530   23.8092 N   0  0  0  0  0  0
   18.9630  -12.2404   22.2666 H   0  0  0  0  0  0
   15.0763   -9.9979   20.3280 H   0  0  0  0  0  0
   13.4771   -9.3264   22.0255 H   0  0  0  0  0  0
   11.7692  -13.2960   21.9400 H   0  0  0  0  0  0
   13.3688  -13.9363   20.2503 H   0  0  0  0  0  0
   15.3827  -11.8649   18.3127 H   0  0  0  0  0  0
   15.2357  -13.5008   18.8824 H   0  0  0  0  0  0
   17.5427  -12.5725   18.9651 H   0  0  0  0  0  0
   19.4772  -10.5295   20.3211 H   0  0  0  0  0  0
   21.2520  -11.9179   18.9143 H   0  0  0  0  0  0
   21.3538  -14.1646   20.3471 H   0  0  0  0  0  0
   20.1767  -14.3841   19.0970 H   0  0  0  0  0  0
   17.7998  -14.0309   23.0923 H   0  0  0  0  0  0
   19.3511  -16.4023   24.0872 H   0  0  0  0  0  0
   18.3033  -15.3877   24.9975 H   0  0  0  0  0  0
   20.0302  -13.4603   23.9841 H   0  0  0  0  0  0
   20.4086  -15.0373   26.5624 H   0  0  0  0  0  0
   19.3205  -13.7110   26.3540 H   0  0  0  0  0  0
   21.4766  -12.9620   27.3925 H   0  0  0  0  0  0
   21.1668  -12.1401   25.8918 H   0  0  0  0  0  0
   23.0846  -14.4771   26.3535 H   0  0  0  0  0  0
   23.5322  -12.8573   25.9167 H   0  0  0  0  0  0
   23.6445  -14.4449   23.9718 H   0  0  0  0  0  0
   22.5556  -13.1147   23.6680 H   0  0  0  0  0  0
   21.5174  -15.2458   22.9630 H   0  0  0  0  0  0
   21.7371  -15.9484   24.5185 H   0  0  0  0  0  0
   16.5788  -15.9970   23.6136 H   0  0  0  0  0  0
   15.6698  -14.5051   21.9713 H   0  0  0  0  0  0
   16.4903  -15.4471   20.7421 H   0  0  0  0  0  0
   14.3279  -15.5434   23.3068 H   0  0  0  0  0  0
   10.9445   -9.5826   24.4975 H   0  0  0  0  0  0
   10.0789  -11.6172   24.4639 H   0  0  0  0  0  0
   10.8740  -12.8226   23.5155 H   0  0  0  0  0  0
  1  6  1  0  0  0
  1  2  2  0  0  0
  1 35  1  0  0  0
  2  3  1  0  0  0
  2 36  1  0  0  0
  3  4  2  0  0  0
  3 31  1  0  0  0
  4  5  1  0  0  0
  4 37  1  0  0  0
  5  6  2  0  0  0
  5 38  1  0  0  0
  6  7  1  0  0  0
  7  8  1  0  0  0
  7 39  1  0  0  0
  7 40  1  0  0  0
  8  9  1  0  0  0
  8 41  1  0  0  0
  9 10  2  0  0  0
  9 11  1  0  0  0
 11 34  1  0  0  0
 11 15  1  0  0  0
 11 12  1  0  0  0
 12 13  2  0  0  0
 12 42  1  0  0  0
 13 14  1  0  0  0
 13 43  1  0  0  0
 14 15  1  0  0  0
 14 44  1  0  0  0
 14 45  1  0  0  0
 15 16  1  0  0  0
 16 17  2  0  0  0
 16 18  1  0  0  0
 18 19  1  0  0  0
 18 26  1  0  0  0
 18 46  1  0  0  0
 19 20  1  0  0  0
 19 47  1  0  0  0
 19 48  1  0  0  0
 20 25  1  0  0  0
 20 21  1  0  0  0
 20 49  1  0  0  0
 21 22  1  0  0  0
 21 50  1  0  0  0
 21 51  1  0  0  0
 22 23  1  0  0  0
 22 52  1  0  0  0
 22 53  1  0  0  0
 23 24  1  0  0  0
 23 54  1  0  0  0
 23 55  1  0  0  0
 24 25  1  0  0  0
 24 56  1  0  0  0
 24 57  1  0  0  0
 25 58  1  0  0  0
 25 59  1  0  0  0
 26 27  1  0  0  0
 26 60  1  0  0  0
 27 28  1  0  0  0
 27 61  1  0  0  0
 27 62  1  0  0  0
 28 29  2  0  0  0
 28 30  1  0  0  0
 30 63  1  0  0  0
 31 32  2  3  0  0
 31 33  1  0  0  0
 32 64  1  0  0  0
 33 65  1  0  0  0
 33 66  1  0  0  0
M  END
> <s_m_entry_id>
37687

> <s_m_entry_name>
ligand_docking-pose.34

> <s_m_Source_Path>
/home/csk/Desktop/cluster/DUD-E-result/thrb

> <s_m_Source_File>
ligand_docking-pose.sdf

> <i_m_Source_File_Index>
34

> <i_lp_mmshare_version>
53161

> <i_f3d_flags>
0

> <r_lp_tautomer_probability>
1

> <s_lp_Force_Field>
OPLS_2005

> <r_lp_Energy>
30.649019

> <b_lp_Chiralities_Consistent>
1

> <s_lp_Variant>
346924-1

> <s_i_glide_gridfile>
glide-grid_1ype

> <i_i_glide_lignum>
1337

> <i_i_glide_rotatable_bonds>
13

> <r_i_docking_score>
-8.6614962326277

> <r_i_glide_ligand_efficiency>
-0.2624695828069

> <r_i_glide_ligand_efficiency_sa>
-0.841880196451601

> <r_i_glide_ligand_efficiency_ln>
-1.92627191530906

> <r_i_glide_gscore>
-8.6614962326277

> <r_i_glide_lipo>
-3.45358893892215

> <r_i_glide_hbond>
-0.419703947996647

> <r_i_glide_metal>
0

> <r_i_glide_rewards>
-1.04313989183614

> <r_i_glide_evdw>
-43.8298759460449

> <r_i_glide_ecoul>
-16.1365375518799

> <r_i_glide_erotb>
0.96807057621562

> <r_i_glide_esite>
-0.10115960000416

> <r_i_glide_emodel>
-86.9056758229402

> <r_i_glide_energy>
-59.9664134979248

> <r_i_glide_einternal>
9.9502534866333

> <i_i_glide_confnum>
215

> <i_i_glide_posenum>
335

> <r_i_glide_eff_state_penalty>
0

> <s_user_duplicate_titles>
346924

> <s_m_subgroup_title>
dock_pv

> <s_m_subgroupid>
dock_pv1

> <b_m_subgroup_collapsed>
0

$$$$
167502
                    3D
 Schrodinger Suite 2021-1.
 56 59  0  0  1  0            999 V2000
   11.2123  -10.3060   24.1111 C   0  0  0  0  0  0
   11.8461  -10.6394   22.8465 N   0  0  3  0  0  0
   11.8372  -11.8790   22.3511 N   0  0  0  0  0  0
   12.6408  -11.7800   21.3062 C   0  0  0  0  0  0
   13.1458  -10.5610   21.1665 N   0  0  0  0  0  0
   12.6492   -9.7984   22.2031 N   0  0  0  0  0  0
   12.9446  -12.9597   20.3902 C   0  0  0  0  0  0
   12.2966  -14.1719   20.6873 C   0  0  0  0  0  0
   12.4854  -15.3204   19.9235 C   0  0  0  0  0  0
   13.3484  -15.2918   18.8368 C   0  0  0  0  0  0
   14.0172  -14.1154   18.5203 C   0  0  0  0  0  0
   13.8304  -12.9516   19.2794 C   0  0  0  0  0  0
   14.6072  -11.7173   18.8371 C   0  0  0  0  0  0
   15.7176  -11.4529   19.7457 N   0  0  0  0  0  0
   17.0204  -11.4552   19.4345 C   0  0  0  0  0  0
   17.4575  -11.6303   18.2970 O   0  0  0  0  0  0
   17.9828  -11.2044   20.6030 C   0  0  0  0  0  0
   18.5120  -12.4980   21.0922 N   0  0  0  0  0  0
   19.7653  -12.9975   20.7395 C   0  0  0  0  0  0
   20.2471  -14.1414   21.2897 C   0  0  0  0  0  0
   19.5394  -14.8601   22.2146 N   0  0  0  0  0  0
   18.3631  -14.4336   22.5396 C   0  0  0  0  0  0
   17.7143  -13.1977   21.9910 C   0  0  0  0  0  0
   16.5782  -12.8285   22.3211 O   0  0  0  0  0  0
   17.6161  -15.1295   23.4840 N   0  0  0  0  0  0
   18.1016  -16.2313   24.3234 C   0  0  0  0  0  0
   18.6309  -15.7947   25.7121 C   0  0  0  0  0  0
   19.9614  -15.0295   25.6490 C   0  0  0  0  0  0
   20.0685  -13.6892   26.0465 C   0  0  0  0  0  0
   21.3117  -13.0604   25.9845 C   0  0  0  0  0  0
   22.4173  -13.7747   25.5199 C   0  0  0  0  0  0
   22.2359  -15.1018   25.1272 C   0  0  0  0  0  0
   21.0332  -15.7295   25.1825 N   0  0  0  0  0  0
   17.7059  -15.0534   26.3271 F   0  0  0  0  0  0
   18.8175  -16.8687   26.4834 F   0  0  0  0  0  0
   20.7217  -12.0874   19.5573 Cl  0  0  0  0  0  0
   11.8353   -9.6090   24.6757 H   0  0  0  0  0  0
   11.0478  -11.2078   24.7031 H   0  0  0  0  0  0
   10.2407   -9.8520   23.9195 H   0  0  0  0  0  0
   11.6150  -14.2417   21.5210 H   0  0  0  0  0  0
   11.9578  -16.2287   20.1757 H   0  0  0  0  0  0
   13.4960  -16.1792   18.2377 H   0  0  0  0  0  0
   14.6852  -14.1158   17.6709 H   0  0  0  0  0  0
   14.9565  -11.8463   17.8091 H   0  0  0  0  0  0
   13.9399  -10.8588   18.7876 H   0  0  0  0  0  0
   15.4614  -11.3098   20.7141 H   0  0  0  0  0  0
   18.7723  -10.5135   20.3180 H   0  0  0  0  0  0
   17.4521  -10.6785   21.4004 H   0  0  0  0  0  0
   21.2228  -14.5192   21.0139 H   0  0  0  0  0  0
   16.6900  -14.7741   23.7151 H   0  0  0  0  0  0
   17.2578  -16.9028   24.4841 H   0  0  0  0  0  0
   18.8562  -16.8253   23.8032 H   0  0  0  0  0  0
   19.2159  -13.1405   26.4128 H   0  0  0  0  0  0
   21.4154  -12.0333   26.3049 H   0  0  0  0  0  0
   23.3931  -13.3130   25.4724 H   0  0  0  0  0  0
   23.0670  -15.6887   24.7641 H   0  0  0  0  0  0
  1  2  1  0  0  0
  1 37  1  0  0  0
  1 38  1  0  0  0
  1 39  1  0  0  0
  2  6  1  0  0  0
  2  3  1  0  0  0
  3  4  2  0  0  0
  4  5  1  0  0  0
  4  7  1  0  0  0
  5  6  2  0  0  0
  7 12  1  0  0  0
  7  8  2  0  0  0
  8  9  1  0  0  0
  8 40  1  0  0  0
  9 10  2  0  0  0
  9 41  1  0  0  0
 10 11  1  0  0  0
 10 42  1  0  0  0
 11 12  2  0  0  0
 11 43  1  0  0  0
 12 13  1  0  0  0
 13 14  1  0  0  0
 13 44  1  0  0  0
 13 45  1  0  0  0
 14 15  1  0  0  0
 14 46  1  0  0  0
 15 16  2  0  0  0
 15 17  1  0  0  0
 17 18  1  0  0  0
 17 47  1  0  0  0
 17 48  1  0  0  0
 18 23  1  0  0  0
 18 19  1  0  0  0
 19 20  2  0  0  0
 19 36  1  0  0  0
 20 21  1  0  0  0
 20 49  1  0  0  0
 21 22  2  0  0  0
 22 23  1  0  0  0
 22 25  1  0  0  0
 23 24  2  0  0  0
 25 26  1  0  0  0
 25 50  1  0  0  0
 26 27  1  0  0  0
 26 51  1  0  0  0
 26 52  1  0  0  0
 27 28  1  0  0  0
 27 34  1  0  0  0
 27 35  1  0  0  0
 28 33  1  0  0  0
 28 29  2  0  0  0
 29 30  1  0  0  0
 29 53  1  0  0  0
 30 31  2  0  0  0
 30 54  1  0  0  0
 31 32  1  0  0  0
 31 55  1  0  0  0
 32 33  2  0  0  0
 32 56  1  0  0  0
M  END
> <s_m_entry_id>
37688

> <s_m_entry_name>
ligand_docking-pose.35

> <s_m_Source_Path>
/home/csk/Desktop/cluster/DUD-E-result/thrb

> <s_m_Source_File>
ligand_docking-pose.sdf

> <i_m_Source_File_Index>
35

> <i_lp_mmshare_version>
53161

> <i_f3d_flags>
0

> <r_lp_tautomer_probability>
1

> <s_lp_Force_Field>
OPLS_2005

> <r_lp_Energy>
25.59208

> <b_lp_Chiralities_Consistent>
1

> <s_lp_Variant>
167502-1

> <s_i_glide_gridfile>
glide-grid_1ype

> <i_i_glide_lignum>
4242

> <i_i_glide_rotatable_bonds>
10

> <r_i_docking_score>
-8.6506104082245

> <r_i_glide_ligand_efficiency>
-0.240294733561792

> <r_i_glide_ligand_efficiency_sa>
-0.79343572756579

> <r_i_glide_ligand_efficiency_ln>
-1.88732947859016

> <r_i_glide_gscore>
-8.6506104082245

> <r_i_glide_lipo>
-3.36561046751637

> <r_i_glide_hbond>
-0.474171553561547

> <r_i_glide_metal>
0

> <r_i_glide_rewards>
-1.3523296713719

> <r_i_glide_evdw>
-58.8467330932617

> <r_i_glide_ecoul>
-7.94421720504761

> <r_i_glide_erotb>
0.693950544860549

> <r_i_glide_esite>
-0.0184800252150042

> <r_i_glide_emodel>
-99.3869607649943

> <r_i_glide_energy>
-66.7909502983093

> <r_i_glide_einternal>
5.56535720825195

> <i_i_glide_confnum>
39

> <i_i_glide_posenum>
359

> <r_i_glide_eff_state_penalty>
0

> <s_user_duplicate_titles>
167502

> <s_m_subgroup_title>
dock_pv

> <s_m_subgroupid>
dock_pv1

> <b_m_subgroup_collapsed>
0

$$$$
279197
                    3D
 Schrodinger Suite 2021-1.
 60 62  0  0  1  0            999 V2000
   20.5491  -12.5144   19.6976 C   0  0  0  0  0  0
   19.8179  -13.3398   20.7538 C   0  0  0  0  0  0
   20.3083  -14.5366   21.1349 C   0  0  0  0  0  0
   19.5863  -15.2951   22.1308 C   0  0  0  0  0  0
   18.4330  -14.8126   22.6526 C   0  0  0  0  0  0
   17.8963  -13.5028   22.2365 C   0  0  0  0  0  0
   16.8427  -13.0572   22.7183 O   0  0  0  0  0  0
   18.6421  -12.8057   21.2870 N   0  0  0  0  0  0
   18.1409  -11.4532   20.9177 C   0  0  0  0  0  0
   16.9548  -11.5021   19.9415 C   0  0  0  0  0  0
   17.1235  -11.2915   18.7424 O   0  0  0  0  0  0
   15.7603  -11.7133   20.5041 N   0  0  0  0  0  0
   14.4511  -11.5285   19.8966 C   0  0  0  0  0  0
   13.4078  -11.2686   20.9853 C   0  0  0  0  0  0
   12.4165  -12.2169   21.3084 C   0  0  0  0  0  0
   11.5243  -11.9388   22.3475 C   0  0  0  0  0  0
   11.6342  -10.7383   23.0385 C   0  0  0  0  0  0
   12.5493   -9.7997   22.7242 N   0  0  0  0  0  0
   13.4221  -10.0679   21.7232 C   0  0  0  0  0  0
   14.4561   -8.9811   21.5087 C   0  0  0  0  0  0
   10.8161  -10.4771   24.1266 N   0  0  0  0  0  0
   12.3130  -13.5610   20.6019 C   0  0  0  0  0  0
   17.6157  -15.4721   23.6132 N   0  0  0  0  0  0
   18.0120  -16.8971   24.5873 S   0  0  0  0  0  0
   16.7383  -17.4946   24.9982 O   0  0  0  0  0  0
   19.0096  -17.7196   23.8959 O   0  0  0  0  0  0
   18.7981  -16.1732   26.1425 C   0  0  0  0  0  0
   19.9856  -15.2696   25.8507 C   0  0  0  0  0  0
   21.2249  -15.8237   25.5211 C   0  0  0  0  0  0
   22.3180  -14.9916   25.2899 C   0  0  0  0  0  0
   22.1655  -13.6102   25.3855 C   0  0  0  0  0  0
   20.9273  -13.0522   25.6972 C   0  0  0  0  0  0
   19.8346  -13.8839   25.9209 C   0  0  0  0  0  0
   21.4073  -13.0509   19.2898 H   0  0  0  0  0  0
   19.8887  -12.2804   18.8618 H   0  0  0  0  0  0
   20.9266  -11.5850   20.1243 H   0  0  0  0  0  0
   21.2207  -14.9332   20.7097 H   0  0  0  0  0  0
   19.9973  -16.2444   22.4278 H   0  0  0  0  0  0
   18.9143  -10.7752   20.5631 H   0  0  0  0  0  0
   17.8076  -10.9406   21.8217 H   0  0  0  0  0  0
   15.7652  -12.1284   21.4304 H   0  0  0  0  0  0
   14.2110  -12.3997   19.2879 H   0  0  0  0  0  0
   14.4589  -10.6781   19.2110 H   0  0  0  0  0  0
   10.7665  -12.6529   22.6343 H   0  0  0  0  0  0
   14.3001   -8.5029   20.5466 H   0  0  0  0  0  0
   15.4648   -9.3830   21.5208 H   0  0  0  0  0  0
   14.4157   -8.2234   22.2925 H   0  0  0  0  0  0
    9.9846  -11.0414   24.2744 H   0  0  0  0  0  0
   10.8817   -9.5735   24.5678 H   0  0  0  0  0  0
   13.2814  -14.0614   20.5952 H   0  0  0  0  0  0
   11.6162  -14.2340   21.1036 H   0  0  0  0  0  0
   11.9909  -13.4289   19.5690 H   0  0  0  0  0  0
   16.7765  -14.9624   23.9189 H   0  0  0  0  0  0
   18.0124  -15.6352   26.6726 H   0  0  0  0  0  0
   19.0978  -17.0130   26.7678 H   0  0  0  0  0  0
   21.3440  -16.8958   25.4557 H   0  0  0  0  0  0
   23.2817  -15.4148   25.0475 H   0  0  0  0  0  0
   23.0164  -12.9663   25.2166 H   0  0  0  0  0  0
   20.8149  -11.9798   25.7716 H   0  0  0  0  0  0
   18.8753  -13.4529   26.1617 H   0  0  0  0  0  0
  1  2  1  0  0  0
  1 34  1  0  0  0
  1 35  1  0  0  0
  1 36  1  0  0  0
  2  8  1  0  0  0
  2  3  2  0  0  0
  3  4  1  0  0  0
  3 37  1  0  0  0
  4  5  2  0  0  0
  4 38  1  0  0  0
  5  6  1  0  0  0
  5 23  1  0  0  0
  6  7  2  0  0  0
  6  8  1  0  0  0
  8  9  1  0  0  0
  9 10  1  0  0  0
  9 39  1  0  0  0
  9 40  1  0  0  0
 10 11  2  0  0  0
 10 12  1  0  0  0
 12 13  1  0  0  0
 12 41  1  0  0  0
 13 14  1  0  0  0
 13 42  1  0  0  0
 13 43  1  0  0  0
 14 19  1  0  0  0
 14 15  2  0  0  0
 15 16  1  0  0  0
 15 22  1  0  0  0
 16 17  2  0  0  0
 16 44  1  0  0  0
 17 18  1  0  0  0
 17 21  1  0  0  0
 18 19  2  0  0  0
 19 20  1  0  0  0
 20 45  1  0  0  0
 20 46  1  0  0  0
 20 47  1  0  0  0
 21 48  1  0  0  0
 21 49  1  0  0  0
 22 50  1  0  0  0
 22 51  1  0  0  0
 22 52  1  0  0  0
 23 24  1  0  0  0
 23 53  1  0  0  0
 24 25  2  0  0  0
 24 26  2  0  0  0
 24 27  1  0  0  0
 27 28  1  0  0  0
 27 54  1  0  0  0
 27 55  1  0  0  0
 28 33  1  0  0  0
 28 29  2  0  0  0
 29 30  1  0  0  0
 29 56  1  0  0  0
 30 31  2  0  0  0
 30 57  1  0  0  0
 31 32  1  0  0  0
 31 58  1  0  0  0
 32 33  2  0  0  0
 32 59  1  0  0  0
 33 60  1  0  0  0
M  END
> <s_m_entry_id>
37690

> <s_m_entry_name>
ligand_docking-pose.37

> <s_m_Source_Path>
/home/csk/Desktop/cluster/DUD-E-result/thrb

> <s_m_Source_File>
ligand_docking-pose.sdf

> <i_m_Source_File_Index>
37

> <i_lp_mmshare_version>
53161

> <i_f3d_flags>
0

> <r_lp_tautomer_probability>
0.999999772200052

> <s_lp_Force_Field>
OPLS_2005

> <r_lp_Energy>
24.400516

> <b_lp_Chiralities_Consistent>
1

> <s_lp_Variant>
279197-1

> <s_i_glide_gridfile>
glide-grid_1ype

> <i_i_glide_lignum>
2752

> <i_i_glide_rotatable_bonds>
9

> <r_i_docking_score>
-8.52872571611272

> <r_i_glide_ligand_efficiency>
-0.258446233821598

> <r_i_glide_ligand_efficiency_sa>
-0.82897516647473

> <r_i_glide_ligand_efficiency_ln>
-1.89674443988507

> <r_i_glide_gscore>
-8.52872571611272

> <r_i_glide_lipo>
-4.04424821641434

> <r_i_glide_hbond>
-0.521793364749312

> <r_i_glide_metal>
0

> <r_i_glide_rewards>
-0.895512453376778

> <r_i_glide_evdw>
-51.5453491210938

> <r_i_glide_ecoul>
-7.62630605697632

> <r_i_glide_erotb>
0.732874447166545

> <r_i_glide_esite>
-0.0788327641377

> <r_i_glide_emodel>
-85.1694550347776

> <r_i_glide_energy>
-59.1716551780701

> <r_i_glide_einternal>
8.89246368408203

> <i_i_glide_confnum>
41

> <i_i_glide_posenum>
165

> <r_i_glide_eff_state_penalty>
0

> <s_user_duplicate_titles>
279197

> <s_m_subgroup_title>
dock_pv

> <s_m_subgroupid>
dock_pv1

> <b_m_subgroup_collapsed>
0

$$$$
289052
                    3D
 Schrodinger Suite 2021-1.
 54 57  0  0  1  0            999 V2000
   21.3889  -13.2320   25.9205 C   0  0  0  0  0  0
   20.2349  -13.4672   25.1721 C   0  0  0  0  0  0
   20.3191  -13.9233   23.8497 C   0  0  0  0  0  0
   21.5863  -14.1306   23.2845 C   0  0  0  0  0  0
   22.7409  -13.8928   24.0324 C   0  0  0  0  0  0
   22.6420  -13.4531   25.3494 C   0  0  0  0  0  0
   23.9598  -14.0968   23.4864 F   0  0  0  0  0  0
   19.0175  -14.2274   23.1024 C   0  0  0  0  0  0
   19.0679  -14.3498   21.5499 C   0  0  0  0  0  0
   17.7175  -14.8348   20.9701 C   0  0  0  0  0  0
   16.6031  -13.7695   21.0969 C   0  0  0  0  0  0
   17.0708  -12.5546   20.3926 N   0  0  0  0  0  0
   18.3090  -11.9686   20.9551 C   0  0  0  0  0  0
   19.4310  -13.0313   20.8245 C   0  0  0  0  0  0
   16.6839  -12.2320   19.1249 C   0  0  0  0  0  0
   17.3370  -11.4529   18.4273 O   0  0  0  0  0  0
   15.3277  -12.6811   18.5302 C   0  0  0  0  0  0
   14.1841  -12.8285   19.4364 N   0  0  0  0  0  0
   13.3477  -13.9229   19.4274 C   0  0  0  0  0  0
   12.3886  -13.7912   20.4018 C   0  0  0  0  0  0
   12.6035  -12.5285   21.0321 C   0  0  0  0  0  0
   13.7265  -11.9266   20.3946 C   0  0  0  0  0  0
   14.1879  -10.6642   20.7802 C   0  0  0  0  0  0
   13.5163  -10.0276   21.8226 C   0  0  0  0  0  0
   12.4147  -10.5854   22.4985 C   0  0  0  0  0  0
   11.9611  -11.8498   22.0740 C   0  0  0  0  0  0
   11.7700   -9.8531   23.6335 C   0  0  0  0  0  0
   12.1061   -8.6720   23.9213 N   0  0  0  0  0  0
   10.8160  -10.5653   24.3146 N   0  0  0  0  0  0
   21.3102  -12.8828   26.9396 H   0  0  0  0  0  0
   19.2705  -13.3026   25.6317 H   0  0  0  0  0  0
   21.6965  -14.4890   22.2726 H   0  0  0  0  0  0
   23.5435  -13.2820   25.9179 H   0  0  0  0  0  0
   18.2855  -13.4715   23.3857 H   0  0  0  0  0  0
   18.6439  -15.1652   23.5156 H   0  0  0  0  0  0
   19.8050  -15.1037   21.2701 H   0  0  0  0  0  0
   17.3968  -15.7386   21.4901 H   0  0  0  0  0  0
   17.8256  -15.1190   19.9225 H   0  0  0  0  0  0
   16.4512  -13.4967   22.1416 H   0  0  0  0  0  0
   15.6338  -14.1468   20.7868 H   0  0  0  0  0  0
   18.5542  -10.9927   20.5317 H   0  0  0  0  0  0
   18.1111  -11.7506   22.0042 H   0  0  0  0  0  0
   19.6396  -13.2185   19.7698 H   0  0  0  0  0  0
   20.3555  -12.6314   21.2355 H   0  0  0  0  0  0
   15.4943  -13.6205   18.0030 H   0  0  0  0  0  0
   15.0214  -11.9491   17.7815 H   0  0  0  0  0  0
   13.5218  -14.7314   18.7305 H   0  0  0  0  0  0
   11.6216  -14.5158   20.6328 H   0  0  0  0  0  0
   15.0471  -10.1988   20.3200 H   0  0  0  0  0  0
   13.9049   -9.0633   22.1180 H   0  0  0  0  0  0
   11.1162  -12.3337   22.5427 H   0  0  0  0  0  0
   12.8280   -8.3195   23.3160 H   0  0  0  0  0  0
   10.2120  -10.0849   24.9752 H   0  0  0  0  0  0
   10.4654  -11.4352   23.9475 H   0  0  0  0  0  0
  1  6  1  0  0  0
  1  2  2  0  0  0
  1 30  1  0  0  0
  2  3  1  0  0  0
  2 31  1  0  0  0
  3  4  2  0  0  0
  3  8  1  0  0  0
  4  5  1  0  0  0
  4 32  1  0  0  0
  5  6  2  0  0  0
  5  7  1  0  0  0
  6 33  1  0  0  0
  8  9  1  0  0  0
  8 34  1  0  0  0
  8 35  1  0  0  0
  9 14  1  0  0  0
  9 10  1  0  0  0
  9 36  1  0  0  0
 10 11  1  0  0  0
 10 37  1  0  0  0
 10 38  1  0  0  0
 11 12  1  0  0  0
 11 39  1  0  0  0
 11 40  1  0  0  0
 12 13  1  0  0  0
 12 15  1  0  0  0
 13 14  1  0  0  0
 13 41  1  0  0  0
 13 42  1  0  0  0
 14 43  1  0  0  0
 14 44  1  0  0  0
 15 16  2  0  0  0
 15 17  1  0  0  0
 17 18  1  0  0  0
 17 45  1  0  0  0
 17 46  1  0  0  0
 18 22  1  0  0  0
 18 19  1  0  0  0
 19 20  2  0  0  0
 19 47  1  0  0  0
 20 21  1  0  0  0
 20 48  1  0  0  0
 21 26  2  0  0  0
 21 22  1  0  0  0
 22 23  2  0  0  0
 23 24  1  0  0  0
 23 49  1  0  0  0
 24 25  2  0  0  0
 24 50  1  0  0  0
 25 26  1  0  0  0
 25 27  1  0  0  0
 26 51  1  0  0  0
 27 28  2  3  0  0
 27 29  1  0  0  0
 28 52  1  0  0  0
 29 53  1  0  0  0
 29 54  1  0  0  0
M  END
> <s_m_entry_id>
37691

> <s_m_entry_name>
ligand_docking-pose.38

> <s_m_Source_Path>
/home/csk/Desktop/cluster/DUD-E-result/thrb

> <s_m_Source_File>
ligand_docking-pose.sdf

> <i_m_Source_File_Index>
38

> <i_lp_mmshare_version>
53161

> <i_f3d_flags>
0

> <r_lp_tautomer_probability>
1

> <s_lp_Force_Field>
OPLS_2005

> <r_lp_Energy>
31.218088

> <b_lp_Chiralities_Consistent>
1

> <s_lp_Variant>
289052-2

> <s_i_glide_gridfile>
glide-grid_1ype

> <i_i_glide_lignum>
1695

> <i_i_glide_rotatable_bonds>
6

> <r_i_docking_score>
-8.51467340462099

> <r_i_glide_ligand_efficiency>
-0.293609427745551

> <r_i_glide_ligand_efficiency_sa>
-0.902061184030148

> <r_i_glide_ligand_efficiency_ln>
-1.94964429617019

> <r_i_glide_gscore>
-8.51467340462099

> <r_i_glide_lipo>
-4.07050196560743

> <r_i_glide_hbond>
-0.158414329954311

> <r_i_glide_metal>
0

> <r_i_glide_rewards>
-1.57842786094567

> <r_i_glide_evdw>
-46.4090690612793

> <r_i_glide_ecoul>
-6.11558246612549

> <r_i_glide_erotb>
0.633798823392737

> <r_i_glide_esite>
-0.10333724852353

> <r_i_glide_emodel>
-77.1191306666863

> <r_i_glide_energy>
-52.5246515274048

> <r_i_glide_einternal>
4.50837326049805

> <i_i_glide_confnum>
49

> <i_i_glide_posenum>
161

> <r_i_glide_eff_state_penalty>
0

> <s_user_duplicate_titles>
289052

> <s_m_subgroup_title>
dock_pv

> <s_m_subgroupid>
dock_pv1

> <b_m_subgroup_collapsed>
0

$$$$
167363
                    3D
 Schrodinger Suite 2021-1.
 55 58  0  0  1  0            999 V2000
   12.1101   -9.5173   23.2148 C   0  0  0  0  0  0
   11.3322  -10.6285   23.5221 C   0  0  0  0  0  0
   11.4979  -11.8112   22.8085 C   0  0  0  0  0  0
   12.4379  -11.8985   21.7747 C   0  0  0  0  0  0
   13.2118  -10.7684   21.4447 C   0  0  0  0  0  0
   13.0358   -9.5853   22.1752 C   0  0  0  0  0  0
   14.1966  -10.7467   20.2837 C   0  0  0  0  0  0
   15.5874  -10.6720   20.7209 N   0  0  0  0  0  0
   16.6283  -11.3058   20.1648 C   0  0  0  0  0  0
   16.5632  -11.9428   19.1156 O   0  0  0  0  0  0
   17.9490  -11.2078   20.9490 C   0  0  0  0  0  0
   18.5544  -12.5529   21.1275 N   0  0  0  0  0  0
   19.6892  -12.9815   20.4410 C   0  0  0  0  0  0
   20.2116  -14.2173   20.6437 C   0  0  0  0  0  0
   19.6556  -15.1160   21.5107 N   0  0  0  0  0  0
   18.6334  -14.7358   22.1965 C   0  0  0  0  0  0
   17.9558  -13.3890   22.0708 C   0  0  0  0  0  0
   16.9534  -13.0580   22.7201 O   0  0  0  0  0  0
   18.1296  -15.7065   23.0540 N   0  0  0  0  0  0
   17.6379  -15.4774   24.4214 C   0  0  0  0  0  0
   18.6394  -15.8149   25.5543 C   0  0  0  0  0  0
   19.9034  -14.9437   25.5291 C   0  0  0  0  0  0
   20.0182  -13.7935   26.3209 C   0  0  0  0  0  0
   21.1955  -13.0476   26.2669 C   0  0  0  0  0  0
   22.2315  -13.4595   25.4249 C   0  0  0  0  0  0
   22.0441  -14.6089   24.6574 C   0  0  0  0  0  0
   20.9068  -15.3483   24.7023 N   0  0  0  0  0  0
   18.0232  -15.6454   26.7270 F   0  0  0  0  0  0
   18.9875  -17.1051   25.5050 F   0  0  0  0  0  0
   20.4438  -11.8638   19.2917 Cl  0  0  0  0  0  0
   12.5873  -13.1397   21.1251 N   0  0  0  0  0  0
   12.3491  -13.4533   19.8126 C   0  0  0  0  0  0
   12.6200  -14.8072   19.6816 C   0  0  0  0  0  0
   13.0062  -15.3380   20.8267 N   0  0  0  0  0  0
   12.9859  -14.3354   21.6709 C   0  0  0  0  0  0
   11.9930   -8.6037   23.7799 H   0  0  0  0  0  0
   10.5939  -10.5766   24.3131 H   0  0  0  0  0  0
   10.8734  -12.6516   23.0629 H   0  0  0  0  0  0
   13.6206   -8.7082   21.9392 H   0  0  0  0  0  0
   14.0477  -11.5615   19.5778 H   0  0  0  0  0  0
   13.9436   -9.8536   19.7263 H   0  0  0  0  0  0
   15.7762  -10.0481   21.4933 H   0  0  0  0  0  0
   18.6157  -10.5258   20.4296 H   0  0  0  0  0  0
   17.7699  -10.7518   21.9211 H   0  0  0  0  0  0
   21.0962  -14.5352   20.1070 H   0  0  0  0  0  0
   18.5704  -16.6092   22.9424 H   0  0  0  0  0  0
   17.2809  -14.4607   24.5803 H   0  0  0  0  0  0
   16.7551  -16.1028   24.5522 H   0  0  0  0  0  0
   19.2164  -13.4787   26.9722 H   0  0  0  0  0  0
   21.2965  -12.1554   26.8689 H   0  0  0  0  0  0
   23.1518  -12.8978   25.3679 H   0  0  0  0  0  0
   22.8174  -14.9610   23.9908 H   0  0  0  0  0  0
   12.0158  -12.6982   19.1209 H   0  0  0  0  0  0
   12.5336  -15.3961   18.7793 H   0  0  0  0  0  0
   13.2271  -14.3822   22.7210 H   0  0  0  0  0  0
  1  6  1  0  0  0
  1  2  2  0  0  0
  1 36  1  0  0  0
  2  3  1  0  0  0
  2 37  1  0  0  0
  3  4  2  0  0  0
  3 38  1  0  0  0
  4  5  1  0  0  0
  4 31  1  0  0  0
  5  6  2  0  0  0
  5  7  1  0  0  0
  6 39  1  0  0  0
  7  8  1  0  0  0
  7 40  1  0  0  0
  7 41  1  0  0  0
  8  9  1  0  0  0
  8 42  1  0  0  0
  9 10  2  0  0  0
  9 11  1  0  0  0
 11 12  1  0  0  0
 11 43  1  0  0  0
 11 44  1  0  0  0
 12 17  1  0  0  0
 12 13  1  0  0  0
 13 14  2  0  0  0
 13 30  1  0  0  0
 14 15  1  0  0  0
 14 45  1  0  0  0
 15 16  2  0  0  0
 16 17  1  0  0  0
 16 19  1  0  0  0
 17 18  2  0  0  0
 19 20  1  0  0  0
 19 46  1  0  0  0
 20 21  1  0  0  0
 20 47  1  0  0  0
 20 48  1  0  0  0
 21 22  1  0  0  0
 21 28  1  0  0  0
 21 29  1  0  0  0
 22 27  1  0  0  0
 22 23  2  0  0  0
 23 24  1  0  0  0
 23 49  1  0  0  0
 24 25  2  0  0  0
 24 50  1  0  0  0
 25 26  1  0  0  0
 25 51  1  0  0  0
 26 27  2  0  0  0
 26 52  1  0  0  0
 31 35  1  0  0  0
 31 32  1  0  0  0
 32 33  2  0  0  0
 32 53  1  0  0  0
 33 34  1  0  0  0
 33 54  1  0  0  0
 34 35  2  0  0  0
 35 55  1  0  0  0
M  END
> <s_m_entry_id>
37692

> <s_m_entry_name>
ligand_docking-pose.39

> <s_m_Source_Path>
/home/csk/Desktop/cluster/DUD-E-result/thrb

> <s_m_Source_File>
ligand_docking-pose.sdf

> <i_m_Source_File_Index>
39

> <i_lp_mmshare_version>
53161

> <i_f3d_flags>
0

> <r_lp_tautomer_probability>
1

> <s_lp_Force_Field>
OPLS_2005

> <r_lp_Energy>
26.380743

> <b_lp_Chiralities_Consistent>
1

> <s_lp_Variant>
167363-1

> <s_i_glide_gridfile>
glide-grid_1ype

> <i_i_glide_lignum>
1363

> <i_i_glide_rotatable_bonds>
10

> <r_i_docking_score>
-8.50887564468141

> <r_i_glide_ligand_efficiency>
-0.243110732705183

> <r_i_glide_ligand_efficiency_sa>
-0.795231326454747

> <r_i_glide_ligand_efficiency_ln>
-1.86788704832784

> <r_i_glide_gscore>
-8.50887564468141

> <r_i_glide_lipo>
-4.17785674349555

> <r_i_glide_hbond>
-0.15405058513018

> <r_i_glide_metal>
0

> <r_i_glide_rewards>
-1.31090715736613

> <r_i_glide_evdw>
-54.4000854492188

> <r_i_glide_ecoul>
-5.87550783157349

> <r_i_glide_erotb>
0.735269288507411

> <r_i_glide_esite>
0

> <r_i_glide_emodel>
-81.1561563741655

> <r_i_glide_energy>
-60.2755932807922

> <r_i_glide_einternal>
19.3423347473145

> <i_i_glide_confnum>
73

> <i_i_glide_posenum>
343

> <r_i_glide_eff_state_penalty>
0

> <s_user_duplicate_titles>
167363

> <s_m_subgroup_title>
dock_pv

> <s_m_subgroupid>
dock_pv1

> <b_m_subgroup_collapsed>
0

$$$$
129843
                    3D
 Schrodinger Suite 2021-1.
 70 72  0  0  1  0            999 V2000
   22.5827  -13.4532   25.1202 C   0  0  0  0  0  0
   22.4515  -14.3366   24.0564 C   0  0  0  0  0  0
   21.2238  -14.9228   23.7765 C   0  0  0  0  0  0
   20.0957  -14.6028   24.5619 C   0  0  0  0  0  0
   20.2470  -13.7036   25.6414 C   0  0  0  0  0  0
   21.4836  -13.1324   25.9072 C   0  0  0  0  0  0
   18.7787  -15.3423   24.3754 C   0  0  0  0  0  0
   18.1328  -15.4172   22.9652 C   0  0  2  0  0  0
   17.7544  -14.0040   22.4094 C   0  0  0  0  0  0
   16.8160  -13.4530   22.9816 O   0  0  0  0  0  0
   18.3637  -13.4365   21.3281 N   0  0  0  0  0  0
   19.5431  -14.0190   20.6454 C   0  0  0  0  0  0
   20.6256  -12.9263   20.5427 C   0  0  0  0  0  0
   20.1202  -11.6478   19.8642 C   0  0  0  0  0  0
   18.8352  -11.1465   20.5381 C   0  0  0  0  0  0
   17.7441  -12.2189   20.7186 C   0  0  1  0  0  0
   16.9332  -12.4803   19.4237 C   0  0  0  0  0  0
   15.4270  -12.6717   19.6550 C   0  0  0  0  0  0
   14.8772  -11.4522   20.1490 O   0  0  0  0  0  0
   13.4636  -11.3045   20.0141 C   0  0  0  0  0  0
   12.6688  -12.3177   20.8673 C   0  0  0  0  0  0
   12.7980  -12.0391   22.3793 C   0  0  0  0  0  0
   12.4165  -10.6440   22.6843 N   0  0  0  0  0  0
   13.2667   -9.6825   21.9723 C   0  0  0  0  0  0
   13.0702   -9.8804   20.4614 C   0  0  0  0  0  0
   11.6221  -10.2530   23.8095 C   0  0  0  0  0  0
   11.6161   -9.1035   24.3210 N   0  0  0  0  0  0
   10.8160  -11.2700   24.3320 N   0  0  0  0  0  0
   16.8570  -16.1682   23.1206 N   0  0  2  0  0  0
   16.3345  -16.7473   21.8777 C   0  0  0  0  0  0
   15.0060  -17.4676   22.1517 C   0  0  0  0  0  0
   14.7995  -18.6289   21.8109 O   0  0  0  0  0  0
   14.0679  -16.6531   22.7210 O   0  0  0  0  0  0
   18.7927  -15.9532   22.2882 H   0  0  0  0  0  0
   23.5455  -13.0131   25.3375 H   0  0  0  0  0  0
   23.3143  -14.5867   23.4603 H   0  0  0  0  0  0
   21.1474  -15.6415   22.9747 H   0  0  0  0  0  0
   19.4083  -13.4658   26.2800 H   0  0  0  0  0  0
   21.5927  -12.4448   26.7341 H   0  0  0  0  0  0
   18.9301  -16.3533   24.7572 H   0  0  0  0  0  0
   18.0548  -14.8966   25.0616 H   0  0  0  0  0  0
   19.9941  -14.8655   21.1545 H   0  0  0  0  0  0
   19.2461  -14.3306   19.6446 H   0  0  0  0  0  0
   21.0092  -12.6982   21.5374 H   0  0  0  0  0  0
   21.4804  -13.3177   19.9899 H   0  0  0  0  0  0
   20.8890  -10.8776   19.9191 H   0  0  0  0  0  0
   19.9335  -11.8412   18.8065 H   0  0  0  0  0  0
   19.0875  -10.7723   21.5211 H   0  0  0  0  0  0
   18.4169  -10.2681   20.0533 H   0  0  0  0  0  0
   17.0477  -11.7583   21.4226 H   0  0  0  0  0  0
   17.0551  -11.6493   18.7280 H   0  0  0  0  0  0
   17.3336  -13.3448   18.8944 H   0  0  0  0  0  0
   14.9604  -12.9488   18.7074 H   0  0  0  0  0  0
   15.2492  -13.4859   20.3591 H   0  0  0  0  0  0
   13.1862  -11.4205   18.9648 H   0  0  0  0  0  0
   11.6158  -12.2548   20.6091 H   0  0  0  0  0  0
   12.9473  -13.3445   20.6333 H   0  0  0  0  0  0
   12.2159  -12.7742   22.9360 H   0  0  0  0  0  0
   13.8356  -12.1792   22.6844 H   0  0  0  0  0  0
   13.0539   -8.6490   22.2391 H   0  0  0  0  0  0
   14.3059   -9.8704   22.2426 H   0  0  0  0  0  0
   13.6160   -9.1178   19.9210 H   0  0  0  0  0  0
   12.0167   -9.7016   20.2397 H   0  0  0  0  0  0
   12.2563   -8.4807   23.8572 H   0  0  0  0  0  0
   10.0899  -11.0428   25.0027 H   0  0  0  0  0  0
   10.6445  -12.1220   23.8209 H   0  0  0  0  0  0
   16.2086  -15.4646   23.4753 H   0  0  0  0  0  0
   16.1714  -15.9892   21.1102 H   0  0  0  0  0  0
   17.0448  -17.4701   21.4728 H   0  0  0  0  0  0
   14.4139  -15.7859   22.9571 H   0  0  0  0  0  0
  1  6  1  0  0  0
  1  2  2  0  0  0
  1 35  1  0  0  0
  2  3  1  0  0  0
  2 36  1  0  0  0
  3  4  2  0  0  0
  3 37  1  0  0  0
  4  5  1  0  0  0
  4  7  1  0  0  0
  5  6  2  0  0  0
  5 38  1  0  0  0
  6 39  1  0  0  0
  7  8  1  0  0  0
  7 40  1  0  0  0
  7 41  1  0  0  0
  8 34  1  0  0  0
  8  9  1  0  0  0
  8 29  1  0  0  0
  9 10  2  0  0  0
  9 11  1  0  0  0
 11 16  1  0  0  0
 11 12  1  0  0  0
 12 13  1  0  0  0
 12 42  1  0  0  0
 12 43  1  0  0  0
 13 14  1  0  0  0
 13 44  1  0  0  0
 13 45  1  0  0  0
 14 15  1  0  0  0
 14 46  1  0  0  0
 14 47  1  0  0  0
 15 16  1  0  0  0
 15 48  1  0  0  0
 15 49  1  0  0  0
 16 17  1  0  0  0
 16 50  1  0  0  0
 17 18  1  0  0  0
 17 51  1  0  0  0
 17 52  1  0  0  0
 18 19  1  0  0  0
 18 53  1  0  0  0
 18 54  1  0  0  0
 19 20  1  0  0  0
 20 25  1  0  0  0
 20 21  1  0  0  0
 20 55  1  0  0  0
 21 22  1  0  0  0
 21 56  1  0  0  0
 21 57  1  0  0  0
 22 23  1  0  0  0
 22 58  1  0  0  0
 22 59  1  0  0  0
 23 24  1  0  0  0
 23 26  1  0  0  0
 24 25  1  0  0  0
 24 60  1  0  0  0
 24 61  1  0  0  0
 25 62  1  0  0  0
 25 63  1  0  0  0
 26 27  2  3  0  0
 26 28  1  0  0  0
 27 64  1  0  0  0
 28 65  1  0  0  0
 28 66  1  0  0  0
 29 30  1  0  0  0
 29 67  1  0  0  0
 30 31  1  0  0  0
 30 68  1  0  0  0
 30 69  1  0  0  0
 31 32  2  0  0  0
 31 33  1  0  0  0
 33 70  1  0  0  0
M  END
> <s_m_entry_id>
37693

> <s_m_entry_name>
ligand_docking-pose.40

> <s_m_Source_Path>
/home/csk/Desktop/cluster/DUD-E-result/thrb

> <s_m_Source_File>
ligand_docking-pose.sdf

> <i_m_Source_File_Index>
40

> <i_lp_mmshare_version>
53161

> <i_f3d_flags>
0

> <r_lp_tautomer_probability>
1

> <s_lp_Force_Field>
OPLS_2005

> <r_lp_Energy>
51.072817

> <b_lp_Chiralities_Consistent>
1

> <s_lp_Variant>
129843-2

> <s_i_glide_gridfile>
glide-grid_1ype

> <i_i_glide_lignum>
1062

> <i_i_glide_rotatable_bonds>
13

> <r_i_docking_score>
-8.49667682838455

> <r_i_glide_ligand_efficiency>
-0.257475055405592

> <r_i_glide_ligand_efficiency_sa>
-0.825860078368473

> <r_i_glide_ligand_efficiency_ln>
-1.88961693319458

> <r_i_glide_gscore>
-8.49667682838455

> <r_i_glide_lipo>
-3.79375654592111

> <r_i_glide_hbond>
-0.667880584337413

> <r_i_glide_metal>
0

> <r_i_glide_rewards>
-1.10206471246327

> <r_i_glide_evdw>
-43.1590957641602

> <r_i_glide_ecoul>
-10.8868799209595

> <r_i_glide_erotb>
0.952664294215204

> <r_i_glide_esite>
-0.0946525035260325

> <r_i_glide_emodel>
-75.549547190227

> <r_i_glide_energy>
-54.0459756851196

> <r_i_glide_einternal>
14.4124126434326

> <i_i_glide_confnum>
35

> <i_i_glide_posenum>
392

> <r_i_glide_eff_state_penalty>
0

> <s_user_duplicate_titles>
129843

> <s_m_subgroup_title>
dock_pv

> <s_m_subgroupid>
dock_pv1

> <b_m_subgroup_collapsed>
0

$$$$
33606
                    3D
 Schrodinger Suite 2021-1.
 62 65  0  0  1  0            999 V2000
   16.5900  -10.5862   15.2602 C   0  0  0  0  0  0
   15.8912  -11.6235   16.1600 C   0  0  0  0  0  0
   16.7221  -12.1120   17.3429 C   0  0  0  0  0  0
   17.9982  -11.8531   17.5080 N   0  0  0  0  0  0
   18.3235  -12.4141   18.7123 C   0  0  0  0  0  0
   19.5497  -12.4028   19.3896 C   0  0  0  0  0  0
   19.6351  -13.0740   20.6109 C   0  0  0  0  0  0
   18.5381  -13.7588   21.1585 C   0  0  0  0  0  0
   17.3011  -13.7530   20.5033 C   0  0  0  0  0  0
   17.2142  -13.0815   19.2785 C   0  0  0  0  0  0
   16.1942  -12.8904   18.3601 N   0  0  0  0  0  0
   14.8166  -13.3770   18.4775 C   0  0  0  0  0  0
   13.9582  -12.6945   19.5356 C   0  0  0  0  0  0
   14.2674  -11.5819   20.2335 C   0  0  0  0  0  0
   13.4516  -10.9709   21.3007 C   0  0  0  0  0  0
   13.6890   -9.6399   21.6637 C   0  0  0  0  0  0
   12.9877   -9.0561   22.7212 C   0  0  0  0  0  0
   12.0159   -9.7881   23.4009 C   0  0  0  0  0  0
   11.7554  -11.1060   23.0341 C   0  0  0  0  0  0
   12.4676  -11.6948   21.9901 C   0  0  0  0  0  0
   10.8160  -11.8529   23.7367 N   0  0  0  0  0  0
   18.5554  -14.4796   22.3375 O   0  0  0  0  0  0
   19.7351  -14.7576   23.1009 C   0  0  0  0  0  0
   20.8596  -15.5470   22.3875 C   0  0  0  0  0  0
   22.0041  -15.9030   23.3675 C   0  0  0  0  0  0
   22.4893  -14.6834   24.0434 N   0  0  0  0  0  0
   21.4320  -14.0223   24.8362 C   0  0  0  0  0  0
   20.2882  -13.5640   23.9040 C   0  0  0  0  0  0
   23.8450  -14.3373   24.0684 C   0  0  0  0  0  0
   24.8165  -14.9344   23.5210 N   0  0  0  0  0  0
   24.2140  -13.0975   24.8567 C   0  0  0  0  0  0
   15.9421  -10.2867   14.4360 H   0  0  0  0  0  0
   16.8518   -9.6855   15.8161 H   0  0  0  0  0  0
   17.5055  -10.9905   14.8287 H   0  0  0  0  0  0
   15.5900  -12.4740   15.5470 H   0  0  0  0  0  0
   14.9647  -11.1775   16.5245 H   0  0  0  0  0  0
   20.4107  -11.8992   18.9765 H   0  0  0  0  0  0
   20.5851  -13.0518   21.1170 H   0  0  0  0  0  0
   16.4540  -14.2692   20.9301 H   0  0  0  0  0  0
   14.8695  -14.4407   18.7140 H   0  0  0  0  0  0
   14.3158  -13.3099   17.5115 H   0  0  0  0  0  0
   13.0123  -13.1836   19.7164 H   0  0  0  0  0  0
   15.2088  -11.0904   20.0320 H   0  0  0  0  0  0
   14.4518   -9.0638   21.1587 H   0  0  0  0  0  0
   13.2183   -8.0502   23.0392 H   0  0  0  0  0  0
   11.4807   -9.3398   24.2259 H   0  0  0  0  0  0
   12.2697  -12.7282   21.7455 H   0  0  0  0  0  0
   10.7037  -12.8421   23.5222 H   0  0  0  0  0  0
   10.0937  -11.3827   24.2736 H   0  0  0  0  0  0
   19.3376  -15.4404   23.8536 H   0  0  0  0  0  0
   20.4670  -16.4750   21.9723 H   0  0  0  0  0  0
   21.3082  -14.9823   21.5731 H   0  0  0  0  0  0
   21.6176  -16.5443   24.1616 H   0  0  0  0  0  0
   22.7993  -16.4588   22.8671 H   0  0  0  0  0  0
   21.0476  -14.7968   25.5031 H   0  0  0  0  0  0
   21.7703  -13.2177   25.4895 H   0  0  0  0  0  0
   20.6823  -12.7883   23.2527 H   0  0  0  0  0  0
   19.5052  -13.1165   24.5160 H   0  0  0  0  0  0
   25.7024  -14.4803   23.7025 H   0  0  0  0  0  0
   24.0163  -13.2545   25.9170 H   0  0  0  0  0  0
   25.2623  -12.8133   24.7432 H   0  0  0  0  0  0
   23.6180  -12.2526   24.5316 H   0  0  0  0  0  0
  1  2  1  0  0  0
  1 32  1  0  0  0
  1 33  1  0  0  0
  1 34  1  0  0  0
  2  3  1  0  0  0
  2 35  1  0  0  0
  2 36  1  0  0  0
  3 11  1  0  0  0
  3  4  2  0  0  0
  4  5  1  0  0  0
  5 10  2  0  0  0
  5  6  1  0  0  0
  6  7  2  0  0  0
  6 37  1  0  0  0
  7  8  1  0  0  0
  7 38  1  0  0  0
  8  9  2  0  0  0
  8 22  1  0  0  0
  9 10  1  0  0  0
  9 39  1  0  0  0
 10 11  1  0  0  0
 11 12  1  0  0  0
 12 13  1  0  0  0
 12 40  1  0  0  0
 12 41  1  0  0  0
 13 14  2  0  0  0
 13 42  1  0  0  0
 14 15  1  0  0  0
 14 43  1  0  0  0
 15 20  1  0  0  0
 15 16  2  0  0  0
 16 17  1  0  0  0
 16 44  1  0  0  0
 17 18  2  0  0  0
 17 45  1  0  0  0
 18 19  1  0  0  0
 18 46  1  0  0  0
 19 20  2  0  0  0
 19 21  1  0  0  0
 20 47  1  0  0  0
 21 48  1  0  0  0
 21 49  1  0  0  0
 22 23  1  0  0  0
 23 28  1  0  0  0
 23 24  1  0  0  0
 23 50  1  0  0  0
 24 25  1  0  0  0
 24 51  1  0  0  0
 24 52  1  0  0  0
 25 26  1  0  0  0
 25 53  1  0  0  0
 25 54  1  0  0  0
 26 27  1  0  0  0
 26 29  1  0  0  0
 27 28  1  0  0  0
 27 55  1  0  0  0
 27 56  1  0  0  0
 28 57  1  0  0  0
 28 58  1  0  0  0
 29 30  2  3  0  0
 29 31  1  0  0  0
 30 59  1  0  0  0
 31 60  1  0  0  0
 31 61  1  0  0  0
 31 62  1  0  0  0
M  END
> <s_m_entry_id>
37694

> <s_m_entry_name>
ligand_docking-pose.41

> <s_m_Source_Path>
/home/csk/Desktop/cluster/DUD-E-result/thrb

> <s_m_Source_File>
ligand_docking-pose.sdf

> <i_m_Source_File_Index>
41

> <i_lp_mmshare_version>
53161

> <i_f3d_flags>
0

> <r_lp_tautomer_probability>
0.499900269896156

> <s_lp_Force_Field>
OPLS_2005

> <r_lp_Energy>
28.799828

> <b_lp_Chiralities_Consistent>
1

> <s_lp_Variant>
33606-1

> <s_i_glide_gridfile>
glide-grid_1ype

> <i_i_glide_lignum>
3251

> <i_i_glide_rotatable_bonds>
7

> <r_i_docking_score>
-8.48382486214116

> <r_i_glide_ligand_efficiency>
-0.273671769746489

> <r_i_glide_ligand_efficiency_sa>
-0.859707201603258

> <r_i_glide_ligand_efficiency_ln>
-1.91336250442028

> <r_i_glide_gscore>
-8.48382486214116

> <r_i_glide_lipo>
-3.54580416527699

> <r_i_glide_hbond>
-0.639883288295521

> <r_i_glide_metal>
0

> <r_i_glide_rewards>
-1.08556845368393

> <r_i_glide_evdw>
-43.7386093139648

> <r_i_glide_ecoul>
-10.1196050643921

> <r_i_glide_erotb>
0.566867802141604

> <r_i_glide_esite>
-0.074565531669267

> <r_i_glide_emodel>
-78.8218040535416

> <r_i_glide_energy>
-53.8582143783569

> <r_i_glide_einternal>
4.39253854751587

> <i_i_glide_confnum>
13

> <i_i_glide_posenum>
369

> <r_i_glide_eff_state_penalty>
0

> <s_user_duplicate_titles>
33606

> <s_m_subgroup_title>
dock_pv

> <s_m_subgroupid>
dock_pv1

> <b_m_subgroup_collapsed>
0

$$$$
347142
                    3D
 Schrodinger Suite 2021-1.
 62 64  0  0  1  0            999 V2000
   11.7527  -12.3677   21.7598 C   0  0  0  0  0  0
   12.5138  -11.1992   21.8407 C   0  0  0  0  0  0
   13.5465  -11.1634   21.0067 N   0  0  0  0  0  0
   13.6638  -12.2421   20.2686 C   0  0  0  0  0  0
   12.4259  -13.4228   20.5586 S   0  0  0  0  0  0
   14.7986  -12.4474   19.2839 C   0  0  0  0  0  0
   16.0709  -12.5008   20.0019 N   0  0  0  0  0  0
   17.2501  -12.0005   19.5956 C   0  0  0  0  0  0
   17.3854  -11.4552   18.4983 O   0  0  0  0  0  0
   18.4423  -12.1015   20.5947 C   0  0  2  0  0  0
   19.7960  -11.9576   19.9203 C   0  0  0  0  0  0
   20.4906  -13.0992   19.9888 C   0  0  0  0  0  0
   19.6990  -14.1290   20.7452 C   0  0  0  0  0  0
   18.5574  -13.3978   21.2851 N   0  0  0  0  0  0
   17.7834  -13.7816   22.3328 C   0  0  0  0  0  0
   16.8198  -13.1087   22.7173 O   0  0  0  0  0  0
   18.0742  -15.1301   23.0661 C   0  0  1  0  0  0
   18.5711  -14.8977   24.5202 C   0  0  0  0  0  0
   19.8996  -14.1164   24.6992 C   0  0  0  0  0  0
   20.1061  -13.7066   26.1744 C   0  0  0  0  0  0
   21.3551  -12.8182   26.3508 C   0  0  0  0  0  0
   22.6218  -13.4631   25.7369 C   0  0  0  0  0  0
   22.4000  -14.0437   24.3228 C   0  0  0  0  0  0
   21.1417  -14.9307   24.2750 C   0  0  0  0  0  0
   16.8160  -15.9084   23.1213 N   0  0  2  0  0  0
   16.3320  -16.4426   21.8424 C   0  0  0  0  0  0
   15.0985  -17.3219   22.0783 C   0  0  0  0  0  0
   15.0089  -18.4716   21.6558 O   0  0  0  0  0  0
   14.0951  -16.6531   22.7209 O   0  0  0  0  0  0
   12.2604  -10.0747   22.7692 C   0  0  0  0  0  0
   12.9941   -9.0530   22.7211 N   0  0  0  0  0  0
   11.2179  -10.2886   23.6375 N   0  0  0  0  0  0
   18.2838  -11.3004   21.3184 H   0  0  0  0  0  0
   18.8223  -15.7185   22.5369 H   0  0  0  0  0  0
   10.8706  -12.6525   22.3178 H   0  0  0  0  0  0
   14.7921  -11.6436   18.5449 H   0  0  0  0  0  0
   14.6764  -13.3793   18.7272 H   0  0  0  0  0  0
   16.0351  -12.8598   20.9494 H   0  0  0  0  0  0
   20.1336  -11.0530   19.4544 H   0  0  0  0  0  0
   21.4772  -13.2844   19.5909 H   0  0  0  0  0  0
   20.3128  -14.5780   21.5189 H   0  0  0  0  0  0
   19.3757  -14.9445   20.0954 H   0  0  0  0  0  0
   18.6739  -15.8666   25.0126 H   0  0  0  0  0  0
   17.7820  -14.3845   25.0763 H   0  0  0  0  0  0
   19.8585  -13.2033   24.1014 H   0  0  0  0  0  0
   20.1595  -14.5922   26.8079 H   0  0  0  0  0  0
   19.2256  -13.1711   26.5294 H   0  0  0  0  0  0
   21.5229  -12.6219   27.4088 H   0  0  0  0  0  0
   21.1728  -11.8385   25.9095 H   0  0  0  0  0  0
   22.9659  -14.2607   26.3966 H   0  0  0  0  0  0
   23.4321  -12.7355   25.6990 H   0  0  0  0  0  0
   23.2744  -14.6189   24.0175 H   0  0  0  0  0  0
   22.3029  -13.2294   23.6026 H   0  0  0  0  0  0
   21.0237  -15.3366   23.2750 H   0  0  0  0  0  0
   21.2490  -15.8195   24.9004 H   0  0  0  0  0  0
   16.1255  -15.3593   23.6348 H   0  0  0  0  0  0
   16.0714  -15.6451   21.1439 H   0  0  0  0  0  0
   17.1092  -17.0470   21.3723 H   0  0  0  0  0  0
   14.3584  -15.7633   22.9816 H   0  0  0  0  0  0
   13.6986   -9.1340   22.0055 H   0  0  0  0  0  0
   10.9665   -9.5771   24.3085 H   0  0  0  0  0  0
   10.5746  -11.0579   23.5030 H   0  0  0  0  0  0
  1  5  1  0  0  0
  1  2  2  0  0  0
  1 35  1  0  0  0
  2  3  1  0  0  0
  2 30  1  0  0  0
  3  4  2  0  0  0
  4  5  1  0  0  0
  4  6  1  0  0  0
  6  7  1  0  0  0
  6 36  1  0  0  0
  6 37  1  0  0  0
  7  8  1  0  0  0
  7 38  1  0  0  0
  8  9  2  0  0  0
  8 10  1  0  0  0
 10 33  1  0  0  0
 10 14  1  0  0  0
 10 11  1  0  0  0
 11 12  2  0  0  0
 11 39  1  0  0  0
 12 13  1  0  0  0
 12 40  1  0  0  0
 13 14  1  0  0  0
 13 41  1  0  0  0
 13 42  1  0  0  0
 14 15  1  0  0  0
 15 16  2  0  0  0
 15 17  1  0  0  0
 17 34  1  0  0  0
 17 18  1  0  0  0
 17 25  1  0  0  0
 18 19  1  0  0  0
 18 43  1  0  0  0
 18 44  1  0  0  0
 19 24  1  0  0  0
 19 20  1  0  0  0
 19 45  1  0  0  0
 20 21  1  0  0  0
 20 46  1  0  0  0
 20 47  1  0  0  0
 21 22  1  0  0  0
 21 48  1  0  0  0
 21 49  1  0  0  0
 22 23  1  0  0  0
 22 50  1  0  0  0
 22 51  1  0  0  0
 23 24  1  0  0  0
 23 52  1  0  0  0
 23 53  1  0  0  0
 24 54  1  0  0  0
 24 55  1  0  0  0
 25 26  1  0  0  0
 25 56  1  0  0  0
 26 27  1  0  0  0
 26 57  1  0  0  0
 26 58  1  0  0  0
 27 28  2  0  0  0
 27 29  1  0  0  0
 29 59  1  0  0  0
 30 31  2  3  0  0
 30 32  1  0  0  0
 31 60  1  0  0  0
 32 61  1  0  0  0
 32 62  1  0  0  0
M  END
> <s_m_entry_id>
37695

> <s_m_entry_name>
ligand_docking-pose.42

> <s_m_Source_Path>
/home/csk/Desktop/cluster/DUD-E-result/thrb

> <s_m_Source_File>
ligand_docking-pose.sdf

> <i_m_Source_File_Index>
42

> <i_lp_mmshare_version>
53161

> <i_f3d_flags>
0

> <r_lp_tautomer_probability>
1

> <s_lp_Force_Field>
OPLS_2005

> <r_lp_Energy>
21.077644

> <b_lp_Chiralities_Consistent>
1

> <s_lp_Variant>
347142-2

> <s_i_glide_gridfile>
glide-grid_1ype

> <i_i_glide_lignum>
2091

> <i_i_glide_rotatable_bonds>
13

> <r_i_docking_score>
-8.45527155807139

> <r_i_glide_ligand_efficiency>
-0.264227236189731

> <r_i_glide_ligand_efficiency_sa>
-0.838869184403358

> <r_i_glide_ligand_efficiency_ln>
-1.89336578384998

> <r_i_glide_gscore>
-8.45527155807139

> <r_i_glide_lipo>
-3.09632176323485

> <r_i_glide_hbond>
-0.542143295187025

> <r_i_glide_metal>
0

> <r_i_glide_rewards>
-1.31578028316343

> <r_i_glide_evdw>
-47.3197326660156

> <r_i_glide_ecoul>
-13.8011064529419

> <r_i_glide_erotb>
0.941494306592247

> <r_i_glide_esite>
-0.00636792183627646

> <r_i_glide_emodel>
-86.8205287338382

> <r_i_glide_energy>
-61.1208391189575

> <r_i_glide_einternal>
12.6846122741699

> <i_i_glide_confnum>
43

> <i_i_glide_posenum>
397

> <r_i_glide_eff_state_penalty>
0

> <s_user_duplicate_titles>
347142

> <s_m_subgroup_title>
dock_pv

> <s_m_subgroupid>
dock_pv1

> <b_m_subgroup_collapsed>
0

$$$$
140086
                    3D
 Schrodinger Suite 2021-1.
 69 72  0  0  1  0            999 V2000
   22.6165  -13.4536   25.2570 C   0  0  0  0  0  0
   21.4671  -13.0254   25.9178 C   0  0  0  0  0  0
   20.4763  -13.9412   26.2463 C   0  0  0  0  0  0
   20.6439  -15.2888   25.9210 C   0  0  0  0  0  0
   21.7949  -15.7174   25.2564 C   0  0  0  0  0  0
   22.7845  -14.7962   24.9230 C   0  0  0  0  0  0
   19.5919  -16.2949   26.3628 C   0  0  0  0  0  0
   18.0913  -16.3019   25.2517 S   0  0  0  0  0  0
   17.6165  -14.9204   25.1259 O   0  0  0  0  0  0
   17.1966  -17.3704   25.7030 O   0  0  0  0  0  0
   18.7672  -16.8165   23.7198 N   0  0  2  0  0  0
   19.0369  -15.7995   22.6753 C   0  0  1  0  0  0
   20.3852  -16.0959   21.9892 C   0  0  0  0  0  0
   20.5196  -15.5047   20.5826 C   0  0  0  0  0  0
   20.0762  -14.0566   20.4422 C   0  0  0  0  0  0
   21.0103  -13.1049   20.0206 C   0  0  0  0  0  0
   20.6912  -11.7634   19.9246 C   0  0  0  0  0  0
   19.4277  -11.3454   20.3071 C   0  0  0  0  0  0
   18.4704  -12.2762   20.6650 C   0  0  0  0  0  0
   18.7477  -13.6542   20.7521 C   0  0  0  0  0  0
   17.7126  -14.6237   20.9793 N   0  0  0  0  0  0
   17.7941  -15.7590   21.7452 C   0  0  0  0  0  0
   16.9326  -16.6486   21.7728 O   0  0  0  0  0  0
   16.3805  -14.3965   20.3536 C   0  0  0  0  0  0
   15.5420  -13.4397   21.2221 C   0  0  0  0  0  0
   15.9458  -13.0528   22.3209 O   0  0  0  0  0  0
   14.4678  -12.9071   20.6304 N   0  0  0  0  0  0
   13.8289  -11.6753   21.0962 C   0  0  1  0  0  0
   13.5099  -10.7633   19.9024 C   0  0  0  0  0  0
   13.0408   -9.3996   20.4082 C   0  0  0  0  0  0
   11.8691   -9.5493   21.3861 C   0  0  0  0  0  0
   12.1698  -10.4801   22.4899 N   0  0  0  0  0  0
   12.6161  -11.8187   22.0620 C   0  0  1  0  0  0
   11.6162  -12.6551   21.5162 O   0  0  0  0  0  0
   11.5595  -10.2211   23.7536 C   0  0  0  0  0  0
   11.6139   -9.1026   24.3209 N   0  0  0  0  0  0
   10.8160  -11.2755   24.3157 N   0  0  0  0  0  0
   19.1111  -14.8228   23.1582 H   0  0  0  0  0  0
   14.5932  -11.1121   21.6424 H   0  0  0  0  0  0
   23.3876  -12.7398   25.0069 H   0  0  0  0  0  0
   21.3427  -11.9836   26.1779 H   0  0  0  0  0  0
   19.5901  -13.6055   26.7660 H   0  0  0  0  0  0
   21.9296  -16.7611   25.0109 H   0  0  0  0  0  0
   23.6827  -15.1226   24.4183 H   0  0  0  0  0  0
   19.2150  -16.0615   27.3588 H   0  0  0  0  0  0
   19.9837  -17.3117   26.3804 H   0  0  0  0  0  0
   18.2833  -17.6373   23.3456 H   0  0  0  0  0  0
   21.1930  -15.7093   22.6092 H   0  0  0  0  0  0
   20.5564  -17.1718   21.9237 H   0  0  0  0  0  0
   19.8846  -16.0738   19.9213 H   0  0  0  0  0  0
   21.5379  -15.6436   20.2179 H   0  0  0  0  0  0
   22.0148  -13.3970   19.7741 H   0  0  0  0  0  0
   21.4462  -11.0533   19.6299 H   0  0  0  0  0  0
   19.1742  -10.2956   20.3213 H   0  0  0  0  0  0
   17.5043  -11.8646   20.8899 H   0  0  0  0  0  0
   15.8178  -15.3142   20.1750 H   0  0  0  0  0  0
   16.5253  -13.9444   19.3734 H   0  0  0  0  0  0
   14.0327  -13.3846   19.8549 H   0  0  0  0  0  0
   12.7448  -11.2204   19.2704 H   0  0  0  0  0  0
   14.3980  -10.6518   19.2810 H   0  0  0  0  0  0
   12.7441   -8.7695   19.5691 H   0  0  0  0  0  0
   13.8593   -8.8684   20.8960 H   0  0  0  0  0  0
   10.9915   -9.9182   20.8598 H   0  0  0  0  0  0
   11.6160   -8.5626   21.7695 H   0  0  0  0  0  0
   12.9834  -12.3510   22.9427 H   0  0  0  0  0  0
   11.2611  -13.2245   22.2088 H   0  0  0  0  0  0
   11.0524   -9.1129   25.1591 H   0  0  0  0  0  0
   10.1558  -11.0912   25.0629 H   0  0  0  0  0  0
   10.5312  -12.0521   23.7399 H   0  0  0  0  0  0
  1  6  1  0  0  0
  1  2  2  0  0  0
  1 40  1  0  0  0
  2  3  1  0  0  0
  2 41  1  0  0  0
  3  4  2  0  0  0
  3 42  1  0  0  0
  4  5  1  0  0  0
  4  7  1  0  0  0
  5  6  2  0  0  0
  5 43  1  0  0  0
  6 44  1  0  0  0
  7  8  1  0  0  0
  7 45  1  0  0  0
  7 46  1  0  0  0
  8  9  2  0  0  0
  8 10  2  0  0  0
  8 11  1  0  0  0
 11 12  1  0  0  0
 11 47  1  0  0  0
 12 38  1  0  0  0
 12 22  1  0  0  0
 12 13  1  0  0  0
 13 14  1  0  0  0
 13 48  1  0  0  0
 13 49  1  0  0  0
 14 15  1  0  0  0
 14 50  1  0  0  0
 14 51  1  0  0  0
 15 20  2  0  0  0
 15 16  1  0  0  0
 16 17  2  0  0  0
 16 52  1  0  0  0
 17 18  1  0  0  0
 17 53  1  0  0  0
 18 19  2  0  0  0
 18 54  1  0  0  0
 19 20  1  0  0  0
 19 55  1  0  0  0
 20 21  1  0  0  0
 21 22  1  0  0  0
 21 24  1  0  0  0
 22 23  2  0  0  0
 24 25  1  0  0  0
 24 56  1  0  0  0
 24 57  1  0  0  0
 25 26  2  0  0  0
 25 27  1  0  0  0
 27 28  1  0  0  0
 27 58  1  0  0  0
 28 39  1  0  0  0
 28 33  1  0  0  0
 28 29  1  0  0  0
 29 30  1  0  0  0
 29 59  1  0  0  0
 29 60  1  0  0  0
 30 31  1  0  0  0
 30 61  1  0  0  0
 30 62  1  0  0  0
 31 32  1  0  0  0
 31 63  1  0  0  0
 31 64  1  0  0  0
 32 33  1  0  0  0
 32 35  1  0  0  0
 33 34  1  0  0  0
 33 65  1  0  0  0
 34 66  1  0  0  0
 35 36  2  3  0  0
 35 37  1  0  0  0
 36 67  1  0  0  0
 37 68  1  0  0  0
 37 69  1  0  0  0
M  END
> <s_m_entry_id>
37696

> <s_m_entry_name>
ligand_docking-pose.43

> <s_m_Source_Path>
/home/csk/Desktop/cluster/DUD-E-result/thrb

> <s_m_Source_File>
ligand_docking-pose.sdf

> <i_m_Source_File_Index>
43

> <i_lp_mmshare_version>
53161

> <i_f3d_flags>
0

> <r_lp_tautomer_probability>
1

> <s_lp_Force_Field>
OPLS_2005

> <r_lp_Energy>
36.571749

> <b_lp_Chiralities_Consistent>
1

> <s_lp_Variant>
140086-1

> <s_i_glide_gridfile>
glide-grid_1ype

> <i_i_glide_lignum>
1573

> <i_i_glide_rotatable_bonds>
10

> <r_i_docking_score>
-8.44419689069324

> <r_i_glide_ligand_efficiency>
-0.228221537586304

> <r_i_glide_ligand_efficiency_sa>
-0.76048479364597

> <r_i_glide_ligand_efficiency_ln>
-1.83134834552948

> <r_i_glide_gscore>
-8.44419689069324

> <r_i_glide_lipo>
-3.46418384795674

> <r_i_glide_hbond>
-0.657333598857944

> <r_i_glide_metal>
0

> <r_i_glide_rewards>
-1.19389470755943

> <r_i_glide_evdw>
-48.2616691589355

> <r_i_glide_ecoul>
-7.61940813064575

> <r_i_glide_erotb>
0.516089603412231

> <r_i_glide_esite>
-0.0888796621877147

> <r_i_glide_emodel>
-70.3793029801148

> <r_i_glide_energy>
-55.8810772895813

> <r_i_glide_einternal>
17.2246952056885

> <i_i_glide_confnum>
94

> <i_i_glide_posenum>
358

> <r_i_glide_eff_state_penalty>
0

> <s_user_duplicate_titles>
140086

> <s_m_subgroup_title>
dock_pv

> <s_m_subgroupid>
dock_pv1

> <b_m_subgroup_collapsed>
0

$$$$
128993
                    3D
 Schrodinger Suite 2021-1.
 59 61  0  0  1  0            999 V2000
   11.6141  -10.2517   23.5872 C   0  0  0  0  0  0
   12.4168   -9.3411   22.9083 C   0  0  0  0  0  0
   13.0765   -9.7311   21.7454 C   0  0  0  0  0  0
   12.9455  -11.0377   21.2656 C   0  0  0  0  0  0
   12.1369  -11.9480   21.9593 C   0  0  0  0  0  0
   11.4721  -11.5526   23.1177 C   0  0  0  0  0  0
   13.6344  -11.4623   19.9605 C   0  0  0  0  0  0
   15.2048  -11.5629   19.9032 C   0  0  2  0  0  0
   15.6117  -11.8994   18.4484 C   0  0  0  0  0  0
   17.0814  -12.2795   18.3353 C   0  0  0  0  0  0
   17.3734  -13.4939   19.2168 C   0  0  0  0  0  0
   16.8056  -13.3995   20.5793 N   0  0  0  0  0  0
   15.7466  -12.6024   20.9517 C   0  0  0  0  0  0
   15.2996  -12.6530   22.1002 O   0  0  0  0  0  0
   17.4202  -14.2845   21.5968 C   0  0  0  0  0  0
   18.6482  -13.6103   22.2450 C   0  0  0  0  0  0
   19.2146  -12.6534   21.7131 O   0  0  0  0  0  0
   19.0459  -14.1350   23.4136 N   0  0  0  0  0  0
   20.2168  -13.7171   24.1980 C   0  0  1  0  0  0
   19.9060  -13.7233   25.7068 C   0  0  0  0  0  0
   21.1435  -13.3544   26.5385 C   0  0  0  0  0  0
   22.3400  -14.2567   26.1973 C   0  0  0  0  0  0
   22.6471  -14.1243   24.7667 N   0  0  0  0  0  0
   21.5236  -14.5191   23.8905 C   0  0  1  0  0  0
   21.2819  -15.9180   23.8767 O   0  0  0  0  0  0
   23.9820  -14.2486   24.2734 C   0  0  0  0  0  0
   24.3289  -13.8531   23.1374 N   0  0  0  0  0  0
   24.9129  -14.8772   25.1206 N   0  0  0  0  0  0
   15.8398  -10.3197   20.3212 N   0  0  0  0  0  0
   20.4282  -12.6710   23.9597 H   0  0  0  0  0  0
   11.0874   -9.9468   24.4807 H   0  0  0  0  0  0
   12.5256   -8.3342   23.2823 H   0  0  0  0  0  0
   13.6926   -9.0170   21.2214 H   0  0  0  0  0  0
   12.0095  -12.9598   21.6031 H   0  0  0  0  0  0
   10.8353  -12.2485   23.6445 H   0  0  0  0  0  0
   13.2957  -10.7554   19.2023 H   0  0  0  0  0  0
   13.2036  -12.4127   19.6381 H   0  0  0  0  0  0
   15.4009  -11.0537   17.7912 H   0  0  0  0  0  0
   15.0059  -12.7265   18.0706 H   0  0  0  0  0  0
   17.7261  -11.4527   18.6336 H   0  0  0  0  0  0
   17.3446  -12.5054   17.3007 H   0  0  0  0  0  0
   18.4125  -13.8238   19.2163 H   0  0  0  0  0  0
   16.8141  -14.3139   18.7650 H   0  0  0  0  0  0
   17.7237  -15.2204   21.1260 H   0  0  0  0  0  0
   16.7033  -14.5818   22.3646 H   0  0  0  0  0  0
   18.6078  -14.9927   23.7166 H   0  0  0  0  0  0
   19.5782  -14.7193   26.0090 H   0  0  0  0  0  0
   19.0880  -13.0391   25.9253 H   0  0  0  0  0  0
   20.8956  -13.4542   27.5889 H   0  0  0  0  0  0
   21.4110  -12.3048   26.4024 H   0  0  0  0  0  0
   22.1074  -15.3010   26.4076 H   0  0  0  0  0  0
   23.2088  -13.9801   26.8009 H   0  0  0  0  0  0
   21.7720  -14.2789   22.8544 H   0  0  0  0  0  0
   21.9848  -16.3383   23.3760 H   0  0  0  0  0  0
   23.5550  -13.4195   22.6573 H   0  0  0  0  0  0
   25.8859  -14.9489   24.8593 H   0  0  0  0  0  0
   24.7181  -15.0537   26.0960 H   0  0  0  0  0  0
   16.8451  -10.4188   20.3150 H   0  0  0  0  0  0
   15.6160   -9.5910   19.6473 H   0  0  0  0  0  0
  1  6  1  0  0  0
  1  2  2  0  0  0
  1 31  1  0  0  0
  2  3  1  0  0  0
  2 32  1  0  0  0
  3  4  2  0  0  0
  3 33  1  0  0  0
  4  5  1  0  0  0
  4  7  1  0  0  0
  5  6  2  0  0  0
  5 34  1  0  0  0
  6 35  1  0  0  0
  7  8  1  0  0  0
  7 36  1  0  0  0
  7 37  1  0  0  0
  8 13  1  0  0  0
  8  9  1  0  0  0
  8 29  1  0  0  0
  9 10  1  0  0  0
  9 38  1  0  0  0
  9 39  1  0  0  0
 10 11  1  0  0  0
 10 40  1  0  0  0
 10 41  1  0  0  0
 11 12  1  0  0  0
 11 42  1  0  0  0
 11 43  1  0  0  0
 12 13  1  0  0  0
 12 15  1  0  0  0
 13 14  2  0  0  0
 15 16  1  0  0  0
 15 44  1  0  0  0
 15 45  1  0  0  0
 16 17  2  0  0  0
 16 18  1  0  0  0
 18 19  1  0  0  0
 18 46  1  0  0  0
 19 30  1  0  0  0
 19 24  1  0  0  0
 19 20  1  0  0  0
 20 21  1  0  0  0
 20 47  1  0  0  0
 20 48  1  0  0  0
 21 22  1  0  0  0
 21 49  1  0  0  0
 21 50  1  0  0  0
 22 23  1  0  0  0
 22 51  1  0  0  0
 22 52  1  0  0  0
 23 24  1  0  0  0
 23 26  1  0  0  0
 24 25  1  0  0  0
 24 53  1  0  0  0
 25 54  1  0  0  0
 26 27  2  3  0  0
 26 28  1  0  0  0
 27 55  1  0  0  0
 28 56  1  0  0  0
 28 57  1  0  0  0
 29 58  1  0  0  0
 29 59  1  0  0  0
M  END
> <s_m_entry_id>
37697

> <s_m_entry_name>
ligand_docking-pose.44

> <s_m_Source_Path>
/home/csk/Desktop/cluster/DUD-E-result/thrb

> <s_m_Source_File>
ligand_docking-pose.sdf

> <i_m_Source_File_Index>
44

> <i_lp_mmshare_version>
53161

> <i_f3d_flags>
0

> <r_lp_tautomer_probability>
1

> <s_lp_Force_Field>
OPLS_2005

> <r_lp_Energy>
29.372595

> <b_lp_Chiralities_Consistent>
1

> <s_lp_Variant>
128993-2

> <s_i_glide_gridfile>
glide-grid_1ype

> <i_i_glide_lignum>
814

> <i_i_glide_rotatable_bonds>
8

> <r_i_docking_score>
-8.43637247162766

> <r_i_glide_ligand_efficiency>
-0.290909395573368

> <r_i_glide_ligand_efficiency_sa>
-0.893765829766966

> <r_i_glide_ligand_efficiency_ln>
-1.93171536805506

> <r_i_glide_gscore>
-8.43637247162766

> <r_i_glide_lipo>
-3.06358635639392

> <r_i_glide_hbond>
-0.9079839865729

> <r_i_glide_metal>
0

> <r_i_glide_rewards>
-1.69727722718903

> <r_i_glide_evdw>
-36.0273132324219

> <r_i_glide_ecoul>
-11.2866039276123

> <r_i_glide_erotb>
0.726831349291137

> <r_i_glide_esite>
0

> <r_i_glide_emodel>
-67.1522586974486

> <r_i_glide_energy>
-47.3139171600342

> <r_i_glide_einternal>
6.26925849914551

> <i_i_glide_confnum>
7

> <i_i_glide_posenum>
182

> <r_i_glide_eff_state_penalty>
0

> <s_user_duplicate_titles>
128993,133157

> <s_m_subgroup_title>
dock_pv

> <s_m_subgroupid>
dock_pv1

> <b_m_subgroup_collapsed>
0

$$$$
346762
                    3D
 Schrodinger Suite 2021-1.
 73 75  0  0  1  0            999 V2000
   21.6162  -13.0416   21.4663 C   0  0  0  0  0  0
   20.5216  -13.5931   20.5607 C   0  0  0  0  0  0
   19.5728  -12.4638   20.1963 C   0  0  0  0  0  0
   18.5054  -12.5175   21.2734 C   0  0  2  0  0  0
   18.6062  -13.8748   21.8471 N   0  0  0  0  0  0
   19.6984  -14.6430   21.2922 C   0  0  0  0  0  0
   17.7773  -14.3312   22.8003 C   0  0  0  0  0  0
   16.8167  -13.6540   23.1483 O   0  0  0  0  0  0
   18.0773  -15.6858   23.5178 C   0  0  1  0  0  0
   18.6759  -15.4374   24.9271 C   0  0  0  0  0  0
   20.0167  -14.6568   24.9840 C   0  0  0  0  0  0
   20.2242  -14.0314   26.3771 C   0  0  0  0  0  0
   21.5030  -13.1765   26.4293 C   0  0  0  0  0  0
   22.7529  -13.9742   25.9784 C   0  0  0  0  0  0
   22.5391  -14.7241   24.6521 C   0  0  0  0  0  0
   21.2383  -15.5477   24.6613 C   0  0  0  0  0  0
   16.8149  -16.4416   23.6624 N   0  0  2  0  0  0
   16.2916  -17.0365   22.4254 C   0  0  0  0  0  0
   15.1212  -17.9899   22.7290 C   0  0  0  0  0  0
   14.9514  -18.5775   23.8011 O   0  0  0  0  0  0
   14.3480  -18.1846   21.6188 O   0  0  0  0  0  0
   17.1644  -12.1652   20.6247 C   0  0  0  0  0  0
   16.5577  -12.9582   19.9019 O   0  0  0  0  0  0
   16.8221  -10.9014   20.8268 N   0  0  0  0  0  0
   15.6470  -10.2613   20.3178 C   0  0  0  0  0  0
   14.4146  -10.4296   21.1559 C   0  0  0  0  0  0
   13.7559  -11.6545   21.2992 C   0  0  0  0  0  0
   12.6527  -11.7338   22.1484 C   0  0  0  0  0  0
   12.2328  -10.5759   22.8341 C   0  0  0  0  0  0
   12.8605   -9.3798   22.6433 N   0  0  0  0  0  0
   13.9236   -9.3186   21.8257 C   0  0  0  0  0  0
   11.1164  -10.5334   23.8087 C   0  0  0  0  0  0
   10.8160   -9.4582   24.4091 N   0  0  0  0  0  0
   10.4203  -11.7218   23.9216 N   0  0  0  0  0  0
   21.0914  -14.2001   19.3178 C   0  0  0  0  0  0
   18.7062  -11.7704   22.0445 H   0  0  0  0  0  0
   18.7738  -16.2902   22.9402 H   0  0  0  0  0  0
   22.0163  -12.1699   20.9690 H   0  0  0  0  0  0
   21.2301  -12.7180   22.4375 H   0  0  0  0  0  0
   22.4161  -13.7522   21.6492 H   0  0  0  0  0  0
   19.1413  -12.6833   19.2131 H   0  0  0  0  0  0
   20.0300  -11.4783   20.0814 H   0  0  0  0  0  0
   20.3227  -15.2017   21.9880 H   0  0  0  0  0  0
   19.2547  -15.3350   20.5736 H   0  0  0  0  0  0
   18.8173  -16.3974   25.4164 H   0  0  0  0  0  0
   17.9313  -14.9226   25.5354 H   0  0  0  0  0  0
   20.0023  -13.8279   24.2723 H   0  0  0  0  0  0
   20.2509  -14.8258   27.1211 H   0  0  0  0  0  0
   19.3602  -13.4219   26.6530 H   0  0  0  0  0  0
   21.6227  -12.7880   27.4404 H   0  0  0  0  0  0
   21.3810  -12.3024   25.7942 H   0  0  0  0  0  0
   23.0187  -14.7174   26.7203 H   0  0  0  0  0  0
   23.6121  -13.3091   25.9127 H   0  0  0  0  0  0
   23.3937  -15.3764   24.4567 H   0  0  0  0  0  0
   22.5255  -13.9955   23.8478 H   0  0  0  0  0  0
   21.1045  -16.0486   23.7039 H   0  0  0  0  0  0
   21.3021  -16.3660   25.3799 H   0  0  0  0  0  0
   16.1142  -15.7840   24.0286 H   0  0  0  0  0  0
   15.9461  -16.2297   21.7737 H   0  0  0  0  0  0
   17.0623  -17.6015   21.8977 H   0  0  0  0  0  0
   14.6345  -17.6566   20.8716 H   0  0  0  0  0  0
   17.3736  -10.3476   21.4702 H   0  0  0  0  0  0
   15.9207   -9.2087   20.3210 H   0  0  0  0  0  0
   15.4327  -10.6534   19.3180 H   0  0  0  0  0  0
   14.1066  -12.5400   20.7864 H   0  0  0  0  0  0
   12.1673  -12.6882   22.2814 H   0  0  0  0  0  0
   14.4128   -8.3590   21.7685 H   0  0  0  0  0  0
    9.9499   -9.5567   24.9480 H   0  0  0  0  0  0
    9.6164  -11.7582   24.5464 H   0  0  0  0  0  0
   10.7389  -12.5838   23.5033 H   0  0  0  0  0  0
   21.6168  -13.4698   18.7072 H   0  0  0  0  0  0
   21.6161  -15.1297   19.5213 H   0  0  0  0  0  0
   20.2628  -14.4856   18.7214 H   0  0  0  0  0  0
  1  2  1  0  0  0
  1 38  1  0  0  0
  1 39  1  0  0  0
  1 40  1  0  0  0
  2  6  1  0  0  0
  2  3  1  0  0  0
  2 35  1  0  0  0
  3  4  1  0  0  0
  3 41  1  0  0  0
  3 42  1  0  0  0
  4 36  1  0  0  0
  4  5  1  0  0  0
  4 22  1  0  0  0
  5  6  1  0  0  0
  5  7  1  0  0  0
  6 43  1  0  0  0
  6 44  1  0  0  0
  7  8  2  0  0  0
  7  9  1  0  0  0
  9 37  1  0  0  0
  9 10  1  0  0  0
  9 17  1  0  0  0
 10 11  1  0  0  0
 10 45  1  0  0  0
 10 46  1  0  0  0
 11 16  1  0  0  0
 11 12  1  0  0  0
 11 47  1  0  0  0
 12 13  1  0  0  0
 12 48  1  0  0  0
 12 49  1  0  0  0
 13 14  1  0  0  0
 13 50  1  0  0  0
 13 51  1  0  0  0
 14 15  1  0  0  0
 14 52  1  0  0  0
 14 53  1  0  0  0
 15 16  1  0  0  0
 15 54  1  0  0  0
 15 55  1  0  0  0
 16 56  1  0  0  0
 16 57  1  0  0  0
 17 18  1  0  0  0
 17 58  1  0  0  0
 18 19  1  0  0  0
 18 59  1  0  0  0
 18 60  1  0  0  0
 19 20  2  0  0  0
 19 21  1  0  0  0
 21 61  1  0  0  0
 22 23  2  0  0  0
 22 24  1  0  0  0
 24 25  1  0  0  0
 24 62  1  0  0  0
 25 26  1  0  0  0
 25 63  1  0  0  0
 25 64  1  0  0  0
 26 31  1  0  0  0
 26 27  2  0  0  0
 27 28  1  0  0  0
 27 65  1  0  0  0
 28 29  2  0  0  0
 28 66  1  0  0  0
 29 30  1  0  0  0
 29 32  1  0  0  0
 30 31  2  0  0  0
 31 67  1  0  0  0
 32 33  2  3  0  0
 32 34  1  0  0  0
 33 68  1  0  0  0
 34 69  1  0  0  0
 34 70  1  0  0  0
 35 71  1  0  0  0
 35 72  1  0  0  0
 35 73  1  0  0  0
M  END
> <s_m_entry_id>
37698

> <s_m_entry_name>
ligand_docking-pose.45

> <s_m_Source_Path>
/home/csk/Desktop/cluster/DUD-E-result/thrb

> <s_m_Source_File>
ligand_docking-pose.sdf

> <i_m_Source_File_Index>
45

> <i_lp_mmshare_version>
53161

> <i_f3d_flags>
0

> <r_lp_tautomer_probability>
1

> <s_lp_Force_Field>
OPLS_2005

> <r_lp_Energy>
25.536987

> <b_lp_Chiralities_Consistent>
1

> <s_lp_Variant>
346762-1

> <s_i_glide_gridfile>
glide-grid_1ype

> <i_i_glide_lignum>
2846

> <i_i_glide_rotatable_bonds>
13

> <r_i_docking_score>
-8.42181235842824

> <r_i_glide_ligand_efficiency>
-0.240623210240807

> <r_i_glide_ligand_efficiency_sa>
-0.787094475535331

> <r_i_glide_ligand_efficiency_ln>
-1.84877472472974

> <r_i_glide_gscore>
-8.42181235842824

> <r_i_glide_lipo>
-3.41065767930274

> <r_i_glide_hbond>
-1.40142272440066

> <r_i_glide_metal>
0

> <r_i_glide_rewards>
-0.829456287257674

> <r_i_glide_evdw>
-25.5921630859375

> <r_i_glide_ecoul>
-14.9408168792725

> <r_i_glide_erotb>
0.858302660017381

> <r_i_glide_esite>
-0.117847641296806

> <r_i_glide_emodel>
-65.0374706370029

> <r_i_glide_energy>
-40.53297996521

> <r_i_glide_einternal>
12.353443145752

> <i_i_glide_confnum>
69

> <i_i_glide_posenum>
199

> <r_i_glide_eff_state_penalty>
0

> <s_user_duplicate_titles>
346762

> <s_m_subgroup_title>
dock_pv

> <s_m_subgroupid>
dock_pv1

> <b_m_subgroup_collapsed>
0

$$$$
179163
                    3D
 Schrodinger Suite 2021-1.
 74 78  0  0  1  0            999 V2000
   13.2155   -8.2177   23.5217 C   0  0  0  0  0  0
   12.1267   -8.4931   24.3365 C   0  0  0  0  0  0
   11.4344   -9.6860   24.1732 C   0  0  0  0  0  0
   11.7829  -10.5678   23.1531 C   0  0  0  0  0  0
   12.8173  -10.2239   22.2594 C   0  0  0  0  0  0
   13.5366   -9.0531   22.4621 C   0  0  0  0  0  0
   13.1422  -11.1429   21.0999 C   0  0  0  0  0  0
   12.8266  -12.6113   21.4666 C   0  0  1  0  0  0
   11.4137  -12.6537   21.8440 N   0  0  2  0  0  0
   11.1263  -11.9331   23.0762 C   0  0  0  0  0  0
   13.0250  -13.5449   20.2401 C   0  0  0  0  0  0
   12.9764  -13.0465   19.1133 O   0  0  0  0  0  0
   13.3747  -14.8473   20.4132 N   0  0  0  0  0  0
   13.7321  -15.6820   19.2631 C   0  0  0  0  0  0
   15.1335  -16.2518   19.5726 C   0  0  2  0  0  0
   15.5470  -17.4292   18.6928 C   0  0  0  0  0  0
   16.6193  -18.1702   19.4860 C   0  0  0  0  0  0
   16.4379  -17.7428   20.9660 C   0  0  2  0  0  0
   15.3078  -16.7913   20.9361 N   0  0  0  0  0  0
   14.3759  -16.6444   21.9226 C   0  0  0  0  0  0
   14.4168  -17.2931   22.9672 O   0  0  0  0  0  0
   13.2643  -15.5913   21.6814 C   0  0  0  0  0  0
   17.7452  -17.1858   21.5928 C   0  0  0  0  0  0
   18.8173  -17.7348   21.3160 O   0  0  0  0  0  0
   17.6895  -16.1157   22.4132 N   0  0  0  0  0  0
   18.8763  -15.3907   22.9135 C   0  0  1  0  0  0
   19.0238  -14.0381   22.1654 C   0  0  0  0  0  0
   19.2394  -14.1450   20.6431 C   0  0  0  0  0  0
   19.7051  -12.8166   20.0287 C   0  0  0  0  0  0
   18.7553  -11.7550   20.3100 N   0  0  0  0  0  0
   17.6031  -11.4641   19.5987 C   0  0  0  0  0  0
   17.3483  -11.8796   18.4379 N   0  0  0  0  0  0
   16.7512  -10.6530   20.3212 N   0  0  0  0  0  0
   18.7343  -15.1293   24.4179 C   0  0  0  0  0  0
   17.6641  -15.2911   25.0048 O   0  0  0  0  0  0
   19.8819  -14.5801   25.1501 C   0  0  0  0  0  0
   19.8065  -13.8485   26.2354 N   0  0  0  0  0  0
   20.9868  -13.4303   26.6477 C   0  0  0  0  0  0
   22.0844  -13.8590   25.9149 C   0  0  0  0  0  0
   21.5234  -14.8429   24.6028 S   0  0  0  0  0  0
   15.8656  -15.4559   19.4242 H   0  0  0  0  0  0
   16.1870  -18.5864   21.6104 H   0  0  0  0  0  0
   13.7809   -7.3148   23.6860 H   0  0  0  0  0  0
   11.8587   -7.8117   25.1297 H   0  0  0  0  0  0
   10.6279   -9.9381   24.8493 H   0  0  0  0  0  0
   14.3572   -8.7933   21.8102 H   0  0  0  0  0  0
   14.1830  -11.0370   20.7988 H   0  0  0  0  0  0
   12.5281  -10.8151   20.2579 H   0  0  0  0  0  0
   13.4763  -12.9482   22.2755 H   0  0  0  0  0  0
   11.1055  -13.6037   22.0304 H   0  0  0  0  0  0
   10.0433  -11.8543   23.1796 H   0  0  0  0  0  0
   11.4694  -12.5284   23.9209 H   0  0  0  0  0  0
   13.7200  -15.1590   18.3048 H   0  0  0  0  0  0
   13.0008  -16.4862   19.1657 H   0  0  0  0  0  0
   15.8774  -17.1088   17.7023 H   0  0  0  0  0  0
   14.6923  -18.0898   18.5310 H   0  0  0  0  0  0
   17.5867  -17.8765   19.0715 H   0  0  0  0  0  0
   16.5055  -19.2457   19.3616 H   0  0  0  0  0  0
   12.3153  -16.1287   21.6696 H   0  0  0  0  0  0
   13.2252  -14.9539   22.5623 H   0  0  0  0  0  0
   16.7884  -15.7057   22.6258 H   0  0  0  0  0  0
   19.7784  -15.9826   22.7497 H   0  0  0  0  0  0
   19.8714  -13.4825   22.5716 H   0  0  0  0  0  0
   18.1487  -13.4127   22.3549 H   0  0  0  0  0  0
   18.3122  -14.4633   20.1649 H   0  0  0  0  0  0
   19.9744  -14.9202   20.4254 H   0  0  0  0  0  0
   19.8347  -12.9236   18.9510 H   0  0  0  0  0  0
   20.6781  -12.5324   20.4340 H   0  0  0  0  0  0
   18.8013  -11.3864   21.2490 H   0  0  0  0  0  0
   18.0683  -12.4910   18.0822 H   0  0  0  0  0  0
   16.0437  -10.1946   19.7678 H   0  0  0  0  0  0
   17.2140   -9.9619   20.8965 H   0  0  0  0  0  0
   21.0345  -12.7963   27.5193 H   0  0  0  0  0  0
   23.1364  -13.6636   26.0678 H   0  0  0  0  0  0
  1  6  1  0  0  0
  1  2  2  0  0  0
  1 43  1  0  0  0
  2  3  1  0  0  0
  2 44  1  0  0  0
  3  4  2  0  0  0
  3 45  1  0  0  0
  4 10  1  0  0  0
  4  5  1  0  0  0
  5  6  2  0  0  0
  5  7  1  0  0  0
  6 46  1  0  0  0
  7  8  1  0  0  0
  7 47  1  0  0  0
  7 48  1  0  0  0
  8  9  1  0  0  0
  8 11  1  0  0  0
  8 49  1  0  0  0
  9 10  1  0  0  0
  9 50  1  0  0  0
 10 51  1  0  0  0
 10 52  1  0  0  0
 11 12  2  0  0  0
 11 13  1  0  0  0
 13 22  1  0  0  0
 13 14  1  0  0  0
 14 15  1  0  0  0
 14 53  1  0  0  0
 14 54  1  0  0  0
 15 41  1  0  0  0
 15 19  1  0  0  0
 15 16  1  0  0  0
 16 17  1  0  0  0
 16 55  1  0  0  0
 16 56  1  0  0  0
 17 18  1  0  0  0
 17 57  1  0  0  0
 17 58  1  0  0  0
 18 42  1  0  0  0
 18 19  1  0  0  0
 18 23  1  0  0  0
 19 20  1  0  0  0
 20 21  2  0  0  0
 20 22  1  0  0  0
 22 59  1  0  0  0
 22 60  1  0  0  0
 23 24  2  0  0  0
 23 25  1  0  0  0
 25 26  1  0  0  0
 25 61  1  0  0  0
 26 27  1  0  0  0
 26 34  1  0  0  0
 26 62  1  0  0  0
 27 28  1  0  0  0
 27 63  1  0  0  0
 27 64  1  0  0  0
 28 29  1  0  0  0
 28 65  1  0  0  0
 28 66  1  0  0  0
 29 30  1  0  0  0
 29 67  1  0  0  0
 29 68  1  0  0  0
 30 31  1  0  0  0
 30 69  1  0  0  0
 31 32  2  3  0  0
 31 33  1  0  0  0
 32 70  1  0  0  0
 33 71  1  0  0  0
 33 72  1  0  0  0
 34 35  2  0  0  0
 34 36  1  0  0  0
 36 40  1  0  0  0
 36 37  2  0  0  0
 37 38  1  0  0  0
 38 39  2  0  0  0
 38 73  1  0  0  0
 39 40  1  0  0  0
 39 74  1  0  0  0
M  END
> <s_m_entry_id>
37701

> <s_m_entry_name>
ligand_docking-pose.48

> <s_m_Source_Path>
/home/csk/Desktop/cluster/DUD-E-result/thrb

> <s_m_Source_File>
ligand_docking-pose.sdf

> <i_m_Source_File_Index>
48

> <i_lp_mmshare_version>
53161

> <i_f3d_flags>
0

> <r_lp_tautomer_probability>
0.99990000499975

> <s_lp_Force_Field>
OPLS_2005

> <r_lp_Energy>
38.971689

> <b_lp_Chiralities_Consistent>
1

> <s_lp_Variant>
179163-6

> <s_i_glide_gridfile>
glide-grid_1ype

> <i_i_glide_lignum>
357

> <i_i_glide_rotatable_bonds>
12

> <r_i_docking_score>
-8.41032906375946

> <r_i_glide_ligand_efficiency>
-0.210258226593986

> <r_i_glide_ligand_efficiency_sa>
-0.71907301924904

> <r_i_glide_ligand_efficiency_ln>
-1.79367568436429

> <r_i_glide_gscore>
-8.41032906375946

> <r_i_glide_lipo>
-3.40784531832347

> <r_i_glide_hbond>
-0.928334087196785

> <r_i_glide_metal>
0

> <r_i_glide_rewards>
-0.488621586411918

> <r_i_glide_evdw>
-49.1704368591309

> <r_i_glide_ecoul>
-11.6264877319336

> <r_i_glide_erotb>
0.626880356645565

> <r_i_glide_esite>
-0.00991342572626958

> <r_i_glide_emodel>
-81.947152820013

> <r_i_glide_energy>
-60.7969245910645

> <r_i_glide_einternal>
11.6507997512817

> <i_i_glide_confnum>
51

> <i_i_glide_posenum>
350

> <r_i_glide_eff_state_penalty>
0

> <s_user_duplicate_titles>
179163

> <s_m_subgroup_title>
dock_pv

> <s_m_subgroupid>
dock_pv1

> <b_m_subgroup_collapsed>
0

$$$$
41120
                    3D
 Schrodinger Suite 2021-1.
 75 79  0  0  1  0            999 V2000
   21.5355  -13.1642   26.3207 C   0  0  0  0  0  0
   22.2432  -14.2471   25.8063 C   0  0  0  0  0  0
   21.5540  -15.2498   25.1274 C   0  0  0  0  0  0
   20.1656  -15.1531   24.9653 C   0  0  0  0  0  0
   19.4691  -14.0816   25.5218 C   0  0  0  0  0  0
   20.1605  -13.0869   26.1886 C   0  0  0  0  0  0
   19.3870  -16.1900   24.1651 C   0  0  0  0  0  0
   19.2638  -15.9101   22.6334 C   0  0  2  0  0  0
   20.6045  -16.1999   21.9100 C   0  0  0  0  0  0
   20.6903  -15.5179   20.5549 C   0  0  0  0  0  0
   20.5732  -14.0132   20.7805 C   0  0  1  0  0  0
   20.6134  -13.1675   19.5094 C   0  0  0  0  0  0
   19.7523  -11.9600   19.8267 C   0  0  0  0  0  0
   18.6509  -12.4934   20.7689 C   0  0  2  0  0  0
   19.2737  -13.6857   21.4048 N   0  0  0  0  0  0
   18.6697  -14.4622   22.3652 C   0  0  0  0  0  0
   17.6342  -14.0681   22.9168 O   0  0  0  0  0  0
   17.3973  -12.8791   19.9394 C   0  0  0  0  0  0
   17.1309  -14.0601   19.7100 O   0  0  0  0  0  0
   16.6595  -11.8773   19.4218 N   0  0  0  0  0  0
   15.5469  -12.0435   18.4556 C   0  0  1  0  0  0
   16.0934  -12.6333   17.1153 C   0  0  0  0  0  0
   15.0561  -12.7356   15.9886 C   0  0  0  0  0  0
   15.6196  -13.2105   14.6341 C   0  0  0  0  0  0
   16.5215  -12.2638   13.9988 N   0  0  0  0  0  0
   16.2083  -11.0015   13.5088 C   0  0  0  0  0  0
   15.2814  -10.2530   13.9209 N   0  0  0  0  0  0
   17.0598  -10.6532   12.4785 N   0  0  0  0  0  0
   14.3955  -12.8203   19.1211 C   0  0  0  0  0  0
   14.0796  -13.9435   18.7218 O   0  0  0  0  0  0
   13.6802  -12.1822   20.2357 C   0  0  0  0  0  0
   13.8856  -10.9721   20.6886 N   0  0  0  0  0  0
   13.0573  -10.6647   21.7217 C   0  0  0  0  0  0
   13.0642   -9.4472   22.4144 C   0  0  0  0  0  0
   12.1591   -9.2750   23.4636 C   0  0  0  0  0  0
   11.2490  -10.2733   23.8044 C   0  0  0  0  0  0
   11.2167  -11.4900   23.1219 C   0  0  0  0  0  0
   12.1423  -11.6835   22.0875 C   0  0  0  0  0  0
   12.4162  -13.0813   21.0629 S   0  0  0  0  0  0
   18.2377  -16.7920   22.0855 N   0  0  0  0  0  0
   21.3672  -13.6702   21.4475 H   0  0  0  0  0  0
   18.3346  -11.7609   21.5147 H   0  0  0  0  0  0
   15.1662  -11.0530   18.2261 H   0  0  0  0  0  0
   22.0160  -12.3628   26.8489 H   0  0  0  0  0  0
   23.3153  -14.3049   25.9313 H   0  0  0  0  0  0
   22.0981  -16.0887   24.7184 H   0  0  0  0  0  0
   18.3952  -14.0038   25.4185 H   0  0  0  0  0  0
   19.6307  -12.2531   26.6054 H   0  0  0  0  0  0
   18.3947  -16.2728   24.6165 H   0  0  0  0  0  0
   19.8388  -17.1705   24.3322 H   0  0  0  0  0  0
   21.4511  -15.8581   22.5035 H   0  0  0  0  0  0
   20.7545  -17.2753   21.7935 H   0  0  0  0  0  0
   19.8742  -15.8527   19.9210 H   0  0  0  0  0  0
   21.6165  -15.7794   20.0532 H   0  0  0  0  0  0
   20.1634  -13.7214   18.6851 H   0  0  0  0  0  0
   21.6273  -12.9193   19.1988 H   0  0  0  0  0  0
   19.3778  -11.4531   18.9368 H   0  0  0  0  0  0
   20.3528  -11.2042   20.3266 H   0  0  0  0  0  0
   16.9428  -10.9289   19.6155 H   0  0  0  0  0  0
   16.9187  -12.0105   16.7673 H   0  0  0  0  0  0
   16.5195  -13.6248   17.2729 H   0  0  0  0  0  0
   14.3063  -13.4608   16.2991 H   0  0  0  0  0  0
   14.5236  -11.7916   15.8835 H   0  0  0  0  0  0
   16.1450  -14.1573   14.7620 H   0  0  0  0  0  0
   14.8168  -13.4074   13.9219 H   0  0  0  0  0  0
   17.2366  -12.7446   13.4748 H   0  0  0  0  0  0
   15.2178   -9.3798   13.4012 H   0  0  0  0  0  0
   16.8031   -9.7857   12.0252 H   0  0  0  0  0  0
   17.1144  -11.3612   11.7597 H   0  0  0  0  0  0
   13.7630   -8.6652   22.1567 H   0  0  0  0  0  0
   12.1546   -8.3486   24.0184 H   0  0  0  0  0  0
   10.5420  -10.1035   24.6060 H   0  0  0  0  0  0
   10.5005  -12.2532   23.3935 H   0  0  0  0  0  0
   18.3763  -17.7304   22.4292 H   0  0  0  0  0  0
   17.3430  -16.4925   22.4500 H   0  0  0  0  0  0
  1  6  1  0  0  0
  1  2  2  0  0  0
  1 44  1  0  0  0
  2  3  1  0  0  0
  2 45  1  0  0  0
  3  4  2  0  0  0
  3 46  1  0  0  0
  4  5  1  0  0  0
  4  7  1  0  0  0
  5  6  2  0  0  0
  5 47  1  0  0  0
  6 48  1  0  0  0
  7  8  1  0  0  0
  7 49  1  0  0  0
  7 50  1  0  0  0
  8 16  1  0  0  0
  8  9  1  0  0  0
  8 40  1  0  0  0
  9 10  1  0  0  0
  9 51  1  0  0  0
  9 52  1  0  0  0
 10 11  1  0  0  0
 10 53  1  0  0  0
 10 54  1  0  0  0
 11 41  1  0  0  0
 11 15  1  0  0  0
 11 12  1  0  0  0
 12 13  1  0  0  0
 12 55  1  0  0  0
 12 56  1  0  0  0
 13 14  1  0  0  0
 13 57  1  0  0  0
 13 58  1  0  0  0
 14 42  1  0  0  0
 14 15  1  0  0  0
 14 18  1  0  0  0
 15 16  1  0  0  0
 16 17  2  0  0  0
 18 19  2  0  0  0
 18 20  1  0  0  0
 20 21  1  0  0  0
 20 59  1  0  0  0
 21 43  1  0  0  0
 21 22  1  0  0  0
 21 29  1  0  0  0
 22 23  1  0  0  0
 22 60  1  0  0  0
 22 61  1  0  0  0
 23 24  1  0  0  0
 23 62  1  0  0  0
 23 63  1  0  0  0
 24 25  1  0  0  0
 24 64  1  0  0  0
 24 65  1  0  0  0
 25 26  1  0  0  0
 25 66  1  0  0  0
 26 27  2  3  0  0
 26 28  1  0  0  0
 27 67  1  0  0  0
 28 68  1  0  0  0
 28 69  1  0  0  0
 29 30  2  0  0  0
 29 31  1  0  0  0
 31 39  1  0  0  0
 31 32  2  0  0  0
 32 33  1  0  0  0
 33 38  2  0  0  0
 33 34  1  0  0  0
 34 35  2  0  0  0
 34 70  1  0  0  0
 35 36  1  0  0  0
 35 71  1  0  0  0
 36 37  2  0  0  0
 36 72  1  0  0  0
 37 38  1  0  0  0
 37 73  1  0  0  0
 38 39  1  0  0  0
 40 74  1  0  0  0
 40 75  1  0  0  0
M  END
> <s_m_entry_id>
37702

> <s_m_entry_name>
ligand_docking-pose.49

> <s_m_Source_Path>
/home/csk/Desktop/cluster/DUD-E-result/thrb

> <s_m_Source_File>
ligand_docking-pose.sdf

> <i_m_Source_File_Index>
49

> <i_lp_mmshare_version>
53161

> <i_f3d_flags>
0

> <r_lp_tautomer_probability>
0.99990000499975

> <s_lp_Force_Field>
OPLS_2005

> <r_lp_Energy>
33.220559

> <b_lp_Chiralities_Consistent>
1

> <s_lp_Variant>
41120-1

> <s_i_glide_gridfile>
glide-grid_1ype

> <i_i_glide_lignum>
803

> <i_i_glide_rotatable_bonds>
12

> <r_i_docking_score>
-8.39685336567306

> <r_i_glide_ligand_efficiency>
-0.209921334141827

> <r_i_glide_ligand_efficiency_sa>
-0.717920863270835

> <r_i_glide_ligand_efficiency_ln>
-1.79080171453455

> <r_i_glide_gscore>
-8.39685336567306

> <r_i_glide_lipo>
-3.85545543560407

> <r_i_glide_hbond>
-0.519735817081118

> <r_i_glide_metal>
0

> <r_i_glide_rewards>
-0.657800712911076

> <r_i_glide_evdw>
-54.8819007873535

> <r_i_glide_ecoul>
-7.6293830871582

> <r_i_glide_erotb>
0.643752411661579

> <r_i_glide_esite>
-0.119111309296971

> <r_i_glide_emodel>
-88.7909072597714

> <r_i_glide_energy>
-62.5112838745117

> <r_i_glide_einternal>
10.9094839096069

> <i_i_glide_confnum>
6

> <i_i_glide_posenum>
250

> <r_i_glide_eff_state_penalty>
0

> <s_user_duplicate_titles>
41120

> <s_m_subgroup_title>
dock_pv

> <s_m_subgroupid>
dock_pv1

> <b_m_subgroup_collapsed>
0

$$$$
287799
                    3D
 Schrodinger Suite 2021-1.
 60 63  0  0  1  0            999 V2000
   22.7812  -13.4733   25.3881 C   0  0  0  0  0  0
   21.5501  -13.0654   25.9001 C   0  0  0  0  0  0
   20.3870  -13.3466   25.1885 C   0  0  0  0  0  0
   20.4566  -14.0396   23.9744 C   0  0  0  0  0  0
   21.6964  -14.4550   23.4774 C   0  0  0  0  0  0
   22.8587  -14.1720   24.1883 C   0  0  0  0  0  0
   19.1741  -14.3320   23.2017 C   0  0  0  0  0  0
   18.7641  -13.1872   22.2453 C   0  0  0  0  0  0
   19.4781  -13.2400   20.8695 C   0  0  0  0  0  0
   19.0546  -12.0770   19.9307 C   0  0  0  0  0  0
   17.5741  -12.1053   19.8267 N   0  0  0  0  0  0
   16.9190  -11.8882   21.1234 C   0  0  0  0  0  0
   17.2409  -13.1181   21.9980 C   0  0  0  0  0  0
   16.9611  -12.3824   18.6352 C   0  0  0  0  0  0
   17.6228  -12.4634   17.6002 O   0  0  0  0  0  0
   15.4330  -12.5702   18.4239 C   0  0  0  0  0  0
   14.5770  -13.0222   19.5236 N   0  0  0  0  0  0
   14.3984  -14.3246   19.9204 C   0  0  0  0  0  0
   13.5297  -14.4056   20.9981 C   0  0  0  0  0  0
   13.1837  -13.0403   21.3080 C   0  0  0  0  0  0
   13.7807  -12.2184   20.3172 C   0  0  0  0  0  0
   13.5864  -10.8421   20.2828 C   0  0  0  0  0  0
   12.8691  -10.2637   21.3216 C   0  0  0  0  0  0
   12.3272  -11.0088   22.3761 C   0  0  0  0  0  0
   12.4397  -12.4145   22.3243 C   0  0  0  0  0  0
   11.7063  -10.2998   23.5299 C   0  0  0  0  0  0
   12.0161   -9.1103   23.8104 N   0  0  0  0  0  0
   10.8170  -11.0623   24.2350 N   0  0  0  0  0  0
   13.0158  -15.6508   21.7012 C   0  0  0  0  0  0
   14.0072  -16.8168   21.7540 C   0  0  0  0  0  0
   13.9398  -17.7879   21.0070 O   0  0  0  0  0  0
   14.9436  -16.6433   22.7260 O   0  0  0  0  0  0
   23.6930  -13.2534   25.9209 H   0  0  0  0  0  0
   21.4985  -12.5217   26.8327 H   0  0  0  0  0  0
   19.4335  -13.0211   25.5801 H   0  0  0  0  0  0
   21.7709  -14.9904   22.5412 H   0  0  0  0  0  0
   23.8198  -14.4863   23.8107 H   0  0  0  0  0  0
   18.3860  -14.5090   23.9355 H   0  0  0  0  0  0
   19.2628  -15.2766   22.6644 H   0  0  0  0  0  0
   19.0319  -12.2409   22.7164 H   0  0  0  0  0  0
   19.2833  -14.1964   20.3805 H   0  0  0  0  0  0
   20.5595  -13.2227   21.0121 H   0  0  0  0  0  0
   19.5643  -12.1016   18.9654 H   0  0  0  0  0  0
   19.3274  -11.1216   20.3836 H   0  0  0  0  0  0
   17.3978  -11.0077   21.5566 H   0  0  0  0  0  0
   15.8959  -11.5516   21.0897 H   0  0  0  0  0  0
   16.7183  -13.0418   22.9505 H   0  0  0  0  0  0
   16.8610  -14.0402   21.5553 H   0  0  0  0  0  0
   15.3031  -13.3077   17.6282 H   0  0  0  0  0  0
   15.0266  -11.6466   18.0123 H   0  0  0  0  0  0
   14.9067  -15.1152   19.3851 H   0  0  0  0  0  0
   14.0484  -10.2512   19.5217 H   0  0  0  0  0  0
   12.7742   -9.1859   21.3227 H   0  0  0  0  0  0
   12.0230  -13.0234   23.1114 H   0  0  0  0  0  0
   11.5111   -8.7941   24.6236 H   0  0  0  0  0  0
   10.2053  -10.6282   24.9194 H   0  0  0  0  0  0
   10.4648  -11.9123   23.8196 H   0  0  0  0  0  0
   12.7167  -15.4074   22.7154 H   0  0  0  0  0  0
   12.0976  -15.9951   21.2255 H   0  0  0  0  0  0
   14.8316  -15.8081   23.2013 H   0  0  0  0  0  0
  1  6  1  0  0  0
  1  2  2  0  0  0
  1 33  1  0  0  0
  2  3  1  0  0  0
  2 34  1  0  0  0
  3  4  2  0  0  0
  3 35  1  0  0  0
  4  5  1  0  0  0
  4  7  1  0  0  0
  5  6  2  0  0  0
  5 36  1  0  0  0
  6 37  1  0  0  0
  7  8  1  0  0  0
  7 38  1  0  0  0
  7 39  1  0  0  0
  8 13  1  0  0  0
  8  9  1  0  0  0
  8 40  1  0  0  0
  9 10  1  0  0  0
  9 41  1  0  0  0
  9 42  1  0  0  0
 10 11  1  0  0  0
 10 43  1  0  0  0
 10 44  1  0  0  0
 11 12  1  0  0  0
 11 14  1  0  0  0
 12 13  1  0  0  0
 12 45  1  0  0  0
 12 46  1  0  0  0
 13 47  1  0  0  0
 13 48  1  0  0  0
 14 15  2  0  0  0
 14 16  1  0  0  0
 16 17  1  0  0  0
 16 49  1  0  0  0
 16 50  1  0  0  0
 17 21  1  0  0  0
 17 18  1  0  0  0
 18 19  2  0  0  0
 18 51  1  0  0  0
 19 20  1  0  0  0
 19 29  1  0  0  0
 20 25  2  0  0  0
 20 21  1  0  0  0
 21 22  2  0  0  0
 22 23  1  0  0  0
 22 52  1  0  0  0
 23 24  2  0  0  0
 23 53  1  0  0  0
 24 25  1  0  0  0
 24 26  1  0  0  0
 25 54  1  0  0  0
 26 27  2  3  0  0
 26 28  1  0  0  0
 27 55  1  0  0  0
 28 56  1  0  0  0
 28 57  1  0  0  0
 29 30  1  0  0  0
 29 58  1  0  0  0
 29 59  1  0  0  0
 30 31  2  0  0  0
 30 32  1  0  0  0
 32 60  1  0  0  0
M  END
> <s_m_entry_id>
37704

> <s_m_entry_name>
ligand_docking-pose.51

> <s_m_Source_Path>
/home/csk/Desktop/cluster/DUD-E-result/thrb

> <s_m_Source_File>
ligand_docking-pose.sdf

> <i_m_Source_File_Index>
51

> <i_lp_mmshare_version>
53161

> <i_f3d_flags>
0

> <r_lp_tautomer_probability>
1

> <s_lp_Force_Field>
OPLS_2005

> <r_lp_Energy>
26.32063

> <b_lp_Chiralities_Consistent>
1

> <s_lp_Variant>
287799-1

> <s_i_glide_gridfile>
glide-grid_1ype

> <i_i_glide_lignum>
843

> <i_i_glide_rotatable_bonds>
9

> <r_i_docking_score>
-8.37288815713734

> <r_i_glide_ligand_efficiency>
-0.261652754910542

> <r_i_glide_ligand_efficiency_sa>
-0.830695715831086

> <r_i_glide_ligand_efficiency_ln>
-1.87491789469415

> <r_i_glide_gscore>
-8.37288815713734

> <r_i_glide_lipo>
-4.06078029191245

> <r_i_glide_hbond>
-0.0823297565103014

> <r_i_glide_metal>
0

> <r_i_glide_rewards>
-1.2251369231747

> <r_i_glide_evdw>
-49.7059669494629

> <r_i_glide_ecoul>
-7.81905555725098

> <r_i_glide_erotb>
0.744614403137105

> <r_i_glide_esite>
-0.0910989076161979

> <r_i_glide_emodel>
-84.7445847772686

> <r_i_glide_energy>
-57.5250225067139

> <r_i_glide_einternal>
4.44796943664551

> <i_i_glide_confnum>
19

> <i_i_glide_posenum>
306

> <r_i_glide_eff_state_penalty>
0

> <s_user_duplicate_titles>
287799

> <s_m_subgroup_title>
dock_pv

> <s_m_subgroupid>
dock_pv1

> <b_m_subgroup_collapsed>
0

$$$$
347043
                    3D
 Schrodinger Suite 2021-1.
 61 63  0  0  1  0            999 V2000
   22.4287  -14.3537   25.6233 C   0  0  0  0  0  0
   21.2681  -13.4519   26.1038 C   0  0  0  0  0  0
   19.8982  -14.1401   25.9232 C   0  0  0  0  0  0
   19.6830  -14.5755   24.4548 C   0  0  0  0  0  0
   20.8013  -15.5779   24.0852 C   0  0  0  0  0  0
   22.1931  -14.9212   24.2068 C   0  0  0  0  0  0
   18.2588  -15.1543   24.2310 C   0  0  0  0  0  0
   17.7558  -15.2176   22.7594 C   0  0  2  0  0  0
   17.6410  -13.7880   22.1442 C   0  0  0  0  0  0
   16.7377  -13.0532   22.5567 O   0  0  0  0  0  0
   18.4907  -13.4008   21.1554 N   0  0  0  0  0  0
   19.6184  -14.1677   20.6417 C   0  0  0  0  0  0
   20.5004  -13.1462   19.9722 C   0  0  0  0  0  0
   19.8750  -11.9641   19.9201 C   0  0  0  0  0  0
   18.4865  -12.0700   20.5242 C   0  0  1  0  0  0
   17.3471  -11.8741   19.4811 C   0  0  0  0  0  0
   17.5751  -11.4563   18.3439 O   0  0  0  0  0  0
   16.1065  -12.1540   19.9041 N   0  0  0  0  0  0
   14.8586  -11.9517   19.1802 C   0  0  0  0  0  0
   13.7442  -11.8381   20.1956 C   0  0  0  0  0  0
   12.8905  -12.8060   20.4277 N   0  0  0  0  0  0
   12.0501  -12.5512   21.5030 N   0  0  0  0  0  0
   12.2815  -11.3902   22.0774 C   0  0  0  0  0  0
   13.5275  -10.4754   21.2605 S   0  0  0  0  0  0
   11.5479  -10.8884   23.2522 C   0  0  0  0  0  0
   11.6298   -9.6766   23.5769 N   0  0  0  0  0  0
   10.8159  -11.8529   23.8957 N   0  0  0  0  0  0
   16.4166  -15.8603   22.7209 N   0  0  2  0  0  0
   15.8514  -16.1411   21.3965 C   0  0  0  0  0  0
   14.5265  -16.9143   21.5169 C   0  0  0  0  0  0
   14.0160  -17.3002   22.5678 O   0  0  0  0  0  0
   13.9839  -17.1234   20.2875 O   0  0  0  0  0  0
   18.4489  -15.8365   22.1905 H   0  0  0  0  0  0
   18.3300  -11.2951   21.2789 H   0  0  0  0  0  0
   22.5452  -15.1823   26.3199 H   0  0  0  0  0  0
   23.3698  -13.8051   25.6560 H   0  0  0  0  0  0
   21.4146  -13.1806   27.1488 H   0  0  0  0  0  0
   21.2758  -12.5146   25.5455 H   0  0  0  0  0  0
   19.7918  -14.9947   26.5941 H   0  0  0  0  0  0
   19.1102  -13.4517   26.2301 H   0  0  0  0  0  0
   19.8081  -13.6832   23.8390 H   0  0  0  0  0  0
   20.6621  -15.9565   23.0737 H   0  0  0  0  0  0
   20.7287  -16.4698   24.7109 H   0  0  0  0  0  0
   22.9703  -15.6461   23.9624 H   0  0  0  0  0  0
   22.2855  -14.1185   23.4718 H   0  0  0  0  0  0
   18.2185  -16.1593   24.6555 H   0  0  0  0  0  0
   17.5374  -14.5820   24.8183 H   0  0  0  0  0  0
   20.1582  -14.6798   21.4346 H   0  0  0  0  0  0
   19.2920  -14.9347   19.9379 H   0  0  0  0  0  0
   21.4920  -13.3648   19.6122 H   0  0  0  0  0  0
   20.2792  -11.0531   19.5176 H   0  0  0  0  0  0
   16.0180  -12.4717   20.8641 H   0  0  0  0  0  0
   14.9112  -11.0539   18.5622 H   0  0  0  0  0  0
   14.7007  -12.7942   18.5032 H   0  0  0  0  0  0
   11.0563   -9.4860   24.3868 H   0  0  0  0  0  0
   10.1187  -11.5966   24.5872 H   0  0  0  0  0  0
   10.8126  -12.8120   23.5620 H   0  0  0  0  0  0
   15.7631  -15.3842   23.3487 H   0  0  0  0  0  0
   15.6558  -15.2091   20.8645 H   0  0  0  0  0  0
   16.5556  -16.7336   20.8109 H   0  0  0  0  0  0
   13.1542  -17.5981   20.3615 H   0  0  0  0  0  0
  1  6  1  0  0  0
  1  2  1  0  0  0
  1 35  1  0  0  0
  1 36  1  0  0  0
  2  3  1  0  0  0
  2 37  1  0  0  0
  2 38  1  0  0  0
  3  4  1  0  0  0
  3 39  1  0  0  0
  3 40  1  0  0  0
  4  5  1  0  0  0
  4  7  1  0  0  0
  4 41  1  0  0  0
  5  6  1  0  0  0
  5 42  1  0  0  0
  5 43  1  0  0  0
  6 44  1  0  0  0
  6 45  1  0  0  0
  7  8  1  0  0  0
  7 46  1  0  0  0
  7 47  1  0  0  0
  8 33  1  0  0  0
  8  9  1  0  0  0
  8 28  1  0  0  0
  9 10  2  0  0  0
  9 11  1  0  0  0
 11 15  1  0  0  0
 11 12  1  0  0  0
 12 13  1  0  0  0
 12 48  1  0  0  0
 12 49  1  0  0  0
 13 14  2  0  0  0
 13 50  1  0  0  0
 14 15  1  0  0  0
 14 51  1  0  0  0
 15 34  1  0  0  0
 15 16  1  0  0  0
 16 17  2  0  0  0
 16 18  1  0  0  0
 18 19  1  0  0  0
 18 52  1  0  0  0
 19 20  1  0  0  0
 19 53  1  0  0  0
 19 54  1  0  0  0
 20 24  1  0  0  0
 20 21  2  0  0  0
 21 22  1  0  0  0
 22 23  2  0  0  0
 23 24  1  0  0  0
 23 25  1  0  0  0
 25 26  2  3  0  0
 25 27  1  0  0  0
 26 55  1  0  0  0
 27 56  1  0  0  0
 27 57  1  0  0  0
 28 29  1  0  0  0
 28 58  1  0  0  0
 29 30  1  0  0  0
 29 59  1  0  0  0
 29 60  1  0  0  0
 30 31  2  0  0  0
 30 32  1  0  0  0
 32 61  1  0  0  0
M  END
> <s_m_entry_id>
37706

> <s_m_entry_name>
ligand_docking-pose.53

> <s_m_Source_Path>
/home/csk/Desktop/cluster/DUD-E-result/thrb

> <s_m_Source_File>
ligand_docking-pose.sdf

> <i_m_Source_File_Index>
53

> <i_lp_mmshare_version>
53161

> <i_f3d_flags>
0

> <r_lp_tautomer_probability>
1

> <s_lp_Force_Field>
OPLS_2005

> <r_lp_Energy>
29.600359

> <b_lp_Chiralities_Consistent>
1

> <s_lp_Variant>
347043-1

> <s_i_glide_gridfile>
glide-grid_1ype

> <i_i_glide_lignum>
1098

> <i_i_glide_rotatable_bonds>
13

> <r_i_docking_score>
-8.34267156094476

> <r_i_glide_ligand_efficiency>
-0.260708486279524

> <r_i_glide_ligand_efficiency_sa>
-0.827697849798111

> <r_i_glide_ligand_efficiency_ln>
-1.86815157513333

> <r_i_glide_gscore>
-8.34267156094476

> <r_i_glide_lipo>
-2.84950568856783

> <r_i_glide_hbond>
-1.24764464592647

> <r_i_glide_metal>
0

> <r_i_glide_rewards>
-0.861017766545347

> <r_i_glide_evdw>
-45.6828422546387

> <r_i_glide_ecoul>
-12.8853769302368

> <r_i_glide_erotb>
0.93784035643347

> <r_i_glide_esite>
-0.105395164071121

> <r_i_glide_emodel>
-82.8785298537274

> <r_i_glide_energy>
-58.5682191848755

> <r_i_glide_einternal>
11.7667617797852

> <i_i_glide_confnum>
212

> <i_i_glide_posenum>
275

> <r_i_glide_eff_state_penalty>
0

> <s_user_duplicate_titles>
347043

> <s_m_subgroup_title>
dock_pv

> <s_m_subgroupid>
dock_pv1

> <b_m_subgroup_collapsed>
0

$$$$
545423
                    3D
 Schrodinger Suite 2021-1.
 78 82  0  0  1  0            999 V2000
   25.0291  -17.6879   23.7547 C   0  0  0  0  0  0
   23.7413  -16.9086   24.0754 C   0  0  2  0  0  0
   24.0200  -15.7191   25.0081 C   0  0  0  0  0  0
   22.7253  -15.0314   25.4244 C   0  0  0  0  0  0
   22.7396  -13.6895   25.8056 C   0  0  0  0  0  0
   21.5908  -13.0530   26.2593 C   0  0  0  0  0  0
   20.3962  -13.7519   26.3273 C   0  0  0  0  0  0
   20.3331  -15.0817   25.9162 C   0  0  0  0  0  0
   21.4969  -15.7253   25.4463 C   0  0  0  0  0  0
   21.4405  -17.0606   24.9937 N   0  0  0  0  0  0
   22.6549  -17.8185   24.6857 C   0  0  0  0  0  0
   18.6809  -15.7958   25.8583 S   0  0  0  0  0  0
   18.0185  -15.4531   27.1188 O   0  0  0  0  0  0
   18.7473  -17.1936   25.4156 O   0  0  0  0  0  0
   17.9138  -14.8492   24.5872 N   0  0  3  0  0  0
   18.5615  -14.6712   23.2593 C   0  0  1  0  0  0
   18.7813  -16.0332   22.5543 C   0  0  0  0  0  0
   19.1311  -15.9595   21.0578 C   0  0  0  0  0  0
   20.2142  -14.9168   20.7141 C   0  0  0  0  0  0
   19.9053  -13.4290   21.0685 C   0  0  1  0  0  0
   20.2275  -12.4616   19.9210 C   0  0  0  0  0  0
   18.9224  -12.3256   19.1674 C   0  0  0  0  0  0
   17.8501  -12.3051   20.2752 C   0  0  2  0  0  0
   18.4696  -13.1408   21.3428 N   0  0  0  0  0  0
   17.7854  -13.6074   22.4319 C   0  0  0  0  0  0
   16.6426  -13.2479   22.7209 O   0  0  0  0  0  0
   16.5016  -12.8436   19.7165 C   0  0  0  0  0  0
   16.4752  -13.8739   19.0424 O   0  0  0  0  0  0
   15.3853  -12.1690   20.0496 N   0  0  0  0  0  0
   14.0220  -12.5517   19.6440 C   0  0  1  0  0  0
   13.5244  -13.9076   20.2046 C   0  0  0  0  0  0
   13.1451  -13.7954   21.6883 C   0  0  0  0  0  0
   12.1316  -12.6574   21.9326 C   0  0  0  0  0  0
   12.6603  -11.3828   21.4263 N   0  0  0  0  0  0
   12.9507  -11.4694   19.9742 C   0  0  1  0  0  0
   13.2150  -10.2539   19.2950 O   0  0  0  0  0  0
   12.7588  -10.1998   22.2312 C   0  0  0  0  0  0
   13.4448   -9.1940   21.9223 N   0  0  0  0  0  0
   12.0153  -10.1997   23.4284 N   0  0  0  0  0  0
   19.5325  -14.2305   23.4817 H   0  0  0  0  0  0
   20.5410  -13.1622   21.9144 H   0  0  0  0  0  0
   17.6747  -11.2871   20.6237 H   0  0  0  0  0  0
   14.0598  -12.6459   18.5538 H   0  0  0  0  0  0
   25.4773  -18.1137   24.6553 H   0  0  0  0  0  0
   24.8325  -18.5108   23.0638 H   0  0  0  0  0  0
   25.7754  -17.0438   23.2883 H   0  0  0  0  0  0
   23.3613  -16.5340   23.1210 H   0  0  0  0  0  0
   24.7009  -15.0110   24.5324 H   0  0  0  0  0  0
   24.5277  -16.0683   25.9079 H   0  0  0  0  0  0
   23.6676  -13.1385   25.7738 H   0  0  0  0  0  0
   21.6147  -12.0170   26.5584 H   0  0  0  0  0  0
   19.5088  -13.2416   26.6690 H   0  0  0  0  0  0
   20.6218  -17.6127   25.2242 H   0  0  0  0  0  0
   23.0279  -18.3282   25.5759 H   0  0  0  0  0  0
   22.3913  -18.6206   23.9948 H   0  0  0  0  0  0
   16.9200  -14.5956   24.6898 H   0  0  0  0  0  0
   19.5804  -16.5723   23.0591 H   0  0  0  0  0  0
   17.8911  -16.6535   22.6678 H   0  0  0  0  0  0
   19.4589  -16.9430   20.7226 H   0  0  0  0  0  0
   18.2320  -15.7472   20.4770 H   0  0  0  0  0  0
   20.4625  -15.0098   19.6574 H   0  0  0  0  0  0
   21.1231  -15.2047   21.2434 H   0  0  0  0  0  0
   21.0712  -12.7808   19.3083 H   0  0  0  0  0  0
   20.4930  -11.4828   20.3209 H   0  0  0  0  0  0
   18.8220  -13.1857   18.5013 H   0  0  0  0  0  0
   18.8692  -11.4530   18.5202 H   0  0  0  0  0  0
   15.4854  -11.2390   20.4259 H   0  0  0  0  0  0
   14.2692  -14.6920   20.0706 H   0  0  0  0  0  0
   12.6547  -14.2365   19.6339 H   0  0  0  0  0  0
   14.0297  -13.6372   22.3034 H   0  0  0  0  0  0
   12.7179  -14.7381   22.0347 H   0  0  0  0  0  0
   11.8920  -12.6339   22.9961 H   0  0  0  0  0  0
   11.1965  -12.8782   21.4189 H   0  0  0  0  0  0
   12.0168  -11.8099   19.5211 H   0  0  0  0  0  0
   12.3603   -9.8128   19.1816 H   0  0  0  0  0  0
   13.8920   -9.3528   21.0306 H   0  0  0  0  0  0
   11.9900   -9.3902   24.0293 H   0  0  0  0  0  0
   11.3703  -10.9368   23.6656 H   0  0  0  0  0  0
  1  2  1  0  0  0
  1 44  1  0  0  0
  1 45  1  0  0  0
  1 46  1  0  0  0
  2 11  1  0  0  0
  2  3  1  0  0  0
  2 47  1  0  0  0
  3  4  1  0  0  0
  3 48  1  0  0  0
  3 49  1  0  0  0
  4  9  2  0  0  0
  4  5  1  0  0  0
  5  6  2  0  0  0
  5 50  1  0  0  0
  6  7  1  0  0  0
  6 51  1  0  0  0
  7  8  2  0  0  0
  7 52  1  0  0  0
  8  9  1  0  0  0
  8 12  1  0  0  0
  9 10  1  0  0  0
 10 11  1  0  0  0
 10 53  1  0  0  0
 11 54  1  0  0  0
 11 55  1  0  0  0
 12 13  2  0  0  0
 12 14  2  0  0  0
 12 15  1  0  0  0
 15 16  1  0  0  0
 15 56  1  0  0  0
 16 40  1  0  0  0
 16 25  1  0  0  0
 16 17  1  0  0  0
 17 18  1  0  0  0
 17 57  1  0  0  0
 17 58  1  0  0  0
 18 19  1  0  0  0
 18 59  1  0  0  0
 18 60  1  0  0  0
 19 20  1  0  0  0
 19 61  1  0  0  0
 19 62  1  0  0  0
 20 41  1  0  0  0
 20 24  1  0  0  0
 20 21  1  0  0  0
 21 22  1  0  0  0
 21 63  1  0  0  0
 21 64  1  0  0  0
 22 23  1  0  0  0
 22 65  1  0  0  0
 22 66  1  0  0  0
 23 42  1  0  0  0
 23 24  1  0  0  0
 23 27  1  0  0  0
 24 25  1  0  0  0
 25 26  2  0  0  0
 27 28  2  0  0  0
 27 29  1  0  0  0
 29 30  1  0  0  0
 29 67  1  0  0  0
 30 43  1  0  0  0
 30 35  1  0  0  0
 30 31  1  0  0  0
 31 32  1  0  0  0
 31 68  1  0  0  0
 31 69  1  0  0  0
 32 33  1  0  0  0
 32 70  1  0  0  0
 32 71  1  0  0  0
 33 34  1  0  0  0
 33 72  1  0  0  0
 33 73  1  0  0  0
 34 35  1  0  0  0
 34 37  1  0  0  0
 35 36  1  0  0  0
 35 74  1  0  0  0
 36 75  1  0  0  0
 37 38  2  3  0  0
 37 39  1  0  0  0
 38 76  1  0  0  0
 39 77  1  0  0  0
 39 78  1  0  0  0
M  END
> <s_m_entry_id>
37708

> <s_m_entry_name>
ligand_docking-pose.55

> <s_m_Source_Path>
/home/csk/Desktop/cluster/DUD-E-result/thrb

> <s_m_Source_File>
ligand_docking-pose.sdf

> <i_m_Source_File_Index>
55

> <i_lp_mmshare_version>
53161

> <i_f3d_flags>
0

> <r_lp_tautomer_probability>
1

> <s_lp_Force_Field>
OPLS_2005

> <r_lp_Energy>
32.236038

> <b_lp_Chiralities_Consistent>
1

> <s_lp_Variant>
545423-2

> <s_i_glide_gridfile>
glide-grid_1ype

> <i_i_glide_lignum>
2268

> <i_i_glide_rotatable_bonds>
8

> <r_i_docking_score>
-8.33480255159993

> <r_i_glide_ligand_efficiency>
-0.21371288593846

> <r_i_glide_ligand_efficiency_sa>
-0.724745583429036

> <r_i_glide_ligand_efficiency_ln>
-1.78721826450329

> <r_i_glide_gscore>
-8.33480255159993

> <r_i_glide_lipo>
-2.92692496581749

> <r_i_glide_hbond>
-0.978232914178063

> <r_i_glide_metal>
0

> <r_i_glide_rewards>
-0.446528855148747

> <r_i_glide_evdw>
-55.1132431030273

> <r_i_glide_ecoul>
-10.2774772644043

> <r_i_glide_erotb>
0.314167928356378

> <r_i_glide_esite>
0

> <r_i_glide_emodel>
-87.5033120167492

> <r_i_glide_energy>
-65.3907203674316

> <r_i_glide_einternal>
9.67350959777832

> <i_i_glide_confnum>
12

> <i_i_glide_posenum>
206

> <r_i_glide_eff_state_penalty>
0

> <s_user_duplicate_titles>
545423

> <s_m_subgroup_title>
dock_pv

> <s_m_subgroupid>
dock_pv1

> <b_m_subgroup_collapsed>
0

$$$$
133474
                    3D
 Schrodinger Suite 2021-1.
 52 55  0  0  1  0            999 V2000
   22.4230  -16.5144   23.2385 C   0  0  0  0  0  0
   22.9582  -15.2683   23.9211 C   0  0  0  0  0  0
   24.2281  -14.9284   23.9253 N   0  0  0  0  0  0
   24.2857  -13.8235   24.6435 C   0  0  0  0  0  0
   23.0369  -13.4531   25.1164 C   0  0  0  0  0  0
   22.1605  -14.3762   24.6099 N   0  0  0  0  0  0
   20.7651  -14.4053   24.7592 C   0  0  0  0  0  0
   20.1964  -14.5812   26.0194 C   0  0  0  0  0  0
   18.8161  -14.7121   26.1392 C   0  0  0  0  0  0
   18.0086  -14.6540   25.0036 C   0  0  0  0  0  0
   18.5561  -14.4372   23.7372 C   0  0  0  0  0  0
   19.9497  -14.3099   23.6282 C   0  0  0  0  0  0
   17.6749  -14.4238   22.6718 O   0  0  0  0  0  0
   17.7700  -13.5213   21.6351 C   0  0  0  0  0  0
   18.8534  -13.4691   20.7520 C   0  0  0  0  0  0
   18.8575  -12.5286   19.7133 C   0  0  0  0  0  0
   17.7056  -11.7515   19.5256 C   0  0  0  0  0  0
   16.6265  -11.8969   20.3993 C   0  0  0  0  0  0
   16.6623  -12.7573   21.4582 N   0  0  0  0  0  0
   15.4741  -11.1682   20.1541 O   0  0  0  0  0  0
   14.2660  -11.5023   20.7350 C   0  0  0  0  0  0
   13.6809  -10.6135   21.6403 C   0  0  0  0  0  0
   12.4779  -10.9112   22.3138 C   0  0  0  0  0  0
   11.8654  -12.1411   21.9975 C   0  0  0  0  0  0
   12.4127  -13.0146   21.0604 C   0  0  0  0  0  0
   13.6067  -12.6983   20.4225 C   0  0  0  0  0  0
   14.1129  -13.5665   19.4892 O   0  0  0  0  0  0
   11.9077   -9.9684   23.3237 C   0  0  0  0  0  0
   12.4162   -8.8329   23.5211 N   0  0  0  0  0  0
   10.8170  -10.4468   24.0056 N   0  0  0  0  0  0
   20.0597  -12.3871   18.8077 C   0  0  0  0  0  0
   20.0158  -11.8540   17.7001 O   0  0  0  0  0  0
   21.2153  -12.8758   19.3338 O   0  0  0  0  0  0
   23.2217  -17.1350   22.8302 H   0  0  0  0  0  0
   21.8556  -17.1408   23.9283 H   0  0  0  0  0  0
   21.7638  -16.2675   22.4054 H   0  0  0  0  0  0
   25.2226  -13.3147   24.8221 H   0  0  0  0  0  0
   22.6895  -12.6345   25.7266 H   0  0  0  0  0  0
   20.8159  -14.6510   26.9002 H   0  0  0  0  0  0
   18.3715  -14.8682   27.1116 H   0  0  0  0  0  0
   16.9403  -14.7752   25.1084 H   0  0  0  0  0  0
   20.4392  -14.1714   22.6830 H   0  0  0  0  0  0
   19.6709  -14.1634   20.8427 H   0  0  0  0  0  0
   17.6272  -11.0535   18.7072 H   0  0  0  0  0  0
   14.2162   -9.6969   21.8413 H   0  0  0  0  0  0
   10.9409  -12.4492   22.4660 H   0  0  0  0  0  0
   11.8973  -13.9384   20.8406 H   0  0  0  0  0  0
   13.5866  -14.3634   19.3949 H   0  0  0  0  0  0
   13.2166   -8.6524   22.9380 H   0  0  0  0  0  0
   10.3215   -9.8537   24.6611 H   0  0  0  0  0  0
   10.3098  -11.2543   23.6776 H   0  0  0  0  0  0
   21.9491  -12.7865   18.7213 H   0  0  0  0  0  0
  1  2  1  0  0  0
  1 34  1  0  0  0
  1 35  1  0  0  0
  1 36  1  0  0  0
  2  6  1  0  0  0
  2  3  2  0  0  0
  3  4  1  0  0  0
  4  5  2  0  0  0
  4 37  1  0  0  0
  5  6  1  0  0  0
  5 38  1  0  0  0
  6  7  1  0  0  0
  7 12  1  0  0  0
  7  8  2  0  0  0
  8  9  1  0  0  0
  8 39  1  0  0  0
  9 10  2  0  0  0
  9 40  1  0  0  0
 10 11  1  0  0  0
 10 41  1  0  0  0
 11 12  2  0  0  0
 11 13  1  0  0  0
 12 42  1  0  0  0
 13 14  1  0  0  0
 14 19  1  0  0  0
 14 15  2  0  0  0
 15 16  1  0  0  0
 15 43  1  0  0  0
 16 17  2  0  0  0
 16 31  1  0  0  0
 17 18  1  0  0  0
 17 44  1  0  0  0
 18 19  2  0  0  0
 18 20  1  0  0  0
 20 21  1  0  0  0
 21 26  1  0  0  0
 21 22  2  0  0  0
 22 23  1  0  0  0
 22 45  1  0  0  0
 23 24  2  0  0  0
 23 28  1  0  0  0
 24 25  1  0  0  0
 24 46  1  0  0  0
 25 26  2  0  0  0
 25 47  1  0  0  0
 26 27  1  0  0  0
 27 48  1  0  0  0
 28 29  2  3  0  0
 28 30  1  0  0  0
 29 49  1  0  0  0
 30 50  1  0  0  0
 30 51  1  0  0  0
 31 32  2  0  0  0
 31 33  1  0  0  0
 33 52  1  0  0  0
M  END
> <s_m_entry_id>
37709

> <s_m_entry_name>
ligand_docking-pose.56

> <s_m_Source_Path>
/home/csk/Desktop/cluster/DUD-E-result/thrb

> <s_m_Source_File>
ligand_docking-pose.sdf

> <i_m_Source_File_Index>
56

> <i_lp_mmshare_version>
53161

> <i_f3d_flags>
0

> <r_lp_tautomer_probability>
1

> <s_lp_Force_Field>
OPLS_2005

> <r_lp_Energy>
21.308161

> <b_lp_Chiralities_Consistent>
1

> <s_lp_Variant>
133474-2

> <s_i_glide_gridfile>
glide-grid_1ype

> <i_i_glide_lignum>
3158

> <i_i_glide_rotatable_bonds>
9

> <r_i_docking_score>
-8.32289591698222

> <r_i_glide_ligand_efficiency>
-0.252208967181279

> <r_i_glide_ligand_efficiency_sa>
-0.808968919623889

> <r_i_glide_ligand_efficiency_ln>
-1.85096895828811

> <r_i_glide_gscore>
-8.32289591698222

> <r_i_glide_lipo>
-3.58316309801392

> <r_i_glide_hbond>
-0.206185568082242

> <r_i_glide_metal>
0

> <r_i_glide_rewards>
-1.31625371194134

> <r_i_glide_evdw>
-52.5222091674805

> <r_i_glide_ecoul>
-7.63921546936035

> <r_i_glide_erotb>
0.605066834308393

> <r_i_glide_esite>
-0.0503675944750351

> <r_i_glide_emodel>
-88.1935636252052

> <r_i_glide_energy>
-60.1614246368408

> <r_i_glide_einternal>
6.09315872192383

> <i_i_glide_confnum>
69

> <i_i_glide_posenum>
48

> <r_i_glide_eff_state_penalty>
0

> <s_user_duplicate_titles>
133474

> <s_m_subgroup_title>
dock_pv

> <s_m_subgroupid>
dock_pv1

> <b_m_subgroup_collapsed>
0

$$$$
32693
                    3D
 Schrodinger Suite 2021-1.
 60 62  0  0  1  0            999 V2000
   12.9330   -9.8815   22.0608 C   0  0  0  0  0  0
   13.8720  -10.0388   21.0469 C   0  0  0  0  0  0
   14.1035  -11.2962   20.4957 C   0  0  0  0  0  0
   13.3863  -12.4082   20.9637 C   0  0  0  0  0  0
   12.4340  -12.2284   21.9686 C   0  0  0  0  0  0
   12.1954  -10.9715   22.5553 C   0  0  0  0  0  0
   11.2372  -10.7808   23.6753 C   0  0  0  0  0  0
   11.2160   -9.7005   24.3209 N   0  0  0  0  0  0
   10.4161  -11.8530   23.9211 N   0  0  0  0  0  0
   13.6731  -13.7839   20.5240 C   0  0  0  0  0  0
   13.9564  -14.1880   19.2717 C   0  0  0  0  0  0
   14.4872  -15.5694   18.9188 C   0  0  0  0  0  0
   15.3267  -16.2330   19.9208 N   0  0  0  0  0  0
   16.4201  -15.5990   20.5455 C   0  0  0  0  0  0
   16.9762  -16.1985   21.6743 C   0  0  0  0  0  0
   18.0228  -15.5857   22.3626 C   0  0  0  0  0  0
   18.5515  -14.3612   21.9230 C   0  0  0  0  0  0
   18.0138  -13.7581   20.7732 C   0  0  0  0  0  0
   16.9582  -14.3847   20.0979 C   0  0  0  0  0  0
   18.5841  -12.4321   20.2497 C   0  0  0  0  0  0
   18.3607  -11.4599   21.1346 F   0  0  0  0  0  0
   19.8993  -12.5381   20.0524 F   0  0  0  0  0  0
   18.0394  -12.0588   19.0894 F   0  0  0  0  0  0
   19.5739  -13.6898   22.5661 O   0  0  0  0  0  0
   20.3130  -14.2739   23.6360 C   0  0  0  0  0  0
   21.2789  -15.3873   23.1604 C   0  0  0  0  0  0
   22.2316  -15.8327   24.3022 C   0  0  0  0  0  0
   22.9572  -14.6330   24.7724 N   0  0  0  0  0  0
   22.0560  -13.6407   25.3988 C   0  0  0  0  0  0
   21.1104  -13.1295   24.2855 C   0  0  0  0  0  0
   24.1445  -14.3059   24.1843 C   0  0  0  0  0  0
   24.8159  -15.0915   23.5210 O   0  0  0  0  0  0
   24.5790  -13.0534   24.3209 N   0  0  0  0  0  0
   15.0781  -11.4168   19.5388 O   0  0  0  0  0  0
   12.7956   -8.8929   22.4770 H   0  0  0  0  0  0
   14.4382   -9.1792   20.7210 H   0  0  0  0  0  0
   11.9102  -13.1043   22.3211 H   0  0  0  0  0  0
   10.4759   -9.7248   25.0136 H   0  0  0  0  0  0
    9.6457  -11.7537   24.5832 H   0  0  0  0  0  0
   10.5677  -12.7709   23.5203 H   0  0  0  0  0  0
   13.7341  -14.5139   21.3193 H   0  0  0  0  0  0
   13.8679  -13.4925   18.4499 H   0  0  0  0  0  0
   13.6338  -16.2129   18.7011 H   0  0  0  0  0  0
   15.0317  -15.4935   17.9767 H   0  0  0  0  0  0
   15.1387  -17.2028   20.1313 H   0  0  0  0  0  0
   16.5814  -17.1335   22.0440 H   0  0  0  0  0  0
   18.4024  -16.0772   23.2441 H   0  0  0  0  0  0
   16.5542  -13.9177   19.2137 H   0  0  0  0  0  0
   19.6244  -14.6643   24.3871 H   0  0  0  0  0  0
   20.7242  -16.2613   22.8222 H   0  0  0  0  0  0
   21.8811  -15.0341   22.3223 H   0  0  0  0  0  0
   21.6598  -16.2160   25.1486 H   0  0  0  0  0  0
   22.9027  -16.6548   24.0452 H   0  0  0  0  0  0
   21.4889  -14.1572   26.1750 H   0  0  0  0  0  0
   22.5929  -12.8637   25.9427 H   0  0  0  0  0  0
   21.7168  -12.6529   23.5169 H   0  0  0  0  0  0
   20.4275  -12.3908   24.7100 H   0  0  0  0  0  0
   24.0492  -12.3714   24.8375 H   0  0  0  0  0  0
   25.4453  -12.8030   23.8642 H   0  0  0  0  0  0
   15.5125  -10.5801   19.3536 H   0  0  0  0  0  0
  1  6  1  0  0  0
  1  2  2  0  0  0
  1 35  1  0  0  0
  2  3  1  0  0  0
  2 36  1  0  0  0
  3  4  2  0  0  0
  3 34  1  0  0  0
  4  5  1  0  0  0
  4 10  1  0  0  0
  5  6  2  0  0  0
  5 37  1  0  0  0
  6  7  1  0  0  0
  7  8  2  3  0  0
  7  9  1  0  0  0
  8 38  1  0  0  0
  9 39  1  0  0  0
  9 40  1  0  0  0
 10 11  2  0  0  0
 10 41  1  0  0  0
 11 12  1  0  0  0
 11 42  1  0  0  0
 12 13  1  0  0  0
 12 43  1  0  0  0
 12 44  1  0  0  0
 13 14  1  0  0  0
 13 45  1  0  0  0
 14 19  1  0  0  0
 14 15  2  0  0  0
 15 16  1  0  0  0
 15 46  1  0  0  0
 16 17  2  0  0  0
 16 47  1  0  0  0
 17 18  1  0  0  0
 17 24  1  0  0  0
 18 19  2  0  0  0
 18 20  1  0  0  0
 19 48  1  0  0  0
 20 21  1  0  0  0
 20 22  1  0  0  0
 20 23  1  0  0  0
 24 25  1  0  0  0
 25 30  1  0  0  0
 25 26  1  0  0  0
 25 49  1  0  0  0
 26 27  1  0  0  0
 26 50  1  0  0  0
 26 51  1  0  0  0
 27 28  1  0  0  0
 27 52  1  0  0  0
 27 53  1  0  0  0
 28 29  1  0  0  0
 28 31  1  0  0  0
 29 30  1  0  0  0
 29 54  1  0  0  0
 29 55  1  0  0  0
 30 56  1  0  0  0
 30 57  1  0  0  0
 31 32  2  0  0  0
 31 33  1  0  0  0
 33 58  1  0  0  0
 33 59  1  0  0  0
 34 60  1  0  0  0
M  END
> <s_m_entry_id>
37710

> <s_m_entry_name>
ligand_docking-pose.57

> <s_m_Source_Path>
/home/csk/Desktop/cluster/DUD-E-result/thrb

> <s_m_Source_File>
ligand_docking-pose.sdf

> <i_m_Source_File_Index>
57

> <i_lp_mmshare_version>
53161

> <i_f3d_flags>
0

> <r_lp_tautomer_probability>
1

> <s_lp_Force_Field>
OPLS_2005

> <r_lp_Energy>
40.346226

> <b_lp_Chiralities_Consistent>
1

> <s_lp_Variant>
32693-1

> <s_i_glide_gridfile>
glide-grid_1ype

> <i_i_glide_lignum>
1415

> <i_i_glide_rotatable_bonds>
10

> <r_i_docking_score>
-8.32072774879216

> <r_i_glide_ligand_efficiency>
-0.244727286729181

> <r_i_glide_ligand_efficiency_sa>
-0.792821405250549

> <r_i_glide_ligand_efficiency_ln>
-1.83828214821615

> <r_i_glide_gscore>
-8.32072774879216

> <r_i_glide_lipo>
-2.81574009834093

> <r_i_glide_hbond>
-1.00215603177456

> <r_i_glide_metal>
0

> <r_i_glide_rewards>
-1.09054246924122

> <r_i_glide_evdw>
-42.5222434997559

> <r_i_glide_ecoul>
-11.2350997924805

> <r_i_glide_erotb>
0.533121401754459

> <r_i_glide_esite>
-0.134033407330039

> <r_i_glide_emodel>
-75.813859657071

> <r_i_glide_energy>
-53.7573432922363

> <r_i_glide_einternal>
9.8789701461792

> <i_i_glide_confnum>
16

> <i_i_glide_posenum>
237

> <r_i_glide_eff_state_penalty>
0

> <s_user_duplicate_titles>
32693

> <s_m_subgroup_title>
dock_pv

> <s_m_subgroupid>
dock_pv1

> <b_m_subgroup_collapsed>
0

$$$$
346940
                    3D
 Schrodinger Suite 2021-1.
 63 65  0  0  1  0            999 V2000
   13.5963  -10.5587   21.8031 C   0  0  0  0  0  0
   14.3400  -11.2255   20.8182 C   0  0  0  0  0  0
   13.7826  -12.4667   20.5414 C   0  0  0  0  0  0
   12.4155  -12.8293   21.5275 S   0  0  0  0  0  0
   12.5096  -11.2715   22.3166 C   0  0  0  0  0  0
   11.6149  -10.8558   23.4162 C   0  0  0  0  0  0
   11.6462   -9.6588   23.8020 N   0  0  0  0  0  0
   10.8140  -11.8528   23.9064 N   0  0  0  0  0  0
   15.5518  -10.6537   20.1357 C   0  0  0  0  0  0
   16.7748  -11.2401   20.6584 N   0  0  0  0  0  0
   17.7561  -11.7894   19.9298 C   0  0  0  0  0  0
   17.7262  -11.8649   18.6976 O   0  0  0  0  0  0
   18.9821  -12.2654   20.7385 C   0  0  2  0  0  0
   20.2540  -12.2860   19.9212 C   0  0  0  0  0  0
   20.7262  -13.5344   19.8543 C   0  0  0  0  0  0
   19.8395  -14.4738   20.6299 C   0  0  0  0  0  0
   18.8480  -13.6255   21.2789 N   0  0  0  0  0  0
   17.9970  -13.9970   22.2773 C   0  0  0  0  0  0
   17.1247  -13.2429   22.7205 O   0  0  0  0  0  0
   18.1515  -15.3937   22.9589 C   0  0  1  0  0  0
   18.7033  -15.2576   24.4087 C   0  0  0  0  0  0
   20.0472  -14.5032   24.6032 C   0  0  0  0  0  0
   20.2221  -14.0548   26.0725 C   0  0  0  0  0  0
   21.4901  -13.1993   26.2525 C   0  0  0  0  0  0
   22.7543  -13.9198   25.7266 C   0  0  0  0  0  0
   22.5700  -14.5090   24.3092 C   0  0  0  0  0  0
   21.2808  -15.3485   24.2173 C   0  0  0  0  0  0
   16.8149  -16.0272   23.0452 N   0  0  2  0  0  0
   16.2630  -16.5111   21.7754 C   0  0  0  0  0  0
   14.9929  -17.3426   22.0329 C   0  0  0  0  0  0
   14.8445  -18.4774   21.5899 O   0  0  0  0  0  0
   14.0319  -16.6526   22.7209 O   0  0  0  0  0  0
   19.0771  -11.5608   21.5644 H   0  0  0  0  0  0
   18.8238  -16.0322   22.3900 H   0  0  0  0  0  0
   13.8710   -9.5730   22.1527 H   0  0  0  0  0  0
   14.1346  -13.1962   19.8278 H   0  0  0  0  0  0
   12.3161   -9.1048   23.2989 H   0  0  0  0  0  0
   10.0837  -11.6114   24.5675 H   0  0  0  0  0  0
   10.8233  -12.7920   23.5207 H   0  0  0  0  0  0
   15.6188   -9.5821   20.3226 H   0  0  0  0  0  0
   15.4704  -10.8054   19.0590 H   0  0  0  0  0  0
   16.8471  -11.3160   21.6633 H   0  0  0  0  0  0
   20.6866  -11.4036   19.4740 H   0  0  0  0  0  0
   21.6078  -13.8562   19.3295 H   0  0  0  0  0  0
   20.4200  -15.0631   21.3339 H   0  0  0  0  0  0
   19.3595  -15.1902   19.9624 H   0  0  0  0  0  0
   18.8007  -16.2581   24.8359 H   0  0  0  0  0  0
   17.9392  -14.7684   25.0198 H   0  0  0  0  0  0
   20.0464  -13.5984   23.9916 H   0  0  0  0  0  0
   20.2336  -14.9303   26.7224 H   0  0  0  0  0  0
   19.3528  -13.4814   26.3950 H   0  0  0  0  0  0
   21.6162  -12.9443   27.3030 H   0  0  0  0  0  0
   21.3562  -12.2530   25.7287 H   0  0  0  0  0  0
   23.0140  -14.7299   26.4114 H   0  0  0  0  0  0
   23.6068  -13.2373   25.7357 H   0  0  0  0  0  0
   23.4341  -15.1189   24.0466 H   0  0  0  0  0  0
   22.5322  -13.7015   23.5790 H   0  0  0  0  0  0
   21.1703  -15.7464   23.2120 H   0  0  0  0  0  0
   21.3401  -16.2412   24.8407 H   0  0  0  0  0  0
   16.1899  -15.3642   23.5021 H   0  0  0  0  0  0
   16.0267  -15.6890   21.0988 H   0  0  0  0  0  0
   16.9882  -17.1500   21.2694 H   0  0  0  0  0  0
   14.3434  -15.7846   23.0028 H   0  0  0  0  0  0
  1  5  2  0  0  0
  1  2  1  0  0  0
  1 35  1  0  0  0
  2  3  2  0  0  0
  2  9  1  0  0  0
  3  4  1  0  0  0
  3 36  1  0  0  0
  4  5  1  0  0  0
  5  6  1  0  0  0
  6  7  2  3  0  0
  6  8  1  0  0  0
  7 37  1  0  0  0
  8 38  1  0  0  0
  8 39  1  0  0  0
  9 10  1  0  0  0
  9 40  1  0  0  0
  9 41  1  0  0  0
 10 11  1  0  0  0
 10 42  1  0  0  0
 11 12  2  0  0  0
 11 13  1  0  0  0
 13 33  1  0  0  0
 13 17  1  0  0  0
 13 14  1  0  0  0
 14 15  2  0  0  0
 14 43  1  0  0  0
 15 16  1  0  0  0
 15 44  1  0  0  0
 16 17  1  0  0  0
 16 45  1  0  0  0
 16 46  1  0  0  0
 17 18  1  0  0  0
 18 19  2  0  0  0
 18 20  1  0  0  0
 20 34  1  0  0  0
 20 21  1  0  0  0
 20 28  1  0  0  0
 21 22  1  0  0  0
 21 47  1  0  0  0
 21 48  1  0  0  0
 22 27  1  0  0  0
 22 23  1  0  0  0
 22 49  1  0  0  0
 23 24  1  0  0  0
 23 50  1  0  0  0
 23 51  1  0  0  0
 24 25  1  0  0  0
 24 52  1  0  0  0
 24 53  1  0  0  0
 25 26  1  0  0  0
 25 54  1  0  0  0
 25 55  1  0  0  0
 26 27  1  0  0  0
 26 56  1  0  0  0
 26 57  1  0  0  0
 27 58  1  0  0  0
 27 59  1  0  0  0
 28 29  1  0  0  0
 28 60  1  0  0  0
 29 30  1  0  0  0
 29 61  1  0  0  0
 29 62  1  0  0  0
 30 31  2  0  0  0
 30 32  1  0  0  0
 32 63  1  0  0  0
M  END
> <s_m_entry_id>
37714

> <s_m_entry_name>
ligand_docking-pose.61

> <s_m_Source_Path>
/home/csk/Desktop/cluster/DUD-E-result/thrb

> <s_m_Source_File>
ligand_docking-pose.sdf

> <i_m_Source_File_Index>
61

> <i_lp_mmshare_version>
53161

> <i_f3d_flags>
0

> <r_lp_tautomer_probability>
1

> <s_lp_Force_Field>
OPLS_2005

> <r_lp_Energy>
26.157339

> <b_lp_Chiralities_Consistent>
1

> <s_lp_Variant>
346940-2

> <s_i_glide_gridfile>
glide-grid_1ype

> <i_i_glide_lignum>
2080

> <i_i_glide_rotatable_bonds>
13

> <r_i_docking_score>
-8.24939329028488

> <r_i_glide_ligand_efficiency>
-0.257793540321402

> <r_i_glide_ligand_efficiency_sa>
-0.818443473248099

> <r_i_glide_ligand_efficiency_ln>
-1.84726402766295

> <r_i_glide_gscore>
-8.24939329028488

> <r_i_glide_lipo>
-3.21196154505944

> <r_i_glide_hbond>
-0.761481027067374

> <r_i_glide_metal>
0

> <r_i_glide_rewards>
-0.883195143845147

> <r_i_glide_evdw>
-43.9241714477539

> <r_i_glide_ecoul>
-13.5689907073975

> <r_i_glide_erotb>
0.945169721100284

> <r_i_glide_esite>
-0.106368116915885

> <r_i_glide_emodel>
-79.0606746390183

> <r_i_glide_energy>
-57.4931621551514

> <r_i_glide_einternal>
14.6086568832397

> <i_i_glide_confnum>
210

> <i_i_glide_posenum>
383

> <r_i_glide_eff_state_penalty>
0

> <s_user_duplicate_titles>
346940

> <s_m_subgroup_title>
dock_pv

> <s_m_subgroupid>
dock_pv1

> <b_m_subgroup_collapsed>
0

$$$$
47232
                    3D
 Schrodinger Suite 2021-1.
 63 66  0  0  1  0            999 V2000
   22.2738  -13.4538   24.9458 C   0  0  0  0  0  0
   22.0037  -14.5821   24.1747 C   0  0  0  0  0  0
   20.8572  -15.3319   24.4237 C   0  0  0  0  0  0
   19.9916  -14.9519   25.4527 C   0  0  0  0  0  0
   20.2648  -13.8174   26.2179 C   0  0  0  0  0  0
   21.4023  -13.0612   25.9596 C   0  0  0  0  0  0
   18.5710  -15.9188   25.8794 S   0  0  0  0  0  0
   18.0524  -17.0052   24.5113 C   0  0  0  0  0  0
   17.0194  -16.3443   23.5611 C   0  0  2  0  0  0
   15.9580  -17.3176   22.9936 C   0  0  0  0  0  0
   16.1325  -18.5105   22.8651 O   0  0  0  0  0  0
   14.7955  -16.6521   22.7213 O   0  0  0  0  0  0
   17.5779  -15.5263   22.4461 N   0  0  0  0  0  0
   18.4398  -15.9949   21.5207 C   0  0  0  0  0  0
   18.6150  -17.1626   21.1723 O   0  0  0  0  0  0
   19.0577  -14.9125   21.0274 N   0  0  0  0  0  0
   18.6270  -13.7937   21.7425 N   0  0  0  0  0  0
   17.6168  -14.1863   22.5395 C   0  0  0  0  0  0
   16.8161  -13.4531   23.1209 O   0  0  0  0  0  0
   18.7733  -12.4782   21.0259 C   0  0  1  0  0  0
   20.0490  -12.4606   20.1888 C   0  0  0  0  0  0
   20.8007  -13.5478   19.9965 C   0  0  0  0  0  0
   20.4890  -14.8846   20.6456 C   0  0  0  0  0  0
   17.5348  -11.9771   20.2465 C   0  0  0  0  0  0
   17.5638  -11.7873   19.0284 O   0  0  0  0  0  0
   16.4652  -11.7109   21.0003 N   0  0  0  0  0  0
   15.2229  -11.1087   20.5653 C   0  0  0  0  0  0
   14.1977  -12.0897   19.9484 C   0  0  2  0  0  0
   12.8538  -11.3923   19.6610 C   0  0  0  0  0  0
   12.1419  -10.9620   20.9639 C   0  0  0  0  0  0
   11.8849  -12.1862   21.8710 C   0  0  1  0  0  0
   13.1723  -13.0142   22.1031 C   0  0  0  0  0  0
   13.8997  -13.3610   20.7853 C   0  0  0  0  0  0
   11.2114  -11.8525   23.1064 N   0  0  0  0  0  0
   23.1706  -12.8816   24.7569 H   0  0  0  0  0  0
   22.6862  -14.8782   23.3915 H   0  0  0  0  0  0
   20.6740  -16.2123   23.8299 H   0  0  0  0  0  0
   19.6068  -13.5275   27.0233 H   0  0  0  0  0  0
   21.6144  -12.1834   26.5536 H   0  0  0  0  0  0
   18.9045  -17.4225   23.9781 H   0  0  0  0  0  0
   17.5988  -17.8655   25.0078 H   0  0  0  0  0  0
   16.4472  -15.6944   24.2177 H   0  0  0  0  0  0
   14.8285  -15.7251   22.9853 H   0  0  0  0  0  0
   18.8713  -11.7339   21.8168 H   0  0  0  0  0  0
   20.3414  -11.5447   19.6976 H   0  0  0  0  0  0
   21.6331  -13.4568   19.3292 H   0  0  0  0  0  0
   21.1293  -15.0519   21.5103 H   0  0  0  0  0  0
   20.6882  -15.6968   19.9462 H   0  0  0  0  0  0
   16.4966  -12.0238   21.9638 H   0  0  0  0  0  0
   14.8161  -10.6836   21.4820 H   0  0  0  0  0  0
   15.3934  -10.2526   19.9214 H   0  0  0  0  0  0
   14.5982  -12.4178   18.9869 H   0  0  0  0  0  0
   12.9981  -10.5180   19.0250 H   0  0  0  0  0  0
   12.2181  -12.0908   19.1211 H   0  0  0  0  0  0
   11.2160  -10.4465   20.7230 H   0  0  0  0  0  0
   12.7411  -10.2234   21.4954 H   0  0  0  0  0  0
   11.2207  -12.8409   21.3039 H   0  0  0  0  0  0
   12.9389  -13.9318   22.6484 H   0  0  0  0  0  0
   13.8626  -12.4428   22.7209 H   0  0  0  0  0  0
   13.2894  -14.0580   20.2073 H   0  0  0  0  0  0
   14.8258  -13.8862   21.0185 H   0  0  0  0  0  0
   10.3364  -11.3683   22.9204 H   0  0  0  0  0  0
   10.9370  -12.7314   23.5388 H   0  0  0  0  0  0
  1  6  1  0  0  0
  1  2  2  0  0  0
  1 35  1  0  0  0
  2  3  1  0  0  0
  2 36  1  0  0  0
  3  4  2  0  0  0
  3 37  1  0  0  0
  4  5  1  0  0  0
  4  7  1  0  0  0
  5  6  2  0  0  0
  5 38  1  0  0  0
  6 39  1  0  0  0
  7  8  1  0  0  0
  8  9  1  0  0  0
  8 40  1  0  0  0
  8 41  1  0  0  0
  9 10  1  0  0  0
  9 13  1  0  0  0
  9 42  1  0  0  0
 10 11  2  0  0  0
 10 12  1  0  0  0
 12 43  1  0  0  0
 13 18  1  0  0  0
 13 14  1  0  0  0
 14 15  2  0  0  0
 14 16  1  0  0  0
 16 23  1  0  0  0
 16 17  1  0  0  0
 17 18  1  0  0  0
 17 20  1  0  0  0
 18 19  2  0  0  0
 20 21  1  0  0  0
 20 24  1  0  0  0
 20 44  1  0  0  0
 21 22  2  0  0  0
 21 45  1  0  0  0
 22 23  1  0  0  0
 22 46  1  0  0  0
 23 47  1  0  0  0
 23 48  1  0  0  0
 24 25  2  0  0  0
 24 26  1  0  0  0
 26 27  1  0  0  0
 26 49  1  0  0  0
 27 28  1  0  0  0
 27 50  1  0  0  0
 27 51  1  0  0  0
 28 33  1  0  0  0
 28 29  1  0  0  0
 28 52  1  0  0  0
 29 30  1  0  0  0
 29 53  1  0  0  0
 29 54  1  0  0  0
 30 31  1  0  0  0
 30 55  1  0  0  0
 30 56  1  0  0  0
 31 32  1  0  0  0
 31 34  1  0  0  0
 31 57  1  0  0  0
 32 33  1  0  0  0
 32 58  1  0  0  0
 32 59  1  0  0  0
 33 60  1  0  0  0
 33 61  1  0  0  0
 34 62  1  0  0  0
 34 63  1  0  0  0
M  END
> <s_m_entry_id>
37715

> <s_m_entry_name>
ligand_docking-pose.62

> <s_m_Source_Path>
/home/csk/Desktop/cluster/DUD-E-result/thrb

> <s_m_Source_File>
ligand_docking-pose.sdf

> <i_m_Source_File_Index>
62

> <i_lp_mmshare_version>
53161

> <i_f3d_flags>
0

> <r_lp_tautomer_probability>
1

> <s_lp_Force_Field>
OPLS_2005

> <r_lp_Energy>
22.775379

> <b_lp_Chiralities_Consistent>
1

> <s_lp_Variant>
47232-1

> <s_i_glide_gridfile>
glide-grid_1ype

> <i_i_glide_lignum>
1803

> <i_i_glide_rotatable_bonds>
10

> <r_i_docking_score>
-8.2348232484699

> <r_i_glide_ligand_efficiency>
-0.242200683778526

> <r_i_glide_ligand_efficiency_sa>
-0.784636192524087

> <r_i_glide_ligand_efficiency_ln>
-1.81930343455534

> <r_i_glide_gscore>
-8.2348232484699

> <r_i_glide_lipo>
-3.22539485599266

> <r_i_glide_hbond>
-0.90919974849021

> <r_i_glide_metal>
0

> <r_i_glide_rewards>
-0.895273913284285

> <r_i_glide_evdw>
-43.2153778076172

> <r_i_glide_ecoul>
-11.4436912536621

> <r_i_glide_erotb>
0.684155496714557

> <r_i_glide_esite>
-0.0117876489871245

> <r_i_glide_emodel>
-73.3367140090112

> <r_i_glide_energy>
-54.6590690612793

> <r_i_glide_einternal>
11.457709312439

> <i_i_glide_confnum>
38

> <i_i_glide_posenum>
196

> <r_i_glide_eff_state_penalty>
0

> <s_user_duplicate_titles>
47232

> <s_m_subgroup_title>
dock_pv

> <s_m_subgroupid>
dock_pv1

> <b_m_subgroup_collapsed>
0

$$$$
129927
                    3D
 Schrodinger Suite 2021-1.
 71 73  0  0  1  0            999 V2000
   13.0063   -9.8224   22.1488 C   0  0  0  0  0  0
   14.0160   -9.9553   21.2087 C   0  0  0  0  0  0
   14.3423  -11.2188   20.7079 C   0  0  0  0  0  0
   13.5840  -12.3215   21.0876 C   0  0  0  0  0  0
   12.5630  -12.1847   22.0221 C   0  0  0  0  0  0
   12.2801  -10.9358   22.6048 C   0  0  0  0  0  0
   11.2791  -10.7621   23.6873 C   0  0  0  0  0  0
   11.2152   -9.6769   24.3209 N   0  0  0  0  0  0
   10.4794  -11.8530   23.9209 N   0  0  0  0  0  0
   15.3774  -11.4490   19.8316 O   0  0  0  0  0  0
   16.5569  -10.6529   19.9336 C   0  0  0  0  0  0
   17.6250  -11.3854   20.7667 C   0  0  0  0  0  0
   18.0429  -12.7327   20.1400 C   0  0  1  0  0  0
   18.8404  -12.5361   18.8274 C   0  0  0  0  0  0
   20.3173  -12.2013   19.0179 C   0  0  0  0  0  0
   20.9562  -13.3025   19.8528 C   0  0  0  0  0  0
   20.2552  -13.5111   21.2058 C   0  0  0  0  0  0
   18.7862  -13.6645   21.0429 N   0  0  0  0  0  0
   18.0417  -14.4443   21.8920 C   0  0  0  0  0  0
   16.8209  -14.2810   22.0146 O   0  0  0  0  0  0
   18.6900  -15.6183   22.7148 C   0  0  1  0  0  0
   18.9894  -15.2663   24.2077 C   0  0  0  0  0  0
   20.1515  -14.2870   24.4664 C   0  0  0  0  0  0
   20.1794  -13.7974   25.9293 C   0  0  0  0  0  0
   21.2120  -12.6646   26.0805 C   0  0  0  0  0  0
   22.6196  -13.1044   25.5851 C   0  0  0  0  0  0
   22.6146  -13.8131   24.2162 C   0  0  0  0  0  0
   21.5371  -14.9077   24.1698 C   0  0  0  0  0  0
   17.8405  -16.8383   22.5784 N   0  0  2  0  0  0
   16.6814  -16.9289   23.4758 C   0  0  0  0  0  0
   15.4817  -17.5099   22.7175 C   0  0  0  0  0  0
   15.4804  -18.6249   22.1997 O   0  0  0  0  0  0
   14.4193  -16.6528   22.7226 O   0  0  0  0  0  0
   17.1181  -13.2371   19.8483 H   0  0  0  0  0  0
   19.6219  -15.9143   22.2407 H   0  0  0  0  0  0
   12.8096   -8.8334   22.5399 H   0  0  0  0  0  0
   14.5365   -9.0629   20.9022 H   0  0  0  0  0  0
   13.8162  -13.2970   20.6843 H   0  0  0  0  0  0
   12.0299  -13.0775   22.3152 H   0  0  0  0  0  0
   10.4604   -9.7104   24.9968 H   0  0  0  0  0  0
    9.6949  -11.7672   24.5683 H   0  0  0  0  0  0
   10.6515  -12.7671   23.5192 H   0  0  0  0  0  0
   16.4145   -9.6482   20.3229 H   0  0  0  0  0  0
   16.8946  -10.5024   18.9127 H   0  0  0  0  0  0
   17.2182  -11.5558   21.7633 H   0  0  0  0  0  0
   18.4957  -10.7443   20.9090 H   0  0  0  0  0  0
   18.3661  -11.8361   18.1454 H   0  0  0  0  0  0
   18.7874  -13.4810   18.3060 H   0  0  0  0  0  0
   20.4284  -11.2371   19.5146 H   0  0  0  0  0  0
   20.8214  -12.1206   18.0541 H   0  0  0  0  0  0
   22.0045  -13.0524   20.0298 H   0  0  0  0  0  0
   20.9644  -14.2417   19.2958 H   0  0  0  0  0  0
   20.4525  -12.6533   21.8418 H   0  0  0  0  0  0
   20.7332  -14.4025   21.5881 H   0  0  0  0  0  0
   19.1920  -16.1859   24.7585 H   0  0  0  0  0  0
   18.0884  -14.8499   24.6609 H   0  0  0  0  0  0
   19.9946  -13.4108   23.8390 H   0  0  0  0  0  0
   20.3630  -14.6225   26.6199 H   0  0  0  0  0  0
   19.1977  -13.4190   26.2116 H   0  0  0  0  0  0
   21.2646  -12.3412   27.1208 H   0  0  0  0  0  0
   20.8431  -11.8027   25.5215 H   0  0  0  0  0  0
   23.0539  -13.7826   26.3213 H   0  0  0  0  0  0
   23.2933  -12.2530   25.5211 H   0  0  0  0  0  0
   23.5968  -14.2434   24.0166 H   0  0  0  0  0  0
   22.4353  -13.0832   23.4249 H   0  0  0  0  0  0
   21.5695  -15.3803   23.1910 H   0  0  0  0  0  0
   21.7472  -15.7308   24.8547 H   0  0  0  0  0  0
   18.3980  -17.6783   22.6658 H   0  0  0  0  0  0
   16.9051  -17.5444   24.3477 H   0  0  0  0  0  0
   16.4157  -15.9459   23.8600 H   0  0  0  0  0  0
   14.6393  -15.8077   23.1390 H   0  0  0  0  0  0
  1  6  1  0  0  0
  1  2  2  0  0  0
  1 36  1  0  0  0
  2  3  1  0  0  0
  2 37  1  0  0  0
  3  4  2  0  0  0
  3 10  1  0  0  0
  4  5  1  0  0  0
  4 38  1  0  0  0
  5  6  2  0  0  0
  5 39  1  0  0  0
  6  7  1  0  0  0
  7  8  2  3  0  0
  7  9  1  0  0  0
  8 40  1  0  0  0
  9 41  1  0  0  0
  9 42  1  0  0  0
 10 11  1  0  0  0
 11 12  1  0  0  0
 11 43  1  0  0  0
 11 44  1  0  0  0
 12 13  1  0  0  0
 12 45  1  0  0  0
 12 46  1  0  0  0
 13 34  1  0  0  0
 13 18  1  0  0  0
 13 14  1  0  0  0
 14 15  1  0  0  0
 14 47  1  0  0  0
 14 48  1  0  0  0
 15 16  1  0  0  0
 15 49  1  0  0  0
 15 50  1  0  0  0
 16 17  1  0  0  0
 16 51  1  0  0  0
 16 52  1  0  0  0
 17 18  1  0  0  0
 17 53  1  0  0  0
 17 54  1  0  0  0
 18 19  1  0  0  0
 19 20  2  0  0  0
 19 21  1  0  0  0
 21 35  1  0  0  0
 21 22  1  0  0  0
 21 29  1  0  0  0
 22 23  1  0  0  0
 22 55  1  0  0  0
 22 56  1  0  0  0
 23 28  1  0  0  0
 23 24  1  0  0  0
 23 57  1  0  0  0
 24 25  1  0  0  0
 24 58  1  0  0  0
 24 59  1  0  0  0
 25 26  1  0  0  0
 25 60  1  0  0  0
 25 61  1  0  0  0
 26 27  1  0  0  0
 26 62  1  0  0  0
 26 63  1  0  0  0
 27 28  1  0  0  0
 27 64  1  0  0  0
 27 65  1  0  0  0
 28 66  1  0  0  0
 28 67  1  0  0  0
 29 30  1  0  0  0
 29 68  1  0  0  0
 30 31  1  0  0  0
 30 69  1  0  0  0
 30 70  1  0  0  0
 31 32  2  0  0  0
 31 33  1  0  0  0
 33 71  1  0  0  0
M  END
> <s_m_entry_id>
37716

> <s_m_entry_name>
ligand_docking-pose.63

> <s_m_Source_Path>
/home/csk/Desktop/cluster/DUD-E-result/thrb

> <s_m_Source_File>
ligand_docking-pose.sdf

> <i_m_Source_File_Index>
63

> <i_lp_mmshare_version>
53161

> <i_f3d_flags>
0

> <r_lp_tautomer_probability>
1

> <s_lp_Force_Field>
OPLS_2005

> <r_lp_Energy>
50.185125

> <b_lp_Chiralities_Consistent>
1

> <s_lp_Variant>
129927-1

> <s_i_glide_gridfile>
glide-grid_1ype

> <i_i_glide_lignum>
1474

> <i_i_glide_rotatable_bonds>
13

> <r_i_docking_score>
-8.22682121838968

> <r_i_glide_ligand_efficiency>
-0.249297612678475

> <r_i_glide_ligand_efficiency_sa>
-0.79963065012024

> <r_i_glide_ligand_efficiency_ln>
-1.82960244276929

> <r_i_glide_gscore>
-8.22682121838968

> <r_i_glide_lipo>
-3.93567352190918

> <r_i_glide_hbond>
-0.580700963470194

> <r_i_glide_metal>
0

> <r_i_glide_rewards>
-0.442556917652884

> <r_i_glide_evdw>
-44.6998329162598

> <r_i_glide_ecoul>
-12.3625583648682

> <r_i_glide_erotb>
0.956405587753116

> <r_i_glide_esite>
-0.134920002567316

> <r_i_glide_emodel>
-77.9275880650583

> <r_i_glide_energy>
-57.0623912811279

> <r_i_glide_einternal>
17.5032024383545

> <i_i_glide_confnum>
39

> <i_i_glide_posenum>
355

> <r_i_glide_eff_state_penalty>
0

> <s_user_duplicate_titles>
129927

> <s_m_subgroup_title>
dock_pv

> <s_m_subgroupid>
dock_pv1

> <b_m_subgroup_collapsed>
0

$$$$
176099
                    3D
 Schrodinger Suite 2021-1.
 63 66  0  0  1  0            999 V2000
   12.6814  -14.4915   19.7878 C   0  0  0  0  0  0
   12.9847  -13.1154   20.3639 C   0  0  0  0  0  0
   12.2070  -12.6555   21.4321 C   0  0  0  0  0  0
   12.4203  -11.4004   22.0318 C   0  0  0  0  0  0
   13.4450  -10.6054   21.4936 C   0  0  0  0  0  0
   14.2341  -11.0536   20.4395 C   0  0  0  0  0  0
   14.0250  -12.3111   19.8671 C   0  0  0  0  0  0
   14.9707  -12.7678   18.7531 C   0  0  0  0  0  0
   16.3622  -12.7133   19.1995 N   0  0  0  0  0  0
   17.3795  -12.0427   18.6339 C   0  0  0  0  0  0
   17.2617  -11.4539   17.5581 O   0  0  0  0  0  0
   18.7286  -11.9648   19.4124 C   0  0  2  0  0  0
   19.9754  -12.0589   18.5035 C   0  0  0  0  0  0
   20.9644  -12.9238   19.2618 C   0  0  0  0  0  0
   20.1050  -13.8487   20.1133 C   0  0  2  0  0  0
   18.9535  -12.9848   20.4653 N   0  0  0  0  0  0
   18.2837  -13.0519   21.6613 C   0  0  0  0  0  0
   17.3776  -12.2628   21.9211 O   0  0  0  0  0  0
   18.7011  -14.1486   22.6830 C   0  0  0  0  0  0
   19.7103  -15.0755   22.1102 N   0  0  3  0  0  0
   20.7859  -14.4501   21.3426 C   0  0  0  0  0  0
   19.8406  -16.7556   22.6607 S   0  0  0  0  0  0
   18.6188  -17.1049   23.3942 O   0  0  0  0  0  0
   20.2912  -17.5590   21.5183 O   0  0  0  0  0  0
   21.2859  -16.7259   23.8815 C   0  0  0  0  0  0
   21.2707  -15.4976   24.7757 C   0  0  0  0  0  0
   22.3484  -14.6093   24.7499 C   0  0  0  0  0  0
   22.3097  -13.4530   25.5205 C   0  0  0  0  0  0
   21.1841  -13.1713   26.2916 C   0  0  0  0  0  0
   20.1095  -14.0566   26.3213 C   0  0  0  0  0  0
   20.1636  -15.2358   25.5859 C   0  0  0  0  0  0
   11.6161  -10.9121   23.1870 C   0  0  0  0  0  0
   11.6870   -9.7166   23.5709 N   0  0  0  0  0  0
   10.8160  -11.8528   23.7846 N   0  0  0  0  0  0
   18.6587  -10.9894   19.8969 H   0  0  0  0  0  0
   19.7217  -14.6704   19.5154 H   0  0  0  0  0  0
   12.4741  -14.4163   18.7215 H   0  0  0  0  0  0
   13.5367  -15.1551   19.9163 H   0  0  0  0  0  0
   11.8155  -14.9595   20.2580 H   0  0  0  0  0  0
   11.4187  -13.2996   21.7930 H   0  0  0  0  0  0
   13.6609   -9.6320   21.9113 H   0  0  0  0  0  0
   15.0372  -10.4242   20.0846 H   0  0  0  0  0  0
   14.7667  -13.7848   18.4213 H   0  0  0  0  0  0
   14.7980  -12.1355   17.8795 H   0  0  0  0  0  0
   16.5517  -13.1704   20.0811 H   0  0  0  0  0  0
   19.7500  -12.5777   17.5679 H   0  0  0  0  0  0
   20.4163  -11.0917   18.2640 H   0  0  0  0  0  0
   21.6155  -13.4774   18.5941 H   0  0  0  0  0  0
   21.6061  -12.3065   19.8941 H   0  0  0  0  0  0
   19.0946  -13.6729   23.5804 H   0  0  0  0  0  0
   17.8122  -14.7064   22.9790 H   0  0  0  0  0  0
   21.5458  -15.1902   21.0822 H   0  0  0  0  0  0
   21.2616  -13.6898   21.9646 H   0  0  0  0  0  0
   21.2415  -17.6435   24.4675 H   0  0  0  0  0  0
   22.1939  -16.7571   23.2803 H   0  0  0  0  0  0
   23.2143  -14.8078   24.1352 H   0  0  0  0  0  0
   23.1427  -12.7649   25.5070 H   0  0  0  0  0  0
   21.1447  -12.2607   26.8741 H   0  0  0  0  0  0
   19.2416  -13.8362   26.9264 H   0  0  0  0  0  0
   19.3270  -15.9193   25.6161 H   0  0  0  0  0  0
   11.0646   -9.5596   24.3510 H   0  0  0  0  0  0
   10.1194  -11.5660   24.4648 H   0  0  0  0  0  0
   10.8272  -12.8322   23.5193 H   0  0  0  0  0  0
  1  2  1  0  0  0
  1 37  1  0  0  0
  1 38  1  0  0  0
  1 39  1  0  0  0
  2  7  1  0  0  0
  2  3  2  0  0  0
  3  4  1  0  0  0
  3 40  1  0  0  0
  4  5  2  0  0  0
  4 32  1  0  0  0
  5  6  1  0  0  0
  5 41  1  0  0  0
  6  7  2  0  0  0
  6 42  1  0  0  0
  7  8  1  0  0  0
  8  9  1  0  0  0
  8 43  1  0  0  0
  8 44  1  0  0  0
  9 10  1  0  0  0
  9 45  1  0  0  0
 10 11  2  0  0  0
 10 12  1  0  0  0
 12 35  1  0  0  0
 12 16  1  0  0  0
 12 13  1  0  0  0
 13 14  1  0  0  0
 13 46  1  0  0  0
 13 47  1  0  0  0
 14 15  1  0  0  0
 14 48  1  0  0  0
 14 49  1  0  0  0
 15 36  1  0  0  0
 15 21  1  0  0  0
 15 16  1  0  0  0
 16 17  1  0  0  0
 17 18  2  0  0  0
 17 19  1  0  0  0
 19 20  1  0  0  0
 19 50  1  0  0  0
 19 51  1  0  0  0
 20 21  1  0  0  0
 20 22  1  0  0  0
 21 52  1  0  0  0
 21 53  1  0  0  0
 22 23  2  0  0  0
 22 24  2  0  0  0
 22 25  1  0  0  0
 25 26  1  0  0  0
 25 54  1  0  0  0
 25 55  1  0  0  0
 26 31  1  0  0  0
 26 27  2  0  0  0
 27 28  1  0  0  0
 27 56  1  0  0  0
 28 29  2  0  0  0
 28 57  1  0  0  0
 29 30  1  0  0  0
 29 58  1  0  0  0
 30 31  2  0  0  0
 30 59  1  0  0  0
 31 60  1  0  0  0
 32 33  2  3  0  0
 32 34  1  0  0  0
 33 61  1  0  0  0
 34 62  1  0  0  0
 34 63  1  0  0  0
M  END
> <s_m_entry_id>
37718

> <s_m_entry_name>
ligand_docking-pose.65

> <s_m_Source_Path>
/home/csk/Desktop/cluster/DUD-E-result/thrb

> <s_m_Source_File>
ligand_docking-pose.sdf

> <i_m_Source_File_Index>
65

> <i_lp_mmshare_version>
53161

> <i_f3d_flags>
0

> <r_lp_tautomer_probability>
1

> <s_lp_Force_Field>
OPLS_2005

> <r_lp_Energy>
3.794734

> <b_lp_Chiralities_Consistent>
1

> <s_lp_Variant>
176099-1

> <s_i_glide_gridfile>
glide-grid_1ype

> <i_i_glide_lignum>
2393

> <i_i_glide_rotatable_bonds>
8

> <r_i_docking_score>
-8.20175650293202

> <r_i_glide_ligand_efficiency>
-0.241228132439177

> <r_i_glide_ligand_efficiency_sa>
-0.781485503731486

> <r_i_glide_ligand_efficiency_ln>
-1.81199806297523

> <r_i_glide_gscore>
-8.20175650293202

> <r_i_glide_lipo>
-3.70737449778151

> <r_i_glide_hbond>
-0.393572885373007

> <r_i_glide_metal>
0

> <r_i_glide_rewards>
-0.861362714337306

> <r_i_glide_evdw>
-49.9711685180664

> <r_i_glide_ecoul>
-8.30807399749756

> <r_i_glide_erotb>
0.607699056342844

> <r_i_glide_esite>
-0.102375936255088

> <r_i_glide_emodel>
-79.1669185215235

> <r_i_glide_energy>
-58.279242515564

> <r_i_glide_einternal>
11.7553195953369

> <i_i_glide_confnum>
92

> <i_i_glide_posenum>
10

> <r_i_glide_eff_state_penalty>
0

> <s_user_duplicate_titles>
176099

> <s_m_subgroup_title>
dock_pv

> <s_m_subgroupid>
dock_pv1

> <b_m_subgroup_collapsed>
0

$$$$
297171
                    3D
 Schrodinger Suite 2021-1.
 71 73  0  0  1  0            999 V2000
   16.0724  -16.1404   21.3312 C   0  0  0  0  0  0
   16.4162  -15.8604   22.7211 N   0  0  1  0  0  0
   17.7506  -15.2674   22.9849 C   0  0  2  0  0  0
   18.0368  -15.2916   24.5113 C   0  0  0  0  0  0
   19.4223  -14.8537   24.9717 C   0  0  0  0  0  0
   19.6442  -13.5363   25.4240 C   0  0  0  0  0  0
   20.9209  -13.1173   25.7735 C   0  0  0  0  0  0
   21.9967  -13.9868   25.6505 C   0  0  0  0  0  0
   21.8018  -15.2809   25.1815 C   0  0  0  0  0  0
   20.5289  -15.7195   24.8362 C   0  0  0  0  0  0
   17.7822  -13.8220   22.3941 C   0  0  0  0  0  0
   16.8486  -13.0548   22.6570 O   0  0  0  0  0  0
   18.8248  -13.4736   21.5959 N   0  0  0  0  0  0
   20.0704  -14.2266   21.4453 C   0  0  0  0  0  0
   21.1199  -13.1601   21.1924 C   0  0  0  0  0  0
   20.3703  -12.1768   20.3209 C   0  0  0  0  0  0
   18.9206  -12.1860   20.8669 C   0  0  1  0  0  0
   17.8639  -11.9637   19.7599 C   0  0  0  0  0  0
   18.2195  -11.8531   18.5854 O   0  0  0  0  0  0
   16.5786  -11.8559   20.1434 N   0  0  0  0  0  0
   15.4269  -11.5649   19.2704 C   0  0  2  0  0  0
   14.1325  -11.2335   20.0696 C   0  0  0  0  0  0
   13.7677  -12.1891   21.2329 C   0  0  0  0  0  0
   12.3068  -12.0778   21.7102 C   0  0  0  0  0  0
   12.0656  -10.8127   22.4034 N   0  0  0  0  0  0
   11.3461  -10.8060   23.4558 C   0  0  0  0  0  0
   11.2179   -9.6985   24.3094 N   0  0  0  0  0  0
   10.5363  -11.8530   23.9211 N   0  0  0  0  0  0
   15.2314  -12.7148   18.2668 C   0  0  0  0  0  0
   14.9500  -13.8390   18.6909 O   0  0  0  0  0  0
   15.4949  -12.4988   16.8031 C   0  0  0  0  0  0
   15.7466  -13.5915   15.9586 C   0  0  0  0  0  0
   16.0160  -13.3605   14.6077 C   0  0  0  0  0  0
   16.0148  -12.0539   14.1193 C   0  0  0  0  0  0
   15.7327  -11.0142   15.0052 C   0  0  0  0  0  0
   15.4758  -11.2219   16.3225 N   0  0  0  0  0  0
   18.4828  -15.9132   22.5014 H   0  0  0  0  0  0
   18.8161  -11.3850   21.6010 H   0  0  0  0  0  0
   15.1191  -16.6676   21.2807 H   0  0  0  0  0  0
   15.9762  -15.2206   20.7530 H   0  0  0  0  0  0
   16.8311  -16.7666   20.8601 H   0  0  0  0  0  0
   15.6868  -15.3918   23.2655 H   0  0  0  0  0  0
   17.2905  -14.6940   25.0398 H   0  0  0  0  0  0
   17.8906  -16.3098   24.8757 H   0  0  0  0  0  0
   18.8168  -12.8537   25.5208 H   0  0  0  0  0  0
   21.0754  -12.1108   26.1378 H   0  0  0  0  0  0
   22.9896  -13.6562   25.9207 H   0  0  0  0  0  0
   22.6454  -15.9485   25.0838 H   0  0  0  0  0  0
   20.3901  -16.7230   24.4615 H   0  0  0  0  0  0
   19.9784  -14.8968   20.5894 H   0  0  0  0  0  0
   20.3557  -14.8165   22.3121 H   0  0  0  0  0  0
   22.0159  -13.5471   20.7213 H   0  0  0  0  0  0
   21.4114  -12.6952   22.1347 H   0  0  0  0  0  0
   20.4252  -12.5508   19.2975 H   0  0  0  0  0  0
   20.8218  -11.1845   20.3177 H   0  0  0  0  0  0
   16.3654  -12.0150   21.1225 H   0  0  0  0  0  0
   15.7048  -10.6531   18.7535 H   0  0  0  0  0  0
   14.2372  -10.2326   20.4915 H   0  0  0  0  0  0
   13.2923  -11.1552   19.3767 H   0  0  0  0  0  0
   13.9364  -13.2220   20.9297 H   0  0  0  0  0  0
   14.4352  -12.0239   22.0788 H   0  0  0  0  0  0
   11.6379  -12.1547   20.8519 H   0  0  0  0  0  0
   12.1045  -12.9602   22.3239 H   0  0  0  0  0  0
   11.5717   -8.8222   23.9624 H   0  0  0  0  0  0
   10.3023   -9.5675   24.7261 H   0  0  0  0  0  0
   10.4188  -12.6880   23.3624 H   0  0  0  0  0  0
    9.6842  -11.6273   24.4272 H   0  0  0  0  0  0
   15.7446  -14.6050   16.3351 H   0  0  0  0  0  0
   16.2070  -14.1912   13.9430 H   0  0  0  0  0  0
   16.2008  -11.8580   13.0732 H   0  0  0  0  0  0
   15.7016   -9.9902   14.6603 H   0  0  0  0  0  0
  1  2  1  0  0  0
  1 39  1  0  0  0
  1 40  1  0  0  0
  1 41  1  0  0  0
  2  3  1  0  0  0
  2 42  1  0  0  0
  3 37  1  0  0  0
  3  4  1  0  0  0
  3 11  1  0  0  0
  4  5  1  0  0  0
  4 43  1  0  0  0
  4 44  1  0  0  0
  5 10  1  0  0  0
  5  6  2  0  0  0
  6  7  1  0  0  0
  6 45  1  0  0  0
  7  8  2  0  0  0
  7 46  1  0  0  0
  8  9  1  0  0  0
  8 47  1  0  0  0
  9 10  2  0  0  0
  9 48  1  0  0  0
 10 49  1  0  0  0
 11 12  2  0  0  0
 11 13  1  0  0  0
 13 17  1  0  0  0
 13 14  1  0  0  0
 14 15  1  0  0  0
 14 50  1  0  0  0
 14 51  1  0  0  0
 15 16  1  0  0  0
 15 52  1  0  0  0
 15 53  1  0  0  0
 16 17  1  0  0  0
 16 54  1  0  0  0
 16 55  1  0  0  0
 17 38  1  0  0  0
 17 18  1  0  0  0
 18 19  2  0  0  0
 18 20  1  0  0  0
 20 21  1  0  0  0
 20 56  1  0  0  0
 21 22  1  0  0  0
 21 29  1  0  0  0
 21 57  1  0  0  0
 22 23  1  0  0  0
 22 58  1  0  0  0
 22 59  1  0  0  0
 23 24  1  0  0  0
 23 60  1  0  0  0
 23 61  1  0  0  0
 24 25  1  0  0  0
 24 62  1  0  0  0
 24 63  1  0  0  0
 25 26  2  3  0  0
 26 27  1  0  0  0
 26 28  1  0  0  0
 27 64  1  0  0  0
 27 65  1  0  0  0
 28 66  1  0  0  0
 28 67  1  0  0  0
 29 30  2  0  0  0
 29 31  1  0  0  0
 31 36  1  0  0  0
 31 32  2  0  0  0
 32 33  1  0  0  0
 32 68  1  0  0  0
 33 34  2  0  0  0
 33 69  1  0  0  0
 34 35  1  0  0  0
 34 70  1  0  0  0
 35 36  2  0  0  0
 35 71  1  0  0  0
M  END
> <s_m_entry_id>
37719

> <s_m_entry_name>
ligand_docking-pose.66

> <s_m_Source_Path>
/home/csk/Desktop/cluster/DUD-E-result/thrb

> <s_m_Source_File>
ligand_docking-pose.sdf

> <i_m_Source_File_Index>
66

> <i_lp_mmshare_version>
53161

> <i_f3d_flags>
0

> <r_lp_tautomer_probability>
0.99990000499975

> <s_lp_Force_Field>
OPLS_2005

> <r_lp_Energy>
30.792164

> <b_lp_Chiralities_Consistent>
1

> <s_lp_Variant>
297171-1

> <s_i_glide_gridfile>
glide-grid_1ype

> <i_i_glide_lignum>
4422

> <i_i_glide_rotatable_bonds>
14

> <r_i_docking_score>
-8.19259721932014

> <r_i_glide_ligand_efficiency>
-0.227572144981115

> <r_i_glide_ligand_efficiency_sa>
-0.751426665704958

> <r_i_glide_ligand_efficiency_ln>
-1.78740337485759

> <r_i_glide_gscore>
-8.19259721932014

> <r_i_glide_lipo>
-2.74166375586714

> <r_i_glide_hbond>
-1.03371737911935

> <r_i_glide_metal>
0

> <r_i_glide_rewards>
-0.831128653206142

> <r_i_glide_evdw>
-46.8785247802734

> <r_i_glide_ecoul>
-13.4485340118408

> <r_i_glide_erotb>
0.919788112661173

> <r_i_glide_esite>
-0.144669202998886

> <r_i_glide_emodel>
-84.1183157973633

> <r_i_glide_energy>
-60.3270587921143

> <r_i_glide_einternal>
13.9986124038696

> <i_i_glide_confnum>
15

> <i_i_glide_posenum>
50

> <r_i_glide_eff_state_penalty>
0

> <s_user_duplicate_titles>
297171

> <s_m_subgroup_title>
dock_pv

> <s_m_subgroupid>
dock_pv1

> <b_m_subgroup_collapsed>
0

$$$$
347288
                    3D
 Schrodinger Suite 2021-1.
 68 70  0  0  1  0            999 V2000
   13.9667   -9.9889   20.8204 C   0  0  0  0  0  0
   13.3878   -9.4815   21.9758 C   0  0  0  0  0  0
   12.3684  -10.2151   22.6039 C   0  0  0  0  0  0
   11.9351  -11.4023   22.0754 N   0  0  0  0  0  0
   12.5015  -11.8741   20.9389 C   0  0  0  0  0  0
   13.5233  -11.1963   20.2754 C   0  0  0  0  0  0
   14.1919  -11.7749   19.0375 C   0  0  0  0  0  0
   15.6385  -11.8218   19.2120 N   0  0  0  0  0  0
   16.3134  -12.8615   19.7201 C   0  0  0  0  0  0
   15.8056  -13.9720   19.8773 O   0  0  0  0  0  0
   17.7975  -12.5787   20.0854 C   0  0  2  0  0  0
   18.5948  -12.5725   18.7452 C   0  0  0  0  0  0
   20.0742  -12.4939   18.9804 C   0  0  0  0  0  0
   20.6297  -12.9584   20.0999 C   0  0  0  0  0  0
   19.8866  -13.6471   21.2306 C   0  0  0  0  0  0
   18.4114  -13.4758   21.1366 N   0  0  0  0  0  0
   17.7314  -13.7557   22.2959 C   0  0  0  0  0  0
   16.7533  -13.0986   22.6702 O   0  0  0  0  0  0
   18.0954  -15.0262   23.1406 C   0  0  1  0  0  0
   18.5627  -14.6943   24.5876 C   0  0  0  0  0  0
   19.9379  -14.0126   24.7794 C   0  0  0  0  0  0
   20.1652  -13.6522   26.2639 C   0  0  0  0  0  0
   21.4785  -12.8705   26.4596 C   0  0  0  0  0  0
   22.6883  -13.6647   25.9140 C   0  0  0  0  0  0
   22.4653  -14.1713   24.4718 C   0  0  0  0  0  0
   21.1175  -14.9061   24.3235 C   0  0  0  0  0  0
   16.8656  -15.8530   23.2656 N   0  0  2  0  0  0
   16.4971  -16.6218   22.0716 C   0  0  0  0  0  0
   15.2250  -17.4369   22.3467 C   0  0  0  0  0  0
   15.1605  -18.6506   22.1715 O   0  0  0  0  0  0
   14.1691  -16.6545   22.7210 O   0  0  0  0  0  0
   11.7218   -9.7401   23.8586 C   0  0  0  0  0  0
   12.0147   -8.6122   24.3451 N   0  0  0  0  0  0
   10.8160  -10.6117   24.4048 N   0  0  0  0  0  0
   17.8069  -11.5655   20.4911 H   0  0  0  0  0  0
   18.8609  -15.6117   22.6341 H   0  0  0  0  0  0
   14.7843   -9.4504   20.3703 H   0  0  0  0  0  0
   13.7637   -8.5568   22.3861 H   0  0  0  0  0  0
   12.1290  -12.8231   20.5842 H   0  0  0  0  0  0
   13.9740  -11.1297   18.1871 H   0  0  0  0  0  0
   13.7788  -12.7587   18.8007 H   0  0  0  0  0  0
   16.1210  -10.9444   19.1029 H   0  0  0  0  0  0
   18.2955  -11.7135   18.1445 H   0  0  0  0  0  0
   18.3837  -13.4518   18.1359 H   0  0  0  0  0  0
   20.7151  -12.0624   18.2271 H   0  0  0  0  0  0
   21.6970  -12.8697   20.1881 H   0  0  0  0  0  0
   20.2763  -13.2200   22.1514 H   0  0  0  0  0  0
   20.1628  -14.6963   21.1726 H   0  0  0  0  0  0
   18.5702  -15.6192   25.1672 H   0  0  0  0  0  0
   17.7956  -14.0785   25.0609 H   0  0  0  0  0  0
   19.9538  -13.0787   24.2163 H   0  0  0  0  0  0
   20.1507  -14.5542   26.8782 H   0  0  0  0  0  0
   19.3298  -13.0581   26.6282 H   0  0  0  0  0  0
   21.6166  -12.6436   27.5195 H   0  0  0  0  0  0
   21.4018  -11.9108   25.9472 H   0  0  0  0  0  0
   22.8938  -14.5043   26.5840 H   0  0  0  0  0  0
   23.5863  -13.0492   25.9206 H   0  0  0  0  0  0
   23.2848  -14.8283   24.1804 H   0  0  0  0  0  0
   22.4925  -13.3266   23.7822 H   0  0  0  0  0  0
   20.9871  -15.2299   23.2922 H   0  0  0  0  0  0
   21.1246  -15.8348   24.8950 H   0  0  0  0  0  0
   16.1222  -15.2284   23.5830 H   0  0  0  0  0  0
   16.3276  -15.9827   21.2065 H   0  0  0  0  0  0
   17.3045  -17.3063   21.8074 H   0  0  0  0  0  0
   14.4166  -15.7323   22.8405 H   0  0  0  0  0  0
   12.7100   -8.1185   23.8111 H   0  0  0  0  0  0
   10.1761  -10.2744   25.1193 H   0  0  0  0  0  0
   10.5166  -11.4092   23.8631 H   0  0  0  0  0  0
  1  6  1  0  0  0
  1  2  2  0  0  0
  1 37  1  0  0  0
  2  3  1  0  0  0
  2 38  1  0  0  0
  3  4  2  0  0  0
  3 32  1  0  0  0
  4  5  1  0  0  0
  5  6  2  0  0  0
  5 39  1  0  0  0
  6  7  1  0  0  0
  7  8  1  0  0  0
  7 40  1  0  0  0
  7 41  1  0  0  0
  8  9  1  0  0  0
  8 42  1  0  0  0
  9 10  2  0  0  0
  9 11  1  0  0  0
 11 35  1  0  0  0
 11 16  1  0  0  0
 11 12  1  0  0  0
 12 13  1  0  0  0
 12 43  1  0  0  0
 12 44  1  0  0  0
 13 14  2  0  0  0
 13 45  1  0  0  0
 14 15  1  0  0  0
 14 46  1  0  0  0
 15 16  1  0  0  0
 15 47  1  0  0  0
 15 48  1  0  0  0
 16 17  1  0  0  0
 17 18  2  0  0  0
 17 19  1  0  0  0
 19 36  1  0  0  0
 19 20  1  0  0  0
 19 27  1  0  0  0
 20 21  1  0  0  0
 20 49  1  0  0  0
 20 50  1  0  0  0
 21 26  1  0  0  0
 21 22  1  0  0  0
 21 51  1  0  0  0
 22 23  1  0  0  0
 22 52  1  0  0  0
 22 53  1  0  0  0
 23 24  1  0  0  0
 23 54  1  0  0  0
 23 55  1  0  0  0
 24 25  1  0  0  0
 24 56  1  0  0  0
 24 57  1  0  0  0
 25 26  1  0  0  0
 25 58  1  0  0  0
 25 59  1  0  0  0
 26 60  1  0  0  0
 26 61  1  0  0  0
 27 28  1  0  0  0
 27 62  1  0  0  0
 28 29  1  0  0  0
 28 63  1  0  0  0
 28 64  1  0  0  0
 29 30  2  0  0  0
 29 31  1  0  0  0
 31 65  1  0  0  0
 32 33  2  3  0  0
 32 34  1  0  0  0
 33 66  1  0  0  0
 34 67  1  0  0  0
 34 68  1  0  0  0
M  END
> <s_m_entry_id>
37720

> <s_m_entry_name>
ligand_docking-pose.67

> <s_m_Source_Path>
/home/csk/Desktop/cluster/DUD-E-result/thrb

> <s_m_Source_File>
ligand_docking-pose.sdf

> <i_m_Source_File_Index>
67

> <i_lp_mmshare_version>
53161

> <i_f3d_flags>
0

> <r_lp_tautomer_probability>
1

> <s_lp_Force_Field>
OPLS_2005

> <r_lp_Energy>
32.263715

> <b_lp_Chiralities_Consistent>
1

> <s_lp_Variant>
347288-2

> <s_i_glide_gridfile>
glide-grid_1ype

> <i_i_glide_lignum>
2009

> <i_i_glide_rotatable_bonds>
13

> <r_i_docking_score>
-8.17585902474329

> <r_i_glide_ligand_efficiency>
-0.240466441904214

> <r_i_glide_ligand_efficiency_sa>
-0.7790179220884

> <r_i_glide_ligand_efficiency_ln>
-1.80627658364368

> <r_i_glide_gscore>
-8.17585902474329

> <r_i_glide_lipo>
-3.71911419438665

> <r_i_glide_hbond>
-0.698250167702296

> <r_i_glide_metal>
0

> <r_i_glide_rewards>
-0.451055566866624

> <r_i_glide_evdw>
-47.453311920166

> <r_i_glide_ecoul>
-11.6775159835815

> <r_i_glide_erotb>
0.912519336920554

> <r_i_glide_esite>
-0.0956654391627376

> <r_i_glide_emodel>
-78.3863125745518

> <r_i_glide_energy>
-59.1308279037476

> <r_i_glide_einternal>
12.5766096115112

> <i_i_glide_confnum>
131

> <i_i_glide_posenum>
237

> <r_i_glide_eff_state_penalty>
0

> <s_user_duplicate_titles>
347288

> <s_m_subgroup_title>
dock_pv

> <s_m_subgroupid>
dock_pv1

> <b_m_subgroup_collapsed>
0

$$$$
286287
                    3D
 Schrodinger Suite 2021-1.
 62 64  0  0  1  0            999 V2000
   25.2117  -15.6373   24.6547 C   0  0  0  0  0  0
   24.3732  -16.3399   25.5163 C   0  0  0  0  0  0
   23.1641  -15.7756   25.9125 C   0  0  0  0  0  0
   22.7965  -14.5114   25.4434 C   0  0  0  0  0  0
   23.6366  -13.8145   24.5726 C   0  0  0  0  0  0
   24.8470  -14.3791   24.1826 C   0  0  0  0  0  0
   21.4634  -13.9123   25.8593 C   0  0  0  0  0  0
   20.0515  -14.4521   24.7336 S   0  0  0  0  0  0
   18.8154  -13.8538   25.2406 O   0  0  0  0  0  0
   20.1378  -15.9002   24.5178 O   0  0  0  0  0  0
   20.4187  -13.6594   23.2094 N   0  0  1  0  0  0
   19.6976  -14.1312   21.9988 C   0  0  2  0  0  0
   20.7374  -14.2779   20.8692 C   0  0  0  0  0  0
   21.1874  -12.9198   20.3447 C   0  0  0  0  0  0
   19.9908  -12.0935   19.8696 C   0  0  0  0  0  0
   18.8444  -12.1024   20.8068 N   0  0  0  0  0  0
   18.5721  -13.0998   21.7105 C   0  0  0  0  0  0
   17.5028  -13.1471   22.3226 O   0  0  0  0  0  0
   17.8546  -11.0263   20.6163 C   0  0  0  0  0  0
   16.7821  -11.4528   19.6092 C   0  0  0  0  0  0
   17.0306  -11.4520   18.4026 O   0  0  0  0  0  0
   15.6018  -11.8010   20.1412 N   0  0  0  0  0  0
   14.4373  -12.3161   19.4123 C   0  0  1  0  0  0
   14.3099  -13.8476   19.5019 C   0  0  0  0  0  0
   13.9084  -14.2717   20.9207 C   0  0  0  0  0  0
   12.6127  -13.5641   21.3645 C   0  0  0  0  0  0
   12.7082  -12.0921   21.2602 N   0  0  0  0  0  0
   13.1125  -11.6522   19.8959 C   0  0  1  0  0  0
   13.2160  -10.2529   19.6913 O   0  0  0  0  0  0
   12.0028  -11.2266   22.1763 C   0  0  0  0  0  0
   12.0253   -9.9687   22.1334 N   0  0  0  0  0  0
   11.2157  -11.8530   23.1623 N   0  0  0  0  0  0
   14.5451  -12.0344   18.3610 H   0  0  0  0  0  0
   26.1574  -16.0670   24.3558 H   0  0  0  0  0  0
   24.6624  -17.3145   25.8806 H   0  0  0  0  0  0
   22.5117  -16.3266   26.5743 H   0  0  0  0  0  0
   23.3579  -12.8390   24.2031 H   0  0  0  0  0  0
   25.5137  -13.8450   23.5257 H   0  0  0  0  0  0
   21.4881  -12.8227   25.8587 H   0  0  0  0  0  0
   21.1905  -14.2286   26.8635 H   0  0  0  0  0  0
   20.2752  -12.6507   23.3029 H   0  0  0  0  0  0
   19.2210  -15.0964   22.1796 H   0  0  0  0  0  0
   20.3090  -14.8593   20.0507 H   0  0  0  0  0  0
   21.6036  -14.8481   21.2138 H   0  0  0  0  0  0
   21.8918  -13.0384   19.5222 H   0  0  0  0  0  0
   21.7217  -12.3706   21.1182 H   0  0  0  0  0  0
   19.6114  -12.6280   18.9969 H   0  0  0  0  0  0
   20.2379  -11.0936   19.5135 H   0  0  0  0  0  0
   18.3346  -10.0966   20.3227 H   0  0  0  0  0  0
   17.3919  -10.7620   21.5665 H   0  0  0  0  0  0
   15.5632  -11.9061   21.1444 H   0  0  0  0  0  0
   15.2485  -14.3246   19.2125 H   0  0  0  0  0  0
   13.5655  -14.1982   18.7852 H   0  0  0  0  0  0
   14.7060  -14.0798   21.6416 H   0  0  0  0  0  0
   13.7558  -15.3513   20.9479 H   0  0  0  0  0  0
   12.4167  -13.8762   22.3905 H   0  0  0  0  0  0
   11.7673  -13.9060   20.7654 H   0  0  0  0  0  0
   12.3171  -11.9733   19.2245 H   0  0  0  0  0  0
   12.7370   -9.8470   20.4318 H   0  0  0  0  0  0
   11.4515   -9.5819   22.8688 H   0  0  0  0  0  0
   10.5974  -11.3301   23.7674 H   0  0  0  0  0  0
   11.0639  -12.8547   23.1805 H   0  0  0  0  0  0
  1  6  1  0  0  0
  1  2  2  0  0  0
  1 34  1  0  0  0
  2  3  1  0  0  0
  2 35  1  0  0  0
  3  4  2  0  0  0
  3 36  1  0  0  0
  4  5  1  0  0  0
  4  7  1  0  0  0
  5  6  2  0  0  0
  5 37  1  0  0  0
  6 38  1  0  0  0
  7  8  1  0  0  0
  7 39  1  0  0  0
  7 40  1  0  0  0
  8  9  2  0  0  0
  8 10  2  0  0  0
  8 11  1  0  0  0
 11 12  1  0  0  0
 11 41  1  0  0  0
 12 17  1  0  0  0
 12 13  1  0  0  0
 12 42  1  0  0  0
 13 14  1  0  0  0
 13 43  1  0  0  0
 13 44  1  0  0  0
 14 15  1  0  0  0
 14 45  1  0  0  0
 14 46  1  0  0  0
 15 16  1  0  0  0
 15 47  1  0  0  0
 15 48  1  0  0  0
 16 17  1  0  0  0
 16 19  1  0  0  0
 17 18  2  0  0  0
 19 20  1  0  0  0
 19 49  1  0  0  0
 19 50  1  0  0  0
 20 21  2  0  0  0
 20 22  1  0  0  0
 22 23  1  0  0  0
 22 51  1  0  0  0
 23 33  1  0  0  0
 23 28  1  0  0  0
 23 24  1  0  0  0
 24 25  1  0  0  0
 24 52  1  0  0  0
 24 53  1  0  0  0
 25 26  1  0  0  0
 25 54  1  0  0  0
 25 55  1  0  0  0
 26 27  1  0  0  0
 26 56  1  0  0  0
 26 57  1  0  0  0
 27 28  1  0  0  0
 27 30  1  0  0  0
 28 29  1  0  0  0
 28 58  1  0  0  0
 29 59  1  0  0  0
 30 31  2  3  0  0
 30 32  1  0  0  0
 31 60  1  0  0  0
 32 61  1  0  0  0
 32 62  1  0  0  0
M  END
> <s_m_entry_id>
37721

> <s_m_entry_name>
ligand_docking-pose.68

> <s_m_Source_Path>
/home/csk/Desktop/cluster/DUD-E-result/thrb

> <s_m_Source_File>
ligand_docking-pose.sdf

> <i_m_Source_File_Index>
68

> <i_lp_mmshare_version>
53161

> <i_f3d_flags>
0

> <r_lp_tautomer_probability>
1

> <s_lp_Force_Field>
OPLS_2005

> <r_lp_Energy>
23.542558

> <b_lp_Chiralities_Consistent>
1

> <s_lp_Variant>
286287-1

> <s_i_glide_gridfile>
glide-grid_1ype

> <i_i_glide_lignum>
1545

> <i_i_glide_rotatable_bonds>
10

> <r_i_docking_score>
-8.16644651359492

> <r_i_glide_ligand_efficiency>
-0.255201453549841

> <r_i_glide_ligand_efficiency_sa>
-0.810214110721668

> <r_i_glide_ligand_efficiency_ln>
-1.82868998331834

> <r_i_glide_gscore>
-8.16644651359492

> <r_i_glide_lipo>
-2.29744716115344

> <r_i_glide_hbond>
-0.546393476641323

> <r_i_glide_metal>
0

> <r_i_glide_rewards>
-1.8226461666052

> <r_i_glide_evdw>
-50.4917144775391

> <r_i_glide_ecoul>
-10.6066970825195

> <r_i_glide_erotb>
0.648811472623312

> <r_i_glide_esite>
-0.0331808955633954

> <r_i_glide_emodel>
-85.4168586639282

> <r_i_glide_energy>
-61.0984115600586

> <r_i_glide_einternal>
9.94621753692627

> <i_i_glide_confnum>
82

> <i_i_glide_posenum>
139

> <r_i_glide_eff_state_penalty>
0

> <s_user_duplicate_titles>
286287

> <s_m_subgroup_title>
dock_pv

> <s_m_subgroupid>
dock_pv1

> <b_m_subgroup_collapsed>
0

$$$$
192674
                    3D
 Schrodinger Suite 2021-1.
 56 58  0  0  1  0            999 V2000
   22.3534  -13.8386   25.5239 C   0  0  0  0  0  0
   22.2300  -15.1058   24.9679 C   0  0  0  0  0  0
   20.9770  -15.6049   24.6328 C   0  0  0  0  0  0
   19.8215  -14.8305   24.8704 C   0  0  0  0  0  0
   19.9690  -13.5292   25.3971 C   0  0  0  0  0  0
   21.2275  -13.0531   25.7381 C   0  0  0  0  0  0
   18.4477  -15.3532   24.4736 C   0  0  0  0  0  0
   18.1192  -15.3738   22.9602 C   0  0  2  0  0  0
   18.0471  -13.9463   22.3384 C   0  0  0  0  0  0
   17.1456  -13.1950   22.7208 O   0  0  0  0  0  0
   18.9758  -13.5849   21.4123 N   0  0  0  0  0  0
   20.0992  -14.4146   20.9829 C   0  0  0  0  0  0
   21.0799  -13.4641   20.3236 C   0  0  0  0  0  0
   20.2285  -12.3353   19.7946 C   0  0  0  0  0  0
   19.0185  -12.2607   20.7452 C   0  0  1  0  0  0
   17.7310  -11.8557   20.0106 C   0  0  0  0  0  0
   17.5194  -12.2316   18.8569 O   0  0  0  0  0  0
   16.8873  -11.0994   20.7210 N   0  0  0  0  0  0
   15.5415  -10.7321   20.3026 C   0  0  0  0  0  0
   14.4255  -11.7091   20.6896 C   0  0  0  0  0  0
   14.6526  -13.0928   20.6157 C   0  0  0  0  0  0
   13.6452  -14.0021   20.9204 C   0  0  0  0  0  0
   12.3997  -13.5373   21.3146 C   0  0  0  0  0  0
   12.1643  -12.1712   21.4356 C   0  0  0  0  0  0
   13.1614  -11.2452   21.1123 C   0  0  0  0  0  0
   12.8233   -9.7606   21.2246 C   0  0  0  0  0  0
   12.8159   -9.1148   19.9209 N   0  0  0  0  0  0
   13.9310  -15.6985   20.8024 Cl  0  0  0  0  0  0
   16.8138  -16.0121   22.7211 N   0  0  0  0  0  0
   18.8562  -16.0055   22.4707 H   0  0  0  0  0  0
   19.2159  -11.5234   21.5205 H   0  0  0  0  0  0
   23.3307  -13.4617   25.7887 H   0  0  0  0  0  0
   23.1120  -15.7047   24.7997 H   0  0  0  0  0  0
   20.8926  -16.5893   24.1984 H   0  0  0  0  0  0
   19.1030  -12.9065   25.5558 H   0  0  0  0  0  0
   21.3273  -12.0647   26.1653 H   0  0  0  0  0  0
   18.3770  -16.3695   24.8633 H   0  0  0  0  0  0
   17.6867  -14.7883   25.0162 H   0  0  0  0  0  0
   20.5993  -14.9337   21.8005 H   0  0  0  0  0  0
   19.7344  -15.1543   20.2699 H   0  0  0  0  0  0
   21.7892  -13.0861   21.0617 H   0  0  0  0  0  0
   21.6160  -13.9592   19.5214 H   0  0  0  0  0  0
   20.7800  -11.3954   19.7463 H   0  0  0  0  0  0
   19.9358  -12.5845   18.7739 H   0  0  0  0  0  0
   17.1432  -10.8716   21.6709 H   0  0  0  0  0  0
   15.3652   -9.7407   20.7178 H   0  0  0  0  0  0
   15.4915  -10.6532   19.2169 H   0  0  0  0  0  0
   15.6054  -13.4853   20.3019 H   0  0  0  0  0  0
   11.6117  -14.2435   21.5220 H   0  0  0  0  0  0
   11.1930  -11.8372   21.7690 H   0  0  0  0  0  0
   11.8480   -9.6237   21.6951 H   0  0  0  0  0  0
   13.5435   -9.2702   21.8814 H   0  0  0  0  0  0
   11.9893   -9.4302   19.4129 H   0  0  0  0  0  0
   12.6634   -8.1251   20.0642 H   0  0  0  0  0  0
   16.7616  -16.9103   23.1790 H   0  0  0  0  0  0
   16.0887  -15.4495   23.1599 H   0  0  0  0  0  0
  1  6  1  0  0  0
  1  2  2  0  0  0
  1 32  1  0  0  0
  2  3  1  0  0  0
  2 33  1  0  0  0
  3  4  2  0  0  0
  3 34  1  0  0  0
  4  5  1  0  0  0
  4  7  1  0  0  0
  5  6  2  0  0  0
  5 35  1  0  0  0
  6 36  1  0  0  0
  7  8  1  0  0  0
  7 37  1  0  0  0
  7 38  1  0  0  0
  8 30  1  0  0  0
  8  9  1  0  0  0
  8 29  1  0  0  0
  9 10  2  0  0  0
  9 11  1  0  0  0
 11 15  1  0  0  0
 11 12  1  0  0  0
 12 13  1  0  0  0
 12 39  1  0  0  0
 12 40  1  0  0  0
 13 14  1  0  0  0
 13 41  1  0  0  0
 13 42  1  0  0  0
 14 15  1  0  0  0
 14 43  1  0  0  0
 14 44  1  0  0  0
 15 31  1  0  0  0
 15 16  1  0  0  0
 16 17  2  0  0  0
 16 18  1  0  0  0
 18 19  1  0  0  0
 18 45  1  0  0  0
 19 20  1  0  0  0
 19 46  1  0  0  0
 19 47  1  0  0  0
 20 25  1  0  0  0
 20 21  2  0  0  0
 21 22  1  0  0  0
 21 48  1  0  0  0
 22 23  2  0  0  0
 22 28  1  0  0  0
 23 24  1  0  0  0
 23 49  1  0  0  0
 24 25  2  0  0  0
 24 50  1  0  0  0
 25 26  1  0  0  0
 26 27  1  0  0  0
 26 51  1  0  0  0
 26 52  1  0  0  0
 27 53  1  0  0  0
 27 54  1  0  0  0
 29 55  1  0  0  0
 29 56  1  0  0  0
M  END
> <s_m_entry_id>
37723

> <s_m_entry_name>
ligand_docking-pose.70

> <s_m_Source_Path>
/home/csk/Desktop/cluster/DUD-E-result/thrb

> <s_m_Source_File>
ligand_docking-pose.sdf

> <i_m_Source_File_Index>
70

> <i_lp_mmshare_version>
53161

> <i_f3d_flags>
0

> <r_lp_tautomer_probability>
1

> <s_lp_Force_Field>
OPLS_2005

> <r_lp_Energy>
22.526189

> <b_lp_Chiralities_Consistent>
1

> <s_lp_Variant>
192674-1

> <s_i_glide_gridfile>
glide-grid_1ype

> <i_i_glide_lignum>
1087

> <i_i_glide_rotatable_bonds>
9

> <r_i_docking_score>
-8.15198368300294

> <r_i_glide_ligand_efficiency>
-0.281102885620791

> <r_i_glide_ligand_efficiency_sa>
-0.863637124272226

> <r_i_glide_ligand_efficiency_ln>
-1.86659754693746

> <r_i_glide_gscore>
-8.15198368300294

> <r_i_glide_lipo>
-3.39833406583984

> <r_i_glide_hbond>
-0.81623857772882

> <r_i_glide_metal>
0

> <r_i_glide_rewards>
-1.22762195737403

> <r_i_glide_evdw>
-40.6921234130859

> <r_i_glide_ecoul>
-9.85244750976562

> <r_i_glide_erotb>
0.802684215058891

> <r_i_glide_esite>
0

> <r_i_glide_emodel>
-72.5050315731383

> <r_i_glide_energy>
-50.5445709228516

> <r_i_glide_einternal>
5.97270059585571

> <i_i_glide_confnum>
47

> <i_i_glide_posenum>
89

> <r_i_glide_eff_state_penalty>
0

> <s_user_duplicate_titles>
192674

> <s_m_subgroup_title>
dock_pv

> <s_m_subgroupid>
dock_pv1

> <b_m_subgroup_collapsed>
0

$$$$
133507
                    3D
 Schrodinger Suite 2021-1.
 50 52  0  0  1  0            999 V2000
   14.3440   -9.3598   21.1903 C   0  0  0  0  0  0
   13.5063  -10.4006   21.7847 N   0  0  0  0  0  0
   12.5148   -9.9536   22.7674 C   0  0  0  0  0  0
   13.3135  -11.6453   21.1234 C   0  0  0  0  0  0
   12.5246  -12.6534   21.6997 C   0  0  0  0  0  0
   12.3366  -13.8764   21.0614 C   0  0  0  0  0  0
   12.9207  -14.1161   19.8238 C   0  0  0  0  0  0
   13.7151  -13.1468   19.2206 C   0  0  0  0  0  0
   13.9087  -11.9193   19.8787 C   0  0  0  0  0  0
   14.2521  -13.4605   17.9865 O   0  0  0  0  0  0
   15.2406  -12.6868   17.4348 C   0  0  0  0  0  0
   14.9750  -11.8570   16.3516 C   0  0  0  0  0  0
   15.9711  -11.0192   15.8495 C   0  0  0  0  0  0
   17.2165  -11.0521   16.4791 C   0  0  0  0  0  0
   17.4157  -11.9018   17.5711 C   0  0  0  0  0  0
   16.4522  -12.7371   18.0321 N   0  0  0  0  0  0
   18.6407  -11.8531   18.1959 O   0  0  0  0  0  0
   19.0202  -12.4771   19.3703 C   0  0  0  0  0  0
   18.1620  -12.8381   20.4180 C   0  0  0  0  0  0
   18.6327  -13.4832   21.5799 C   0  0  0  0  0  0
   20.0198  -13.6791   21.6900 C   0  0  0  0  0  0
   20.8891  -13.2681   20.6852 C   0  0  0  0  0  0
   20.3887  -12.6720   19.5333 C   0  0  0  0  0  0
   21.2446  -12.2535   18.5534 O   0  0  0  0  0  0
   17.7195  -13.9536   22.6550 C   0  0  0  0  0  0
   18.1583  -14.3594   23.7628 N   0  0  0  0  0  0
   16.3925  -13.9152   22.3209 N   0  0  0  0  0  0
   15.6692  -10.0725   14.7144 C   0  0  0  0  0  0
   14.5203   -9.8551   14.3386 O   0  0  0  0  0  0
   16.7475   -9.4661   14.1391 O   0  0  0  0  0  0
   15.2976   -9.7600   20.8443 H   0  0  0  0  0  0
   13.8350   -8.9107   20.3369 H   0  0  0  0  0  0
   14.5704   -8.5724   21.9102 H   0  0  0  0  0  0
   12.4267  -10.6512   23.6007 H   0  0  0  0  0  0
   12.7602   -8.9752   23.1829 H   0  0  0  0  0  0
   11.5303   -9.8768   22.3022 H   0  0  0  0  0  0
   12.0437  -12.5167   22.6560 H   0  0  0  0  0  0
   11.7191  -14.6339   21.5210 H   0  0  0  0  0  0
   12.7572  -15.0616   19.3272 H   0  0  0  0  0  0
   14.5155  -11.1709   19.3981 H   0  0  0  0  0  0
   14.0013  -11.8530   15.9210 H   0  0  0  0  0  0
   18.0148  -10.4072   16.1509 H   0  0  0  0  0  0
   17.1150  -12.6005   20.3361 H   0  0  0  0  0  0
   20.4410  -14.1563   22.5644 H   0  0  0  0  0  0
   21.9507  -13.4191   20.8104 H   0  0  0  0  0  0
   22.1516  -12.5289   18.7149 H   0  0  0  0  0  0
   17.4068  -14.6526   24.3701 H   0  0  0  0  0  0
   15.7028  -14.2529   22.9872 H   0  0  0  0  0  0
   16.0979  -13.7414   21.3726 H   0  0  0  0  0  0
   16.4164   -8.8928   13.4301 H   0  0  0  0  0  0
  1  2  1  0  0  0
  1 31  1  0  0  0
  1 32  1  0  0  0
  1 33  1  0  0  0
  2  3  1  0  0  0
  2  4  1  0  0  0
  3 34  1  0  0  0
  3 35  1  0  0  0
  3 36  1  0  0  0
  4  9  1  0  0  0
  4  5  2  0  0  0
  5  6  1  0  0  0
  5 37  1  0  0  0
  6  7  2  0  0  0
  6 38  1  0  0  0
  7  8  1  0  0  0
  7 39  1  0  0  0
  8  9  2  0  0  0
  8 10  1  0  0  0
  9 40  1  0  0  0
 10 11  1  0  0  0
 11 16  1  0  0  0
 11 12  2  0  0  0
 12 13  1  0  0  0
 12 41  1  0  0  0
 13 14  2  0  0  0
 13 28  1  0  0  0
 14 15  1  0  0  0
 14 42  1  0  0  0
 15 16  2  0  0  0
 15 17  1  0  0  0
 17 18  1  0  0  0
 18 23  1  0  0  0
 18 19  2  0  0  0
 19 20  1  0  0  0
 19 43  1  0  0  0
 20 21  2  0  0  0
 20 25  1  0  0  0
 21 22  1  0  0  0
 21 44  1  0  0  0
 22 23  2  0  0  0
 22 45  1  0  0  0
 23 24  1  0  0  0
 24 46  1  0  0  0
 25 26  2  3  0  0
 25 27  1  0  0  0
 26 47  1  0  0  0
 27 48  1  0  0  0
 27 49  1  0  0  0
 28 29  2  0  0  0
 28 30  1  0  0  0
 30 50  1  0  0  0
M  END
> <s_m_entry_id>
37724

> <s_m_entry_name>
ligand_docking-pose.71

> <s_m_Source_Path>
/home/csk/Desktop/cluster/DUD-E-result/thrb

> <s_m_Source_File>
ligand_docking-pose.sdf

> <i_m_Source_File_Index>
71

> <i_lp_mmshare_version>
53161

> <i_f3d_flags>
0

> <r_lp_tautomer_probability>
1

> <s_lp_Force_Field>
OPLS_2005

> <r_lp_Energy>
14.540853

> <b_lp_Chiralities_Consistent>
1

> <s_lp_Variant>
133507-1

> <s_i_glide_gridfile>
glide-grid_1ype

> <i_i_glide_lignum>
4357

> <i_i_glide_rotatable_bonds>
9

> <r_i_docking_score>
-8.15136901983191

> <r_i_glide_ligand_efficiency>
-0.271712300661064

> <r_i_glide_ligand_efficiency_sa>
-0.844273291924385

> <r_i_glide_ligand_efficiency_ln>
-1.85207985758491

> <r_i_glide_gscore>
-8.15136901983191

> <r_i_glide_lipo>
-2.84903366046327

> <r_i_glide_hbond>
-0.369485429459606

> <r_i_glide_metal>
0

> <r_i_glide_rewards>
-1.33171447128249

> <r_i_glide_evdw>
-43.9974403381348

> <r_i_glide_ecoul>
-13.1074085235596

> <r_i_glide_erotb>
0.589971204160315

> <r_i_glide_esite>
-0.0251233673461858

> <r_i_glide_emodel>
-75.9428623207457

> <r_i_glide_energy>
-57.1048488616943

> <r_i_glide_einternal>
7.9783992767334

> <i_i_glide_confnum>
1

> <i_i_glide_posenum>
324

> <r_i_glide_eff_state_penalty>
0

> <s_user_duplicate_titles>
133507

> <s_m_subgroup_title>
dock_pv

> <s_m_subgroupid>
dock_pv1

> <b_m_subgroup_collapsed>
0

$$$$
347182
                    3D
 Schrodinger Suite 2021-1.
 65 67  0  0  1  0            999 V2000
   13.4583  -13.1502   20.6425 C   0  0  0  0  0  0
   12.5734  -12.9125   21.6944 C   0  0  0  0  0  0
   12.4818  -11.5710   22.0683 C   0  0  0  0  0  0
   13.5724  -10.6271   21.0785 S   0  0  0  0  0  0
   14.1043  -12.0151   20.1694 C   0  0  0  0  0  0
   15.1111  -11.8915   19.0513 C   0  0  0  0  0  0
   16.4582  -11.7176   19.5923 N   0  0  0  0  0  0
   17.5607  -12.1794   18.9882 C   0  0  0  0  0  0
   17.5529  -12.6529   17.8537 O   0  0  0  0  0  0
   18.8885  -12.0670   19.7699 C   0  0  2  0  0  0
   20.1188  -12.0409   18.8342 C   0  0  0  0  0  0
   21.2169  -12.6697   19.6429 C   0  0  0  0  0  0
   20.4961  -13.7630   20.3962 C   0  0  0  0  0  0
   19.1729  -13.2074   20.6738 N   0  0  0  0  0  0
   18.3607  -13.6085   21.6846 C   0  0  0  0  0  0
   17.3994  -12.9404   22.0737 O   0  0  0  0  0  0
   18.6552  -14.9838   22.3690 C   0  0  1  0  0  0
   18.8761  -14.8682   23.9072 C   0  0  0  0  0  0
   20.1502  -14.0969   24.3424 C   0  0  0  0  0  0
   20.1291  -13.7594   25.8506 C   0  0  0  0  0  0
   21.3343  -12.8835   26.2514 C   0  0  0  0  0  0
   22.6824  -13.4998   25.8027 C   0  0  0  0  0  0
   22.6809  -14.0021   24.3445 C   0  0  0  0  0  0
   21.4525  -14.8852   24.0650 C   0  0  0  0  0  0
   17.6025  -15.9541   21.9651 N   0  0  2  0  0  0
   16.3247  -15.8538   22.6733 C   0  0  0  0  0  0
   15.2243  -16.6160   21.9214 C   0  0  0  0  0  0
   15.4184  -17.5452   21.1389 O   0  0  0  0  0  0
   13.9961  -16.1822   22.3210 O   0  0  0  0  0  0
   11.6434  -10.9605   23.1208 C   0  0  0  0  0  0
   11.7490   -9.7356   23.3822 N   0  0  0  0  0  0
   10.8159  -11.8528   23.7516 N   0  0  0  0  0  0
   18.8796  -11.1584   20.3759 H   0  0  0  0  0  0
   19.5620  -15.4323   21.9752 H   0  0  0  0  0  0
   13.6310  -14.1355   20.2347 H   0  0  0  0  0  0
   12.0169  -13.7099   22.1604 H   0  0  0  0  0  0
   14.8714  -11.0530   18.3993 H   0  0  0  0  0  0
   15.0524  -12.7823   18.4204 H   0  0  0  0  0  0
   16.5304  -11.3855   20.5449 H   0  0  0  0  0  0
   20.4161  -11.0530   18.5028 H   0  0  0  0  0  0
   19.9729  -12.6524   17.9419 H   0  0  0  0  0  0
   21.6322  -11.9416   20.3409 H   0  0  0  0  0  0
   22.0159  -13.0529   19.0213 H   0  0  0  0  0  0
   21.0660  -14.0024   21.2898 H   0  0  0  0  0  0
   20.3974  -14.6616   19.7845 H   0  0  0  0  0  0
   18.9166  -15.8713   24.3350 H   0  0  0  0  0  0
   17.9991  -14.3978   24.3562 H   0  0  0  0  0  0
   20.1901  -13.1546   23.7927 H   0  0  0  0  0  0
   20.0912  -14.6731   26.4457 H   0  0  0  0  0  0
   19.2100  -13.2309   26.0967 H   0  0  0  0  0  0
   21.3410  -12.7373   27.3306 H   0  0  0  0  0  0
   21.2093  -11.8867   25.8284 H   0  0  0  0  0  0
   22.9311  -14.3310   26.4637 H   0  0  0  0  0  0
   23.4846  -12.7743   25.9182 H   0  0  0  0  0  0
   23.5975  -14.5579   24.1440 H   0  0  0  0  0  0
   22.6843  -13.1508   23.6619 H   0  0  0  0  0  0
   21.4969  -15.2336   23.0362 H   0  0  0  0  0  0
   21.4735  -15.8061   24.6495 H   0  0  0  0  0  0
   17.9478  -16.8984   22.0788 H   0  0  0  0  0  0
   16.4099  -16.2283   23.6941 H   0  0  0  0  0  0
   16.0191  -14.8103   22.7206 H   0  0  0  0  0  0
   14.0842  -15.4539   22.9486 H   0  0  0  0  0  0
   11.1178   -9.4714   24.1251 H   0  0  0  0  0  0
   10.1056  -11.5222   24.3960 H   0  0  0  0  0  0
   10.8143  -12.8399   23.5210 H   0  0  0  0  0  0
  1  5  2  0  0  0
  1  2  1  0  0  0
  1 35  1  0  0  0
  2  3  2  0  0  0
  2 36  1  0  0  0
  3  4  1  0  0  0
  3 30  1  0  0  0
  4  5  1  0  0  0
  5  6  1  0  0  0
  6  7  1  0  0  0
  6 37  1  0  0  0
  6 38  1  0  0  0
  7  8  1  0  0  0
  7 39  1  0  0  0
  8  9  2  0  0  0
  8 10  1  0  0  0
 10 33  1  0  0  0
 10 14  1  0  0  0
 10 11  1  0  0  0
 11 12  1  0  0  0
 11 40  1  0  0  0
 11 41  1  0  0  0
 12 13  1  0  0  0
 12 42  1  0  0  0
 12 43  1  0  0  0
 13 14  1  0  0  0
 13 44  1  0  0  0
 13 45  1  0  0  0
 14 15  1  0  0  0
 15 16  2  0  0  0
 15 17  1  0  0  0
 17 34  1  0  0  0
 17 18  1  0  0  0
 17 25  1  0  0  0
 18 19  1  0  0  0
 18 46  1  0  0  0
 18 47  1  0  0  0
 19 24  1  0  0  0
 19 20  1  0  0  0
 19 48  1  0  0  0
 20 21  1  0  0  0
 20 49  1  0  0  0
 20 50  1  0  0  0
 21 22  1  0  0  0
 21 51  1  0  0  0
 21 52  1  0  0  0
 22 23  1  0  0  0
 22 53  1  0  0  0
 22 54  1  0  0  0
 23 24  1  0  0  0
 23 55  1  0  0  0
 23 56  1  0  0  0
 24 57  1  0  0  0
 24 58  1  0  0  0
 25 26  1  0  0  0
 25 59  1  0  0  0
 26 27  1  0  0  0
 26 60  1  0  0  0
 26 61  1  0  0  0
 27 28  2  0  0  0
 27 29  1  0  0  0
 29 62  1  0  0  0
 30 31  2  3  0  0
 30 32  1  0  0  0
 31 63  1  0  0  0
 32 64  1  0  0  0
 32 65  1  0  0  0
M  END
> <s_m_entry_id>
37727

> <s_m_entry_name>
ligand_docking-pose.74

> <s_m_Source_Path>
/home/csk/Desktop/cluster/DUD-E-result/thrb

> <s_m_Source_File>
ligand_docking-pose.sdf

> <i_m_Source_File_Index>
74

> <i_lp_mmshare_version>
53161

> <i_f3d_flags>
0

> <r_lp_tautomer_probability>
1

> <s_lp_Force_Field>
OPLS_2005

> <r_lp_Energy>
18.486643

> <b_lp_Chiralities_Consistent>
1

> <s_lp_Variant>
347182-1

> <s_i_glide_gridfile>
glide-grid_1ype

> <i_i_glide_lignum>
2077

> <i_i_glide_rotatable_bonds>
13

> <r_i_docking_score>
-8.10962485724474

> <r_i_glide_ligand_efficiency>
-0.253425776788898

> <r_i_glide_ligand_efficiency_sa>
-0.804576688411627

> <r_i_glide_ligand_efficiency_ln>
-1.81596606556168

> <r_i_glide_gscore>
-8.10962485724474

> <r_i_glide_lipo>
-3.32518269923254

> <r_i_glide_hbond>
-0.350087712240404

> <r_i_glide_metal>
0

> <r_i_glide_rewards>
-0.957109010698557

> <r_i_glide_evdw>
-47.1878395080566

> <r_i_glide_ecoul>
-12.926342010498

> <r_i_glide_erotb>
0.937693766616202

> <r_i_glide_esite>
-0.116595924711904

> <r_i_glide_emodel>
-85.9317221182476

> <r_i_glide_energy>
-60.1141815185547

> <r_i_glide_einternal>
6.65897750854492

> <i_i_glide_confnum>
181

> <i_i_glide_posenum>
23

> <r_i_glide_eff_state_penalty>
0

> <s_user_duplicate_titles>
347182

> <s_m_subgroup_title>
dock_pv

> <s_m_subgroupid>
dock_pv1

> <b_m_subgroup_collapsed>
0

$$$$
92007
                    3D
 Schrodinger Suite 2021-1.
 65 68  0  0  1  0            999 V2000
   12.0061   -9.4230   23.6932 C   0  0  0  0  0  0
   12.7446   -9.2412   22.5329 C   0  0  0  0  0  0
   12.8977  -10.2993   21.6450 C   0  0  0  0  0  0
   12.4185  -11.5759   21.9674 C   0  0  0  0  0  0
   11.6017  -11.7166   23.0917 C   0  0  0  0  0  0
   11.3756  -10.6377   23.9394 C   0  0  0  0  0  0
   12.7720  -13.0356   20.9041 P   0  0  1  0  0  0
   11.9155  -13.1385   19.7003 O   0  0  0  0  0  0
   14.5920  -13.2166   20.5318 C   0  0  1  0  0  0
   15.2478  -11.8379   20.3178 C   0  0  0  0  0  0
   16.6485  -11.8687   19.7661 C   0  0  0  0  0  0
   16.8452  -12.2095   18.4338 C   0  0  0  0  0  0
   18.1321  -12.2530   17.9237 C   0  0  0  0  0  0
   19.2511  -11.9791   18.7311 C   0  0  0  0  0  0
   19.0102  -11.6045   20.0652 C   0  0  0  0  0  0
   17.7255  -11.5417   20.5809 C   0  0  0  0  0  0
   20.6252  -12.0173   18.1657 C   0  0  0  0  0  0
   20.8163  -12.1582   16.9283 N   0  0  0  0  0  0
   21.6159  -11.8544   19.0955 N   0  0  0  0  0  0
   15.2572  -14.0760   21.5229 N   0  0  0  0  0  0
   16.2996  -14.8952   21.2645 C   0  0  0  0  0  0
   16.8234  -14.9909   20.1557 O   0  0  0  0  0  0
   16.8548  -15.7636   22.4263 C   0  0  1  0  0  0
   17.4569  -14.9319   23.5962 C   0  0  0  0  0  0
   18.9694  -14.7380   23.5211 C   0  0  0  0  0  0
   19.5324  -14.0195   22.4697 C   0  0  0  0  0  0
   20.8943  -13.7321   22.4413 C   0  0  0  0  0  0
   21.7398  -14.1740   23.4848 C   0  0  0  0  0  0
   23.1205  -13.8533   23.5211 C   0  0  0  0  0  0
   23.9326  -14.3378   24.5411 C   0  0  0  0  0  0
   23.3974  -15.1475   25.5353 C   0  0  0  0  0  0
   22.0415  -15.4639   25.5401 C   0  0  0  0  0  0
   21.1840  -14.9688   24.5307 C   0  0  0  0  0  0
   19.7914  -15.2336   24.5355 C   0  0  0  0  0  0
   15.7694  -16.6531   22.8844 N   0  0  0  0  0  0
   12.5353  -14.2814   21.9209 O   0  0  0  0  0  0
   14.5960  -13.7520   19.5793 H   0  0  0  0  0  0
   17.6432  -16.3955   22.0107 H   0  0  0  0  0  0
   11.8656   -8.6001   24.3793 H   0  0  0  0  0  0
   13.1846   -8.2791   22.3221 H   0  0  0  0  0  0
   13.4145  -10.0974   20.7256 H   0  0  0  0  0  0
   11.1318  -12.6528   23.3296 H   0  0  0  0  0  0
   10.7384  -10.7551   24.8060 H   0  0  0  0  0  0
   14.6639  -11.2757   19.5896 H   0  0  0  0  0  0
   15.2584  -11.2780   21.2519 H   0  0  0  0  0  0
   16.0047  -12.4496   17.7979 H   0  0  0  0  0  0
   18.2279  -12.5051   16.8821 H   0  0  0  0  0  0
   19.8167  -11.3282   20.7209 H   0  0  0  0  0  0
   17.5780  -11.2474   21.6099 H   0  0  0  0  0  0
   19.9481  -12.2990   16.4402 H   0  0  0  0  0  0
   22.5745  -11.9761   18.7968 H   0  0  0  0  0  0
   21.4082  -11.8957   20.0793 H   0  0  0  0  0  0
   14.8686  -14.0813   22.4585 H   0  0  0  0  0  0
   16.9988  -13.9440   23.6652 H   0  0  0  0  0  0
   17.2180  -15.4105   24.5480 H   0  0  0  0  0  0
   18.9006  -13.6732   21.6697 H   0  0  0  0  0  0
   21.3142  -13.1612   21.6283 H   0  0  0  0  0  0
   23.5432  -13.2367   22.7429 H   0  0  0  0  0  0
   24.9851  -14.0910   24.5600 H   0  0  0  0  0  0
   24.0380  -15.5207   26.3216 H   0  0  0  0  0  0
   21.6328  -16.0856   26.3207 H   0  0  0  0  0  0
   19.3711  -15.8057   25.3501 H   0  0  0  0  0  0
   15.1751  -16.1383   23.5267 H   0  0  0  0  0  0
   15.1991  -16.9744   22.1139 H   0  0  0  0  0  0
   11.7247  -14.2529   22.4836 H   0  0  0  0  0  0
  1  6  1  0  0  0
  1  2  2  0  0  0
  1 39  1  0  0  0
  2  3  1  0  0  0
  2 40  1  0  0  0
  3  4  2  0  0  0
  3 41  1  0  0  0
  4  5  1  0  0  0
  4  7  1  0  0  0
  5  6  2  0  0  0
  5 42  1  0  0  0
  6 43  1  0  0  0
  7  8  2  0  0  0
  7  9  1  0  0  0
  7 36  1  0  0  0
  9 37  1  0  0  0
  9 10  1  0  0  0
  9 20  1  0  0  0
 10 11  1  0  0  0
 10 44  1  0  0  0
 10 45  1  0  0  0
 11 16  1  0  0  0
 11 12  2  0  0  0
 12 13  1  0  0  0
 12 46  1  0  0  0
 13 14  2  0  0  0
 13 47  1  0  0  0
 14 15  1  0  0  0
 14 17  1  0  0  0
 15 16  2  0  0  0
 15 48  1  0  0  0
 16 49  1  0  0  0
 17 18  2  3  0  0
 17 19  1  0  0  0
 18 50  1  0  0  0
 19 51  1  0  0  0
 19 52  1  0  0  0
 20 21  1  0  0  0
 20 53  1  0  0  0
 21 22  2  0  0  0
 21 23  1  0  0  0
 23 38  1  0  0  0
 23 24  1  0  0  0
 23 35  1  0  0  0
 24 25  1  0  0  0
 24 54  1  0  0  0
 24 55  1  0  0  0
 25 34  1  0  0  0
 25 26  2  0  0  0
 26 27  1  0  0  0
 26 56  1  0  0  0
 27 28  2  0  0  0
 27 57  1  0  0  0
 28 33  1  0  0  0
 28 29  1  0  0  0
 29 30  2  0  0  0
 29 58  1  0  0  0
 30 31  1  0  0  0
 30 59  1  0  0  0
 31 32  2  0  0  0
 31 60  1  0  0  0
 32 33  1  0  0  0
 32 61  1  0  0  0
 33 34  2  0  0  0
 34 62  1  0  0  0
 35 63  1  0  0  0
 35 64  1  0  0  0
 36 65  1  0  0  0
M  END
> <s_m_entry_id>
37728

> <s_m_entry_name>
ligand_docking-pose.75

> <s_m_Source_Path>
/home/csk/Desktop/cluster/DUD-E-result/thrb

> <s_m_Source_File>
ligand_docking-pose.sdf

> <i_m_Source_File_Index>
75

> <i_lp_mmshare_version>
53161

> <i_f3d_flags>
0

> <r_lp_tautomer_probability>
1

> <s_lp_Force_Field>
OPLS_2005

> <r_lp_Energy>
12.925794

> <b_lp_Chiralities_Consistent>
1

> <s_lp_Variant>
92007-2

> <s_i_glide_gridfile>
glide-grid_1ype

> <i_i_glide_lignum>
1800

> <i_i_glide_rotatable_bonds>
11

> <r_i_docking_score>
-8.08698095986198

> <r_i_glide_ligand_efficiency>
-0.224638359996166

> <r_i_glide_ligand_efficiency_sa>
-0.741739521132329

> <r_i_glide_ligand_efficiency_ln>
-1.7643607604654

> <r_i_glide_gscore>
-8.08698095986198

> <r_i_glide_lipo>
-3.38022041217514

> <r_i_glide_hbond>
-0.576

> <r_i_glide_metal>
0

> <r_i_glide_rewards>
-0.323306565287311

> <r_i_glide_evdw>
-45.162036895752

> <r_i_glide_ecoul>
-13.9848928451538

> <r_i_glide_erotb>
0.570560233524829

> <r_i_glide_esite>
-0.0221784443636888

> <r_i_glide_emodel>
-84.020316889921

> <r_i_glide_energy>
-59.1469297409058

> <r_i_glide_einternal>
12.7515268325806

> <i_i_glide_confnum>
6

> <i_i_glide_posenum>
284

> <r_i_glide_eff_state_penalty>
0

> <s_user_duplicate_titles>
92007

> <s_m_subgroup_title>
dock_pv

> <s_m_subgroupid>
dock_pv1

> <b_m_subgroup_collapsed>
0

$$$$
288763
                    3D
 Schrodinger Suite 2021-1.
 53 56  0  0  1  0            999 V2000
   22.5258  -13.6108   25.3524 C   0  0  0  0  0  0
   22.5660  -14.1813   24.0813 C   0  0  0  0  0  0
   21.3906  -14.3167   23.3458 C   0  0  0  0  0  0
   20.1778  -13.8724   23.8813 C   0  0  0  0  0  0
   20.1482  -13.2943   25.1550 C   0  0  0  0  0  0
   21.3211  -13.1651   25.8935 C   0  0  0  0  0  0
   18.8807  -14.0298   23.0932 C   0  0  0  0  0  0
   18.6088  -12.8814   22.0923 C   0  0  0  0  0  0
   19.3443  -13.0519   20.7368 C   0  0  0  0  0  0
   19.0428  -11.9085   19.7304 C   0  0  0  0  0  0
   17.5687  -11.8159   19.6013 N   0  0  0  0  0  0
   16.8962  -11.4944   20.8693 C   0  0  0  0  0  0
   17.1072  -12.7084   21.7948 C   0  0  0  0  0  0
   16.9531  -11.8690   18.3831 C   0  0  0  0  0  0
   17.6164  -11.8556   17.3431 O   0  0  0  0  0  0
   15.4155  -12.0246   18.1903 C   0  0  0  0  0  0
   14.6178  -12.6328   19.2581 N   0  0  0  0  0  0
   13.7256  -12.0234   20.1288 C   0  0  0  0  0  0
   13.2205  -10.7230   20.2175 C   0  0  0  0  0  0
   12.4367  -10.4206   21.3270 C   0  0  0  0  0  0
   12.1465  -11.3558   22.3298 C   0  0  0  0  0  0
   12.6159  -12.6734   22.1871 C   0  0  0  0  0  0
   13.4057  -13.0140   21.0826 C   0  0  0  0  0  0
   14.0595  -14.1894   20.6092 C   0  0  0  0  0  0
   14.7751  -13.9423   19.5423 N   0  0  0  0  0  0
   11.3851  -10.9340   23.5211 C   0  0  0  0  0  0
   11.6158   -9.8155   24.0535 N   0  0  0  0  0  0
   10.4519  -11.8530   23.9210 N   0  0  0  0  0  0
   23.4390  -13.5149   25.9216 H   0  0  0  0  0  0
   23.5060  -14.5228   23.6749 H   0  0  0  0  0  0
   21.4236  -14.7718   22.3661 H   0  0  0  0  0  0
   19.2164  -12.9488   25.5782 H   0  0  0  0  0  0
   21.2962  -12.7180   26.8776 H   0  0  0  0  0  0
   18.0627  -14.0985   23.8143 H   0  0  0  0  0  0
   18.8752  -14.9951   22.5839 H   0  0  0  0  0  0
   18.9362  -11.9423   22.5387 H   0  0  0  0  0  0
   19.0746  -14.0072   20.2829 H   0  0  0  0  0  0
   20.4192  -13.1265   20.8986 H   0  0  0  0  0  0
   19.5462  -12.0968   18.7807 H   0  0  0  0  0  0
   19.4140  -10.9627   20.1277 H   0  0  0  0  0  0
   17.4260  -10.6432   21.2954 H   0  0  0  0  0  0
   15.8863  -11.1110   20.7830 H   0  0  0  0  0  0
   16.5550  -12.5644   22.7208 H   0  0  0  0  0  0
   16.6914  -13.6237   21.3748 H   0  0  0  0  0  0
   15.2584  -12.6487   17.3076 H   0  0  0  0  0  0
   14.9933  -11.0533   17.9482 H   0  0  0  0  0  0
   13.4417   -9.9631   19.4919 H   0  0  0  0  0  0
   12.0558   -9.4113   21.4092 H   0  0  0  0  0  0
   12.4161  -13.4212   22.9418 H   0  0  0  0  0  0
   14.0483  -15.1737   21.0530 H   0  0  0  0  0  0
   12.3639   -9.3224   23.5939 H   0  0  0  0  0  0
    9.7513  -11.5992   24.6164 H   0  0  0  0  0  0
   10.4163  -12.7840   23.5215 H   0  0  0  0  0  0
  1  6  1  0  0  0
  1  2  2  0  0  0
  1 29  1  0  0  0
  2  3  1  0  0  0
  2 30  1  0  0  0
  3  4  2  0  0  0
  3 31  1  0  0  0
  4  5  1  0  0  0
  4  7  1  0  0  0
  5  6  2  0  0  0
  5 32  1  0  0  0
  6 33  1  0  0  0
  7  8  1  0  0  0
  7 34  1  0  0  0
  7 35  1  0  0  0
  8 13  1  0  0  0
  8  9  1  0  0  0
  8 36  1  0  0  0
  9 10  1  0  0  0
  9 37  1  0  0  0
  9 38  1  0  0  0
 10 11  1  0  0  0
 10 39  1  0  0  0
 10 40  1  0  0  0
 11 12  1  0  0  0
 11 14  1  0  0  0
 12 13  1  0  0  0
 12 41  1  0  0  0
 12 42  1  0  0  0
 13 43  1  0  0  0
 13 44  1  0  0  0
 14 15  2  0  0  0
 14 16  1  0  0  0
 16 17  1  0  0  0
 16 45  1  0  0  0
 16 46  1  0  0  0
 17 25  1  0  0  0
 17 18  1  0  0  0
 18 23  2  0  0  0
 18 19  1  0  0  0
 19 20  2  0  0  0
 19 47  1  0  0  0
 20 21  1  0  0  0
 20 48  1  0  0  0
 21 22  2  0  0  0
 21 26  1  0  0  0
 22 23  1  0  0  0
 22 49  1  0  0  0
 23 24  1  0  0  0
 24 25  2  0  0  0
 24 50  1  0  0  0
 26 27  2  3  0  0
 26 28  1  0  0  0
 27 51  1  0  0  0
 28 52  1  0  0  0
 28 53  1  0  0  0
M  END
> <s_m_entry_id>
37729

> <s_m_entry_name>
ligand_docking-pose.76

> <s_m_Source_Path>
/home/csk/Desktop/cluster/DUD-E-result/thrb

> <s_m_Source_File>
ligand_docking-pose.sdf

> <i_m_Source_File_Index>
76

> <i_lp_mmshare_version>
53161

> <i_f3d_flags>
0

> <r_lp_tautomer_probability>
1

> <s_lp_Force_Field>
OPLS_2005

> <r_lp_Energy>
31.23247

> <b_lp_Chiralities_Consistent>
1

> <s_lp_Variant>
288763-2

> <s_i_glide_gridfile>
glide-grid_1ype

> <i_i_glide_lignum>
838

> <i_i_glide_rotatable_bonds>
6

> <r_i_docking_score>
-8.08529244105834

> <r_i_glide_ligand_efficiency>
-0.288760444323512

> <r_i_glide_ligand_efficiency_sa>
-0.876846779772748

> <r_i_glide_ligand_efficiency_ln>
-1.86632288989777

> <r_i_glide_gscore>
-8.08529244105834

> <r_i_glide_lipo>
-3.831663146734

> <r_i_glide_hbond>
-0.456

> <r_i_glide_metal>
0

> <r_i_glide_rewards>
-1.30134987952144

> <r_i_glide_evdw>
-43.9925727844238

> <r_i_glide_ecoul>
-5.61323690414429

> <r_i_glide_erotb>
0.686189945437883

> <r_i_glide_esite>
-0.140855185397946

> <r_i_glide_emodel>
-72.7984814392829

> <r_i_glide_energy>
-49.6058096885681

> <r_i_glide_einternal>
1.70964217185974

> <i_i_glide_confnum>
2

> <i_i_glide_posenum>
326

> <r_i_glide_eff_state_penalty>
0

> <s_user_duplicate_titles>
288763

> <s_m_subgroup_title>
dock_pv

> <s_m_subgroupid>
dock_pv1

> <b_m_subgroup_collapsed>
0

$$$$
297118
                    3D
 Schrodinger Suite 2021-1.
 71 74  0  0  1  0            999 V2000
   17.8270  -16.9657   24.4327 C   0  0  0  0  0  0
   17.6160  -15.5696   24.0816 N   0  0  1  0  0  0
   18.7293  -14.9532   23.3125 C   0  0  2  0  0  0
   19.9157  -14.5275   24.1600 C   0  0  0  0  0  0
   21.1599  -15.1495   23.9969 C   0  0  0  0  0  0
   22.2495  -14.7609   24.7717 C   0  0  0  0  0  0
   22.0962  -13.7551   25.7216 C   0  0  0  0  0  0
   20.8624  -13.1382   25.9109 C   0  0  0  0  0  0
   19.7748  -13.5298   25.1349 C   0  0  0  0  0  0
   18.1606  -13.7756   22.4518 C   0  0  0  0  0  0
   17.0541  -13.2967   22.7210 O   0  0  0  0  0  0
   18.9267  -13.2781   21.4454 N   0  0  0  0  0  0
   20.1175  -13.8871   20.8477 C   0  0  0  0  0  0
   20.9302  -12.7151   20.3189 C   0  0  0  0  0  0
   19.8660  -11.7153   19.9002 C   0  0  0  0  0  0
   18.6657  -11.9530   20.8414 C   0  0  1  0  0  0
   17.3393  -11.7857   20.0771 C   0  0  0  0  0  0
   16.8907  -10.6530   19.9208 O   0  0  0  0  0  0
   16.7642  -12.8905   19.5736 N   0  0  0  0  0  0
   15.6959  -12.8920   18.5661 C   0  0  1  0  0  0
   16.1700  -13.6198   17.2857 C   0  0  0  0  0  0
   15.2189  -13.4867   16.0744 C   0  0  0  0  0  0
   15.9451  -13.3571   14.7180 C   0  0  0  0  0  0
   16.7234  -12.1232   14.6920 N   0  0  0  0  0  0
   16.3115  -11.1134   14.0464 C   0  0  0  0  0  0
   16.8157   -9.8368   14.3140 N   0  0  0  0  0  0
   15.3460  -11.0719   13.0224 N   0  0  0  0  0  0
   14.4607  -13.4922   19.2339 C   0  0  0  0  0  0
   14.0947  -14.6369   18.9527 O   0  0  0  0  0  0
   13.7280  -12.6696   20.2076 C   0  0  0  0  0  0
   13.9647  -11.4133   20.4834 N   0  0  0  0  0  0
   13.1816  -10.9489   21.4894 C   0  0  0  0  0  0
   13.2618   -9.6581   22.0295 C   0  0  0  0  0  0
   12.4159   -9.3328   23.0910 C   0  0  0  0  0  0
   11.4926  -10.2531   23.5864 C   0  0  0  0  0  0
   11.3801  -11.5357   23.0486 C   0  0  0  0  0  0
   12.2446  -11.8804   22.0006 C   0  0  0  0  0  0
   12.4165  -13.3933   21.1209 S   0  0  0  0  0  0
   19.0481  -15.6934   22.5753 H   0  0  0  0  0  0
   18.6909  -11.2180   21.6488 H   0  0  0  0  0  0
   16.9990  -17.3239   25.0443 H   0  0  0  0  0  0
   17.8889  -17.5906   23.5408 H   0  0  0  0  0  0
   18.7466  -17.0869   25.0067 H   0  0  0  0  0  0
   16.7111  -15.4082   23.6474 H   0  0  0  0  0  0
   21.2869  -15.9372   23.2687 H   0  0  0  0  0  0
   23.2084  -15.2404   24.6410 H   0  0  0  0  0  0
   22.9427  -13.4572   26.3212 H   0  0  0  0  0  0
   20.7470  -12.3634   26.6561 H   0  0  0  0  0  0
   18.8168  -13.0588   25.2965 H   0  0  0  0  0  0
   19.7946  -14.5258   20.0242 H   0  0  0  0  0  0
   20.7205  -14.4949   21.5139 H   0  0  0  0  0  0
   21.6078  -12.9919   19.5103 H   0  0  0  0  0  0
   21.5343  -12.2928   21.1218 H   0  0  0  0  0  0
   19.5895  -11.9114   18.8625 H   0  0  0  0  0  0
   20.2338  -10.6901   19.9514 H   0  0  0  0  0  0
   17.1823  -13.7877   19.7701 H   0  0  0  0  0  0
   15.4524  -11.8684   18.2686 H   0  0  0  0  0  0
   17.1450  -13.2046   17.0291 H   0  0  0  0  0  0
   16.3722  -14.6735   17.4852 H   0  0  0  0  0  0
   14.5512  -14.3497   16.0468 H   0  0  0  0  0  0
   14.5647  -12.6238   16.2087 H   0  0  0  0  0  0
   16.6136  -14.2053   14.5638 H   0  0  0  0  0  0
   15.2145  -13.4340   13.9103 H   0  0  0  0  0  0
   17.2158   -9.7128   15.2299 H   0  0  0  0  0  0
   16.2119   -9.0573   14.0905 H   0  0  0  0  0  0
   15.0649  -11.9545   12.6213 H   0  0  0  0  0  0
   15.4625  -10.3680   12.3080 H   0  0  0  0  0  0
   13.9825   -8.9471   21.6553 H   0  0  0  0  0  0
   12.4726   -8.3507   23.5391 H   0  0  0  0  0  0
   10.8365   -9.9664   24.3982 H   0  0  0  0  0  0
   10.6537  -12.2394   23.4366 H   0  0  0  0  0  0
  1  2  1  0  0  0
  1 41  1  0  0  0
  1 42  1  0  0  0
  1 43  1  0  0  0
  2  3  1  0  0  0
  2 44  1  0  0  0
  3 39  1  0  0  0
  3  4  1  0  0  0
  3 10  1  0  0  0
  4  9  1  0  0  0
  4  5  2  0  0  0
  5  6  1  0  0  0
  5 45  1  0  0  0
  6  7  2  0  0  0
  6 46  1  0  0  0
  7  8  1  0  0  0
  7 47  1  0  0  0
  8  9  2  0  0  0
  8 48  1  0  0  0
  9 49  1  0  0  0
 10 11  2  0  0  0
 10 12  1  0  0  0
 12 16  1  0  0  0
 12 13  1  0  0  0
 13 14  1  0  0  0
 13 50  1  0  0  0
 13 51  1  0  0  0
 14 15  1  0  0  0
 14 52  1  0  0  0
 14 53  1  0  0  0
 15 16  1  0  0  0
 15 54  1  0  0  0
 15 55  1  0  0  0
 16 40  1  0  0  0
 16 17  1  0  0  0
 17 18  2  0  0  0
 17 19  1  0  0  0
 19 20  1  0  0  0
 19 56  1  0  0  0
 20 21  1  0  0  0
 20 28  1  0  0  0
 20 57  1  0  0  0
 21 22  1  0  0  0
 21 58  1  0  0  0
 21 59  1  0  0  0
 22 23  1  0  0  0
 22 60  1  0  0  0
 22 61  1  0  0  0
 23 24  1  0  0  0
 23 62  1  0  0  0
 23 63  1  0  0  0
 24 25  2  3  0  0
 25 26  1  0  0  0
 25 27  1  0  0  0
 26 64  1  0  0  0
 26 65  1  0  0  0
 27 66  1  0  0  0
 27 67  1  0  0  0
 28 29  2  0  0  0
 28 30  1  0  0  0
 30 38  1  0  0  0
 30 31  2  0  0  0
 31 32  1  0  0  0
 32 37  2  0  0  0
 32 33  1  0  0  0
 33 34  2  0  0  0
 33 68  1  0  0  0
 34 35  1  0  0  0
 34 69  1  0  0  0
 35 36  2  0  0  0
 35 70  1  0  0  0
 36 37  1  0  0  0
 36 71  1  0  0  0
 37 38  1  0  0  0
M  END
> <s_m_entry_id>
37730

> <s_m_entry_name>
ligand_docking-pose.77

> <s_m_Source_Path>
/home/csk/Desktop/cluster/DUD-E-result/thrb

> <s_m_Source_File>
ligand_docking-pose.sdf

> <i_m_Source_File_Index>
77

> <i_lp_mmshare_version>
53161

> <i_f3d_flags>
0

> <r_lp_tautomer_probability>
0.99990000499975

> <s_lp_Force_Field>
OPLS_2005

> <r_lp_Energy>
29.967041

> <b_lp_Chiralities_Consistent>
1

> <s_lp_Variant>
297118-2

> <s_i_glide_gridfile>
glide-grid_1ype

> <i_i_glide_lignum>
4401

> <i_i_glide_rotatable_bonds>
13

> <r_i_docking_score>
-8.08341970945927

> <r_i_glide_ligand_efficiency>
-0.21272157130156

> <r_i_glide_ligand_efficiency_sa>
-0.715164690344319

> <r_i_glide_ligand_efficiency_ln>
-1.74302307947551

> <r_i_glide_gscore>
-8.08341970945927

> <r_i_glide_lipo>
-3.68094628458665

> <r_i_glide_hbond>
-0.247494683647865

> <r_i_glide_metal>
0

> <r_i_glide_rewards>
-0.880349027013666

> <r_i_glide_evdw>
-60.5116386413574

> <r_i_glide_ecoul>
-6.42557573318481

> <r_i_glide_erotb>
0.79148310918603

> <r_i_glide_esite>
-0.0766945313515335

> <r_i_glide_emodel>
-94.6235546202362

> <r_i_glide_energy>
-66.9372143745422

> <r_i_glide_einternal>
12.9016752243042

> <i_i_glide_confnum>
35

> <i_i_glide_posenum>
347

> <r_i_glide_eff_state_penalty>
0

> <s_user_duplicate_titles>
297118

> <s_m_subgroup_title>
dock_pv

> <s_m_subgroupid>
dock_pv1

> <b_m_subgroup_collapsed>
0

$$$$
129353
                    3D
 Schrodinger Suite 2021-1.
 76 78  0  0  1  0            999 V2000
   22.5586  -14.0245   25.7075 C   0  0  0  0  0  0
   21.3619  -13.2486   26.2967 C   0  0  0  0  0  0
   20.0445  -14.0284   26.1074 C   0  0  0  0  0  0
   19.7776  -14.3632   24.6197 C   0  0  0  0  0  0
   20.9621  -15.2151   24.1004 C   0  0  0  0  0  0
   22.3092  -14.4722   24.2518 C   0  0  0  0  0  0
   18.3996  -15.0629   24.4539 C   0  0  0  0  0  0
   17.8943  -15.3438   23.0094 C   0  0  2  0  0  0
   17.6497  -14.0205   22.2083 C   0  0  0  0  0  0
   16.7792  -13.2622   22.6492 O   0  0  0  0  0  0
   18.3186  -13.7619   21.0459 N   0  0  0  0  0  0
   19.5204  -14.4928   20.5917 C   0  0  0  0  0  0
   20.7308  -13.5681   20.8014 C   0  0  0  0  0  0
   20.5620  -12.2242   20.0754 C   0  0  0  0  0  0
   19.2042  -11.5893   20.4353 C   0  0  0  0  0  0
   17.9993  -12.5409   20.2597 C   0  0  1  0  0  0
   17.5680  -12.8037   18.7884 C   0  0  0  0  0  0
   16.1050  -12.4487   18.5115 C   0  0  0  0  0  0
   15.3276  -13.0956   19.5106 O   0  0  0  0  0  0
   14.1264  -12.4521   19.9070 C   0  0  0  0  0  0
   13.3868  -13.3911   20.8707 C   0  0  0  0  0  0
   12.0715  -12.7566   21.3662 C   0  0  0  0  0  0
   12.3090  -11.4288   21.9719 N   0  0  0  0  0  0
   13.0125  -10.5028   21.0680 C   0  0  0  0  0  0
   14.3584  -11.1084   20.6321 C   0  0  0  0  0  0
   11.6111  -10.9294   23.1213 C   0  0  0  0  0  0
   11.6628   -9.7443   23.5317 N   0  0  0  0  0  0
   10.8160  -11.8530   23.8183 N   0  0  0  0  0  0
   16.6096  -16.0932   23.0815 N   0  0  2  0  0  0
   16.0781  -16.5939   21.8052 C   0  0  0  0  0  0
   14.8313  -17.4720   22.0264 C   0  0  0  0  0  0
   14.4160  -17.8497   23.1213 O   0  0  0  0  0  0
   14.2617  -17.8134   20.8361 O   0  0  0  0  0  0
   18.6209  -15.9957   22.5388 H   0  0  0  0  0  0
   22.7519  -14.9046   26.3214 H   0  0  0  0  0  0
   23.4628  -13.4178   25.7625 H   0  0  0  0  0  0
   21.5334  -13.0557   27.3561 H   0  0  0  0  0  0
   21.2794  -12.2685   25.8229 H   0  0  0  0  0  0
   20.0464  -14.9426   26.7054 H   0  0  0  0  0  0
   19.2166  -13.4457   26.5039 H   0  0  0  0  0  0
   19.7682  -13.4211   24.0669 H   0  0  0  0  0  0
   20.8089  -15.4987   23.0604 H   0  0  0  0  0  0
   20.9938  -16.1645   24.6372 H   0  0  0  0  0  0
   23.1250  -15.1164   23.9200 H   0  0  0  0  0  0
   22.3295  -13.5957   23.6031 H   0  0  0  0  0  0
   18.4307  -16.0075   24.9998 H   0  0  0  0  0  0
   17.6407  -14.4700   24.9705 H   0  0  0  0  0  0
   19.6462  -15.5095   20.9511 H   0  0  0  0  0  0
   19.4059  -14.6545   19.5213 H   0  0  0  0  0  0
   20.8928  -13.3969   21.8631 H   0  0  0  0  0  0
   21.6160  -14.0793   20.4359 H   0  0  0  0  0  0
   21.3808  -11.5487   20.3241 H   0  0  0  0  0  0
   20.6157  -12.3849   18.9978 H   0  0  0  0  0  0
   19.2157  -11.3031   21.4852 H   0  0  0  0  0  0
   19.0359  -10.6531   19.9155 H   0  0  0  0  0  0
   17.1596  -12.0186   20.7218 H   0  0  0  0  0  0
   18.2123  -12.2623   18.0945 H   0  0  0  0  0  0
   17.6983  -13.8529   18.5339 H   0  0  0  0  0  0
   16.0061  -11.3642   18.5113 H   0  0  0  0  0  0
   15.7941  -12.7948   17.5244 H   0  0  0  0  0  0
   13.5142  -12.2906   19.0172 H   0  0  0  0  0  0
   13.1452  -14.3289   20.3687 H   0  0  0  0  0  0
   14.0007  -13.6314   21.7415 H   0  0  0  0  0  0
   11.3736  -12.6531   20.5357 H   0  0  0  0  0  0
   11.6153  -13.4520   22.0663 H   0  0  0  0  0  0
   12.3717  -10.3337   20.2015 H   0  0  0  0  0  0
   13.1849   -9.5259   21.5242 H   0  0  0  0  0  0
   14.9758  -11.2554   21.5198 H   0  0  0  0  0  0
   14.8578  -10.3797   19.9989 H   0  0  0  0  0  0
   11.0720   -9.6279   24.3424 H   0  0  0  0  0  0
   10.1909  -11.5729   24.5652 H   0  0  0  0  0  0
   10.7109  -12.8170   23.5214 H   0  0  0  0  0  0
   15.9137  -15.5492   23.6015 H   0  0  0  0  0  0
   15.8037  -15.7533   21.1653 H   0  0  0  0  0  0
   16.8382  -17.1863   21.2952 H   0  0  0  0  0  0
   14.7034  -17.4342   20.0741 H   0  0  0  0  0  0
  1  6  1  0  0  0
  1  2  1  0  0  0
  1 35  1  0  0  0
  1 36  1  0  0  0
  2  3  1  0  0  0
  2 37  1  0  0  0
  2 38  1  0  0  0
  3  4  1  0  0  0
  3 39  1  0  0  0
  3 40  1  0  0  0
  4  5  1  0  0  0
  4  7  1  0  0  0
  4 41  1  0  0  0
  5  6  1  0  0  0
  5 42  1  0  0  0
  5 43  1  0  0  0
  6 44  1  0  0  0
  6 45  1  0  0  0
  7  8  1  0  0  0
  7 46  1  0  0  0
  7 47  1  0  0  0
  8 34  1  0  0  0
  8  9  1  0  0  0
  8 29  1  0  0  0
  9 10  2  0  0  0
  9 11  1  0  0  0
 11 16  1  0  0  0
 11 12  1  0  0  0
 12 13  1  0  0  0
 12 48  1  0  0  0
 12 49  1  0  0  0
 13 14  1  0  0  0
 13 50  1  0  0  0
 13 51  1  0  0  0
 14 15  1  0  0  0
 14 52  1  0  0  0
 14 53  1  0  0  0
 15 16  1  0  0  0
 15 54  1  0  0  0
 15 55  1  0  0  0
 16 17  1  0  0  0
 16 56  1  0  0  0
 17 18  1  0  0  0
 17 57  1  0  0  0
 17 58  1  0  0  0
 18 19  1  0  0  0
 18 59  1  0  0  0
 18 60  1  0  0  0
 19 20  1  0  0  0
 20 25  1  0  0  0
 20 21  1  0  0  0
 20 61  1  0  0  0
 21 22  1  0  0  0
 21 62  1  0  0  0
 21 63  1  0  0  0
 22 23  1  0  0  0
 22 64  1  0  0  0
 22 65  1  0  0  0
 23 24  1  0  0  0
 23 26  1  0  0  0
 24 25  1  0  0  0
 24 66  1  0  0  0
 24 67  1  0  0  0
 25 68  1  0  0  0
 25 69  1  0  0  0
 26 27  2  3  0  0
 26 28  1  0  0  0
 27 70  1  0  0  0
 28 71  1  0  0  0
 28 72  1  0  0  0
 29 30  1  0  0  0
 29 73  1  0  0  0
 30 31  1  0  0  0
 30 74  1  0  0  0
 30 75  1  0  0  0
 31 32  2  0  0  0
 31 33  1  0  0  0
 33 76  1  0  0  0
M  END
> <s_m_entry_id>
37731

> <s_m_entry_name>
ligand_docking-pose.78

> <s_m_Source_Path>
/home/csk/Desktop/cluster/DUD-E-result/thrb

> <s_m_Source_File>
ligand_docking-pose.sdf

> <i_m_Source_File_Index>
78

> <i_lp_mmshare_version>
53161

> <i_f3d_flags>
0

> <r_lp_tautomer_probability>
1

> <s_lp_Force_Field>
OPLS_2005

> <r_lp_Energy>
53.553713

> <b_lp_Chiralities_Consistent>
1

> <s_lp_Variant>
129353-1

> <s_i_glide_gridfile>
glide-grid_1ype

> <i_i_glide_lignum>
1065

> <i_i_glide_rotatable_bonds>
13

> <r_i_docking_score>
-8.07298699368109

> <r_i_glide_ligand_efficiency>
-0.244635969505488

> <r_i_glide_ligand_efficiency_sa>
-0.78467826962612

> <r_i_glide_ligand_efficiency_ln>
-1.79539050770509

> <r_i_glide_gscore>
-8.07298699368109

> <r_i_glide_lipo>
-3.32612351203304

> <r_i_glide_hbond>
-0.86244829527477

> <r_i_glide_metal>
0

> <r_i_glide_rewards>
-0.93459126254651

> <r_i_glide_evdw>
-40.5450439453125

> <r_i_glide_ecoul>
-11.8129901885986

> <r_i_glide_erotb>
0.93023751831022

> <r_i_glide_esite>
-0.0808607165815789

> <r_i_glide_emodel>
-70.8972032188132

> <r_i_glide_energy>
-52.3580341339111

> <r_i_glide_einternal>
11.517448425293

> <i_i_glide_confnum>
10

> <i_i_glide_posenum>
396

> <r_i_glide_eff_state_penalty>
0

> <s_user_duplicate_titles>
129353

> <s_m_subgroup_title>
dock_pv

> <s_m_subgroupid>
dock_pv1

> <b_m_subgroup_collapsed>
0

$$$$
151209
                    3D
 Schrodinger Suite 2021-1.
 57 60  0  0  1  0            999 V2000
   20.9710  -12.8901   26.7684 C   0  0  0  0  0  0
   21.5941  -13.0530   25.5043 O   0  0  0  0  0  0
   20.9410  -13.7666   24.5217 C   0  0  0  0  0  0
   21.5228  -13.7425   23.2581 C   0  0  0  0  0  0
   20.9600  -14.4294   22.1881 C   0  0  0  0  0  0
   19.7908  -15.2004   22.3743 C   0  0  0  0  0  0
   19.2161  -15.9405   21.3157 C   0  0  0  0  0  0
   18.0885  -16.7256   21.5331 C   0  0  0  0  0  0
   17.5023  -16.7854   22.7957 C   0  0  0  0  0  0
   18.0241  -16.0362   23.8520 C   0  0  0  0  0  0
   19.1825  -15.2425   23.6645 C   0  0  0  0  0  0
   19.7636  -14.5019   24.7243 C   0  0  0  0  0  0
   16.0621  -17.8097   23.0681 S   0  0  0  0  0  0
   16.0169  -18.1128   24.5023 O   0  0  0  0  0  0
   16.0792  -18.8891   22.0743 O   0  0  0  0  0  0
   14.7060  -16.7544   22.6978 N   0  0  2  0  0  0
   14.3879  -16.4594   21.2772 C   0  0  1  0  0  0
   13.1180  -17.1090   20.7662 C   0  0  0  0  0  0
   12.5429  -16.0840   19.8112 C   0  0  0  0  0  0
   13.1189  -14.8199   20.2643 N   0  0  0  0  0  0
   14.1991  -14.9541   21.0790 C   0  0  0  0  0  0
   14.9490  -14.0811   21.5198 O   0  0  0  0  0  0
   12.6825  -13.5604   19.6449 C   0  0  0  0  0  0
   12.8321  -12.2976   20.4924 C   0  0  0  0  0  0
   12.0151  -12.1281   21.6115 C   0  0  0  0  0  0
   12.0925  -10.9813   22.4259 C   0  0  0  0  0  0
   13.0346  -10.0028   22.0615 C   0  0  0  0  0  0
   13.8660  -10.1668   20.9548 C   0  0  0  0  0  0
   13.7638  -11.3098   20.1658 C   0  0  0  0  0  0
   14.5879  -11.4532   19.0803 O   0  0  0  0  0  0
   11.2178  -10.7858   23.6163 C   0  0  0  0  0  0
   11.2163   -9.7089   24.2677 N   0  0  0  0  0  0
   10.4161  -11.8530   23.9212 N   0  0  0  0  0  0
   15.2488  -16.7793   20.6897 H   0  0  0  0  0  0
   21.6101  -12.2825   27.4071 H   0  0  0  0  0  0
   20.0160  -12.3736   26.6758 H   0  0  0  0  0  0
   20.8156  -13.8496   27.2606 H   0  0  0  0  0  0
   22.4266  -13.1711   23.1064 H   0  0  0  0  0  0
   21.4261  -14.3949   21.2140 H   0  0  0  0  0  0
   19.6721  -15.9015   20.3375 H   0  0  0  0  0  0
   17.6767  -17.2986   20.7146 H   0  0  0  0  0  0
   17.5602  -16.0685   24.8282 H   0  0  0  0  0  0
   19.2903  -14.5418   25.6934 H   0  0  0  0  0  0
   14.7021  -15.9126   23.2902 H   0  0  0  0  0  0
   12.4166  -17.2894   21.5785 H   0  0  0  0  0  0
   13.2952  -18.0670   20.2750 H   0  0  0  0  0  0
   11.4526  -16.0645   19.8461 H   0  0  0  0  0  0
   12.8482  -16.2829   18.7818 H   0  0  0  0  0  0
   11.6264  -13.6557   19.3885 H   0  0  0  0  0  0
   13.2033  -13.4439   18.6940 H   0  0  0  0  0  0
   11.3075  -12.9151   21.8327 H   0  0  0  0  0  0
   13.1409   -9.1023   22.6508 H   0  0  0  0  0  0
   14.5897   -9.3998   20.7220 H   0  0  0  0  0  0
   15.2190  -10.7341   19.0043 H   0  0  0  0  0  0
   10.5160   -9.7486   24.9994 H   0  0  0  0  0  0
    9.6690  -11.7454   24.6083 H   0  0  0  0  0  0
   10.5530  -12.7742   23.5213 H   0  0  0  0  0  0
  1  2  1  0  0  0
  1 35  1  0  0  0
  1 36  1  0  0  0
  1 37  1  0  0  0
  2  3  1  0  0  0
  3 12  1  0  0  0
  3  4  2  0  0  0
  4  5  1  0  0  0
  4 38  1  0  0  0
  5  6  2  0  0  0
  5 39  1  0  0  0
  6 11  1  0  0  0
  6  7  1  0  0  0
  7  8  2  0  0  0
  7 40  1  0  0  0
  8  9  1  0  0  0
  8 41  1  0  0  0
  9 10  2  0  0  0
  9 13  1  0  0  0
 10 11  1  0  0  0
 10 42  1  0  0  0
 11 12  2  0  0  0
 12 43  1  0  0  0
 13 14  2  0  0  0
 13 15  2  0  0  0
 13 16  1  0  0  0
 16 17  1  0  0  0
 16 44  1  0  0  0
 17 34  1  0  0  0
 17 21  1  0  0  0
 17 18  1  0  0  0
 18 19  1  0  0  0
 18 45  1  0  0  0
 18 46  1  0  0  0
 19 20  1  0  0  0
 19 47  1  0  0  0
 19 48  1  0  0  0
 20 21  1  0  0  0
 20 23  1  0  0  0
 21 22  2  0  0  0
 23 24  1  0  0  0
 23 49  1  0  0  0
 23 50  1  0  0  0
 24 29  1  0  0  0
 24 25  2  0  0  0
 25 26  1  0  0  0
 25 51  1  0  0  0
 26 27  2  0  0  0
 26 31  1  0  0  0
 27 28  1  0  0  0
 27 52  1  0  0  0
 28 29  2  0  0  0
 28 53  1  0  0  0
 29 30  1  0  0  0
 30 54  1  0  0  0
 31 32  2  3  0  0
 31 33  1  0  0  0
 32 55  1  0  0  0
 33 56  1  0  0  0
 33 57  1  0  0  0
M  END
> <s_m_entry_id>
37734

> <s_m_entry_name>
ligand_docking-pose.81

> <s_m_Source_Path>
/home/csk/Desktop/cluster/DUD-E-result/thrb

> <s_m_Source_File>
ligand_docking-pose.sdf

> <i_m_Source_File_Index>
81

> <i_lp_mmshare_version>
53161

> <i_f3d_flags>
0

> <r_lp_tautomer_probability>
1

> <s_lp_Force_Field>
OPLS_2005

> <r_lp_Energy>
23.568115

> <b_lp_Chiralities_Consistent>
1

> <s_lp_Variant>
151209-1

> <s_i_glide_gridfile>
glide-grid_1ype

> <i_i_glide_lignum>
4560

> <i_i_glide_rotatable_bonds>
8

> <r_i_docking_score>
-8.038716265896

> <r_i_glide_ligand_efficiency>
-0.243597462602909

> <r_i_glide_ligand_efficiency_sa>
-0.781347223088044

> <r_i_glide_ligand_efficiency_ln>
-1.78776887529002

> <r_i_glide_gscore>
-8.038716265896

> <r_i_glide_lipo>
-2.9723859799406

> <r_i_glide_hbond>
-1.0526837664001

> <r_i_glide_metal>
0

> <r_i_glide_rewards>
-0.368743022827586

> <r_i_glide_evdw>
-43.6023445129395

> <r_i_glide_ecoul>
-11.6335926055908

> <r_i_glide_erotb>
0.459887159566495

> <r_i_glide_esite>
-0.179634539808616

> <r_i_glide_emodel>
-80.7034735292511

> <r_i_glide_energy>
-55.2359371185303

> <r_i_glide_einternal>
5.99370908737183

> <i_i_glide_confnum>
6

> <i_i_glide_posenum>
309

> <r_i_glide_eff_state_penalty>
0

> <s_user_duplicate_titles>
151209

> <s_m_subgroup_title>
dock_pv

> <s_m_subgroupid>
dock_pv1

> <b_m_subgroup_collapsed>
0

$$$$
128760
                    3D
 Schrodinger Suite 2021-1.
 62 64  0  0  1  0            999 V2000
   21.6249  -13.4525   26.3212 C   0  0  0  0  0  0
   20.2521  -13.4677   26.1106 C   0  0  0  0  0  0
   19.7384  -14.0151   24.9403 C   0  0  0  0  0  0
   20.6063  -14.5397   23.9771 C   0  0  0  0  0  0
   21.9868  -14.5349   24.2085 C   0  0  0  0  0  0
   22.4994  -13.9857   25.3792 C   0  0  0  0  0  0
   20.0611  -15.1400   22.6789 C   0  0  0  0  0  0
   19.8809  -14.1465   21.4690 C   0  0  2  0  0  0
   21.1938  -13.3284   21.2874 C   0  0  0  0  0  0
   21.4662  -12.5557   19.9820 C   0  0  0  0  0  0
   20.4134  -11.5276   19.5768 C   0  0  0  0  0  0
   19.0226  -12.1342   19.3956 C   0  0  0  0  0  0
   18.2942  -12.3503   20.6495 N   0  0  0  0  0  0
   18.5454  -13.3199   21.5903 C   0  0  0  0  0  0
   17.7636  -13.5393   22.5214 O   0  0  0  0  0  0
   17.1197  -11.4831   20.8676 C   0  0  0  0  0  0
   15.8559  -11.9474   20.1288 C   0  0  0  0  0  0
   15.8838  -12.7841   19.2253 O   0  0  0  0  0  0
   14.7390  -11.3506   20.5683 N   0  0  0  0  0  0
   13.3711  -11.5293   20.0702 C   0  0  1  0  0  0
   12.8016  -12.9580   20.2215 C   0  0  0  0  0  0
   12.5785  -13.2927   21.7004 C   0  0  0  0  0  0
   11.6602  -12.2537   22.3675 C   0  0  0  0  0  0
   12.1710  -10.8768   22.2024 N   0  0  0  0  0  0
   12.4093  -10.5260   20.7773 C   0  0  1  0  0  0
   12.8458   -9.2044   20.5031 O   0  0  0  0  0  0
   12.0162   -9.8894   23.2367 C   0  0  0  0  0  0
   12.5410   -8.7484   23.2113 N   0  0  0  0  0  0
   11.2158  -10.2543   24.3335 N   0  0  0  0  0  0
   19.7481  -15.0484   20.3361 N   0  0  0  0  0  0
   13.4012  -11.2941   19.0047 H   0  0  0  0  0  0
   22.0140  -13.0336   27.2361 H   0  0  0  0  0  0
   19.5977  -13.0540   26.8606 H   0  0  0  0  0  0
   18.6701  -14.0306   24.7914 H   0  0  0  0  0  0
   22.6647  -14.9549   23.4808 H   0  0  0  0  0  0
   23.5640  -13.9792   25.5604 H   0  0  0  0  0  0
   19.1314  -15.6676   22.9038 H   0  0  0  0  0  0
   20.7490  -15.9463   22.4078 H   0  0  0  0  0  0
   22.0158  -14.0253   21.3983 H   0  0  0  0  0  0
   21.3084  -12.6531   22.1301 H   0  0  0  0  0  0
   21.6089  -13.2630   19.1639 H   0  0  0  0  0  0
   22.4159  -12.0298   20.0845 H   0  0  0  0  0  0
   20.7289  -11.1012   18.6249 H   0  0  0  0  0  0
   20.3813  -10.7024   20.2912 H   0  0  0  0  0  0
   19.1314  -13.0890   18.8831 H   0  0  0  0  0  0
   18.4067  -11.5641   18.6984 H   0  0  0  0  0  0
   17.3587  -10.4625   20.5662 H   0  0  0  0  0  0
   16.8832  -11.4373   21.9215 H   0  0  0  0  0  0
   14.8656  -10.5166   21.1235 H   0  0  0  0  0  0
   13.4651  -13.6943   19.7657 H   0  0  0  0  0  0
   11.8579  -13.0418   19.6796 H   0  0  0  0  0  0
   13.5221  -13.3637   22.2452 H   0  0  0  0  0  0
   12.1246  -14.2804   21.7913 H   0  0  0  0  0  0
   11.5849  -12.5272   23.4212 H   0  0  0  0  0  0
   10.6517  -12.3152   21.9571 H   0  0  0  0  0  0
   11.4298  -10.5690   20.3208 H   0  0  0  0  0  0
   12.7554   -8.7217   21.3408 H   0  0  0  0  0  0
   12.3155   -8.2298   24.0477 H   0  0  0  0  0  0
   10.9301   -9.5812   25.0278 H   0  0  0  0  0  0
   10.6006  -11.0564   24.2839 H   0  0  0  0  0  0
   18.8275  -15.4638   20.3201 H   0  0  0  0  0  0
   19.9036  -14.5695   19.4614 H   0  0  0  0  0  0
  1  6  1  0  0  0
  1  2  2  0  0  0
  1 32  1  0  0  0
  2  3  1  0  0  0
  2 33  1  0  0  0
  3  4  2  0  0  0
  3 34  1  0  0  0
  4  5  1  0  0  0
  4  7  1  0  0  0
  5  6  2  0  0  0
  5 35  1  0  0  0
  6 36  1  0  0  0
  7  8  1  0  0  0
  7 37  1  0  0  0
  7 38  1  0  0  0
  8 14  1  0  0  0
  8  9  1  0  0  0
  8 30  1  0  0  0
  9 10  1  0  0  0
  9 39  1  0  0  0
  9 40  1  0  0  0
 10 11  1  0  0  0
 10 41  1  0  0  0
 10 42  1  0  0  0
 11 12  1  0  0  0
 11 43  1  0  0  0
 11 44  1  0  0  0
 12 13  1  0  0  0
 12 45  1  0  0  0
 12 46  1  0  0  0
 13 14  1  0  0  0
 13 16  1  0  0  0
 14 15  2  0  0  0
 16 17  1  0  0  0
 16 47  1  0  0  0
 16 48  1  0  0  0
 17 18  2  0  0  0
 17 19  1  0  0  0
 19 20  1  0  0  0
 19 49  1  0  0  0
 20 31  1  0  0  0
 20 25  1  0  0  0
 20 21  1  0  0  0
 21 22  1  0  0  0
 21 50  1  0  0  0
 21 51  1  0  0  0
 22 23  1  0  0  0
 22 52  1  0  0  0
 22 53  1  0  0  0
 23 24  1  0  0  0
 23 54  1  0  0  0
 23 55  1  0  0  0
 24 25  1  0  0  0
 24 27  1  0  0  0
 25 26  1  0  0  0
 25 56  1  0  0  0
 26 57  1  0  0  0
 27 28  2  3  0  0
 27 29  1  0  0  0
 28 58  1  0  0  0
 29 59  1  0  0  0
 29 60  1  0  0  0
 30 61  1  0  0  0
 30 62  1  0  0  0
M  END
> <s_m_entry_id>
37735

> <s_m_entry_name>
ligand_docking-pose.82

> <s_m_Source_Path>
/home/csk/Desktop/cluster/DUD-E-result/thrb

> <s_m_Source_File>
ligand_docking-pose.sdf

> <i_m_Source_File_Index>
82

> <i_lp_mmshare_version>
53161

> <i_f3d_flags>
0

> <r_lp_tautomer_probability>
1

> <s_lp_Force_Field>
OPLS_2005

> <r_lp_Energy>
42.036389

> <b_lp_Chiralities_Consistent>
1

> <s_lp_Variant>
128760-1

> <s_i_glide_gridfile>
glide-grid_1ype

> <i_i_glide_lignum>
795

> <i_i_glide_rotatable_bonds>
8

> <r_i_docking_score>
-8.02469526058889

> <r_i_glide_ligand_efficiency>
-0.267489842019629

> <r_i_glide_ligand_efficiency_sa>
-0.83115313119355

> <r_i_glide_ligand_efficiency_ln>
-1.82329819926374

> <r_i_glide_gscore>
-8.02469526058889

> <r_i_glide_lipo>
-3.3523216379965

> <r_i_glide_hbond>
-0.0147462271120221

> <r_i_glide_metal>
0

> <r_i_glide_rewards>
-2.30588669671859

> <r_i_glide_evdw>
-46.882682800293

> <r_i_glide_ecoul>
-4.15718936920166

> <r_i_glide_erotb>
0.683281471445277

> <r_i_glide_esite>
-0.0673096248121501

> <r_i_glide_emodel>
-71.9341380761653

> <r_i_glide_energy>
-51.0398721694946

> <r_i_glide_einternal>
4.28803396224976

> <i_i_glide_confnum>
136

> <i_i_glide_posenum>
316

> <r_i_glide_eff_state_penalty>
0

> <s_user_duplicate_titles>
128760

> <s_m_subgroup_title>
dock_pv

> <s_m_subgroupid>
dock_pv1

> <b_m_subgroup_collapsed>
0

$$$$
40183
                    3D
 Schrodinger Suite 2021-1.
 76 80  0  0  1  0            999 V2000
   20.4127  -13.3696   26.7209 C   0  0  0  0  0  0
   21.5305  -13.0306   25.9751 C   0  0  0  0  0  0
   21.7595  -13.6488   24.7556 C   0  0  0  0  0  0
   20.8601  -14.6022   24.2752 C   0  0  0  0  0  0
   19.7655  -14.9807   25.0655 C   0  0  0  0  0  0
   19.5359  -14.3523   26.2829 C   0  0  0  0  0  0
   21.1102  -15.1607   22.8746 C   0  0  0  0  0  0
   19.8872  -15.5965   22.0090 C   0  0  2  0  0  0
   20.3353  -15.7839   20.5410 C   0  0  0  0  0  0
   20.7104  -14.4651   19.8209 C   0  0  0  0  0  0
   19.5852  -13.4365   19.9619 C   0  0  2  0  0  0
   19.7913  -12.0374   19.3896 C   0  0  0  0  0  0
   18.8658  -11.1671   20.2542 C   0  0  0  0  0  0
   18.2039  -12.1130   21.2904 C   0  0  2  0  0  0
   19.0845  -13.2834   21.3190 N   0  0  1  0  0  0
   18.7308  -14.5390   22.0046 C   0  0  0  0  0  0
   16.7343  -12.4818   20.9359 C   0  0  0  0  0  0
   15.9389  -12.6531   21.8586 O   0  0  0  0  0  0
   16.4349  -12.6119   19.6171 N   0  0  0  0  0  0
   15.1888  -12.8248   18.8377 C   0  0  1  0  0  0
   15.4983  -13.7440   17.6203 C   0  0  0  0  0  0
   16.2311  -13.0661   16.4516 C   0  0  0  0  0  0
   15.4838  -11.8414   15.9109 C   0  0  0  0  0  0
   15.7723  -11.5985   14.5135 N   0  0  0  0  0  0
   15.3439  -10.4935   13.8012 C   0  0  0  0  0  0
   14.8510   -9.4569   14.3210 N   0  0  0  0  0  0
   15.5301  -10.6532   12.4435 N   0  0  0  0  0  0
   14.0087  -13.3485   19.6562 C   0  0  0  0  0  0
   13.6467  -14.5248   19.5524 O   0  0  0  0  0  0
   13.3183  -12.4104   20.5430 C   0  0  0  0  0  0
   13.6245  -11.1535   20.7446 N   0  0  0  0  0  0
   12.9454  -10.6371   21.8007 C   0  0  0  0  0  0
   13.1552   -9.3622   22.3405 C   0  0  0  0  0  0
   12.4155   -8.9943   23.4670 C   0  0  0  0  0  0
   11.4582   -9.8477   24.0166 C   0  0  0  0  0  0
   11.2162  -11.1122   23.4840 C   0  0  0  0  0  0
   11.9881  -11.5047   22.3829 C   0  0  0  0  0  0
   12.0161  -13.0262   21.5207 S   0  0  0  0  0  0
   19.4034  -16.8842   22.4817 N   0  0  0  0  0  0
   18.1822  -11.6492   22.2769 H   0  0  0  0  0  0
   14.8837  -11.8452   18.4703 H   0  0  0  0  0  0
   20.1998  -12.8500   27.6402 H   0  0  0  0  0  0
   22.1898  -12.2556   26.3195 H   0  0  0  0  0  0
   22.6151  -13.3473   24.1658 H   0  0  0  0  0  0
   19.0542  -15.7217   24.7401 H   0  0  0  0  0  0
   18.6697  -14.6123   26.8731 H   0  0  0  0  0  0
   21.8294  -15.9768   22.9570 H   0  0  0  0  0  0
   21.6375  -14.3732   22.3418 H   0  0  0  0  0  0
   21.1207  -16.5355   20.4440 H   0  0  0  0  0  0
   19.4640  -16.1766   20.0162 H   0  0  0  0  0  0
   20.9036  -14.6541   18.7667 H   0  0  0  0  0  0
   21.6164  -14.0485   20.2463 H   0  0  0  0  0  0
   18.7893  -13.9187   19.3919 H   0  0  0  0  0  0
   19.4604  -11.9963   18.3510 H   0  0  0  0  0  0
   20.8344  -11.7223   19.4425 H   0  0  0  0  0  0
   18.1185  -10.6533   19.6532 H   0  0  0  0  0  0
   19.4326  -10.3718   20.7339 H   0  0  0  0  0  0
   18.4250  -14.2927   23.0189 H   0  0  0  0  0  0
   17.8379  -14.9606   21.5409 H   0  0  0  0  0  0
   17.2299  -12.4558   19.0167 H   0  0  0  0  0  0
   16.0661  -14.6182   17.9468 H   0  0  0  0  0  0
   14.5723  -14.1478   17.2030 H   0  0  0  0  0  0
   17.2301  -12.7681   16.7575 H   0  0  0  0  0  0
   16.3560  -13.8068   15.6603 H   0  0  0  0  0  0
   14.4111  -11.9966   15.9770 H   0  0  0  0  0  0
   15.7113  -10.9541   16.5006 H   0  0  0  0  0  0
   15.9644  -12.4269   13.9678 H   0  0  0  0  0  0
   14.7196   -8.7354   13.6169 H   0  0  0  0  0  0
   15.6163   -9.7709   11.9504 H   0  0  0  0  0  0
   16.3033  -11.2497   12.1918 H   0  0  0  0  0  0
   13.8921   -8.6969   21.9202 H   0  0  0  0  0  0
   12.5747   -8.0244   23.9196 H   0  0  0  0  0  0
   10.8759   -9.5244   24.8677 H   0  0  0  0  0  0
   10.4660  -11.7651   23.9134 H   0  0  0  0  0  0
   20.1566  -17.5556   22.4296 H   0  0  0  0  0  0
   19.1574  -16.8177   23.4577 H   0  0  0  0  0  0
  1  6  1  0  0  0
  1  2  2  0  0  0
  1 42  1  0  0  0
  2  3  1  0  0  0
  2 43  1  0  0  0
  3  4  2  0  0  0
  3 44  1  0  0  0
  4  5  1  0  0  0
  4  7  1  0  0  0
  5  6  2  0  0  0
  5 45  1  0  0  0
  6 46  1  0  0  0
  7  8  1  0  0  0
  7 47  1  0  0  0
  7 48  1  0  0  0
  8 16  1  0  0  0
  8  9  1  0  0  0
  8 39  1  0  0  0
  9 10  1  0  0  0
  9 49  1  0  0  0
  9 50  1  0  0  0
 10 11  1  0  0  0
 10 51  1  0  0  0
 10 52  1  0  0  0
 11 15  1  0  0  0
 11 12  1  0  0  0
 11 53  1  0  0  0
 12 13  1  0  0  0
 12 54  1  0  0  0
 12 55  1  0  0  0
 13 14  1  0  0  0
 13 56  1  0  0  0
 13 57  1  0  0  0
 14 40  1  0  0  0
 14 15  1  0  0  0
 14 17  1  0  0  0
 15 16  1  0  0  0
 16 58  1  0  0  0
 16 59  1  0  0  0
 17 18  2  0  0  0
 17 19  1  0  0  0
 19 20  1  0  0  0
 19 60  1  0  0  0
 20 41  1  0  0  0
 20 21  1  0  0  0
 20 28  1  0  0  0
 21 22  1  0  0  0
 21 61  1  0  0  0
 21 62  1  0  0  0
 22 23  1  0  0  0
 22 63  1  0  0  0
 22 64  1  0  0  0
 23 24  1  0  0  0
 23 65  1  0  0  0
 23 66  1  0  0  0
 24 25  1  0  0  0
 24 67  1  0  0  0
 25 26  2  3  0  0
 25 27  1  0  0  0
 26 68  1  0  0  0
 27 69  1  0  0  0
 27 70  1  0  0  0
 28 29  2  0  0  0
 28 30  1  0  0  0
 30 38  1  0  0  0
 30 31  2  0  0  0
 31 32  1  0  0  0
 32 37  2  0  0  0
 32 33  1  0  0  0
 33 34  2  0  0  0
 33 71  1  0  0  0
 34 35  1  0  0  0
 34 72  1  0  0  0
 35 36  2  0  0  0
 35 73  1  0  0  0
 36 37  1  0  0  0
 36 74  1  0  0  0
 37 38  1  0  0  0
 39 75  1  0  0  0
 39 76  1  0  0  0
M  END
> <s_m_entry_id>
37736

> <s_m_entry_name>
ligand_docking-pose.83

> <s_m_Source_Path>
/home/csk/Desktop/cluster/DUD-E-result/thrb

> <s_m_Source_File>
ligand_docking-pose.sdf

> <i_m_Source_File_Index>
83

> <i_lp_mmshare_version>
53161

> <i_f3d_flags>
0

> <r_lp_tautomer_probability>
0.99990000499975

> <s_lp_Force_Field>
OPLS_2005

> <r_lp_Energy>
66.065988

> <b_lp_Chiralities_Consistent>
1

> <s_lp_Variant>
40183-3

> <s_i_glide_gridfile>
glide-grid_1ype

> <i_i_glide_lignum>
656

> <i_i_glide_rotatable_bonds>
12

> <r_i_docking_score>
-8.01517744855286

> <r_i_glide_ligand_efficiency>
-0.205517370475714

> <r_i_glide_ligand_efficiency_sa>
-0.696952857644314

> <r_i_glide_ligand_efficiency_ln>
-1.71868156931189

> <r_i_glide_gscore>
-8.01517744855286

> <r_i_glide_lipo>
-3.97570503576205

> <r_i_glide_hbond>
-0.580956426152843

> <r_i_glide_metal>
0

> <r_i_glide_rewards>
-0.367414509745202

> <r_i_glide_evdw>
-51.7011375427246

> <r_i_glide_ecoul>
-8.2697286605835

> <r_i_glide_erotb>
0.759659613912172

> <r_i_glide_esite>
-0.0252449145811863

> <r_i_glide_emodel>
-85.6715435526729

> <r_i_glide_energy>
-59.9708662033081

> <r_i_glide_einternal>
13.7259740829468

> <i_i_glide_confnum>
34

> <i_i_glide_posenum>
88

> <r_i_glide_eff_state_penalty>
0

> <s_user_duplicate_titles>
40183

> <s_m_subgroup_title>
dock_pv

> <s_m_subgroupid>
dock_pv1

> <b_m_subgroup_collapsed>
0

$$$$
46472
                    3D
 Schrodinger Suite 2021-1.
 63 66  0  0  1  0            999 V2000
   20.8236  -16.0336   24.5453 C   0  0  0  0  0  0
   22.0552  -15.4656   24.2398 C   0  0  0  0  0  0
   22.3770  -14.2046   24.7355 C   0  0  0  0  0  0
   21.4733  -13.5035   25.5350 C   0  0  0  0  0  0
   20.2386  -14.0738   25.8414 C   0  0  0  0  0  0
   19.9120  -15.3340   25.3374 C   0  0  0  0  0  0
   18.3436  -16.0449   25.7539 S   0  0  0  0  0  0
   17.7678  -17.0979   24.3769 C   0  0  0  0  0  0
   17.1609  -16.3180   23.1818 C   0  0  2  0  0  0
   16.3236  -17.1862   22.2123 C   0  0  0  0  0  0
   16.2574  -18.3962   22.2722 O   0  0  0  0  0  0
   15.6418  -16.3977   21.3308 O   0  0  0  0  0  0
   18.1521  -15.4606   22.4651 N   0  0  0  0  0  0
   19.0648  -15.8958   21.5723 C   0  0  0  0  0  0
   19.5751  -17.0148   21.5171 O   0  0  0  0  0  0
   19.3670  -14.8239   20.8170 N   0  0  0  0  0  0
   18.8497  -13.7006   21.4776 N   0  0  0  0  0  0
   17.9897  -14.1319   22.4120 C   0  0  0  0  0  0
   17.2157  -13.4530   23.0804 O   0  0  0  0  0  0
   18.8609  -12.3870   20.7468 C   0  0  1  0  0  0
   20.0173  -12.3006   19.7707 C   0  0  0  0  0  0
   20.8223  -13.3272   19.5213 C   0  0  0  0  0  0
   20.7258  -14.6477   20.2517 C   0  0  0  0  0  0
   17.5303  -11.9365   20.1165 C   0  0  0  0  0  0
   17.3944  -11.8563   18.8942 O   0  0  0  0  0  0
   16.5790  -11.5714   20.9811 N   0  0  0  0  0  0
   15.3160  -10.9646   20.6097 C   0  0  0  0  0  0
   14.2988  -11.9205   19.9553 C   0  0  2  0  0  0
   12.9671  -11.2063   19.6721 C   0  0  0  0  0  0
   12.1808  -10.8720   20.9644 C   0  0  0  0  0  0
   11.9311  -12.1333   21.8202 C   0  0  1  0  0  0
   13.2345  -12.9265   22.0649 C   0  0  0  0  0  0
   14.0023  -13.2139   20.7581 C   0  0  0  0  0  0
   11.2160  -11.8529   23.0475 N   0  0  0  0  0  0
   24.0753  -13.4530   24.3205 Br  0  0  0  0  0  0
   20.5967  -17.0171   24.1639 H   0  0  0  0  0  0
   22.7611  -16.0060   23.6249 H   0  0  0  0  0  0
   21.7288  -12.5267   25.9219 H   0  0  0  0  0  0
   19.5379  -13.5374   26.4658 H   0  0  0  0  0  0
   18.5629  -17.7674   24.0509 H   0  0  0  0  0  0
   17.0033  -17.7468   24.8083 H   0  0  0  0  0  0
   16.4157  -15.6703   23.6427 H   0  0  0  0  0  0
   15.7915  -15.4619   21.4847 H   0  0  0  0  0  0
   19.0305  -11.6376   21.5202 H   0  0  0  0  0  0
   20.1912  -11.3763   19.2391 H   0  0  0  0  0  0
   21.6158  -13.1790   18.8058 H   0  0  0  0  0  0
   21.4846  -14.7045   21.0351 H   0  0  0  0  0  0
   20.9345  -15.4540   19.5483 H   0  0  0  0  0  0
   16.7307  -11.7634   21.9633 H   0  0  0  0  0  0
   14.8883  -10.5720   21.5212 H   0  0  0  0  0  0
   15.4783  -10.0700   20.0213 H   0  0  0  0  0  0
   14.6990  -12.2288   18.9878 H   0  0  0  0  0  0
   13.1291  -10.2904   19.1017 H   0  0  0  0  0  0
   12.4023  -11.8776   19.0366 H   0  0  0  0  0  0
   11.2388  -10.3820   20.7211 H   0  0  0  0  0  0
   12.7418  -10.1410   21.5452 H   0  0  0  0  0  0
   11.3017  -12.7851   21.2113 H   0  0  0  0  0  0
   13.0155  -13.8644   22.5768 H   0  0  0  0  0  0
   13.8863  -12.3526   22.7200 H   0  0  0  0  0  0
   13.4248  -13.9086   20.1477 H   0  0  0  0  0  0
   14.9337  -13.7245   21.0013 H   0  0  0  0  0  0
   10.3270  -11.3992   22.8515 H   0  0  0  0  0  0
   10.9684  -12.7413   23.4797 H   0  0  0  0  0  0
  1  6  1  0  0  0
  1  2  2  0  0  0
  1 36  1  0  0  0
  2  3  1  0  0  0
  2 37  1  0  0  0
  3  4  2  0  0  0
  3 35  1  0  0  0
  4  5  1  0  0  0
  4 38  1  0  0  0
  5  6  2  0  0  0
  5 39  1  0  0  0
  6  7  1  0  0  0
  7  8  1  0  0  0
  8  9  1  0  0  0
  8 40  1  0  0  0
  8 41  1  0  0  0
  9 10  1  0  0  0
  9 13  1  0  0  0
  9 42  1  0  0  0
 10 11  2  0  0  0
 10 12  1  0  0  0
 12 43  1  0  0  0
 13 18  1  0  0  0
 13 14  1  0  0  0
 14 15  2  0  0  0
 14 16  1  0  0  0
 16 23  1  0  0  0
 16 17  1  0  0  0
 17 18  1  0  0  0
 17 20  1  0  0  0
 18 19  2  0  0  0
 20 21  1  0  0  0
 20 24  1  0  0  0
 20 44  1  0  0  0
 21 22  2  0  0  0
 21 45  1  0  0  0
 22 23  1  0  0  0
 22 46  1  0  0  0
 23 47  1  0  0  0
 23 48  1  0  0  0
 24 25  2  0  0  0
 24 26  1  0  0  0
 26 27  1  0  0  0
 26 49  1  0  0  0
 27 28  1  0  0  0
 27 50  1  0  0  0
 27 51  1  0  0  0
 28 33  1  0  0  0
 28 29  1  0  0  0
 28 52  1  0  0  0
 29 30  1  0  0  0
 29 53  1  0  0  0
 29 54  1  0  0  0
 30 31  1  0  0  0
 30 55  1  0  0  0
 30 56  1  0  0  0
 31 32  1  0  0  0
 31 34  1  0  0  0
 31 57  1  0  0  0
 32 33  1  0  0  0
 32 58  1  0  0  0
 32 59  1  0  0  0
 33 60  1  0  0  0
 33 61  1  0  0  0
 34 62  1  0  0  0
 34 63  1  0  0  0
M  END
> <s_m_entry_id>
37737

> <s_m_entry_name>
ligand_docking-pose.84

> <s_m_Source_Path>
/home/csk/Desktop/cluster/DUD-E-result/thrb

> <s_m_Source_File>
ligand_docking-pose.sdf

> <i_m_Source_File_Index>
84

> <i_lp_mmshare_version>
53161

> <i_f3d_flags>
0

> <r_lp_tautomer_probability>
1

> <s_lp_Force_Field>
OPLS_2005

> <r_lp_Energy>
22.576821

> <b_lp_Chiralities_Consistent>
1

> <s_lp_Variant>
46472-1

> <s_i_glide_gridfile>
glide-grid_1ype

> <i_i_glide_lignum>
1819

> <i_i_glide_rotatable_bonds>
10

> <r_i_docking_score>
-8.00847834410241

> <r_i_glide_ligand_efficiency>
-0.228813666974355

> <r_i_glide_ligand_efficiency_sa>
-0.748464676463505

> <r_i_glide_ligand_efficiency_ln>
-1.75803873513102

> <r_i_glide_gscore>
-8.00847834410241

> <r_i_glide_lipo>
-3.41842345385206

> <r_i_glide_hbond>
-0.634275294523489

> <r_i_glide_metal>
0

> <r_i_glide_rewards>
-0.894390708051132

> <r_i_glide_evdw>
-48.2162284851074

> <r_i_glide_ecoul>
-7.22310876846313

> <r_i_glide_erotb>
0.432888851849109

> <r_i_glide_esite>
0

> <r_i_glide_emodel>
-75.7016065810352

> <r_i_glide_energy>
-55.4393372535706

> <r_i_glide_einternal>
8.48114776611328

> <i_i_glide_confnum>
57

> <i_i_glide_posenum>
352

> <r_i_glide_eff_state_penalty>
0

> <s_user_duplicate_titles>
46472

> <s_m_subgroup_title>
dock_pv

> <s_m_subgroupid>
dock_pv1

> <b_m_subgroup_collapsed>
0

$$$$
549370
                    3D
 Schrodinger Suite 2021-1.
 60 62  0  0  1  0            999 V2000
   20.9106  -14.9472   20.4085 C   0  0  0  0  0  0
   19.6236  -15.3358   21.1210 C   0  0  0  0  0  0
   19.4637  -16.6705   21.4945 C   0  0  0  0  0  0
   18.3018  -17.0952   22.1242 C   0  0  0  0  0  0
   17.2688  -16.1960   22.3848 C   0  0  0  0  0  0
   17.4233  -14.8455   22.0308 C   0  0  0  0  0  0
   18.6061  -14.3998   21.3977 C   0  0  0  0  0  0
   18.8234  -12.9035   21.0943 C   0  0  0  0  0  0
   17.7833  -12.3049   20.1411 C   0  0  0  0  0  0
   17.8165  -12.5504   18.9359 O   0  0  0  0  0  0
   16.8685  -11.5178   20.7211 N   0  0  0  0  0  0
   15.7533  -10.8532   20.0716 C   0  0  0  0  0  0
   14.5012  -10.8297   20.9364 C   0  0  0  0  0  0
   13.8553  -12.0138   21.2910 C   0  0  0  0  0  0
   12.7697  -11.9784   22.1646 C   0  0  0  0  0  0
   12.3104  -10.7630   22.7071 C   0  0  0  0  0  0
   12.9422   -9.5816   22.2823 C   0  0  0  0  0  0
   14.0161   -9.6095   21.4045 C   0  0  0  0  0  0
   11.2191  -10.6899   23.7183 C   0  0  0  0  0  0
   10.9827   -9.6142   24.3210 N   0  0  0  0  0  0
   10.5243  -11.8530   23.9210 N   0  0  0  0  0  0
   16.4161  -13.9547   22.3210 O   0  0  0  0  0  0
   16.1243  -16.6545   23.0544 N   0  0  0  0  0  0
   15.0870  -17.9382   22.4028 S   0  0  0  0  0  0
   15.9307  -18.8900   21.6721 O   0  0  0  0  0  0
   14.2549  -18.3886   23.5210 O   0  0  0  0  0  0
   13.9688  -17.1772   21.2331 C   0  0  0  0  0  0
   13.3615  -15.9568   21.5324 C   0  0  0  0  0  0
   12.4160  -15.4274   20.6598 C   0  0  0  0  0  0
   12.0623  -16.1058   19.4956 C   0  0  0  0  0  0
   12.6895  -17.3241   19.1932 C   0  0  0  0  0  0
   13.6423  -17.8552   20.0579 C   0  0  0  0  0  0
   11.0906  -15.5132   18.7150 O   0  0  0  0  0  0
   10.5244  -16.2531   17.6379 C   0  0  0  0  0  0
   21.5348  -15.8120   20.1752 H   0  0  0  0  0  0
   20.6886  -14.4477   19.4652 H   0  0  0  0  0  0
   21.4958  -14.2611   21.0219 H   0  0  0  0  0  0
   20.2446  -17.3901   21.2961 H   0  0  0  0  0  0
   18.2124  -18.1318   22.4148 H   0  0  0  0  0  0
   19.8044  -12.6830   20.6802 H   0  0  0  0  0  0
   18.8049  -12.3778   22.0500 H   0  0  0  0  0  0
   16.9925  -11.3063   21.6988 H   0  0  0  0  0  0
   15.5250  -11.2765   19.0903 H   0  0  0  0  0  0
   16.1072   -9.8403   19.9210 H   0  0  0  0  0  0
   14.2202  -12.9618   20.9219 H   0  0  0  0  0  0
   12.3225  -12.9171   22.4551 H   0  0  0  0  0  0
   12.6224   -8.6211   22.6589 H   0  0  0  0  0  0
   14.5012   -8.6827   21.1326 H   0  0  0  0  0  0
   10.1770   -9.7103   24.9367 H   0  0  0  0  0  0
    9.7075  -11.8334   24.5316 H   0  0  0  0  0  0
   10.7853  -12.7459   23.5210 H   0  0  0  0  0  0
   15.7538  -14.3040   22.9276 H   0  0  0  0  0  0
   15.7239  -16.0772   23.7825 H   0  0  0  0  0  0
   13.5916  -15.4322   22.4485 H   0  0  0  0  0  0
   11.9206  -14.4981   20.8959 H   0  0  0  0  0  0
   12.4446  -17.8752   18.2986 H   0  0  0  0  0  0
   14.1025  -18.8049   19.8238 H   0  0  0  0  0  0
    9.7845  -15.6362   17.1274 H   0  0  0  0  0  0
   11.2752  -16.5436   16.9035 H   0  0  0  0  0  0
   10.0163  -17.1494   17.9972 H   0  0  0  0  0  0
  1  2  1  0  0  0
  1 35  1  0  0  0
  1 36  1  0  0  0
  1 37  1  0  0  0
  2  7  1  0  0  0
  2  3  2  0  0  0
  3  4  1  0  0  0
  3 38  1  0  0  0
  4  5  2  0  0  0
  4 39  1  0  0  0
  5  6  1  0  0  0
  5 23  1  0  0  0
  6  7  2  0  0  0
  6 22  1  0  0  0
  7  8  1  0  0  0
  8  9  1  0  0  0
  8 40  1  0  0  0
  8 41  1  0  0  0
  9 10  2  0  0  0
  9 11  1  0  0  0
 11 12  1  0  0  0
 11 42  1  0  0  0
 12 13  1  0  0  0
 12 43  1  0  0  0
 12 44  1  0  0  0
 13 18  1  0  0  0
 13 14  2  0  0  0
 14 15  1  0  0  0
 14 45  1  0  0  0
 15 16  2  0  0  0
 15 46  1  0  0  0
 16 17  1  0  0  0
 16 19  1  0  0  0
 17 18  2  0  0  0
 17 47  1  0  0  0
 18 48  1  0  0  0
 19 20  2  3  0  0
 19 21  1  0  0  0
 20 49  1  0  0  0
 21 50  1  0  0  0
 21 51  1  0  0  0
 22 52  1  0  0  0
 23 24  1  0  0  0
 23 53  1  0  0  0
 24 25  2  0  0  0
 24 26  2  0  0  0
 24 27  1  0  0  0
 27 32  1  0  0  0
 27 28  2  0  0  0
 28 29  1  0  0  0
 28 54  1  0  0  0
 29 30  2  0  0  0
 29 55  1  0  0  0
 30 31  1  0  0  0
 30 33  1  0  0  0
 31 32  2  0  0  0
 31 56  1  0  0  0
 32 57  1  0  0  0
 33 34  1  0  0  0
 34 58  1  0  0  0
 34 59  1  0  0  0
 34 60  1  0  0  0
M  END
> <s_m_entry_id>
37739

> <s_m_entry_name>
ligand_docking-pose.86

> <s_m_Source_Path>
/home/csk/Desktop/cluster/DUD-E-result/thrb

> <s_m_Source_File>
ligand_docking-pose.sdf

> <i_m_Source_File_Index>
86

> <i_lp_mmshare_version>
53161

> <i_f3d_flags>
0

> <r_lp_tautomer_probability>
1

> <s_lp_Force_Field>
OPLS_2005

> <r_lp_Energy>
11.507236

> <b_lp_Chiralities_Consistent>
1

> <s_lp_Variant>
549370-1

> <s_i_glide_gridfile>
glide-grid_1ype

> <i_i_glide_lignum>
2357

> <i_i_glide_rotatable_bonds>
11

> <r_i_docking_score>
-7.98539719696925

> <r_i_glide_ligand_efficiency>
-0.234864623440272

> <r_i_glide_ligand_efficiency_sa>
-0.76087020490533

> <r_i_glide_ligand_efficiency_ln>
-1.76419822361508

> <r_i_glide_gscore>
-7.98539719696925

> <r_i_glide_lipo>
-2.71912440513856

> <r_i_glide_hbond>
-1.25807267819416

> <r_i_glide_metal>
0

> <r_i_glide_rewards>
0.190534249341766

> <r_i_glide_evdw>
-41.8598175048828

> <r_i_glide_ecoul>
-17.4516658782959

> <r_i_glide_erotb>
0.697229160485134

> <r_i_glide_esite>
-0.185222766474899

> <r_i_glide_emodel>
-82.6408947780553

> <r_i_glide_energy>
-59.3114833831787

> <r_i_glide_einternal>
8.10734558105469

> <i_i_glide_confnum>
33

> <i_i_glide_posenum>
319

> <r_i_glide_eff_state_penalty>
0

> <s_user_duplicate_titles>
549370

> <s_m_subgroup_title>
dock_pv

> <s_m_subgroupid>
dock_pv1

> <b_m_subgroup_collapsed>
0

$$$$
139471
                    3D
 Schrodinger Suite 2021-1.
 66 69  0  0  1  0            999 V2000
   22.5172  -13.4532   25.3182 C   0  0  0  0  0  0
   21.2932  -13.0575   25.8572 C   0  0  0  0  0  0
   20.3321  -14.0180   26.1554 C   0  0  0  0  0  0
   20.6034  -15.3691   25.9210 C   0  0  0  0  0  0
   21.8282  -15.7583   25.3740 C   0  0  0  0  0  0
   22.7890  -14.7964   25.0713 C   0  0  0  0  0  0
   19.5817  -16.4211   26.3238 C   0  0  0  0  0  0
   18.1800  -16.6260   25.0913 S   0  0  0  0  0  0
   17.6162  -15.2976   24.8353 O   0  0  0  0  0  0
   17.3325  -17.7190   25.5775 O   0  0  0  0  0  0
   19.0056  -17.2223   23.6411 N   0  0  2  0  0  0
   19.0161  -16.4488   22.3630 C   0  0  2  0  0  0
   19.8519  -15.1593   22.5740 C   0  0  0  0  0  0
   19.7472  -14.2501   21.3699 C   0  0  0  0  0  0
   20.8165  -13.4515   20.9558 C   0  0  0  0  0  0
   20.6869  -12.5945   19.8681 C   0  0  0  0  0  0
   19.4734  -12.5173   19.1949 C   0  0  0  0  0  0
   18.3995  -13.3070   19.5998 C   0  0  0  0  0  0
   18.5266  -14.2105   20.6726 C   0  0  0  0  0  0
   17.4487  -15.0535   21.0962 N   0  0  0  0  0  0
   17.5614  -16.1779   21.8704 C   0  0  0  0  0  0
   16.6263  -16.9322   22.1598 O   0  0  0  0  0  0
   16.0678  -14.7160   20.6490 C   0  0  0  0  0  0
   15.5523  -13.4414   21.3411 C   0  0  0  0  0  0
   16.1339  -12.9372   22.3053 O   0  0  0  0  0  0
   14.4653  -12.8959   20.7783 N   0  0  0  0  0  0
   13.8679  -11.6229   21.1792 C   0  0  1  0  0  0
   13.5738  -10.7482   19.9455 C   0  0  0  0  0  0
   13.0735   -9.3671   20.3836 C   0  0  0  0  0  0
   11.8892   -9.4841   21.3515 C   0  0  0  0  0  0
   12.1926  -10.3637   22.4912 N   0  0  0  0  0  0
   12.6188  -11.7223   22.1056 C   0  0  1  0  0  0
   11.6163  -12.5554   21.5457 O   0  0  0  0  0  0
   11.6156  -10.0556   23.7575 C   0  0  0  0  0  0
   11.7602   -8.9431   24.3210 N   0  0  0  0  0  0
   10.8161  -11.0657   24.3210 N   0  0  0  0  0  0
   14.6302  -11.0621   21.7268 H   0  0  0  0  0  0
   23.2686  -12.7092   25.0964 H   0  0  0  0  0  0
   21.0914  -12.0118   26.0463 H   0  0  0  0  0  0
   19.3854  -13.7146   26.5822 H   0  0  0  0  0  0
   22.0442  -16.8020   25.1976 H   0  0  0  0  0  0
   23.7427  -15.0910   24.6577 H   0  0  0  0  0  0
   19.1194  -16.1516   27.2725 H   0  0  0  0  0  0
   20.0377  -17.4027   26.4465 H   0  0  0  0  0  0
   18.8465  -18.2225   23.4911 H   0  0  0  0  0  0
   19.4925  -17.0506   21.5871 H   0  0  0  0  0  0
   20.8933  -15.4116   22.7675 H   0  0  0  0  0  0
   19.5012  -14.5876   23.4316 H   0  0  0  0  0  0
   21.7568  -13.4908   21.4871 H   0  0  0  0  0  0
   21.5255  -11.9885   19.5554 H   0  0  0  0  0  0
   19.3641  -11.8529   18.3524 H   0  0  0  0  0  0
   17.4831  -13.2145   19.0387 H   0  0  0  0  0  0
   15.3472  -15.5155   20.8290 H   0  0  0  0  0  0
   16.0451  -14.5951   19.5676 H   0  0  0  0  0  0
   13.9500  -13.4322   20.0960 H   0  0  0  0  0  0
   12.8246  -11.2312   19.3130 H   0  0  0  0  0  0
   14.4759  -10.6537   19.3414 H   0  0  0  0  0  0
   12.7618   -8.7851   19.5164 H   0  0  0  0  0  0
   13.8757   -8.7914   20.8479 H   0  0  0  0  0  0
   11.0257   -9.8857   20.8254 H   0  0  0  0  0  0
   11.6158   -8.4857   21.6862 H   0  0  0  0  0  0
   12.9432  -12.2444   23.0085 H   0  0  0  0  0  0
   11.2607  -13.1264   22.2351 H   0  0  0  0  0  0
   12.3635   -8.3348   23.7925 H   0  0  0  0  0  0
   10.1992  -10.8271   25.0903 H   0  0  0  0  0  0
   10.4139  -11.7665   23.7209 H   0  0  0  0  0  0
  1  6  1  0  0  0
  1  2  2  0  0  0
  1 38  1  0  0  0
  2  3  1  0  0  0
  2 39  1  0  0  0
  3  4  2  0  0  0
  3 40  1  0  0  0
  4  5  1  0  0  0
  4  7  1  0  0  0
  5  6  2  0  0  0
  5 41  1  0  0  0
  6 42  1  0  0  0
  7  8  1  0  0  0
  7 43  1  0  0  0
  7 44  1  0  0  0
  8  9  2  0  0  0
  8 10  2  0  0  0
  8 11  1  0  0  0
 11 12  1  0  0  0
 11 45  1  0  0  0
 12 21  1  0  0  0
 12 13  1  0  0  0
 12 46  1  0  0  0
 13 14  1  0  0  0
 13 47  1  0  0  0
 13 48  1  0  0  0
 14 19  2  0  0  0
 14 15  1  0  0  0
 15 16  2  0  0  0
 15 49  1  0  0  0
 16 17  1  0  0  0
 16 50  1  0  0  0
 17 18  2  0  0  0
 17 51  1  0  0  0
 18 19  1  0  0  0
 18 52  1  0  0  0
 19 20  1  0  0  0
 20 21  1  0  0  0
 20 23  1  0  0  0
 21 22  2  0  0  0
 23 24  1  0  0  0
 23 53  1  0  0  0
 23 54  1  0  0  0
 24 25  2  0  0  0
 24 26  1  0  0  0
 26 27  1  0  0  0
 26 55  1  0  0  0
 27 37  1  0  0  0
 27 32  1  0  0  0
 27 28  1  0  0  0
 28 29  1  0  0  0
 28 56  1  0  0  0
 28 57  1  0  0  0
 29 30  1  0  0  0
 29 58  1  0  0  0
 29 59  1  0  0  0
 30 31  1  0  0  0
 30 60  1  0  0  0
 30 61  1  0  0  0
 31 32  1  0  0  0
 31 34  1  0  0  0
 32 33  1  0  0  0
 32 62  1  0  0  0
 33 63  1  0  0  0
 34 35  2  3  0  0
 34 36  1  0  0  0
 35 64  1  0  0  0
 36 65  1  0  0  0
 36 66  1  0  0  0
M  END
> <s_m_entry_id>
37740

> <s_m_entry_name>
ligand_docking-pose.87

> <s_m_Source_Path>
/home/csk/Desktop/cluster/DUD-E-result/thrb

> <s_m_Source_File>
ligand_docking-pose.sdf

> <i_m_Source_File_Index>
87

> <i_lp_mmshare_version>
53161

> <i_f3d_flags>
0

> <r_lp_tautomer_probability>
1

> <s_lp_Force_Field>
OPLS_2005

> <r_lp_Energy>
31.693163

> <b_lp_Chiralities_Consistent>
1

> <s_lp_Variant>
139471-2

> <s_i_glide_gridfile>
glide-grid_1ype

> <i_i_glide_lignum>
1534

> <i_i_glide_rotatable_bonds>
10

> <r_i_docking_score>
-7.98524900215879

> <r_i_glide_ligand_efficiency>
-0.221812472282189

> <r_i_glide_ligand_efficiency_sa>
-0.732408645498376

> <r_i_glide_ligand_efficiency_ln>
-1.74216559577443

> <r_i_glide_gscore>
-7.98524900215879

> <r_i_glide_lipo>
-3.32075460924192

> <r_i_glide_hbond>
-0.600917730259503

> <r_i_glide_metal>
0

> <r_i_glide_rewards>
-1.13964153158065

> <r_i_glide_evdw>
-51.7589340209961

> <r_i_glide_ecoul>
-5.16852426528931

> <r_i_glide_erotb>
0.542256264068172

> <r_i_glide_esite>
-0.102966054301689

> <r_i_glide_emodel>
-74.4827170591313

> <r_i_glide_energy>
-56.9274582862854

> <r_i_glide_einternal>
15.4447212219238

> <i_i_glide_confnum>
115

> <i_i_glide_posenum>
306

> <r_i_glide_eff_state_penalty>
0

> <s_user_duplicate_titles>
139471

> <s_m_subgroup_title>
dock_pv

> <s_m_subgroupid>
dock_pv1

> <b_m_subgroup_collapsed>
0

$$$$
167392
                    3D
 Schrodinger Suite 2021-1.
 53 56  0  0  1  0            999 V2000
   22.2885  -14.8558   25.4999 C   0  0  0  0  0  0
   22.1067  -13.4801   25.6377 C   0  0  0  0  0  0
   20.8129  -12.9900   25.8044 C   0  0  0  0  0  0
   19.7193  -13.7955   25.8232 N   0  0  0  0  0  0
   19.9032  -15.1383   25.6857 C   0  0  0  0  0  0
   21.1760  -15.7011   25.5209 C   0  0  0  0  0  0
   18.6419  -16.0124   25.7318 C   0  0  0  0  0  0
   18.0812  -16.3529   24.3276 C   0  0  0  0  0  0
   17.6155  -15.2023   23.5376 N   0  0  0  0  0  0
   18.3685  -14.5091   22.5919 C   0  0  0  0  0  0
   17.7263  -13.2729   22.0242 C   0  0  0  0  0  0
   16.5833  -12.8961   22.3207 O   0  0  0  0  0  0
   18.5445  -12.5796   21.1390 N   0  0  0  0  0  0
   19.7865  -13.0907   20.8050 C   0  0  0  0  0  0
   20.2654  -14.2382   21.3448 C   0  0  0  0  0  0
   19.5491  -14.9445   22.2758 N   0  0  0  0  0  0
   18.0490  -11.3152   20.5642 C   0  0  0  0  0  0
   17.1305  -11.6193   19.3745 C   0  0  0  0  0  0
   17.6155  -11.8426   18.2650 O   0  0  0  0  0  0
   15.8157  -11.6251   19.6330 N   0  0  0  0  0  0
   14.7541  -11.9643   18.6908 C   0  0  0  0  0  0
   13.8390  -13.0514   19.2519 C   0  0  0  0  0  0
   13.9716  -14.3319   18.6974 C   0  0  0  0  0  0
   13.1918  -15.3955   19.1439 C   0  0  0  0  0  0
   12.2675  -15.1939   20.1633 C   0  0  0  0  0  0
   12.1245  -13.9313   20.7299 C   0  0  0  0  0  0
   12.8904  -12.8422   20.2895 C   0  0  0  0  0  0
   12.6742  -11.5967   20.9487 N   0  0  0  0  0  0
   12.1950  -11.3654   22.2248 C   0  0  0  0  0  0
   12.0371  -10.0865   22.4555 N   0  0  0  0  0  0
   12.4360   -9.4602   21.2799 N   0  0  0  0  0  0
   12.8157  -10.4051   20.3470 N   0  0  0  0  0  0
   13.3713  -16.9590   18.4360 Cl  0  0  0  0  0  0
   17.7026  -15.4193   26.4713 F   0  0  0  0  0  0
   18.9440  -17.1495   26.3624 F   0  0  0  0  0  0
   23.2814  -15.2649   25.3832 H   0  0  0  0  0  0
   22.9566  -12.8105   25.6244 H   0  0  0  0  0  0
   20.6305  -11.9320   25.9276 H   0  0  0  0  0  0
   21.3051  -16.7679   25.4163 H   0  0  0  0  0  0
   17.2251  -17.0149   24.4660 H   0  0  0  0  0  0
   18.8178  -16.9344   23.7727 H   0  0  0  0  0  0
   16.6920  -14.8413   23.7785 H   0  0  0  0  0  0
   20.3071  -12.5158   20.0503 H   0  0  0  0  0  0
   21.2313  -14.6305   21.0591 H   0  0  0  0  0  0
   18.8647  -10.6565   20.2693 H   0  0  0  0  0  0
   17.5109  -10.7380   21.3174 H   0  0  0  0  0  0
   15.5196  -11.4187   20.5764 H   0  0  0  0  0  0
   15.1724  -12.2993   17.7393 H   0  0  0  0  0  0
   14.1960  -11.0733   18.4133 H   0  0  0  0  0  0
   14.6897  -14.5152   17.9114 H   0  0  0  0  0  0
   11.6595  -16.0125   20.5176 H   0  0  0  0  0  0
   11.3879  -13.8210   21.5133 H   0  0  0  0  0  0
   11.9724  -12.1753   22.9046 H   0  0  0  0  0  0
  1  6  1  0  0  0
  1  2  2  0  0  0
  1 36  1  0  0  0
  2  3  1  0  0  0
  2 37  1  0  0  0
  3  4  2  0  0  0
  3 38  1  0  0  0
  4  5  1  0  0  0
  5  6  2  0  0  0
  5  7  1  0  0  0
  6 39  1  0  0  0
  7  8  1  0  0  0
  7 34  1  0  0  0
  7 35  1  0  0  0
  8  9  1  0  0  0
  8 40  1  0  0  0
  8 41  1  0  0  0
  9 10  1  0  0  0
  9 42  1  0  0  0
 10 16  2  0  0  0
 10 11  1  0  0  0
 11 12  2  0  0  0
 11 13  1  0  0  0
 13 14  1  0  0  0
 13 17  1  0  0  0
 14 15  2  0  0  0
 14 43  1  0  0  0
 15 16  1  0  0  0
 15 44  1  0  0  0
 17 18  1  0  0  0
 17 45  1  0  0  0
 17 46  1  0  0  0
 18 19  2  0  0  0
 18 20  1  0  0  0
 20 21  1  0  0  0
 20 47  1  0  0  0
 21 22  1  0  0  0
 21 48  1  0  0  0
 21 49  1  0  0  0
 22 27  1  0  0  0
 22 23  2  0  0  0
 23 24  1  0  0  0
 23 50  1  0  0  0
 24 25  2  0  0  0
 24 33  1  0  0  0
 25 26  1  0  0  0
 25 51  1  0  0  0
 26 27  2  0  0  0
 26 52  1  0  0  0
 27 28  1  0  0  0
 28 32  1  0  0  0
 28 29  1  0  0  0
 29 30  2  0  0  0
 29 53  1  0  0  0
 30 31  1  0  0  0
 31 32  2  0  0  0
M  END
> <s_m_entry_id>
37741

> <s_m_entry_name>
ligand_docking-pose.88

> <s_m_Source_Path>
/home/csk/Desktop/cluster/DUD-E-result/thrb

> <s_m_Source_File>
ligand_docking-pose.sdf

> <i_m_Source_File_Index>
88

> <i_lp_mmshare_version>
53161

> <i_f3d_flags>
0

> <r_lp_tautomer_probability>
1

> <s_lp_Force_Field>
OPLS_2005

> <r_lp_Energy>
25.870798

> <b_lp_Chiralities_Consistent>
1

> <s_lp_Variant>
167392-1

> <s_i_glide_gridfile>
glide-grid_1ype

> <i_i_glide_lignum>
1985

> <i_i_glide_rotatable_bonds>
10

> <r_i_docking_score>
-7.98043927684579

> <r_i_glide_ligand_efficiency>
-0.228012550767022

> <r_i_glide_ligand_efficiency_sa>
-0.745844172230261

> <r_i_glide_ligand_efficiency_ln>
-1.75188353757463

> <r_i_glide_gscore>
-7.98043927684579

> <r_i_glide_lipo>
-2.93666247600711

> <r_i_glide_hbond>
-0.465798965647525

> <r_i_glide_metal>
0

> <r_i_glide_rewards>
-1.48380809014379

> <r_i_glide_evdw>
-54.0381355285645

> <r_i_glide_ecoul>
-7.35800218582153

> <r_i_glide_erotb>
0.729969611939356

> <r_i_glide_esite>
-0.0185322526852635

> <r_i_glide_emodel>
-87.6121971156601

> <r_i_glide_energy>
-61.396137714386

> <r_i_glide_einternal>
6.21868944168091

> <i_i_glide_confnum>
25

> <i_i_glide_posenum>
301

> <r_i_glide_eff_state_penalty>
0

> <s_user_duplicate_titles>
167392

> <s_m_subgroup_title>
dock_pv

> <s_m_subgroupid>
dock_pv1

> <b_m_subgroup_collapsed>
0

$$$$
19447
                    3D
 Schrodinger Suite 2021-1.
 62 64  0  0  1  0            999 V2000
   14.7393  -11.3556   20.5331 C   0  0  0  0  0  0
   13.8468  -10.8438   21.4684 C   0  0  0  0  0  0
   12.7070  -11.5660   21.8776 C   0  0  0  0  0  0
   12.4881  -12.8170   21.2668 C   0  0  0  0  0  0
   13.3735  -13.3256   20.3169 C   0  0  0  0  0  0
   14.5206  -12.6090   19.9631 C   0  0  0  0  0  0
   15.5310  -13.1928   18.9713 C   0  0  0  0  0  0
   16.8775  -13.3672   19.5446 N   0  0  0  0  0  0
   17.8845  -12.4827   19.4694 C   0  0  0  0  0  0
   17.7821  -11.4530   18.8081 O   0  0  0  0  0  0
   19.1921  -12.7267   20.2726 C   0  0  2  0  0  0
   20.4377  -12.8035   19.3555 C   0  0  0  0  0  0
   20.7618  -14.2283   19.8440 C   0  0  0  0  0  0
   19.5335  -14.1268   20.6761 N   0  0  0  0  0  0
   19.0098  -15.0283   21.5339 C   0  0  0  0  0  0
   19.3414  -16.2149   21.5148 O   0  0  0  0  0  0
   18.0006  -14.5223   22.6116 C   0  0  2  0  0  0
   18.6982  -14.2695   23.9914 C   0  0  0  0  0  0
   19.1688  -15.5473   24.7271 C   0  0  0  0  0  0
   19.5175  -15.2119   26.1903 C   0  0  0  0  0  0
   20.6406  -14.1491   26.2490 C   0  0  0  0  0  0
   20.3376  -12.8910   25.4020 C   0  0  0  0  0  0
   19.8615  -13.2425   23.9728 C   0  0  0  0  0  0
   16.8162  -15.4237   22.7477 N   0  0  2  0  0  0
   15.9686  -15.5321   21.5609 C   0  0  0  0  0  0
   14.8991  -16.6078   21.7384 C   0  0  0  0  0  0
   14.7928  -17.5804   20.9971 O   0  0  0  0  0  0
   14.0161  -16.2824   22.7210 O   0  0  0  0  0  0
   11.7885  -11.0001   22.9142 C   0  0  0  0  0  0
   11.9282   -9.8164   23.3192 N   0  0  0  0  0  0
   10.8163  -11.8530   23.3774 N   0  0  0  0  0  0
   19.2793  -12.0311   21.1071 H   0  0  0  0  0  0
   17.6208  -13.5435   22.3132 H   0  0  0  0  0  0
   15.6108  -10.7745   20.2677 H   0  0  0  0  0  0
   14.0785   -9.8761   21.8903 H   0  0  0  0  0  0
   11.6220  -13.4146   21.5186 H   0  0  0  0  0  0
   13.1726  -14.2923   19.8772 H   0  0  0  0  0  0
   15.5623  -12.5279   18.1040 H   0  0  0  0  0  0
   15.1833  -14.1590   18.6010 H   0  0  0  0  0  0
   17.0294  -14.1915   20.1061 H   0  0  0  0  0  0
   21.1526  -12.0378   19.6577 H   0  0  0  0  0  0
   20.1769  -12.7431   18.2962 H   0  0  0  0  0  0
   21.6141  -14.3295   20.5163 H   0  0  0  0  0  0
   20.6335  -15.0326   19.1215 H   0  0  0  0  0  0
   17.9013  -13.8531   24.6116 H   0  0  0  0  0  0
   19.9946  -16.0253   24.1988 H   0  0  0  0  0  0
   18.3756  -16.2960   24.7180 H   0  0  0  0  0  0
   19.8275  -16.1163   26.7143 H   0  0  0  0  0  0
   18.6341  -14.8448   26.7155 H   0  0  0  0  0  0
   21.5725  -14.5977   25.9010 H   0  0  0  0  0  0
   20.8148  -13.8522   27.2812 H   0  0  0  0  0  0
   21.2162  -12.2538   25.3606 H   0  0  0  0  0  0
   19.6018  -12.2858   25.9165 H   0  0  0  0  0  0
   19.5409  -12.3336   23.4644 H   0  0  0  0  0  0
   20.6862  -13.6119   23.3622 H   0  0  0  0  0  0
   16.2474  -15.0587   23.5095 H   0  0  0  0  0  0
   15.4780  -14.5858   21.3555 H   0  0  0  0  0  0
   16.5590  -15.8198   20.6896 H   0  0  0  0  0  0
   14.2979  -15.5191   23.2469 H   0  0  0  0  0  0
   12.6879   -9.3322   22.8707 H   0  0  0  0  0  0
   10.1158  -11.4876   24.0118 H   0  0  0  0  0  0
   10.8166  -12.8484   23.1877 H   0  0  0  0  0  0
  1  6  1  0  0  0
  1  2  2  0  0  0
  1 34  1  0  0  0
  2  3  1  0  0  0
  2 35  1  0  0  0
  3  4  2  0  0  0
  3 29  1  0  0  0
  4  5  1  0  0  0
  4 36  1  0  0  0
  5  6  2  0  0  0
  5 37  1  0  0  0
  6  7  1  0  0  0
  7  8  1  0  0  0
  7 38  1  0  0  0
  7 39  1  0  0  0
  8  9  1  0  0  0
  8 40  1  0  0  0
  9 10  2  0  0  0
  9 11  1  0  0  0
 11 32  1  0  0  0
 11 14  1  0  0  0
 11 12  1  0  0  0
 12 13  1  0  0  0
 12 41  1  0  0  0
 12 42  1  0  0  0
 13 14  1  0  0  0
 13 43  1  0  0  0
 13 44  1  0  0  0
 14 15  1  0  0  0
 15 16  2  0  0  0
 15 17  1  0  0  0
 17 33  1  0  0  0
 17 18  1  0  0  0
 17 24  1  0  0  0
 18 23  1  0  0  0
 18 19  1  0  0  0
 18 45  1  0  0  0
 19 20  1  0  0  0
 19 46  1  0  0  0
 19 47  1  0  0  0
 20 21  1  0  0  0
 20 48  1  0  0  0
 20 49  1  0  0  0
 21 22  1  0  0  0
 21 50  1  0  0  0
 21 51  1  0  0  0
 22 23  1  0  0  0
 22 52  1  0  0  0
 22 53  1  0  0  0
 23 54  1  0  0  0
 23 55  1  0  0  0
 24 25  1  0  0  0
 24 56  1  0  0  0
 25 26  1  0  0  0
 25 57  1  0  0  0
 25 58  1  0  0  0
 26 27  2  0  0  0
 26 28  1  0  0  0
 28 59  1  0  0  0
 29 30  2  3  0  0
 29 31  1  0  0  0
 30 60  1  0  0  0
 31 61  1  0  0  0
 31 62  1  0  0  0
M  END
> <s_m_entry_id>
37742

> <s_m_entry_name>
ligand_docking-pose.89

> <s_m_Source_Path>
/home/csk/Desktop/cluster/DUD-E-result/thrb

> <s_m_Source_File>
ligand_docking-pose.sdf

> <i_m_Source_File_Index>
89

> <i_lp_mmshare_version>
53161

> <i_f3d_flags>
0

> <r_lp_tautomer_probability>
1

> <s_lp_Force_Field>
OPLS_2005

> <r_lp_Energy>
31.110071

> <b_lp_Chiralities_Consistent>
1

> <s_lp_Variant>
19447-2

> <s_i_glide_gridfile>
glide-grid_1ype

> <i_i_glide_lignum>
1351

> <i_i_glide_rotatable_bonds>
12

> <r_i_docking_score>
-7.97728237810202

> <r_i_glide_ligand_efficiency>
-0.257331689616194

> <r_i_glide_ligand_efficiency_sa>
-0.808376790082181

> <r_i_glide_ligand_efficiency_ln>
-1.79912165060664

> <r_i_glide_gscore>
-7.97728237810202

> <r_i_glide_lipo>
-2.97458491781577

> <r_i_glide_hbond>
-0.64

> <r_i_glide_metal>
0

> <r_i_glide_rewards>
-0.979659904296995

> <r_i_glide_evdw>
-38.2878875732422

> <r_i_glide_ecoul>
-16.4693870544434

> <r_i_glide_erotb>
1.07724330504027

> <r_i_glide_esite>
-0.0754784242009057

> <r_i_glide_emodel>
-77.0194576905107

> <r_i_glide_energy>
-54.7572746276855

> <r_i_glide_einternal>
9.60115528106689

> <i_i_glide_confnum>
213

> <i_i_glide_posenum>
214

> <r_i_glide_eff_state_penalty>
0

> <s_user_duplicate_titles>
19447

> <s_m_subgroup_title>
dock_pv

> <s_m_subgroupid>
dock_pv1

> <b_m_subgroup_collapsed>
0

$$$$
128605
                    3D
 Schrodinger Suite 2021-1.
 62 64  0  0  1  0            999 V2000
   11.8584   -9.7907   23.6349 C   0  0  0  0  0  0
   11.2492  -11.0343   23.4966 C   0  0  0  0  0  0
   11.6074  -11.8525   22.4301 C   0  0  0  0  0  0
   12.5591  -11.4286   21.5003 C   0  0  0  0  0  0
   13.1590  -10.1741   21.6426 C   0  0  0  0  0  0
   12.8102   -9.3569   22.7148 C   0  0  0  0  0  0
   12.9207  -12.3336   20.3207 C   0  0  0  0  0  0
   14.1345  -13.3094   20.5193 C   0  0  1  0  0  0
   14.3758  -14.2270   19.2829 C   0  0  0  0  0  0
   14.6483  -13.5509   17.9307 C   0  0  0  0  0  0
   15.8960  -12.6645   17.8957 C   0  0  0  0  0  0
   15.8511  -11.4844   18.8760 C   0  0  0  0  0  0
   16.1550  -11.8038   20.2799 N   0  0  0  0  0  0
   15.4284  -12.6188   21.1113 C   0  0  0  0  0  0
   15.7798  -12.8203   22.2821 O   0  0  0  0  0  0
   17.4093  -11.2190   20.8076 C   0  0  0  0  0  0
   18.5972  -12.1274   20.4684 C   0  0  0  0  0  0
   19.3376  -11.8500   19.5253 O   0  0  0  0  0  0
   18.7681  -13.2003   21.2550 N   0  0  0  0  0  0
   19.8755  -14.1561   21.1468 C   0  0  1  0  0  0
   21.2254  -13.5663   21.6161 C   0  0  0  0  0  0
   21.2899  -13.4488   23.1530 C   0  0  0  0  0  0
   20.9468  -14.8007   23.8194 C   0  0  0  0  0  0
   19.6183  -15.2608   23.3685 N   0  0  0  0  0  0
   19.5967  -15.4886   21.9072 C   0  0  2  0  0  0
   20.4331  -16.5372   21.4531 O   0  0  0  0  0  0
   18.4396  -15.0187   24.1522 C   0  0  0  0  0  0
   18.4437  -14.6076   25.3404 N   0  0  0  0  0  0
   17.2160  -15.2747   23.5077 N   0  0  0  0  0  0
   13.6701  -14.2734   21.5218 N   0  0  0  0  0  0
   19.9476  -14.4108   20.0848 H   0  0  0  0  0  0
   11.5814   -9.1561   24.4642 H   0  0  0  0  0  0
   10.4937  -11.3564   24.2021 H   0  0  0  0  0  0
   11.1188  -12.8093   22.3205 H   0  0  0  0  0  0
   13.8965   -9.8299   20.9338 H   0  0  0  0  0  0
   13.2809   -8.3925   22.8388 H   0  0  0  0  0  0
   13.0508  -11.7000   19.4484 H   0  0  0  0  0  0
   12.0317  -12.9102   20.0562 H   0  0  0  0  0  0
   13.5074  -14.8718   19.1292 H   0  0  0  0  0  0
   15.1979  -14.9149   19.4950 H   0  0  0  0  0  0
   13.7765  -12.9712   17.6280 H   0  0  0  0  0  0
   14.7514  -14.3259   17.1700 H   0  0  0  0  0  0
   15.9750  -12.2596   16.8865 H   0  0  0  0  0  0
   16.7987  -13.2571   18.0539 H   0  0  0  0  0  0
   14.8565  -11.0532   18.8271 H   0  0  0  0  0  0
   16.4840  -10.6652   18.5352 H   0  0  0  0  0  0
   17.3757  -11.0646   21.8884 H   0  0  0  0  0  0
   17.5882  -10.2222   20.4080 H   0  0  0  0  0  0
   17.9897  -13.4671   21.8430 H   0  0  0  0  0  0
   21.4257  -12.6074   21.1394 H   0  0  0  0  0  0
   22.0158  -14.2298   21.2850 H   0  0  0  0  0  0
   20.6231  -12.6654   23.5202 H   0  0  0  0  0  0
   22.2917  -13.1374   23.4524 H   0  0  0  0  0  0
   21.0004  -14.7129   24.9048 H   0  0  0  0  0  0
   21.6893  -15.5522   23.5471 H   0  0  0  0  0  0
   18.6163  -15.8461   21.5938 H   0  0  0  0  0  0
   21.3473  -16.2518   21.5229 H   0  0  0  0  0  0
   19.3777  -14.4632   25.6893 H   0  0  0  0  0  0
   16.3266  -15.0540   23.9477 H   0  0  0  0  0  0
   17.1536  -15.5861   22.5532 H   0  0  0  0  0  0
   14.1794  -14.0834   22.3862 H   0  0  0  0  0  0
   12.7039  -14.0740   21.7488 H   0  0  0  0  0  0
  1  6  1  0  0  0
  1  2  2  0  0  0
  1 32  1  0  0  0
  2  3  1  0  0  0
  2 33  1  0  0  0
  3  4  2  0  0  0
  3 34  1  0  0  0
  4  5  1  0  0  0
  4  7  1  0  0  0
  5  6  2  0  0  0
  5 35  1  0  0  0
  6 36  1  0  0  0
  7  8  1  0  0  0
  7 37  1  0  0  0
  7 38  1  0  0  0
  8 14  1  0  0  0
  8  9  1  0  0  0
  8 30  1  0  0  0
  9 10  1  0  0  0
  9 39  1  0  0  0
  9 40  1  0  0  0
 10 11  1  0  0  0
 10 41  1  0  0  0
 10 42  1  0  0  0
 11 12  1  0  0  0
 11 43  1  0  0  0
 11 44  1  0  0  0
 12 13  1  0  0  0
 12 45  1  0  0  0
 12 46  1  0  0  0
 13 14  1  0  0  0
 13 16  1  0  0  0
 14 15  2  0  0  0
 16 17  1  0  0  0
 16 47  1  0  0  0
 16 48  1  0  0  0
 17 18  2  0  0  0
 17 19  1  0  0  0
 19 20  1  0  0  0
 19 49  1  0  0  0
 20 31  1  0  0  0
 20 25  1  0  0  0
 20 21  1  0  0  0
 21 22  1  0  0  0
 21 50  1  0  0  0
 21 51  1  0  0  0
 22 23  1  0  0  0
 22 52  1  0  0  0
 22 53  1  0  0  0
 23 24  1  0  0  0
 23 54  1  0  0  0
 23 55  1  0  0  0
 24 25  1  0  0  0
 24 27  1  0  0  0
 25 26  1  0  0  0
 25 56  1  0  0  0
 26 57  1  0  0  0
 27 28  2  3  0  0
 27 29  1  0  0  0
 28 58  1  0  0  0
 29 59  1  0  0  0
 29 60  1  0  0  0
 30 61  1  0  0  0
 30 62  1  0  0  0
M  END
> <s_m_entry_id>
37744

> <s_m_entry_name>
ligand_docking-pose.91

> <s_m_Source_Path>
/home/csk/Desktop/cluster/DUD-E-result/thrb

> <s_m_Source_File>
ligand_docking-pose.sdf

> <i_m_Source_File_Index>
91

> <i_lp_mmshare_version>
53161

> <i_f3d_flags>
0

> <r_lp_tautomer_probability>
1

> <s_lp_Force_Field>
OPLS_2005

> <r_lp_Energy>
49.739476

> <b_lp_Chiralities_Consistent>
1

> <s_lp_Variant>
128605-4

> <s_i_glide_gridfile>
glide-grid_1ype

> <i_i_glide_lignum>
794

> <i_i_glide_rotatable_bonds>
8

> <r_i_docking_score>
-7.96441126755045

> <r_i_glide_ligand_efficiency>
-0.265480375585015

> <r_i_glide_ligand_efficiency_sa>
-0.824909251775372

> <r_i_glide_ligand_efficiency_ln>
-1.80960101919869

> <r_i_glide_gscore>
-7.96441126755045

> <r_i_glide_lipo>
-2.75395023930667

> <r_i_glide_hbond>
-0.788879517648323

> <r_i_glide_metal>
0

> <r_i_glide_rewards>
-1.46092887991461

> <r_i_glide_evdw>
-42.1883201599121

> <r_i_glide_ecoul>
-9.97657299041748

> <r_i_glide_erotb>
0.683281471445277

> <r_i_glide_esite>
-0.0380321455679031

> <r_i_glide_emodel>
-73.404464702613

> <r_i_glide_energy>
-52.1648931503296

> <r_i_glide_einternal>
4.19843816757202

> <i_i_glide_confnum>
170

> <i_i_glide_posenum>
76

> <r_i_glide_eff_state_penalty>
0

> <s_user_duplicate_titles>
128605

> <s_m_subgroup_title>
dock_pv

> <s_m_subgroupid>
dock_pv1

> <b_m_subgroup_collapsed>
0

$$$$
675794
                    3D
 Schrodinger Suite 2021-1.
 58 61  0  0  1  0            999 V2000
   13.4402  -16.3935   17.8585 C   0  0  0  0  0  0
   13.2620  -15.1568   18.7216 C   0  0  0  0  0  0
   12.3329  -15.1592   19.7579 C   0  0  0  0  0  0
   12.1518  -14.0184   20.5352 C   0  0  0  0  0  0
   12.8861  -12.8473   20.2919 C   0  0  0  0  0  0
   13.8456  -12.8495   19.2468 C   0  0  0  0  0  0
   14.0160  -14.0091   18.4774 C   0  0  0  0  0  0
   14.7126  -11.6462   18.8799 C   0  0  0  0  0  0
   15.8058  -11.4522   19.8305 N   0  0  0  0  0  0
   17.1132  -11.5785   19.5519 C   0  0  0  0  0  0
   17.5491  -11.8532   18.4329 O   0  0  0  0  0  0
   18.0839  -11.3773   20.7204 C   0  0  0  0  0  0
   18.5564  -12.6796   21.1927 N   0  0  0  0  0  0
   17.6175  -13.4880   22.0102 C   0  0  0  0  0  0
   18.3691  -14.6244   22.7513 C   0  0  0  0  0  0
   19.5961  -14.9368   22.5198 N   0  0  0  0  0  0
   20.2955  -14.2399   21.5803 C   0  0  0  0  0  0
   19.8377  -13.1407   20.9428 C   0  0  0  0  0  0
   17.6161  -15.3078   23.6928 N   0  0  0  0  0  0
   18.1174  -16.3509   24.5919 C   0  0  0  0  0  0
   18.6405  -15.8314   25.9528 C   0  0  0  0  0  0
   19.9722  -15.0746   25.8437 C   0  0  0  0  0  0
   20.0725  -13.7023   26.1168 C   0  0  0  0  0  0
   21.3109  -13.0745   25.9848 C   0  0  0  0  0  0
   22.4186  -13.8186   25.5762 C   0  0  0  0  0  0
   22.2454  -15.1799   25.3186 C   0  0  0  0  0  0
   21.0486  -15.8087   25.4455 N   0  0  0  0  0  0
   17.7151  -15.0530   26.5163 F   0  0  0  0  0  0
   18.8177  -16.8592   26.7843 F   0  0  0  0  0  0
   12.6188  -11.7351   21.1376 N   0  0  0  0  0  0
   12.2236  -11.7320   22.4543 C   0  0  0  0  0  0
   12.0160  -10.5155   22.8854 N   0  0  0  0  0  0
   12.2833   -9.8025   21.8062 C   0  0  0  0  0  0
   12.6308  -10.4600   20.7222 N   0  0  0  0  0  0
   13.6824  -17.2551   18.4803 H   0  0  0  0  0  0
   14.2346  -16.2720   17.1216 H   0  0  0  0  0  0
   12.5136  -16.6200   17.3298 H   0  0  0  0  0  0
   11.7406  -16.0401   19.9590 H   0  0  0  0  0  0
   11.4112  -14.0535   21.3226 H   0  0  0  0  0  0
   14.7371  -14.0190   17.6727 H   0  0  0  0  0  0
   15.0938  -11.7754   17.8647 H   0  0  0  0  0  0
   14.1167  -10.7371   18.8040 H   0  0  0  0  0  0
   15.5350  -11.2116   20.7728 H   0  0  0  0  0  0
   18.9154  -10.7531   20.3937 H   0  0  0  0  0  0
   17.6084  -10.8294   21.5336 H   0  0  0  0  0  0
   17.0944  -12.8516   22.7216 H   0  0  0  0  0  0
   16.8657  -13.9313   21.3562 H   0  0  0  0  0  0
   21.2990  -14.5899   21.3780 H   0  0  0  0  0  0
   20.4255  -12.5824   20.2296 H   0  0  0  0  0  0
   16.6478  -15.0430   23.8454 H   0  0  0  0  0  0
   17.2839  -17.0249   24.7906 H   0  0  0  0  0  0
   18.8805  -16.9556   24.0993 H   0  0  0  0  0  0
   19.2157  -13.1245   26.4224 H   0  0  0  0  0  0
   21.4059  -12.0192   26.2030 H   0  0  0  0  0  0
   23.3885  -13.3556   25.4722 H   0  0  0  0  0  0
   23.0777  -15.7933   25.0077 H   0  0  0  0  0  0
   12.1057  -12.6511   23.0103 H   0  0  0  0  0  0
   12.1962   -8.7267   21.8120 H   0  0  0  0  0  0
  1  2  1  0  0  0
  1 35  1  0  0  0
  1 36  1  0  0  0
  1 37  1  0  0  0
  2  7  1  0  0  0
  2  3  2  0  0  0
  3  4  1  0  0  0
  3 38  1  0  0  0
  4  5  2  0  0  0
  4 39  1  0  0  0
  5  6  1  0  0  0
  5 30  1  0  0  0
  6  7  2  0  0  0
  6  8  1  0  0  0
  7 40  1  0  0  0
  8  9  1  0  0  0
  8 41  1  0  0  0
  8 42  1  0  0  0
  9 10  1  0  0  0
  9 43  1  0  0  0
 10 11  2  0  0  0
 10 12  1  0  0  0
 12 13  1  0  0  0
 12 44  1  0  0  0
 12 45  1  0  0  0
 13 18  1  0  0  0
 13 14  1  0  0  0
 14 15  1  0  0  0
 14 46  1  0  0  0
 14 47  1  0  0  0
 15 16  2  0  0  0
 15 19  1  0  0  0
 16 17  1  0  0  0
 17 18  2  0  0  0
 17 48  1  0  0  0
 18 49  1  0  0  0
 19 20  1  0  0  0
 19 50  1  0  0  0
 20 21  1  0  0  0
 20 51  1  0  0  0
 20 52  1  0  0  0
 21 22  1  0  0  0
 21 28  1  0  0  0
 21 29  1  0  0  0
 22 27  1  0  0  0
 22 23  2  0  0  0
 23 24  1  0  0  0
 23 53  1  0  0  0
 24 25  2  0  0  0
 24 54  1  0  0  0
 25 26  1  0  0  0
 25 55  1  0  0  0
 26 27  2  0  0  0
 26 56  1  0  0  0
 30 34  1  0  0  0
 30 31  1  0  0  0
 31 32  2  0  0  0
 31 57  1  0  0  0
 32 33  1  0  0  0
 33 34  2  0  0  0
 33 58  1  0  0  0
M  END
> <s_m_entry_id>
37747

> <s_m_entry_name>
ligand_docking-pose.94

> <s_m_Source_Path>
/home/csk/Desktop/cluster/DUD-E-result/thrb

> <s_m_Source_File>
ligand_docking-pose.sdf

> <i_m_Source_File_Index>
94

> <i_lp_mmshare_version>
53161

> <i_f3d_flags>
0

> <r_lp_tautomer_probability>
1

> <s_lp_Force_Field>
OPLS_2005

> <r_lp_Energy>
24.041963

> <b_lp_Chiralities_Consistent>
1

> <s_lp_Variant>
675794-1

> <s_i_glide_gridfile>
glide-grid_1ype

> <i_i_glide_lignum>
2396

> <i_i_glide_rotatable_bonds>
10

> <r_i_docking_score>
-7.93354702343964

> <r_i_glide_ligand_efficiency>
-0.23333961833646

> <r_i_glide_ligand_efficiency_sa>
-0.75592978037982

> <r_i_glide_ligand_efficiency_ln>
-1.75274306593428

> <r_i_glide_gscore>
-7.93354702343964

> <r_i_glide_lipo>
-3.00479270116764

> <r_i_glide_hbond>
-0.32

> <r_i_glide_metal>
0

> <r_i_glide_rewards>
-2.07016588013707

> <r_i_glide_evdw>
-51.3423652648926

> <r_i_glide_ecoul>
-5.25137758255005

> <r_i_glide_erotb>
0.834410973651516

> <r_i_glide_esite>
-0.0181745151593142

> <r_i_glide_emodel>
-81.960153417763

> <r_i_glide_energy>
-56.5937428474426

> <r_i_glide_einternal>
3.47152137756348

> <i_i_glide_confnum>
38

> <i_i_glide_posenum>
65

> <r_i_glide_eff_state_penalty>
0

> <s_user_duplicate_titles>
675794

> <s_m_subgroup_title>
dock_pv

> <s_m_subgroupid>
dock_pv1

> <b_m_subgroup_collapsed>
0

$$$$
167659
                    3D
 Schrodinger Suite 2021-1.
 54 57  0  0  1  0            999 V2000
   24.3898  -17.2985   26.1966 C   0  0  0  0  0  0
   25.4746  -16.7037   25.5552 C   0  0  0  0  0  0
   25.2377  -15.6853   24.6341 C   0  0  0  0  0  0
   23.9798  -15.2825   24.3766 N   0  3  0  0  0  0
   23.8445  -14.3653   23.5214 O   0  5  0  0  0  0
   22.8909  -15.8321   24.9823 C   0  0  0  0  0  0
   23.0943  -16.8681   25.9074 C   0  0  0  0  0  0
   21.4820  -15.3354   24.6299 C   0  0  0  0  0  0
   21.0344  -15.8324   23.2314 C   0  0  0  0  0  0
   19.8336  -15.1487   22.7356 N   0  0  0  0  0  0
   19.8321  -14.1962   21.7241 C   0  0  0  0  0  0
   18.6850  -13.2299   21.7472 C   0  0  0  0  0  0
   17.7403  -13.3169   22.5458 O   0  0  0  0  0  0
   18.8135  -12.2056   20.8167 N   0  0  0  0  0  0
   19.8524  -12.2184   19.9112 C   0  0  0  0  0  0
   20.8108  -13.1699   19.9322 C   0  0  0  0  0  0
   20.8160  -14.1506   20.8862 N   0  0  0  0  0  0
   17.8752  -11.0763   20.8893 C   0  0  0  0  0  0
   16.4970  -11.4188   20.3138 C   0  0  0  0  0  0
   16.3244  -12.3627   19.5427 O   0  0  0  0  0  0
   15.5251  -10.5973   20.7195 N   0  0  0  0  0  0
   14.1200  -10.6975   20.3461 C   0  0  0  0  0  0
   13.1992  -10.6295   21.5535 C   0  0  0  0  0  0
   13.2025   -9.4497   22.3043 C   0  0  0  0  0  0
   12.3626   -9.2942   23.4007 C   0  0  0  0  0  0
   11.4830  -10.3143   23.7445 C   0  0  0  0  0  0
   11.4694  -11.4971   23.0074 C   0  0  0  0  0  0
   12.3399  -11.6781   21.9246 C   0  0  0  0  0  0
   12.3670  -12.9196   21.2589 N   0  0  0  0  0  0
   12.8357  -14.1239   21.7131 C   0  0  0  0  0  0
   12.7750  -15.0396   20.7804 N   0  0  0  0  0  0
   12.2582  -14.3834   19.6702 N   0  0  0  0  0  0
   12.0160  -13.0582   19.9745 N   0  0  0  0  0  0
   12.4156   -7.8413   24.3282 Cl  0  0  0  0  0  0
   21.4628  -14.0033   24.7364 F   0  0  0  0  0  0
   20.6110  -15.7831   25.5386 F   0  0  0  0  0  0
   24.5513  -18.0898   26.9129 H   0  0  0  0  0  0
   26.4833  -17.0249   25.7714 H   0  0  0  0  0  0
   26.0158  -15.1722   24.0893 H   0  0  0  0  0  0
   22.2595  -17.3486   26.3954 H   0  0  0  0  0  0
   20.8309  -16.9011   23.2797 H   0  0  0  0  0  0
   21.8614  -15.7287   22.5262 H   0  0  0  0  0  0
   19.0333  -15.1469   23.3566 H   0  0  0  0  0  0
   19.7891  -11.4540   19.1549 H   0  0  0  0  0  0
   21.6028  -13.1678   19.1990 H   0  0  0  0  0  0
   18.2884  -10.2141   20.3720 H   0  0  0  0  0  0
   17.7625  -10.7609   21.9235 H   0  0  0  0  0  0
   15.7879   -9.7988   21.2794 H   0  0  0  0  0  0
   13.9428  -11.5608   19.7090 H   0  0  0  0  0  0
   13.8433   -9.8530   19.7248 H   0  0  0  0  0  0
   13.8843   -8.6530   22.0495 H   0  0  0  0  0  0
   10.8156  -10.1992   24.5851 H   0  0  0  0  0  0
   10.7583  -12.2530   23.2936 H   0  0  0  0  0  0
   13.2072  -14.2296   22.7181 H   0  0  0  0  0  0
  1  7  1  0  0  0
  1  2  2  0  0  0
  1 37  1  0  0  0
  2  3  1  0  0  0
  2 38  1  0  0  0
  3  4  2  0  0  0
  3 39  1  0  0  0
  4  5  1  0  0  0
  4  6  1  0  0  0
  6  7  2  0  0  0
  6  8  1  0  0  0
  7 40  1  0  0  0
  8  9  1  0  0  0
  8 35  1  0  0  0
  8 36  1  0  0  0
  9 10  1  0  0  0
  9 41  1  0  0  0
  9 42  1  0  0  0
 10 11  1  0  0  0
 10 43  1  0  0  0
 11 17  2  0  0  0
 11 12  1  0  0  0
 12 13  2  0  0  0
 12 14  1  0  0  0
 14 15  1  0  0  0
 14 18  1  0  0  0
 15 16  2  0  0  0
 15 44  1  0  0  0
 16 17  1  0  0  0
 16 45  1  0  0  0
 18 19  1  0  0  0
 18 46  1  0  0  0
 18 47  1  0  0  0
 19 20  2  0  0  0
 19 21  1  0  0  0
 21 22  1  0  0  0
 21 48  1  0  0  0
 22 23  1  0  0  0
 22 49  1  0  0  0
 22 50  1  0  0  0
 23 28  1  0  0  0
 23 24  2  0  0  0
 24 25  1  0  0  0
 24 51  1  0  0  0
 25 26  2  0  0  0
 25 34  1  0  0  0
 26 27  1  0  0  0
 26 52  1  0  0  0
 27 28  2  0  0  0
 27 53  1  0  0  0
 28 29  1  0  0  0
 29 33  1  0  0  0
 29 30  1  0  0  0
 30 31  2  0  0  0
 30 54  1  0  0  0
 31 32  1  0  0  0
 32 33  2  0  0  0
M  CHG  2   4   1   5  -1
M  END
> <s_m_entry_id>
37748

> <s_m_entry_name>
ligand_docking-pose.95

> <s_m_Source_Path>
/home/csk/Desktop/cluster/DUD-E-result/thrb

> <s_m_Source_File>
ligand_docking-pose.sdf

> <i_m_Source_File_Index>
95

> <i_lp_mmshare_version>
53161

> <i_f3d_flags>
0

> <r_lp_tautomer_probability>
1

> <s_lp_Force_Field>
OPLS_2005

> <r_lp_Energy>
37.775949

> <b_lp_Chiralities_Consistent>
1

> <s_lp_Variant>
167659-1

> <s_i_glide_gridfile>
glide-grid_1ype

> <i_i_glide_lignum>
2048

> <i_i_glide_rotatable_bonds>
10

> <r_i_docking_score>
-7.93083270916584

> <r_i_glide_ligand_efficiency>
-0.22030090858794

> <r_i_glide_ligand_efficiency_sa>
-0.727417572153859

> <r_i_glide_ligand_efficiency_ln>
-1.73029343080171

> <r_i_glide_gscore>
-7.93083270916584

> <r_i_glide_lipo>
-2.7941670885256

> <r_i_glide_hbond>
-0.146528925448172

> <r_i_glide_metal>
0

> <r_i_glide_rewards>
-1.3497487348055

> <r_i_glide_evdw>
-53.5809326171875

> <r_i_glide_ecoul>
-11.0029401779175

> <r_i_glide_erotb>
0.689099697160432

> <r_i_glide_esite>
0

> <r_i_glide_emodel>
-88.2341720033703

> <r_i_glide_energy>
-64.583872795105

> <r_i_glide_einternal>
10.1743402481079

> <i_i_glide_confnum>
10

> <i_i_glide_posenum>
211

> <r_i_glide_eff_state_penalty>
0

> <s_user_duplicate_titles>
167659

> <s_m_subgroup_title>
dock_pv

> <s_m_subgroupid>
dock_pv1

> <b_m_subgroup_collapsed>
0

$$$$
167596
                    3D
 Schrodinger Suite 2021-1.
 55 58  0  0  1  0            999 V2000
   19.3536  -13.6515   20.3076 C   0  0  0  0  0  0
   20.6908  -13.3450   20.5360 C   0  0  0  0  0  0
   21.2154  -13.4544   21.8201 C   0  0  0  0  0  0
   20.4116  -13.8660   22.8932 C   0  0  0  0  0  0
   19.0702  -14.2456   22.6531 C   0  0  0  0  0  0
   18.5545  -14.1037   21.3545 C   0  0  0  0  0  0
   18.1970  -14.9046   23.7387 C   0  0  0  0  0  0
   17.2167  -15.8901   23.2633 N   0  0  0  0  0  0
   17.5173  -17.0343   22.6167 C   0  0  0  0  0  0
   18.6690  -17.4269   22.4477 O   0  0  0  0  0  0
   16.3540  -17.8667   22.0478 C   0  0  0  0  0  0
   15.5738  -17.0386   21.0899 N   0  0  0  0  0  0
   15.9272  -16.8560   19.7577 C   0  0  0  0  0  0
   15.2858  -15.9544   18.9722 C   0  0  0  0  0  0
   14.2816  -15.1592   19.4508 N   0  0  0  0  0  0
   13.8763  -15.3549   20.6645 C   0  0  0  0  0  0
   14.4591  -16.3862   21.5959 C   0  0  0  0  0  0
   14.0160  -16.6335   22.7208 O   0  0  0  0  0  0
   12.8628  -14.5392   21.1767 N   0  0  0  0  0  0
   12.2821  -13.3856   20.4655 C   0  0  0  0  0  0
   13.0362  -12.0284   20.6449 C   0  0  0  0  0  0
   12.5861  -11.1522   21.8353 C   0  0  0  0  0  0
   11.6147  -11.5652   22.7643 C   0  0  0  0  0  0
   11.2168  -10.7088   23.7930 C   0  0  0  0  0  0
   11.8093   -9.4553   23.9213 C   0  0  0  0  0  0
   12.7870   -9.0770   23.0030 C   0  0  0  0  0  0
   13.1363   -9.9134   22.0007 N   0  3  0  0  0  0
   14.0166   -9.4933   21.2006 O   0  5  0  0  0  0
   14.3529  -12.2246   20.7625 F   0  0  0  0  0  0
   12.8506  -11.3144   19.5320 F   0  0  0  0  0  0
   17.2159  -17.8783   19.1077 Cl  0  0  0  0  0  0
   20.9760  -13.8435   24.1915 N   0  0  0  0  0  0
   20.4500  -13.3524   25.3607 C   0  0  0  0  0  0
   21.3153  -13.4445   26.3357 N   0  0  0  0  0  0
   22.3543  -13.9892   25.7251 C   0  0  0  0  0  0
   22.2323  -14.2449   24.4402 N   0  0  0  0  0  0
   18.9420  -13.5647   19.3133 H   0  0  0  0  0  0
   21.3215  -13.0166   19.7230 H   0  0  0  0  0  0
   22.2492  -13.1835   21.9801 H   0  0  0  0  0  0
   17.5301  -14.3717   21.1404 H   0  0  0  0  0  0
   18.8215  -15.3947   24.4882 H   0  0  0  0  0  0
   17.6501  -14.1179   24.2594 H   0  0  0  0  0  0
   16.2428  -15.6634   23.4313 H   0  0  0  0  0  0
   16.7449  -18.7564   21.5554 H   0  0  0  0  0  0
   15.7546  -18.2332   22.8819 H   0  0  0  0  0  0
   15.5606  -15.8313   17.9334 H   0  0  0  0  0  0
   12.5792  -14.6592   22.1425 H   0  0  0  0  0  0
   12.2522  -13.6177   19.3993 H   0  0  0  0  0  0
   11.2301  -13.2790   20.7328 H   0  0  0  0  0  0
   11.1387  -12.5339   22.7127 H   0  0  0  0  0  0
   10.4456  -11.0177   24.4882 H   0  0  0  0  0  0
   11.5103   -8.7926   24.7215 H   0  0  0  0  0  0
   13.3121   -8.1347   23.0404 H   0  0  0  0  0  0
   19.4613  -12.9209   25.3977 H   0  0  0  0  0  0
   23.2687  -14.2085   26.2603 H   0  0  0  0  0  0
  1  6  1  0  0  0
  1  2  2  0  0  0
  1 37  1  0  0  0
  2  3  1  0  0  0
  2 38  1  0  0  0
  3  4  2  0  0  0
  3 39  1  0  0  0
  4  5  1  0  0  0
  4 32  1  0  0  0
  5  6  2  0  0  0
  5  7  1  0  0  0
  6 40  1  0  0  0
  7  8  1  0  0  0
  7 41  1  0  0  0
  7 42  1  0  0  0
  8  9  1  0  0  0
  8 43  1  0  0  0
  9 10  2  0  0  0
  9 11  1  0  0  0
 11 12  1  0  0  0
 11 44  1  0  0  0
 11 45  1  0  0  0
 12 17  1  0  0  0
 12 13  1  0  0  0
 13 14  2  0  0  0
 13 31  1  0  0  0
 14 15  1  0  0  0
 14 46  1  0  0  0
 15 16  2  0  0  0
 16 17  1  0  0  0
 16 19  1  0  0  0
 17 18  2  0  0  0
 19 20  1  0  0  0
 19 47  1  0  0  0
 20 21  1  0  0  0
 20 48  1  0  0  0
 20 49  1  0  0  0
 21 22  1  0  0  0
 21 29  1  0  0  0
 21 30  1  0  0  0
 22 27  1  0  0  0
 22 23  2  0  0  0
 23 24  1  0  0  0
 23 50  1  0  0  0
 24 25  2  0  0  0
 24 51  1  0  0  0
 25 26  1  0  0  0
 25 52  1  0  0  0
 26 27  2  0  0  0
 26 53  1  0  0  0
 27 28  1  0  0  0
 32 36  1  0  0  0
 32 33  1  0  0  0
 33 34  2  0  0  0
 33 54  1  0  0  0
 34 35  1  0  0  0
 35 36  2  0  0  0
 35 55  1  0  0  0
M  CHG  2  27   1  28  -1
M  END
> <s_m_entry_id>
37750

> <s_m_entry_name>
ligand_docking-pose.97

> <s_m_Source_Path>
/home/csk/Desktop/cluster/DUD-E-result/thrb

> <s_m_Source_File>
ligand_docking-pose.sdf

> <i_m_Source_File_Index>
97

> <i_lp_mmshare_version>
53161

> <i_f3d_flags>
0

> <r_lp_tautomer_probability>
1

> <s_lp_Force_Field>
OPLS_2005

> <r_lp_Energy>
36.511794

> <b_lp_Chiralities_Consistent>
1

> <s_lp_Variant>
167596-1

> <s_i_glide_gridfile>
glide-grid_1ype

> <i_i_glide_lignum>
1373

> <i_i_glide_rotatable_bonds>
10

> <r_i_docking_score>
-7.91624881811483

> <r_i_glide_ligand_efficiency>
-0.21989580050319

> <r_i_glide_ligand_efficiency_sa>
-0.726079934731672

> <r_i_glide_ligand_efficiency_ln>
-1.72711161978558

> <r_i_glide_gscore>
-7.91624881811483

> <r_i_glide_lipo>
-2.26845336261099

> <r_i_glide_hbond>
-0.569510222579418

> <r_i_glide_metal>
0

> <r_i_glide_rewards>
-1.93816013362983

> <r_i_glide_evdw>
-46.6692352294922

> <r_i_glide_ecoul>
-9.87465476989746

> <r_i_glide_erotb>
0.691522781414685

> <r_i_glide_esite>
-0.0169879037500475

> <r_i_glide_emodel>
-79.5821900052763

> <r_i_glide_energy>
-56.5438899993896

> <r_i_glide_einternal>
9.44314861297607

> <i_i_glide_confnum>
36

> <i_i_glide_posenum>
88

> <r_i_glide_eff_state_penalty>
0

> <s_user_duplicate_titles>
167596

> <s_m_subgroup_title>
dock_pv

> <s_m_subgroupid>
dock_pv1

> <b_m_subgroup_collapsed>
0

$$$$
435387
                    3D
 Schrodinger Suite 2021-1.
 77 80  0  0  1  0            999 V2000
   17.2387  -11.9125   21.7619 C   0  0  0  0  0  0
   17.8104  -13.0855   20.9721 C   0  0  2  0  0  0
   18.7739  -13.8922   21.8688 C   0  0  0  0  0  0
   18.3570  -14.5327   22.8366 O   0  0  0  0  0  0
   20.0757  -13.8415   21.4952 N   0  0  0  0  0  0
   20.5412  -13.0224   20.3615 C   0  0  0  0  0  0
   19.5336  -12.6533   19.2485 C   0  0  0  0  0  0
   19.9473  -12.2530   18.1573 O   0  0  0  0  0  0
   18.2105  -12.7738   19.5744 N   0  0  0  0  0  0
   17.2310  -12.1950   18.5968 C   0  0  0  0  0  0
   15.8627  -12.9060   18.4521 C   0  0  0  0  0  0
   15.3273  -12.9061   17.3438 O   0  0  0  0  0  0
   15.2482  -13.4119   19.5440 N   0  0  0  0  0  0
   13.9442  -14.0997   19.6601 C   0  0  1  0  0  0
   12.7323  -13.1491   19.3937 C   0  0  0  0  0  0
   12.6417  -11.8422   20.2324 C   0  0  2  0  0  0
   13.4765  -10.6529   19.7088 C   0  0  0  0  0  0
   13.2649   -9.3911   20.5635 C   0  0  0  0  0  0
   13.4059   -9.6834   22.0602 C   0  0  0  0  0  0
   12.4474  -10.7308   22.4396 N   0  0  0  0  0  0
   12.7842  -12.0023   21.7692 C   0  0  0  0  0  0
   11.6187  -10.5894   23.5987 C   0  0  0  0  0  0
   11.5974   -9.5601   24.3209 N   0  0  0  0  0  0
   10.8160  -11.6955   23.9210 N   0  0  0  0  0  0
   13.9444  -15.4211   18.8514 C   0  0  0  0  0  0
   14.9907  -15.8576   18.3586 O   0  0  0  0  0  0
   12.7107  -16.2084   18.7190 C   0  0  0  0  0  0
   11.6158  -16.0904   19.4318 N   0  0  0  0  0  0
   10.6641  -16.9104   19.0395 C   0  0  0  0  0  0
   10.9839  -17.7766   18.0058 C   0  0  0  0  0  0
   12.6223  -17.4774   17.5214 S   0  0  0  0  0  0
   21.0754  -14.3911   22.4215 C   0  0  0  0  0  0
   21.4624  -13.4117   23.5490 C   0  0  0  0  0  0
   22.1613  -14.0777   24.7491 C   0  0  0  0  0  0
   23.3489  -14.9359   24.3465 C   0  0  0  0  0  0
   24.5448  -14.3280   23.9631 C   0  0  0  0  0  0
   25.6160  -15.1155   23.5564 C   0  0  0  0  0  0
   25.4945  -16.5035   23.5416 C   0  0  0  0  0  0
   24.3053  -17.1156   23.9289 C   0  0  0  0  0  0
   23.2290  -16.3288   24.3320 C   0  0  0  0  0  0
   17.0463  -13.8522   20.9065 H   0  0  0  0  0  0
   13.8764  -14.4063   20.7039 H   0  0  0  0  0  0
   11.6212  -11.4778   20.1223 H   0  0  0  0  0  0
   16.8439  -12.2532   22.7209 H   0  0  0  0  0  0
   18.0103  -11.1561   21.9211 H   0  0  0  0  0  0
   16.4194  -11.4489   21.2142 H   0  0  0  0  0  0
   21.3396  -13.5759   19.8661 H   0  0  0  0  0  0
   20.9864  -12.0958   20.7215 H   0  0  0  0  0  0
   17.6593  -12.2128   17.5929 H   0  0  0  0  0  0
   17.0442  -11.1485   18.8384 H   0  0  0  0  0  0
   15.7158  -13.2766   20.4285 H   0  0  0  0  0  0
   11.7878  -13.6591   19.5633 H   0  0  0  0  0  0
   12.7373  -12.8837   18.3370 H   0  0  0  0  0  0
   13.2167  -10.4533   18.6690 H   0  0  0  0  0  0
   14.5339  -10.8979   19.7065 H   0  0  0  0  0  0
   12.2966   -8.9296   20.3578 H   0  0  0  0  0  0
   14.0156   -8.6442   20.3210 H   0  0  0  0  0  0
   13.2756   -8.7566   22.6192 H   0  0  0  0  0  0
   14.4157  -10.0298   22.2722 H   0  0  0  0  0  0
   13.7909  -12.3270   22.0345 H   0  0  0  0  0  0
   12.1383  -12.8183   22.0966 H   0  0  0  0  0  0
   12.2282   -8.8467   23.9947 H   0  0  0  0  0  0
   10.1187  -11.6324   24.6539 H   0  0  0  0  0  0
   10.7516  -12.5181   23.3425 H   0  0  0  0  0  0
    9.6984  -16.8578   19.5209 H   0  0  0  0  0  0
   10.3672  -18.5200   17.5205 H   0  0  0  0  0  0
   20.6844  -15.3067   22.8715 H   0  0  0  0  0  0
   21.9682  -14.7184   21.8869 H   0  0  0  0  0  0
   22.1186  -12.6530   23.1238 H   0  0  0  0  0  0
   20.5833  -12.8815   23.9178 H   0  0  0  0  0  0
   22.4971  -13.3166   25.4566 H   0  0  0  0  0  0
   21.4415  -14.6830   25.3034 H   0  0  0  0  0  0
   24.6452  -13.2516   23.9739 H   0  0  0  0  0  0
   26.5474  -14.6540   23.2635 H   0  0  0  0  0  0
   26.3342  -17.1086   23.2324 H   0  0  0  0  0  0
   24.2173  -18.1922   23.9151 H   0  0  0  0  0  0
   22.3030  -16.8031   24.6236 H   0  0  0  0  0  0
  1  2  1  0  0  0
  1 44  1  0  0  0
  1 45  1  0  0  0
  1 46  1  0  0  0
  2 41  1  0  0  0
  2  9  1  0  0  0
  2  3  1  0  0  0
  3  4  2  0  0  0
  3  5  1  0  0  0
  5  6  1  0  0  0
  5 32  1  0  0  0
  6  7  1  0  0  0
  6 47  1  0  0  0
  6 48  1  0  0  0
  7  8  2  0  0  0
  7  9  1  0  0  0
  9 10  1  0  0  0
 10 11  1  0  0  0
 10 49  1  0  0  0
 10 50  1  0  0  0
 11 12  2  0  0  0
 11 13  1  0  0  0
 13 14  1  0  0  0
 13 51  1  0  0  0
 14 42  1  0  0  0
 14 15  1  0  0  0
 14 25  1  0  0  0
 15 16  1  0  0  0
 15 52  1  0  0  0
 15 53  1  0  0  0
 16 43  1  0  0  0
 16 21  1  0  0  0
 16 17  1  0  0  0
 17 18  1  0  0  0
 17 54  1  0  0  0
 17 55  1  0  0  0
 18 19  1  0  0  0
 18 56  1  0  0  0
 18 57  1  0  0  0
 19 20  1  0  0  0
 19 58  1  0  0  0
 19 59  1  0  0  0
 20 21  1  0  0  0
 20 22  1  0  0  0
 21 60  1  0  0  0
 21 61  1  0  0  0
 22 23  2  3  0  0
 22 24  1  0  0  0
 23 62  1  0  0  0
 24 63  1  0  0  0
 24 64  1  0  0  0
 25 26  2  0  0  0
 25 27  1  0  0  0
 27 31  1  0  0  0
 27 28  2  0  0  0
 28 29  1  0  0  0
 29 30  2  0  0  0
 29 65  1  0  0  0
 30 31  1  0  0  0
 30 66  1  0  0  0
 32 33  1  0  0  0
 32 67  1  0  0  0
 32 68  1  0  0  0
 33 34  1  0  0  0
 33 69  1  0  0  0
 33 70  1  0  0  0
 34 35  1  0  0  0
 34 71  1  0  0  0
 34 72  1  0  0  0
 35 40  1  0  0  0
 35 36  2  0  0  0
 36 37  1  0  0  0
 36 73  1  0  0  0
 37 38  2  0  0  0
 37 74  1  0  0  0
 38 39  1  0  0  0
 38 75  1  0  0  0
 39 40  2  0  0  0
 39 76  1  0  0  0
 40 77  1  0  0  0
M  END
> <s_m_entry_id>
37751

> <s_m_entry_name>
ligand_docking-pose.98

> <s_m_Source_Path>
/home/csk/Desktop/cluster/DUD-E-result/thrb

> <s_m_Source_File>
ligand_docking-pose.sdf

> <i_m_Source_File_Index>
98

> <i_lp_mmshare_version>
53161

> <i_f3d_flags>
0

> <r_lp_tautomer_probability>
0.99990000499975

> <s_lp_Force_Field>
OPLS_2005

> <r_lp_Energy>
32.546896

> <b_lp_Chiralities_Consistent>
1

> <s_lp_Variant>
435387-2

> <s_i_glide_gridfile>
glide-grid_1ype

> <i_i_glide_lignum>
3751

> <i_i_glide_rotatable_bonds>
13

> <r_i_docking_score>
-7.90567163293328

> <r_i_glide_ligand_efficiency>
-0.197641790823332

> <r_i_glide_ligand_efficiency_sa>
-0.675925415900874

> <r_i_glide_ligand_efficiency_ln>
-1.68604710577428

> <r_i_glide_gscore>
-7.90567163293328

> <r_i_glide_lipo>
-2.96891222148438

> <r_i_glide_hbond>
-0.316095580605397

> <r_i_glide_metal>
0

> <r_i_glide_rewards>
-1.26567481166533

> <r_i_glide_evdw>
-57.1391220092773

> <r_i_glide_ecoul>
-6.55439949035645

> <r_i_glide_erotb>
0.558819632385687

> <r_i_glide_esite>
-0.0736926275465278

> <r_i_glide_emodel>
-84.5750577640953

> <r_i_glide_energy>
-63.6935214996338

> <r_i_glide_einternal>
18.0137901306152

> <i_i_glide_confnum>
10

> <i_i_glide_posenum>
111

> <r_i_glide_eff_state_penalty>
0

> <s_user_duplicate_titles>
435387

> <s_m_subgroup_title>
dock_pv

> <s_m_subgroupid>
dock_pv1

> <b_m_subgroup_collapsed>
0

$$$$
425540
                    3D
 Schrodinger Suite 2021-1.
 54 55  0  0  1  0            999 V2000
   23.6893  -15.3684   24.6973 C   0  0  0  0  0  0
   22.3535  -14.7887   25.1220 C   0  0  0  0  0  0
   22.2570  -13.4533   25.5206 C   0  0  0  0  0  0
   21.0136  -12.9613   25.9204 C   0  0  0  0  0  0
   19.8933  -13.7240   25.9381 N   0  0  0  0  0  0
   19.9946  -15.0309   25.5698 C   0  0  0  0  0  0
   21.2091  -15.5926   25.1491 C   0  0  0  0  0  0
   18.7029  -15.8529   25.6641 C   0  0  0  0  0  0
   17.6221  -15.4074   24.6508 C   0  0  0  0  0  0
   17.8843  -15.7953   23.2623 N   0  0  0  0  0  0
   18.5062  -14.8918   22.3861 C   0  0  0  0  0  0
   19.6316  -15.3253   21.6857 C   0  0  0  0  0  0
   20.2232  -14.5128   20.7218 C   0  0  0  0  0  0
   19.6957  -13.2498   20.4374 C   0  0  0  0  0  0
   18.5706  -12.7852   21.1531 C   0  0  0  0  0  0
   17.9670  -13.6273   22.1024 C   0  0  0  0  0  0
   16.8316  -13.2169   22.7211 F   0  0  0  0  0  0
   17.9799  -11.3824   20.9478 C   0  0  0  0  0  0
   16.7672  -11.3724   20.0107 C   0  0  0  0  0  0
   16.9271  -11.4524   18.7927 O   0  0  0  0  0  0
   15.5694  -11.2401   20.6021 N   0  0  0  0  0  0
   14.2711  -11.0848   19.9459 C   0  0  0  0  0  0
   13.4949   -9.8582   20.4896 C   0  0  0  0  0  0
   13.3338   -9.8970   21.9060 O   0  0  0  0  0  0
   12.0165  -10.3408   22.2573 N   0  0  0  0  0  0
   11.8853  -11.6883   22.6605 C   0  0  0  0  0  0
   12.6133  -12.6527   22.3207 N   0  0  0  0  0  0
   10.8135  -11.8530   23.5376 N   0  0  0  0  0  0
   20.3244  -12.4711   19.3739 C   0  0  0  0  0  0
   20.8166  -11.8538   18.5275 N   0  0  0  0  0  0
   18.2317  -15.7211   26.9059 F   0  0  0  0  0  0
   18.9707  -17.1534   25.5067 F   0  0  0  0  0  0
   23.7611  -15.4061   23.6105 H   0  0  0  0  0  0
   24.5236  -14.7870   25.0936 H   0  0  0  0  0  0
   23.8038  -16.3821   25.0820 H   0  0  0  0  0  0
   23.1248  -12.8099   25.5206 H   0  0  0  0  0  0
   20.8984  -11.9335   26.2367 H   0  0  0  0  0  0
   21.2695  -16.6312   24.8587 H   0  0  0  0  0  0
   17.4483  -14.3354   24.7421 H   0  0  0  0  0  0
   16.6747  -15.8682   24.9315 H   0  0  0  0  0  0
   18.1124  -16.7710   23.1313 H   0  0  0  0  0  0
   20.0485  -16.3038   21.8750 H   0  0  0  0  0  0
   21.0882  -14.8870   20.1886 H   0  0  0  0  0  0
   18.7198  -10.6763   20.5720 H   0  0  0  0  0  0
   17.7010  -10.9785   21.9206 H   0  0  0  0  0  0
   15.5278  -11.3155   21.6074 H   0  0  0  0  0  0
   13.7028  -11.9972   20.1158 H   0  0  0  0  0  0
   14.3686  -11.0273   18.8604 H   0  0  0  0  0  0
   12.5532   -9.7248   19.9504 H   0  0  0  0  0  0
   14.0668   -8.9487   20.3218 H   0  0  0  0  0  0
   11.6009   -9.6173   22.8228 H   0  0  0  0  0  0
   12.2860  -13.5098   22.7461 H   0  0  0  0  0  0
   10.5397  -12.8036   23.7602 H   0  0  0  0  0  0
   10.0008  -11.2578   23.4257 H   0  0  0  0  0  0
  1  2  1  0  0  0
  1 33  1  0  0  0
  1 34  1  0  0  0
  1 35  1  0  0  0
  2  7  1  0  0  0
  2  3  2  0  0  0
  3  4  1  0  0  0
  3 36  1  0  0  0
  4  5  2  0  0  0
  4 37  1  0  0  0
  5  6  1  0  0  0
  6  7  2  0  0  0
  6  8  1  0  0  0
  7 38  1  0  0  0
  8  9  1  0  0  0
  8 31  1  0  0  0
  8 32  1  0  0  0
  9 10  1  0  0  0
  9 39  1  0  0  0
  9 40  1  0  0  0
 10 11  1  0  0  0
 10 41  1  0  0  0
 11 16  1  0  0  0
 11 12  2  0  0  0
 12 13  1  0  0  0
 12 42  1  0  0  0
 13 14  2  0  0  0
 13 43  1  0  0  0
 14 15  1  0  0  0
 14 29  1  0  0  0
 15 16  2  0  0  0
 15 18  1  0  0  0
 16 17  1  0  0  0
 18 19  1  0  0  0
 18 44  1  0  0  0
 18 45  1  0  0  0
 19 20  2  0  0  0
 19 21  1  0  0  0
 21 22  1  0  0  0
 21 46  1  0  0  0
 22 23  1  0  0  0
 22 47  1  0  0  0
 22 48  1  0  0  0
 23 24  1  0  0  0
 23 49  1  0  0  0
 23 50  1  0  0  0
 24 25  1  0  0  0
 25 26  1  0  0  0
 25 51  1  0  0  0
 26 27  2  3  0  0
 26 28  1  0  0  0
 27 52  1  0  0  0
 28 53  1  0  0  0
 28 54  1  0  0  0
 29 30  3  0  0  0
M  END
> <s_m_entry_id>
37752

> <s_m_entry_name>
ligand_docking-pose.99

> <s_m_Source_Path>
/home/csk/Desktop/cluster/DUD-E-result/thrb

> <s_m_Source_File>
ligand_docking-pose.sdf

> <i_m_Source_File_Index>
99

> <i_lp_mmshare_version>
53161

> <i_f3d_flags>
0

> <r_lp_tautomer_probability>
1

> <s_lp_Force_Field>
OPLS_2005

> <r_lp_Energy>
6.23673

> <b_lp_Chiralities_Consistent>
1

> <s_lp_Variant>
425540-1

> <s_i_glide_gridfile>
glide-grid_1ype

> <i_i_glide_lignum>
2860

> <i_i_glide_rotatable_bonds>
12

> <r_i_docking_score>
-7.89987048763339

> <r_i_glide_ligand_efficiency>
-0.246870952738543

> <r_i_glide_ligand_efficiency_sa>
-0.783766419249669

> <r_i_glide_ligand_efficiency_ln>
-1.76899634451753

> <r_i_glide_gscore>
-7.89987048763339

> <r_i_glide_lipo>
-2.71831798467468

> <r_i_glide_hbond>
-0.774430001251617

> <r_i_glide_metal>
0

> <r_i_glide_rewards>
-1.52569087814658

> <r_i_glide_evdw>
-52.0341300964355

> <r_i_glide_ecoul>
-9.26351737976074

> <r_i_glide_erotb>
1.19062123660322

> <r_i_glide_esite>
-0.0808187483778446

> <r_i_glide_emodel>
-86.6765491604565

> <r_i_glide_energy>
-61.2976474761963

> <r_i_glide_einternal>
9.44881725311279

> <i_i_glide_confnum>
348

> <i_i_glide_posenum>
291

> <r_i_glide_eff_state_penalty>
0

> <s_user_duplicate_titles>
425540

> <s_m_subgroup_title>
dock_pv

> <s_m_subgroupid>
dock_pv1

> <b_m_subgroup_collapsed>
0

$$$$
347129
                    3D
 Schrodinger Suite 2021-1.
 66 68  0  0  1  0            999 V2000
   14.2769  -10.3575   20.7312 C   0  0  0  0  0  0
   13.5684   -9.7920   21.7881 C   0  0  0  0  0  0
   12.4816  -10.4897   22.3450 C   0  0  0  0  0  0
   12.0849  -11.6893   21.8152 N   0  0  0  0  0  0
   12.7805  -12.2238   20.7805 C   0  0  0  0  0  0
   13.8992  -11.6022   20.2229 C   0  0  0  0  0  0
   14.7397  -12.2819   19.1542 C   0  0  0  0  0  0
   16.1131  -12.4289   19.6271 N   0  0  0  0  0  0
   17.2369  -11.9932   19.0372 C   0  0  0  0  0  0
   17.2263  -11.4530   17.9293 O   0  0  0  0  0  0
   18.5669  -12.1217   19.8425 C   0  0  2  0  0  0
   19.7860  -12.2864   18.9108 C   0  0  0  0  0  0
   20.6538  -13.2998   19.6189 C   0  0  0  0  0  0
   19.7016  -14.1298   20.3211 N   0  0  2  0  0  0
   18.6538  -13.2914   20.7580 N   0  0  0  0  0  0
   17.9564  -13.4944   21.9107 C   0  0  0  0  0  0
   17.1199  -12.6818   22.3177 O   0  0  0  0  0  0
   18.1330  -14.8172   22.7132 C   0  0  1  0  0  0
   18.5571  -14.5558   24.1864 C   0  0  0  0  0  0
   19.8804  -13.7836   24.4210 C   0  0  0  0  0  0
   20.1665  -13.6549   25.9349 C   0  0  0  0  0  0
   21.4186  -12.7997   26.2048 C   0  0  0  0  0  0
   22.6545  -13.3415   25.4439 C   0  0  0  0  0  0
   22.3724  -13.6043   23.9490 C   0  0  0  0  0  0
   21.1060  -14.4581   23.7589 C   0  0  0  0  0  0
   16.8159  -15.4964   22.6698 N   0  0  1  0  0  0
   16.8842  -16.9532   22.8613 C   0  0  0  0  0  0
   17.0717  -17.7052   21.5272 C   0  0  0  0  0  0
   17.3454  -18.9006   21.4820 O   0  0  0  0  0  0
   16.9047  -16.9063   20.4345 O   0  0  0  0  0  0
   11.7498   -9.9834   23.5457 C   0  0  0  0  0  0
   12.0159   -8.8506   24.0341 N   0  0  0  0  0  0
   10.8160  -10.8442   24.0650 N   0  0  0  0  0  0
   18.6436  -11.1937   20.4124 H   0  0  0  0  0  0
   18.8913  -15.4611   22.2690 H   0  0  0  0  0  0
   15.1494   -9.8530   20.3414 H   0  0  0  0  0  0
   13.9073   -8.8487   22.1909 H   0  0  0  0  0  0
   12.4428  -13.1909   20.4370 H   0  0  0  0  0  0
   14.6786  -11.6996   18.2320 H   0  0  0  0  0  0
   14.3430  -13.2706   18.9166 H   0  0  0  0  0  0
   16.2091  -12.8351   20.5496 H   0  0  0  0  0  0
   20.3221  -11.3527   18.7469 H   0  0  0  0  0  0
   19.5350  -12.6938   17.9286 H   0  0  0  0  0  0
   21.3570  -12.8243   20.3056 H   0  0  0  0  0  0
   21.2160  -13.9154   18.9157 H   0  0  0  0  0  0
   20.1395  -14.4857   21.1585 H   0  0  0  0  0  0
   18.6238  -15.5105   24.7096 H   0  0  0  0  0  0
   17.7505  -14.0186   24.6902 H   0  0  0  0  0  0
   19.7818  -12.7768   24.0090 H   0  0  0  0  0  0
   20.2677  -14.6424   26.3891 H   0  0  0  0  0  0
   19.3061  -13.2104   26.4343 H   0  0  0  0  0  0
   21.6157  -12.7759   27.2764 H   0  0  0  0  0  0
   21.2158  -11.7663   25.9212 H   0  0  0  0  0  0
   22.9824  -14.2701   25.9146 H   0  0  0  0  0  0
   23.4946  -12.6531   25.5274 H   0  0  0  0  0  0
   23.2303  -14.0983   23.4912 H   0  0  0  0  0  0
   22.2503  -12.6563   23.4222 H   0  0  0  0  0  0
   20.9414  -14.6116   22.6958 H   0  0  0  0  0  0
   21.2455  -15.4635   24.1605 H   0  0  0  0  0  0
   16.2060  -15.1240   23.4002 H   0  0  0  0  0  0
   17.6534  -17.2451   23.5763 H   0  0  0  0  0  0
   15.9252  -17.2750   23.2668 H   0  0  0  0  0  0
   16.7166  -16.0263   20.7785 H   0  0  0  0  0  0
   12.7421   -8.3657   23.5339 H   0  0  0  0  0  0
   10.1721  -10.5105   24.7747 H   0  0  0  0  0  0
   10.5414  -11.6604   23.5387 H   0  0  0  0  0  0
  1  6  1  0  0  0
  1  2  2  0  0  0
  1 36  1  0  0  0
  2  3  1  0  0  0
  2 37  1  0  0  0
  3  4  2  0  0  0
  3 31  1  0  0  0
  4  5  1  0  0  0
  5  6  2  0  0  0
  5 38  1  0  0  0
  6  7  1  0  0  0
  7  8  1  0  0  0
  7 39  1  0  0  0
  7 40  1  0  0  0
  8  9  1  0  0  0
  8 41  1  0  0  0
  9 10  2  0  0  0
  9 11  1  0  0  0
 11 34  1  0  0  0
 11 15  1  0  0  0
 11 12  1  0  0  0
 12 13  1  0  0  0
 12 42  1  0  0  0
 12 43  1  0  0  0
 13 14  1  0  0  0
 13 44  1  0  0  0
 13 45  1  0  0  0
 14 15  1  0  0  0
 14 46  1  0  0  0
 15 16  1  0  0  0
 16 17  2  0  0  0
 16 18  1  0  0  0
 18 35  1  0  0  0
 18 19  1  0  0  0
 18 26  1  0  0  0
 19 20  1  0  0  0
 19 47  1  0  0  0
 19 48  1  0  0  0
 20 25  1  0  0  0
 20 21  1  0  0  0
 20 49  1  0  0  0
 21 22  1  0  0  0
 21 50  1  0  0  0
 21 51  1  0  0  0
 22 23  1  0  0  0
 22 52  1  0  0  0
 22 53  1  0  0  0
 23 24  1  0  0  0
 23 54  1  0  0  0
 23 55  1  0  0  0
 24 25  1  0  0  0
 24 56  1  0  0  0
 24 57  1  0  0  0
 25 58  1  0  0  0
 25 59  1  0  0  0
 26 27  1  0  0  0
 26 60  1  0  0  0
 27 28  1  0  0  0
 27 61  1  0  0  0
 27 62  1  0  0  0
 28 29  2  0  0  0
 28 30  1  0  0  0
 30 63  1  0  0  0
 31 32  2  3  0  0
 31 33  1  0  0  0
 32 64  1  0  0  0
 33 65  1  0  0  0
 33 66  1  0  0  0
M  END
> <s_m_entry_id>
37754

> <s_m_entry_name>
ligand_docking-pose.101

> <s_m_Source_Path>
/home/csk/Desktop/cluster/DUD-E-result/thrb

> <s_m_Source_File>
ligand_docking-pose.sdf

> <i_m_Source_File_Index>
101

> <i_lp_mmshare_version>
53161

> <i_f3d_flags>
0

> <r_lp_tautomer_probability>
1

> <s_lp_Force_Field>
OPLS_2005

> <r_lp_Energy>
31.727322

> <b_lp_Chiralities_Consistent>
1

> <s_lp_Variant>
347129-2

> <s_i_glide_gridfile>
glide-grid_1ype

> <i_i_glide_lignum>
2022

> <i_i_glide_rotatable_bonds>
13

> <r_i_docking_score>
-7.87356385836588

> <r_i_glide_ligand_efficiency>
-0.238592844192906

> <r_i_glide_ligand_efficiency_sa>
-0.765294737748137

> <r_i_glide_ligand_efficiency_ln>
-1.75103983496872

> <r_i_glide_gscore>
-7.87356385836588

> <r_i_glide_lipo>
-3.44023517172125

> <r_i_glide_hbond>
-0.401098230344791

> <r_i_glide_metal>
0

> <r_i_glide_rewards>
-1.26598948811564

> <r_i_glide_evdw>
-49.0648727416992

> <r_i_glide_ecoul>
-7.93714380264282

> <r_i_glide_erotb>
0.952814420023767

> <r_i_glide_esite>
-0.0752401807265822

> <r_i_glide_emodel>
-74.8519589217604

> <r_i_glide_energy>
-57.002016544342

> <r_i_glide_einternal>
16.0067081451416

> <i_i_glide_confnum>
115

> <i_i_glide_posenum>
132

> <r_i_glide_eff_state_penalty>
0

> <s_user_duplicate_titles>
347129

> <s_m_subgroup_title>
dock_pv

> <s_m_subgroupid>
dock_pv1

> <b_m_subgroup_collapsed>
0

$$$$
118277
                    3D
 Schrodinger Suite 2021-1.
 54 56  0  0  1  0            999 V2000
   20.6602  -12.2518   25.8805 C   0  0  0  0  0  0
   19.8725  -13.5726   25.8549 C   0  0  0  0  0  0
   20.1985  -14.5596   24.6976 C   0  0  1  0  0  0
   19.9998  -13.9891   23.2674 C   0  0  0  0  0  0
   21.0284  -13.9157   22.3179 C   0  0  0  0  0  0
   20.8029  -13.4531   21.0289 C   0  0  0  0  0  0
   19.5161  -13.0236   20.6286 C   0  0  0  0  0  0
   19.2167  -12.5620   19.3138 C   0  0  0  0  0  0
   17.9107  -12.1820   19.0147 C   0  0  0  0  0  0
   16.9354  -12.2237   20.0050 C   0  0  0  0  0  0
   17.1894  -12.6475   21.2768 N   0  0  0  0  0  0
   18.4549  -13.0623   21.5846 C   0  0  0  0  0  0
   18.7209  -13.5573   22.8898 C   0  0  0  0  0  0
   15.6700  -11.7894   19.6556 O   0  0  0  0  0  0
   14.6724  -11.5790   20.5771 C   0  0  0  0  0  0
   14.4338  -10.2842   21.0242 C   0  0  0  0  0  0
   13.4036  -10.0355   21.9213 C   0  0  0  0  0  0
   12.6016  -11.0771   22.4212 C   0  0  0  0  0  0
   12.8356  -12.3751   21.9223 C   0  0  0  0  0  0
   13.8622  -12.6255   21.0117 C   0  0  0  0  0  0
   11.5843  -10.7858   23.4749 C   0  0  0  0  0  0
   11.4644   -9.6319   23.9616 N   0  0  0  0  0  0
   10.8160  -11.8530   23.8688 N   0  0  0  0  0  0
   20.3070  -12.4833   18.2513 C   0  0  0  0  0  0
   21.5363  -15.3055   24.9224 C   0  0  0  0  0  0
   21.5588  -16.5237   25.1072 O   0  0  0  0  0  0
   22.6188  -14.4949   24.8958 O   0  0  0  0  0  0
   23.9296  -15.0136   25.0638 C   0  0  0  0  0  0
   24.9316  -13.9596   24.5788 C   0  0  0  0  0  0
   20.4160  -11.6638   26.7643 H   0  0  0  0  0  0
   21.7379  -12.4029   25.9130 H   0  0  0  0  0  0
   20.4151  -11.6416   25.0112 H   0  0  0  0  0  0
   18.8104  -13.3394   25.8284 H   0  0  0  0  0  0
   20.0182  -14.0773   26.8125 H   0  0  0  0  0  0
   19.4498  -15.3514   24.7687 H   0  0  0  0  0  0
   22.0301  -14.2423   22.5416 H   0  0  0  0  0  0
   21.6189  -13.4343   20.3245 H   0  0  0  0  0  0
   17.6493  -11.8350   18.0253 H   0  0  0  0  0  0
   17.9028  -13.6131   23.5925 H   0  0  0  0  0  0
   15.0636   -9.4710   20.6965 H   0  0  0  0  0  0
   13.2674   -9.0190   22.2635 H   0  0  0  0  0  0
   12.2461  -13.2172   22.2555 H   0  0  0  0  0  0
   14.0368  -13.6287   20.6522 H   0  0  0  0  0  0
   10.7126   -9.6112   24.6397 H   0  0  0  0  0  0
   10.0299  -11.6918   24.4917 H   0  0  0  0  0  0
   10.9403  -12.7960   23.5203 H   0  0  0  0  0  0
   19.9084  -12.1933   17.2793 H   0  0  0  0  0  0
   21.0649  -11.7533   18.5359 H   0  0  0  0  0  0
   20.8015  -13.4488   18.1309 H   0  0  0  0  0  0
   24.0612  -15.9340   24.4911 H   0  0  0  0  0  0
   24.0925  -15.2533   26.1149 H   0  0  0  0  0  0
   25.9564  -14.3048   24.7201 H   0  0  0  0  0  0
   24.8163  -13.0211   25.1208 H   0  0  0  0  0  0
   24.7982  -13.7458   23.5184 H   0  0  0  0  0  0
  1  2  1  0  0  0
  1 30  1  0  0  0
  1 31  1  0  0  0
  1 32  1  0  0  0
  2  3  1  0  0  0
  2 33  1  0  0  0
  2 34  1  0  0  0
  3  4  1  0  0  0
  3 25  1  0  0  0
  3 35  1  0  0  0
  4 13  1  0  0  0
  4  5  2  0  0  0
  5  6  1  0  0  0
  5 36  1  0  0  0
  6  7  2  0  0  0
  6 37  1  0  0  0
  7 12  1  0  0  0
  7  8  1  0  0  0
  8  9  2  0  0  0
  8 24  1  0  0  0
  9 10  1  0  0  0
  9 38  1  0  0  0
 10 11  2  0  0  0
 10 14  1  0  0  0
 11 12  1  0  0  0
 12 13  2  0  0  0
 13 39  1  0  0  0
 14 15  1  0  0  0
 15 20  1  0  0  0
 15 16  2  0  0  0
 16 17  1  0  0  0
 16 40  1  0  0  0
 17 18  2  0  0  0
 17 41  1  0  0  0
 18 19  1  0  0  0
 18 21  1  0  0  0
 19 20  2  0  0  0
 19 42  1  0  0  0
 20 43  1  0  0  0
 21 22  2  3  0  0
 21 23  1  0  0  0
 22 44  1  0  0  0
 23 45  1  0  0  0
 23 46  1  0  0  0
 24 47  1  0  0  0
 24 48  1  0  0  0
 24 49  1  0  0  0
 25 26  2  0  0  0
 25 27  1  0  0  0
 27 28  1  0  0  0
 28 29  1  0  0  0
 28 50  1  0  0  0
 28 51  1  0  0  0
 29 52  1  0  0  0
 29 53  1  0  0  0
 29 54  1  0  0  0
M  END
> <s_m_entry_id>
37756

> <s_m_entry_name>
ligand_docking-pose.103

> <s_m_Source_Path>
/home/csk/Desktop/cluster/DUD-E-result/thrb

> <s_m_Source_File>
ligand_docking-pose.sdf

> <i_m_Source_File_Index>
103

> <i_lp_mmshare_version>
53161

> <i_f3d_flags>
0

> <r_lp_tautomer_probability>
1

> <s_lp_Force_Field>
OPLS_2005

> <r_lp_Energy>
14.714501

> <b_lp_Chiralities_Consistent>
1

> <s_lp_Variant>
118277-3

> <s_i_glide_gridfile>
glide-grid_1ype

> <i_i_glide_lignum>
3269

> <i_i_glide_rotatable_bonds>
8

> <r_i_docking_score>
-7.85955469229631

> <r_i_glide_ligand_efficiency>
-0.271019127320562

> <r_i_glide_ligand_efficiency_sa>
-0.832656624015058

> <r_i_glide_ligand_efficiency_ln>
-1.79963872342503

> <r_i_glide_gscore>
-7.85955469229631

> <r_i_glide_lipo>
-3.5544401355028

> <r_i_glide_hbond>
-0.426056977661999

> <r_i_glide_metal>
0

> <r_i_glide_rewards>
-1.05550181304639

> <r_i_glide_evdw>
-47.2506256103516

> <r_i_glide_ecoul>
-6.69955492019653

> <r_i_glide_erotb>
0.636729161649574

> <r_i_glide_esite>
-0.0928204091876262

> <r_i_glide_emodel>
-76.8726374255097

> <r_i_glide_energy>
-53.9501805305481

> <r_i_glide_einternal>
6.5473837852478

> <i_i_glide_confnum>
9

> <i_i_glide_posenum>
286

> <r_i_glide_eff_state_penalty>
0

> <s_user_duplicate_titles>
118277

> <s_m_subgroup_title>
dock_pv

> <s_m_subgroupid>
dock_pv1

> <b_m_subgroup_collapsed>
0

$$$$
232155
                    3D
 Schrodinger Suite 2021-1.
 63 65  0  0  1  0            999 V2000
   20.0525  -13.4971   26.5053 C   0  0  0  0  0  0
   19.5152  -14.7682   26.3210 C   0  0  0  0  0  0
   20.0857  -15.6277   25.3886 C   0  0  0  0  0  0
   21.1683  -15.1979   24.6169 C   0  0  0  0  0  0
   21.7048  -13.9204   24.8123 C   0  0  0  0  0  0
   21.1474  -13.0697   25.7628 C   0  0  0  0  0  0
   21.7673  -16.1144   23.5585 C   0  0  0  0  0  0
   20.5065  -16.8150   22.3295 S   0  0  0  0  0  0
   19.7325  -17.8551   23.0132 O   0  0  0  0  0  0
   21.2156  -17.1305   21.0862 O   0  0  0  0  0  0
   19.3985  -15.4807   22.0209 N   0  0  2  0  0  0
   19.8667  -14.1452   21.5632 C   0  0  1  0  0  0
   20.5149  -14.2588   20.1798 C   0  0  0  0  0  0
   20.7815  -12.8738   19.6117 C   0  0  0  0  0  0
   19.4779  -12.0723   19.5072 C   0  0  0  0  0  0
   18.6273  -12.1438   20.7179 N   0  0  0  0  0  0
   18.6647  -13.1594   21.6429 C   0  0  0  0  0  0
   17.8272  -13.2548   22.5453 O   0  0  0  0  0  0
   17.5880  -11.1004   20.8646 C   0  0  0  0  0  0
   16.2419  -11.4520   20.1937 C   0  0  0  0  0  0
   16.1757  -12.2250   19.2386 O   0  0  0  0  0  0
   15.1797  -10.8168   20.7210 N   0  0  0  0  0  0
   13.7639  -10.8567   20.3162 C   0  0  1  0  0  0
   13.1420  -12.2782   20.1932 C   0  0  0  0  0  0
   12.9496  -12.9778   21.5495 C   0  0  0  0  0  0
   12.0554  -12.1167   22.4528 C   0  0  0  0  0  0
   12.6497  -10.6937   22.6640 C   0  0  1  0  0  0
   12.9097   -9.9785   21.2947 C   0  0  2  0  0  0
   11.7117   -9.4933   20.7210 O   0  0  0  0  0  0
   11.8960   -9.8207   23.6993 C   0  0  0  0  0  0
   12.3254   -8.6557   23.9209 N   0  0  0  0  0  0
   10.8160  -10.3932   24.3204 N   0  0  0  0  0  0
   20.5803  -13.7376   22.2780 H   0  0  0  0  0  0
   13.7315  -10.4188   19.3196 H   0  0  0  0  0  0
   19.6179  -12.8396   27.2429 H   0  0  0  0  0  0
   18.6683  -15.0883   26.9105 H   0  0  0  0  0  0
   19.6718  -16.6165   25.2593 H   0  0  0  0  0  0
   22.5498  -13.5821   24.2304 H   0  0  0  0  0  0
   21.5538  -12.0822   25.9257 H   0  0  0  0  0  0
   22.2788  -16.9597   24.0172 H   0  0  0  0  0  0
   22.4951  -15.5749   22.9555 H   0  0  0  0  0  0
   18.6224  -15.4279   22.6878 H   0  0  0  0  0  0
   19.8630  -14.8230   19.5209 H   0  0  0  0  0  0
   21.4555  -14.8055   20.2369 H   0  0  0  0  0  0
   21.2500  -12.9491   18.6294 H   0  0  0  0  0  0
   21.4950  -12.3381   20.2406 H   0  0  0  0  0  0
   18.8879  -12.5868   18.7467 H   0  0  0  0  0  0
   19.5980  -11.0539   19.1414 H   0  0  0  0  0  0
   17.9648  -10.1671   20.4514 H   0  0  0  0  0  0
   17.4430  -10.8768   21.9198 H   0  0  0  0  0  0
   15.3862  -10.1520   21.4514 H   0  0  0  0  0  0
   12.1738  -12.2041   19.6969 H   0  0  0  0  0  0
   13.7434  -12.9089   19.5390 H   0  0  0  0  0  0
   12.4943  -13.9588   21.4055 H   0  0  0  0  0  0
   13.9160  -13.1519   22.0261 H   0  0  0  0  0  0
   11.9581  -12.6236   23.4141 H   0  0  0  0  0  0
   11.0278  -12.0607   22.0877 H   0  0  0  0  0  0
   13.6180  -10.8606   23.1120 H   0  0  0  0  0  0
   13.4774   -9.0641   21.4844 H   0  0  0  0  0  0
   11.7708   -9.4527   19.7607 H   0  0  0  0  0  0
   13.1382   -8.4293   23.3712 H   0  0  0  0  0  0
   10.2455   -9.8526   24.9617 H   0  0  0  0  0  0
   10.3628  -11.1958   23.9072 H   0  0  0  0  0  0
  1  6  1  0  0  0
  1  2  2  0  0  0
  1 35  1  0  0  0
  2  3  1  0  0  0
  2 36  1  0  0  0
  3  4  2  0  0  0
  3 37  1  0  0  0
  4  5  1  0  0  0
  4  7  1  0  0  0
  5  6  2  0  0  0
  5 38  1  0  0  0
  6 39  1  0  0  0
  7  8  1  0  0  0
  7 40  1  0  0  0
  7 41  1  0  0  0
  8  9  2  0  0  0
  8 10  2  0  0  0
  8 11  1  0  0  0
 11 12  1  0  0  0
 11 42  1  0  0  0
 12 33  1  0  0  0
 12 17  1  0  0  0
 12 13  1  0  0  0
 13 14  1  0  0  0
 13 43  1  0  0  0
 13 44  1  0  0  0
 14 15  1  0  0  0
 14 45  1  0  0  0
 14 46  1  0  0  0
 15 16  1  0  0  0
 15 47  1  0  0  0
 15 48  1  0  0  0
 16 17  1  0  0  0
 16 19  1  0  0  0
 17 18  2  0  0  0
 19 20  1  0  0  0
 19 49  1  0  0  0
 19 50  1  0  0  0
 20 21  2  0  0  0
 20 22  1  0  0  0
 22 23  1  0  0  0
 22 51  1  0  0  0
 23 34  1  0  0  0
 23 28  1  0  0  0
 23 24  1  0  0  0
 24 25  1  0  0  0
 24 52  1  0  0  0
 24 53  1  0  0  0
 25 26  1  0  0  0
 25 54  1  0  0  0
 25 55  1  0  0  0
 26 27  1  0  0  0
 26 56  1  0  0  0
 26 57  1  0  0  0
 27 28  1  0  0  0
 27 30  1  0  0  0
 27 58  1  0  0  0
 28 29  1  0  0  0
 28 59  1  0  0  0
 29 60  1  0  0  0
 30 31  2  3  0  0
 30 32  1  0  0  0
 31 61  1  0  0  0
 32 62  1  0  0  0
 32 63  1  0  0  0
M  END
> <s_m_entry_id>
37759

> <s_m_entry_name>
ligand_docking-pose.106

> <s_m_Source_Path>
/home/csk/Desktop/cluster/DUD-E-result/thrb

> <s_m_Source_File>
ligand_docking-pose.sdf

> <i_m_Source_File_Index>
106

> <i_lp_mmshare_version>
53161

> <i_f3d_flags>
0

> <r_lp_tautomer_probability>
1

> <s_lp_Force_Field>
OPLS_2005

> <r_lp_Energy>
23.820816

> <b_lp_Chiralities_Consistent>
1

> <s_lp_Variant>
232155-6

> <s_i_glide_gridfile>
glide-grid_1ype

> <i_i_glide_lignum>
1634

> <i_i_glide_rotatable_bonds>
10

> <r_i_docking_score>
-7.83677964750465

> <r_i_glide_ligand_efficiency>
-0.24489936398452

> <r_i_glide_ligand_efficiency_sa>
-0.77750701513253

> <r_i_glide_ligand_efficiency_ln>
-1.75486858562135

> <r_i_glide_gscore>
-7.83677964750465

> <r_i_glide_lipo>
-3.45760121912351

> <r_i_glide_hbond>
-0.364135149773166

> <r_i_glide_metal>
0

> <r_i_glide_rewards>
-1.49360471876467

> <r_i_glide_evdw>
-44.1965293884277

> <r_i_glide_ecoul>
-5.82622861862183

> <r_i_glide_erotb>
0.651324321417705

> <r_i_glide_esite>
-0.0890021190463482

> <r_i_glide_emodel>
-67.9333812317781

> <r_i_glide_energy>
-50.0227580070496

> <r_i_glide_einternal>
11.557074546814

> <i_i_glide_confnum>
32

> <i_i_glide_posenum>
217

> <r_i_glide_eff_state_penalty>
0

> <s_user_duplicate_titles>
232155

> <s_m_subgroup_title>
dock_pv

> <s_m_subgroupid>
dock_pv1

> <b_m_subgroup_collapsed>
0

$$$$
167882
                    3D
 Schrodinger Suite 2021-1.
 55 58  0  0  1  0            999 V2000
   20.4301  -13.2569   25.7876 C   0  0  0  0  0  0
   21.8047  -13.4680   25.7620 C   0  0  0  0  0  0
   22.2901  -14.7506   25.5226 C   0  0  0  0  0  0
   21.4332  -15.7572   25.2572 N   0  3  0  0  0  0
   21.9474  -16.8913   25.0629 O   0  5  0  0  0  0
   20.0815  -15.5862   25.1936 C   0  0  0  0  0  0
   19.5670  -14.3188   25.5224 C   0  0  0  0  0  0
   19.1704  -16.7529   24.7490 C   0  0  0  0  0  0
   17.7558  -16.3793   24.1903 C   0  0  0  0  0  0
   17.5960  -15.1426   23.4050 N   0  0  0  0  0  0
   18.3490  -14.6900   22.3236 C   0  0  0  0  0  0
   17.9462  -13.3517   21.7708 C   0  0  0  0  0  0
   16.9749  -12.7111   22.2031 O   0  0  0  0  0  0
   18.7536  -12.9081   20.7278 N   0  0  0  0  0  0
   19.8248  -13.6889   20.2997 C   0  0  0  0  0  0
   20.0930  -14.8908   20.8692 C   0  0  0  0  0  0
   19.3345  -15.4011   21.8877 N   0  0  0  0  0  0
   20.8177  -13.0694   18.9704 Cl  0  0  0  0  0  0
   18.4232  -11.5963   20.1265 C   0  0  0  0  0  0
   17.3786  -11.7923   19.0167 C   0  0  0  0  0  0
   17.7224  -11.8963   17.8397 O   0  0  0  0  0  0
   16.1100  -11.8049   19.4353 N   0  0  0  0  0  0
   14.9022  -11.9981   18.6461 C   0  0  0  0  0  0
   13.9863  -12.9912   19.3478 C   0  0  0  0  0  0
   13.9554  -14.2962   18.8381 C   0  0  0  0  0  0
   13.1753  -15.2809   19.4372 C   0  0  0  0  0  0
   12.4127  -14.9711   20.5548 C   0  0  0  0  0  0
   12.4132  -13.6730   21.0590 C   0  0  0  0  0  0
   13.1803  -12.6614   20.4694 C   0  0  0  0  0  0
   13.0949  -11.3684   21.0660 N   0  0  0  0  0  0
   12.0554  -10.8022   21.7673 C   0  0  0  0  0  0
   12.3748   -9.6234   22.2300 N   0  0  0  0  0  0
   13.6176   -9.5059   21.8107 C   0  0  0  0  0  0
   14.1156  -10.5054   21.1222 N   0  0  0  0  0  0
   13.1619  -16.8826   18.7977 Cl  0  0  0  0  0  0
   19.0250  -17.5432   25.8161 F   0  0  0  0  0  0
   19.7722  -17.4886   23.8084 F   0  0  0  0  0  0
   20.0298  -12.2720   25.9912 H   0  0  0  0  0  0
   22.4874  -12.6512   25.9208 H   0  0  0  0  0  0
   23.3415  -15.0038   25.5178 H   0  0  0  0  0  0
   18.5040  -14.1298   25.5382 H   0  0  0  0  0  0
   17.0655  -16.3105   25.0319 H   0  0  0  0  0  0
   17.3916  -17.2135   23.5911 H   0  0  0  0  0  0
   16.7227  -14.6507   23.5862 H   0  0  0  0  0  0
   20.9261  -15.4875   20.5253 H   0  0  0  0  0  0
   19.2951  -11.0737   19.7406 H   0  0  0  0  0  0
   18.0111  -10.9155   20.8749 H   0  0  0  0  0  0
   15.9470  -11.6504   20.4226 H   0  0  0  0  0  0
   15.1362  -12.3299   17.6333 H   0  0  0  0  0  0
   14.3806  -11.0521   18.5163 H   0  0  0  0  0  0
   14.5513  -14.5588   17.9761 H   0  0  0  0  0  0
   11.8078  -15.7285   21.0297 H   0  0  0  0  0  0
   11.8044  -13.4537   21.9207 H   0  0  0  0  0  0
   11.1250  -11.3220   21.9224 H   0  0  0  0  0  0
   14.2216   -8.6488   22.0558 H   0  0  0  0  0  0
  1  7  1  0  0  0
  1  2  2  0  0  0
  1 38  1  0  0  0
  2  3  1  0  0  0
  2 39  1  0  0  0
  3  4  2  0  0  0
  3 40  1  0  0  0
  4  5  1  0  0  0
  4  6  1  0  0  0
  6  7  2  0  0  0
  6  8  1  0  0  0
  7 41  1  0  0  0
  8  9  1  0  0  0
  8 36  1  0  0  0
  8 37  1  0  0  0
  9 10  1  0  0  0
  9 42  1  0  0  0
  9 43  1  0  0  0
 10 11  1  0  0  0
 10 44  1  0  0  0
 11 17  2  0  0  0
 11 12  1  0  0  0
 12 13  2  0  0  0
 12 14  1  0  0  0
 14 15  1  0  0  0
 14 19  1  0  0  0
 15 16  2  0  0  0
 15 18  1  0  0  0
 16 17  1  0  0  0
 16 45  1  0  0  0
 19 20  1  0  0  0
 19 46  1  0  0  0
 19 47  1  0  0  0
 20 21  2  0  0  0
 20 22  1  0  0  0
 22 23  1  0  0  0
 22 48  1  0  0  0
 23 24  1  0  0  0
 23 49  1  0  0  0
 23 50  1  0  0  0
 24 29  1  0  0  0
 24 25  2  0  0  0
 25 26  1  0  0  0
 25 51  1  0  0  0
 26 27  2  0  0  0
 26 35  1  0  0  0
 27 28  1  0  0  0
 27 52  1  0  0  0
 28 29  2  0  0  0
 28 53  1  0  0  0
 29 30  1  0  0  0
 30 34  1  0  0  0
 30 31  1  0  0  0
 31 32  2  0  0  0
 31 54  1  0  0  0
 32 33  1  0  0  0
 33 34  2  0  0  0
 33 55  1  0  0  0
M  CHG  2   4   1   5  -1
M  END
> <s_m_entry_id>
37760

> <s_m_entry_name>
ligand_docking-pose.107

> <s_m_Source_Path>
/home/csk/Desktop/cluster/DUD-E-result/thrb

> <s_m_Source_File>
ligand_docking-pose.sdf

> <i_m_Source_File_Index>
107

> <i_lp_mmshare_version>
53161

> <i_f3d_flags>
0

> <r_lp_tautomer_probability>
1

> <s_lp_Force_Field>
OPLS_2005

> <r_lp_Energy>
35.318312

> <b_lp_Chiralities_Consistent>
1

> <s_lp_Variant>
167882-1

> <s_i_glide_gridfile>
glide-grid_1ype

> <i_i_glide_lignum>
2062

> <i_i_glide_rotatable_bonds>
10

> <r_i_docking_score>
-7.83002708829711

> <r_i_glide_ligand_efficiency>
-0.21162235373776

> <r_i_glide_ligand_efficiency_sa>
-0.70517263057294

> <r_i_glide_ligand_efficiency_ln>
-1.69814931357276

> <r_i_glide_gscore>
-7.83002708829711

> <r_i_glide_lipo>
-2.78736328849062

> <r_i_glide_hbond>
-0.259326982940681

> <r_i_glide_metal>
0

> <r_i_glide_rewards>
-1.57529029981261

> <r_i_glide_evdw>
-53.590461730957

> <r_i_glide_ecoul>
-7.02931880950928

> <r_i_glide_erotb>
0.543990120307538

> <r_i_glide_esite>
-0.0181157293864885

> <r_i_glide_emodel>
-86.0336645728842

> <r_i_glide_energy>
-60.6197805404663

> <r_i_glide_einternal>
7.62523698806763

> <i_i_glide_confnum>
56

> <i_i_glide_posenum>
314

> <r_i_glide_eff_state_penalty>
0

> <s_user_duplicate_titles>
167882

> <s_m_subgroup_title>
dock_pv

> <s_m_subgroupid>
dock_pv1

> <b_m_subgroup_collapsed>
0

$$$$
166451
                    3D
 Schrodinger Suite 2021-1.
 53 55  0  0  1  0            999 V2000
   12.8887  -13.9103   19.4366 C   0  0  0  0  0  0
   13.9712  -13.4009   20.3753 C   0  0  0  0  0  0
   15.1105  -14.1147   20.5982 C   0  0  0  0  0  0
   15.5210  -15.4371   20.0461 C   0  0  0  0  0  0
   16.8280  -15.7280   20.7328 C   0  0  0  0  0  0
   17.4936  -16.7492   20.5556 O   0  0  0  0  0  0
   17.1032  -14.6759   21.5409 N   0  0  0  0  0  0
   16.1534  -13.6974   21.5202 C   0  0  0  0  0  0
   16.2117  -12.6584   22.1841 O   0  0  0  0  0  0
   18.2564  -14.6129   22.3478 C   0  0  0  0  0  0
   19.5232  -14.4895   21.7680 C   0  0  0  0  0  0
   20.6555  -14.4317   22.5778 C   0  0  0  0  0  0
   20.5413  -14.4953   23.9765 C   0  0  0  0  0  0
   19.2623  -14.6211   24.5409 C   0  0  0  0  0  0
   18.1306  -14.6717   23.7383 C   0  0  0  0  0  0
   21.7779  -14.4803   24.9069 C   0  0  0  0  0  0
   21.5529  -13.5135   26.0987 C   0  0  0  0  0  0
   23.0751  -14.0203   24.1919 C   0  0  0  0  0  0
   22.0145  -15.9074   25.4489 C   0  0  0  0  0  0
   13.6509  -12.0864   20.9717 C   0  0  0  0  0  0
   14.3097  -10.9329   20.5458 C   0  0  0  0  0  0
   14.0159   -9.7045   21.1238 C   0  0  0  0  0  0
   13.0626   -9.6228   22.1341 C   0  0  0  0  0  0
   12.3652  -10.7613   22.5848 C   0  0  0  0  0  0
   12.6715  -11.9886   21.9632 C   0  0  0  0  0  0
   11.3677  -10.6532   23.6838 C   0  0  0  0  0  0
   11.2163   -9.5787   24.3218 N   0  0  0  0  0  0
   10.6458  -11.8000   23.9210 N   0  0  0  0  0  0
   11.9626  -14.0851   19.9851 H   0  0  0  0  0  0
   12.6981  -13.1709   18.6605 H   0  0  0  0  0  0
   13.1579  -14.8451   18.9446 H   0  0  0  0  0  0
   15.6745  -15.4062   18.9667 H   0  0  0  0  0  0
   14.7995  -16.2255   20.2673 H   0  0  0  0  0  0
   19.6348  -14.4476   20.6939 H   0  0  0  0  0  0
   21.6163  -14.3480   22.0913 H   0  0  0  0  0  0
   19.1273  -14.6930   25.6101 H   0  0  0  0  0  0
   17.1639  -14.7721   24.2046 H   0  0  0  0  0  0
   22.4404  -13.4504   26.7239 H   0  0  0  0  0  0
   20.7469  -13.8332   26.7598 H   0  0  0  0  0  0
   21.3192  -12.5030   25.7628 H   0  0  0  0  0  0
   23.3866  -14.7280   23.4234 H   0  0  0  0  0  0
   22.9479  -13.0489   23.7128 H   0  0  0  0  0  0
   23.9124  -13.9295   24.8876 H   0  0  0  0  0  0
   22.2748  -16.5991   24.6454 H   0  0  0  0  0  0
   22.8267  -15.9347   26.1784 H   0  0  0  0  0  0
   21.1235  -16.3074   25.9322 H   0  0  0  0  0  0
   15.0689  -10.9941   19.7794 H   0  0  0  0  0  0
   14.5478   -8.8161   20.8101 H   0  0  0  0  0  0
   12.8735   -8.6541   22.5784 H   0  0  0  0  0  0
   12.1808  -12.9003   22.2676 H   0  0  0  0  0  0
   10.4686   -9.6669   24.9998 H   0  0  0  0  0  0
    9.8458  -11.7568   24.5504 H   0  0  0  0  0  0
   10.8171  -12.6786   23.4476 H   0  0  0  0  0  0
  1  2  1  0  0  0
  1 29  1  0  0  0
  1 30  1  0  0  0
  1 31  1  0  0  0
  2  3  2  0  0  0
  2 20  1  0  0  0
  3  8  1  0  0  0
  3  4  1  0  0  0
  4  5  1  0  0  0
  4 32  1  0  0  0
  4 33  1  0  0  0
  5  6  2  0  0  0
  5  7  1  0  0  0
  7  8  1  0  0  0
  7 10  1  0  0  0
  8  9  2  0  0  0
 10 15  1  0  0  0
 10 11  2  0  0  0
 11 12  1  0  0  0
 11 34  1  0  0  0
 12 13  2  0  0  0
 12 35  1  0  0  0
 13 14  1  0  0  0
 13 16  1  0  0  0
 14 15  2  0  0  0
 14 36  1  0  0  0
 15 37  1  0  0  0
 16 17  1  0  0  0
 16 18  1  0  0  0
 16 19  1  0  0  0
 17 38  1  0  0  0
 17 39  1  0  0  0
 17 40  1  0  0  0
 18 41  1  0  0  0
 18 42  1  0  0  0
 18 43  1  0  0  0
 19 44  1  0  0  0
 19 45  1  0  0  0
 19 46  1  0  0  0
 20 25  1  0  0  0
 20 21  2  0  0  0
 21 22  1  0  0  0
 21 47  1  0  0  0
 22 23  2  0  0  0
 22 48  1  0  0  0
 23 24  1  0  0  0
 23 49  1  0  0  0
 24 25  2  0  0  0
 24 26  1  0  0  0
 25 50  1  0  0  0
 26 27  2  3  0  0
 26 28  1  0  0  0
 27 51  1  0  0  0
 28 52  1  0  0  0
 28 53  1  0  0  0
M  END
> <s_m_entry_id>
37764

> <s_m_entry_name>
ligand_docking-pose.111

> <s_m_Source_Path>
/home/csk/Desktop/cluster/DUD-E-result/thrb

> <s_m_Source_File>
ligand_docking-pose.sdf

> <i_m_Source_File_Index>
111

> <i_lp_mmshare_version>
53161

> <i_f3d_flags>
0

> <r_lp_tautomer_probability>
1

> <s_lp_Force_Field>
OPLS_2005

> <r_lp_Energy>
39.993633

> <b_lp_Chiralities_Consistent>
1

> <s_lp_Variant>
166451-1

> <s_i_glide_gridfile>
glide-grid_1ype

> <i_i_glide_lignum>
3205

> <i_i_glide_rotatable_bonds>
4

> <r_i_docking_score>
-7.80800731525845

> <r_i_glide_ligand_efficiency>
-0.278857404116373

> <r_i_glide_ligand_efficiency_sa>
-0.84677531712511

> <r_i_glide_ligand_efficiency_ln>
-1.80231734141809

> <r_i_glide_gscore>
-7.80800731525845

> <r_i_glide_lipo>
-3.30409481722107

> <r_i_glide_hbond>
-0.404908128843501

> <r_i_glide_metal>
0

> <r_i_glide_rewards>
-1.07207758444364

> <r_i_glide_evdw>
-39.1366653442383

> <r_i_glide_ecoul>
-8.29094886779785

> <r_i_glide_erotb>
0.274480295625608

> <r_i_glide_esite>
-0.100931482994256

> <r_i_glide_emodel>
-68.6567072200599

> <r_i_glide_energy>
-47.4276142120361

> <r_i_glide_einternal>
3.39973044395447

> <i_i_glide_confnum>
12

> <i_i_glide_posenum>
235

> <r_i_glide_eff_state_penalty>
0

> <s_user_duplicate_titles>
166451

> <s_m_subgroup_title>
dock_pv

> <s_m_subgroupid>
dock_pv1

> <b_m_subgroup_collapsed>
0

$$$$
1532
                    3D
 Schrodinger Suite 2021-1.
 61 64  0  0  1  0            999 V2000
   15.6163  -13.0777   16.1549 C   0  0  0  0  0  0
   15.7795  -11.8980   16.8762 C   0  0  0  0  0  0
   15.6544  -11.9188   18.2620 C   0  0  0  0  0  0
   15.3676  -13.1112   18.9328 C   0  0  0  0  0  0
   15.2035  -14.2899   18.1950 C   0  0  0  0  0  0
   15.3240  -14.2726   16.8088 C   0  0  0  0  0  0
   15.2417  -13.1449   20.4658 C   0  0  0  0  0  0
   14.0758  -12.2901   20.9989 C   0  0  0  0  0  0
   14.1946  -10.8981   21.1203 C   0  0  0  0  0  0
   13.1542  -10.1441   21.6566 C   0  0  0  0  0  0
   11.9938  -10.7819   22.0824 C   0  0  0  0  0  0
   11.8604  -12.1634   21.9671 C   0  0  0  0  0  0
   12.8970  -12.9162   21.4253 C   0  0  0  0  0  0
   16.5822  -12.8655   21.2304 C   0  0  2  0  0  0
   17.7753  -13.7763   20.8076 C   0  0  0  0  0  0
   17.7147  -14.9848   21.0544 O   0  0  0  0  0  0
   18.8634  -13.2023   20.2294 N   0  0  0  0  0  0
   18.9661  -11.8537   19.6771 C   0  0  0  0  0  0
   20.0163  -11.9893   18.5843 C   0  0  0  0  0  0
   21.0066  -12.9537   19.1987 C   0  0  0  0  0  0
   20.1474  -13.9128   20.0585 C   0  0  1  0  0  0
   20.8159  -14.2270   21.4010 C   0  0  0  0  0  0
   21.3203  -13.3044   22.0362 O   0  0  0  0  0  0
   20.8160  -15.5088   21.8050 N   0  0  0  0  0  0
   21.4998  -16.0045   23.0067 C   0  0  0  0  0  0
   21.1671  -15.2318   24.2825 C   0  0  0  0  0  0
   19.9297  -15.4655   24.8865 C   0  0  0  0  0  0
   19.5351  -14.7223   25.9934 C   0  0  0  0  0  0
   20.3683  -13.7246   26.4991 C   0  0  0  0  0  0
   21.6176  -13.5052   25.9229 C   0  0  0  0  0  0
   22.0350  -14.2670   24.8308 C   0  0  0  0  0  0
   23.6075  -13.9557   24.1712 Cl  0  0  0  0  0  0
   18.0147  -15.0545   26.7300 Cl  0  0  0  0  0  0
   16.4189  -13.0531   22.6887 N   0  0  0  0  0  0
   15.7039  -13.0683   15.0781 H   0  0  0  0  0  0
   15.9974  -10.9725   16.3648 H   0  0  0  0  0  0
   15.7883  -11.0041   18.8139 H   0  0  0  0  0  0
   14.9795  -15.2232   18.6919 H   0  0  0  0  0  0
   15.1869  -15.1810   16.2404 H   0  0  0  0  0  0
   14.9861  -14.1773   20.7178 H   0  0  0  0  0  0
   15.0984  -10.3899   20.8234 H   0  0  0  0  0  0
   13.2536   -9.0727   21.7572 H   0  0  0  0  0  0
   11.1881  -10.2051   22.5132 H   0  0  0  0  0  0
   10.9571  -12.6511   22.3076 H   0  0  0  0  0  0
   12.7824  -13.9879   21.3566 H   0  0  0  0  0  0
   16.8503  -11.8216   21.0844 H   0  0  0  0  0  0
   18.0396  -11.4639   19.2640 H   0  0  0  0  0  0
   19.3023  -11.1748   20.4621 H   0  0  0  0  0  0
   19.5680  -12.4393   17.6971 H   0  0  0  0  0  0
   20.4847  -11.0530   18.2950 H   0  0  0  0  0  0
   21.6142  -13.4598   18.4498 H   0  0  0  0  0  0
   21.7041  -12.3750   19.8069 H   0  0  0  0  0  0
   19.9708  -14.8389   19.5211 H   0  0  0  0  0  0
   20.3790  -16.1980   21.2091 H   0  0  0  0  0  0
   21.2201  -17.0492   23.1485 H   0  0  0  0  0  0
   22.5749  -16.0335   22.8250 H   0  0  0  0  0  0
   19.2593  -16.2072   24.4794 H   0  0  0  0  0  0
   20.0521  -13.1322   27.3457 H   0  0  0  0  0  0
   22.2625  -12.7370   26.3210 H   0  0  0  0  0  0
   15.8044  -13.8364   22.9045 H   0  0  0  0  0  0
   17.3075  -13.2678   23.1215 H   0  0  0  0  0  0
  1  6  1  0  0  0
  1  2  2  0  0  0
  1 35  1  0  0  0
  2  3  1  0  0  0
  2 36  1  0  0  0
  3  4  2  0  0  0
  3 37  1  0  0  0
  4  5  1  0  0  0
  4  7  1  0  0  0
  5  6  2  0  0  0
  5 38  1  0  0  0
  6 39  1  0  0  0
  7  8  1  0  0  0
  7 14  1  0  0  0
  7 40  1  0  0  0
  8 13  1  0  0  0
  8  9  2  0  0  0
  9 10  1  0  0  0
  9 41  1  0  0  0
 10 11  2  0  0  0
 10 42  1  0  0  0
 11 12  1  0  0  0
 11 43  1  0  0  0
 12 13  2  0  0  0
 12 44  1  0  0  0
 13 45  1  0  0  0
 14 15  1  0  0  0
 14 34  1  0  0  0
 14 46  1  0  0  0
 15 16  2  0  0  0
 15 17  1  0  0  0
 17 21  1  0  0  0
 17 18  1  0  0  0
 18 19  1  0  0  0
 18 47  1  0  0  0
 18 48  1  0  0  0
 19 20  1  0  0  0
 19 49  1  0  0  0
 19 50  1  0  0  0
 20 21  1  0  0  0
 20 51  1  0  0  0
 20 52  1  0  0  0
 21 22  1  0  0  0
 21 53  1  0  0  0
 22 23  2  0  0  0
 22 24  1  0  0  0
 24 25  1  0  0  0
 24 54  1  0  0  0
 25 26  1  0  0  0
 25 55  1  0  0  0
 25 56  1  0  0  0
 26 31  1  0  0  0
 26 27  2  0  0  0
 27 28  1  0  0  0
 27 57  1  0  0  0
 28 29  2  0  0  0
 28 33  1  0  0  0
 29 30  1  0  0  0
 29 58  1  0  0  0
 30 31  2  0  0  0
 30 59  1  0  0  0
 31 32  1  0  0  0
 34 60  1  0  0  0
 34 61  1  0  0  0
M  END
> <s_m_entry_id>
37765

> <s_m_entry_name>
ligand_docking-pose.112

> <s_m_Source_Path>
/home/csk/Desktop/cluster/DUD-E-result/thrb

> <s_m_Source_File>
ligand_docking-pose.sdf

> <i_m_Source_File_Index>
112

> <i_lp_mmshare_version>
53161

> <i_f3d_flags>
0

> <r_lp_tautomer_probability>
1

> <s_lp_Force_Field>
OPLS_2005

> <r_lp_Energy>
27.638046

> <b_lp_Chiralities_Consistent>
1

> <s_lp_Variant>
1532-1

> <s_i_glide_gridfile>
glide-grid_1ype

> <i_i_glide_lignum>
666

> <i_i_glide_rotatable_bonds>
9

> <r_i_docking_score>
-7.80565721379869

> <r_i_glide_ligand_efficiency>
-0.22957815334702

> <r_i_glide_ligand_efficiency_sa>
-0.743744094024262

> <r_i_glide_ligand_efficiency_ln>
-1.72448861979694

> <r_i_glide_gscore>
-7.80565721379869

> <r_i_glide_lipo>
-4.04474118892559

> <r_i_glide_hbond>
-0.536091547875978

> <r_i_glide_metal>
0

> <r_i_glide_rewards>
-0.496908869739326

> <r_i_glide_evdw>
-46.402027130127

> <r_i_glide_ecoul>
-7.11622190475464

> <r_i_glide_erotb>
0.661976316371187

> <r_i_glide_esite>
-0.00235728140943796

> <r_i_glide_emodel>
-73.2667441663369

> <r_i_glide_energy>
-53.5182490348816

> <r_i_glide_einternal>
6.55346441268921

> <i_i_glide_confnum>
43

> <i_i_glide_posenum>
213

> <r_i_glide_eff_state_penalty>
0

> <s_user_duplicate_titles>
1532,167045,178959

> <s_m_subgroup_title>
dock_pv

> <s_m_subgroupid>
dock_pv1

> <b_m_subgroup_collapsed>
0

$$$$
422620
                    3D
 Schrodinger Suite 2021-1.
 72 78  0  0  1  0            999 V2000
   24.5447  -15.0498   24.9383 C   0  0  0  0  0  0
   24.1586  -13.9748   24.1479 C   0  0  0  0  0  0
   22.9156  -13.9940   23.5208 C   0  0  0  0  0  0
   22.0428  -15.0869   23.6493 C   0  0  0  0  0  0
   22.4207  -16.1500   24.5096 C   0  0  0  0  0  0
   23.6762  -16.1189   25.1297 C   0  0  0  0  0  0
   21.5328  -17.3665   24.8136 C   0  0  0  0  0  0
   20.5883  -17.1589   25.9159 N   0  0  1  0  0  0
   19.4868  -16.2451   25.6308 C   0  0  0  0  0  0
   18.4135  -16.5288   26.6866 C   0  0  0  0  0  0
   18.7290  -17.9487   27.1665 C   0  0  2  0  0  0
   19.8861  -18.3865   26.2695 C   0  0  0  0  0  0
   17.6436  -18.8538   27.1450 O   0  0  0  0  0  0
   20.7646  -15.0625   22.8749 C   0  0  0  0  0  0
   19.9602  -13.9235   22.8789 C   0  0  0  0  0  0
   18.7403  -13.9081   22.2114 C   0  0  0  0  0  0
   18.2372  -15.0513   21.5494 C   0  0  0  0  0  0
   19.1029  -16.1624   21.4912 C   0  0  0  0  0  0
   20.3479  -16.1546   22.1122 C   0  0  0  0  0  0
   16.9259  -15.1082   20.9258 N   0  0  0  0  0  0
   16.5991  -16.3950   20.1940 C   0  0  0  0  0  0
   15.2805  -16.4197   19.3790 C   0  0  0  0  0  0
   14.2128  -15.7033   20.1822 C   0  0  1  0  0  0
   14.6907  -14.2878   20.2630 C   0  0  2  0  0  0
   15.9246  -14.1845   21.2021 C   0  0  0  0  0  0
   16.0027  -13.2575   22.0109 O   0  0  0  0  0  0
   13.4726  -13.6105   20.6610 N   0  0  0  0  0  0
   12.3862  -14.3383   20.1243 N   0  0  0  0  0  0
   12.7950  -15.4676   19.6839 C   0  0  0  0  0  0
   11.9954  -16.4830   18.8787 C   0  0  0  0  0  0
   10.8107  -15.9818   18.5235 F   0  0  0  0  0  0
   12.6714  -16.8165   17.7804 F   0  0  0  0  0  0
   11.8023  -17.5759   19.6172 F   0  0  0  0  0  0
   13.2912  -12.2901   21.0780 C   0  0  0  0  0  0
   14.1167  -11.2686   20.5835 C   0  0  0  0  0  0
   14.0923   -9.9825   21.1217 C   0  0  0  0  0  0
   13.2187   -9.7737   22.1872 C   0  0  0  0  0  0
   12.3504  -10.7538   22.6744 C   0  0  0  0  0  0
   12.3464  -12.0215   22.0767 C   0  0  0  0  0  0
   11.7102  -10.0961   23.7590 C   0  0  0  0  0  0
   12.1278   -8.8636   23.9181 N   0  0  0  0  0  0
   13.1090   -8.6516   22.9417 O   0  0  0  0  0  0
   10.8160  -10.6875   24.5796 N   0  0  0  0  0  0
   19.1261  -17.9018   28.1832 H   0  0  0  0  0  0
   25.5096  -15.0476   25.4251 H   0  0  0  0  0  0
   24.8247  -13.1343   24.0132 H   0  0  0  0  0  0
   22.6459  -13.1602   22.8891 H   0  0  0  0  0  0
   23.9827  -16.9262   25.7790 H   0  0  0  0  0  0
   21.0174  -17.7385   23.9343 H   0  0  0  0  0  0
   22.1926  -18.1917   25.0881 H   0  0  0  0  0  0
   19.8521  -15.2187   25.6821 H   0  0  0  0  0  0
   19.0958  -16.3695   24.6198 H   0  0  0  0  0  0
   18.4619  -15.8073   27.5031 H   0  0  0  0  0  0
   17.4283  -16.4597   26.2239 H   0  0  0  0  0  0
   19.5227  -18.8553   25.3514 H   0  0  0  0  0  0
   20.5385  -19.1354   26.7201 H   0  0  0  0  0  0
   16.8930  -18.4328   27.5707 H   0  0  0  0  0  0
   20.2690  -13.0412   23.4206 H   0  0  0  0  0  0
   18.2196  -12.9680   22.2500 H   0  0  0  0  0  0
   18.8446  -17.0739   20.9774 H   0  0  0  0  0  0
   20.9838  -17.0200   22.0056 H   0  0  0  0  0  0
   17.4142  -16.6552   19.5216 H   0  0  0  0  0  0
   16.5490  -17.1770   20.9533 H   0  0  0  0  0  0
   14.9759  -17.4409   19.1464 H   0  0  0  0  0  0
   15.3996  -15.9716   18.3900 H   0  0  0  0  0  0
   14.1269  -16.1745   21.1669 H   0  0  0  0  0  0
   15.0101  -13.8805   19.2992 H   0  0  0  0  0  0
   14.8346  -11.4894   19.8071 H   0  0  0  0  0  0
   14.7609   -9.2065   20.7794 H   0  0  0  0  0  0
   11.7107  -12.8083   22.4587 H   0  0  0  0  0  0
   10.4992  -11.6293   24.3997 H   0  0  0  0  0  0
   10.1512  -10.1386   25.1201 H   0  0  0  0  0  0
  1  6  1  0  0  0
  1  2  2  0  0  0
  1 45  1  0  0  0
  2  3  1  0  0  0
  2 46  1  0  0  0
  3  4  2  0  0  0
  3 47  1  0  0  0
  4  5  1  0  0  0
  4 14  1  0  0  0
  5  6  2  0  0  0
  5  7  1  0  0  0
  6 48  1  0  0  0
  7  8  1  0  0  0
  7 49  1  0  0  0
  7 50  1  0  0  0
  8 12  1  0  0  0
  8  9  1  0  0  0
  9 10  1  0  0  0
  9 51  1  0  0  0
  9 52  1  0  0  0
 10 11  1  0  0  0
 10 53  1  0  0  0
 10 54  1  0  0  0
 11 44  1  0  0  0
 11 12  1  0  0  0
 11 13  1  0  0  0
 12 55  1  0  0  0
 12 56  1  0  0  0
 13 57  1  0  0  0
 14 19  1  0  0  0
 14 15  2  0  0  0
 15 16  1  0  0  0
 15 58  1  0  0  0
 16 17  2  0  0  0
 16 59  1  0  0  0
 17 18  1  0  0  0
 17 20  1  0  0  0
 18 19  2  0  0  0
 18 60  1  0  0  0
 19 61  1  0  0  0
 20 25  1  0  0  0
 20 21  1  0  0  0
 21 22  1  0  0  0
 21 62  1  0  0  0
 21 63  1  0  0  0
 22 23  1  0  0  0
 22 64  1  0  0  0
 22 65  1  0  0  0
 23 29  1  0  0  0
 23 24  1  0  0  0
 23 66  1  0  0  0
 24 25  1  0  0  0
 24 27  1  0  0  0
 24 67  1  0  0  0
 25 26  2  0  0  0
 27 28  1  0  0  0
 27 34  1  0  0  0
 28 29  2  0  0  0
 29 30  1  0  0  0
 30 31  1  0  0  0
 30 32  1  0  0  0
 30 33  1  0  0  0
 34 39  1  0  0  0
 34 35  2  0  0  0
 35 36  1  0  0  0
 35 68  1  0  0  0
 36 37  2  0  0  0
 36 69  1  0  0  0
 37 42  1  0  0  0
 37 38  1  0  0  0
 38 39  2  0  0  0
 38 40  1  0  0  0
 39 70  1  0  0  0
 40 41  2  0  0  0
 40 43  1  0  0  0
 41 42  1  0  0  0
 43 71  1  0  0  0
 43 72  1  0  0  0
M  END
> <s_m_entry_id>
37767

> <s_m_entry_name>
ligand_docking-pose.114

> <s_m_Source_Path>
/home/csk/Desktop/cluster/DUD-E-result/thrb

> <s_m_Source_File>
ligand_docking-pose.sdf

> <i_m_Source_File_Index>
114

> <i_lp_mmshare_version>
53161

> <i_f3d_flags>
0

> <r_lp_tautomer_probability>
1

> <s_lp_Force_Field>
OPLS_2005

> <r_lp_Energy>
114.571852

> <b_lp_Chiralities_Consistent>
1

> <s_lp_Variant>
422620-3

> <s_i_glide_gridfile>
glide-grid_1ype

> <i_i_glide_lignum>
1287

> <i_i_glide_rotatable_bonds>
7

> <r_i_docking_score>
-7.80292869681786

> <r_i_glide_ligand_efficiency>
-0.181463458065532

> <r_i_glide_ligand_efficiency_sa>
-0.635738726220804

> <r_i_glide_ligand_efficiency_ln>
-1.63885753743018

> <r_i_glide_gscore>
-7.80292869681786

> <r_i_glide_lipo>
-3.31755995452367

> <r_i_glide_hbond>
-0.195866145311361

> <r_i_glide_metal>
0

> <r_i_glide_rewards>
-0.962027242726688

> <r_i_glide_evdw>
-54.1927795410156

> <r_i_glide_ecoul>
-4.50793838500977

> <r_i_glide_erotb>
0.19150604956351

> <r_i_glide_esite>
-0.133151669017399

> <r_i_glide_emodel>
-78.3890189292409

> <r_i_glide_energy>
-58.7007179260254

> <r_i_glide_einternal>
4.64166355133057

> <i_i_glide_confnum>
6

> <i_i_glide_posenum>
17

> <r_i_glide_eff_state_penalty>
0

> <s_user_duplicate_titles>
422620

> <s_m_subgroup_title>
dock_pv

> <s_m_subgroupid>
dock_pv1

> <b_m_subgroup_collapsed>
0

$$$$
232558
                    3D
 Schrodinger Suite 2021-1.
 63 65  0  0  1  0            999 V2000
   23.1812  -14.3943   23.8689 C   0  0  0  0  0  0
   22.0143  -14.6696   23.0357 N   0  0  1  0  0  0
   20.9827  -13.5987   23.0843 C   0  0  2  0  0  0
   20.3049  -13.4378   24.4825 C   0  0  0  0  0  0
   19.5629  -14.6404   25.0616 C   0  0  0  0  0  0
   20.2754  -15.7706   25.5206 C   0  0  0  0  0  0
   19.5943  -16.8967   25.9632 C   0  0  0  0  0  0
   18.2080  -16.9172   25.9647 C   0  0  0  0  0  0
   17.4939  -15.8224   25.5016 C   0  0  0  0  0  0
   18.1533  -14.6919   25.0386 C   0  0  0  0  0  0
   19.9537  -13.8582   21.9325 C   0  0  0  0  0  0
   19.0924  -14.7293   22.0684 O   0  0  0  0  0  0
   20.0760  -13.1339   20.7873 N   0  0  0  0  0  0
   21.2667  -12.3800   20.3855 C   0  0  0  0  0  0
   21.2608  -12.4189   18.8667 C   0  0  0  0  0  0
   19.7925  -12.3499   18.5632 C   0  0  0  0  0  0
   19.1741  -13.2670   19.6228 C   0  0  2  0  0  0
   17.6692  -12.9995   19.8059 C   0  0  0  0  0  0
   17.2109  -11.8900   19.5305 O   0  0  0  0  0  0
   16.9243  -14.0551   20.1709 N   0  0  0  0  0  0
   15.4576  -14.1087   20.2016 C   0  0  1  0  0  0
   14.9457  -15.5366   20.5436 C   0  0  0  0  0  0
   13.4078  -15.6640   20.6360 C   0  0  0  0  0  0
   12.8119  -14.5725   21.5380 C   0  0  0  0  0  0
   13.1849  -13.1680   20.9990 C   0  0  2  0  0  0
   14.7324  -12.9975   21.0247 C   0  0  1  0  0  0
   15.2964  -12.9230   22.3210 O   0  0  0  0  0  0
   12.4322  -11.9820   21.6512 C   0  0  0  0  0  0
   12.6000  -10.8363   21.1520 N   0  0  0  0  0  0
   11.6160  -12.2529   22.7208 N   0  0  0  0  0  0
   21.4757  -12.6531   22.8953 H   0  0  0  0  0  0
   19.3013  -14.2829   19.2780 H   0  0  0  0  0  0
   15.1515  -13.9182   19.1693 H   0  0  0  0  0  0
   23.8971  -15.2137   23.7868 H   0  0  0  0  0  0
   23.6832  -13.4778   23.5534 H   0  0  0  0  0  0
   22.9248  -14.2927   24.9233 H   0  0  0  0  0  0
   22.3460  -14.8020   22.0842 H   0  0  0  0  0  0
   19.6160  -12.5933   24.4511 H   0  0  0  0  0  0
   21.0561  -13.1456   25.2157 H   0  0  0  0  0  0
   21.3532  -15.7752   25.5180 H   0  0  0  0  0  0
   20.1475  -17.7562   26.3121 H   0  0  0  0  0  0
   17.6812  -17.7911   26.3165 H   0  0  0  0  0  0
   16.4160  -15.8540   25.4892 H   0  0  0  0  0  0
   17.5804  -13.8620   24.6508 H   0  0  0  0  0  0
   21.1861  -11.3496   20.7181 H   0  0  0  0  0  0
   22.1888  -12.7949   20.7800 H   0  0  0  0  0  0
   21.8524  -11.6298   18.4018 H   0  0  0  0  0  0
   21.6159  -13.3847   18.5176 H   0  0  0  0  0  0
   19.4609  -11.3307   18.7210 H   0  0  0  0  0  0
   19.5507  -12.6421   17.5412 H   0  0  0  0  0  0
   17.4109  -14.8779   20.5024 H   0  0  0  0  0  0
   15.3229  -16.2561   19.8142 H   0  0  0  0  0  0
   15.3539  -15.8256   21.5143 H   0  0  0  0  0  0
   12.9734  -15.5969   19.6361 H   0  0  0  0  0  0
   13.1393  -16.6500   21.0158 H   0  0  0  0  0  0
   11.7267  -14.6880   21.5200 H   0  0  0  0  0  0
   13.0591  -14.6835   22.5959 H   0  0  0  0  0  0
   12.8756  -13.1449   19.9517 H   0  0  0  0  0  0
   14.9639  -12.0351   20.5693 H   0  0  0  0  0  0
   15.1037  -13.7417   22.7984 H   0  0  0  0  0  0
   12.0648  -10.1404   21.6471 H   0  0  0  0  0  0
   11.0735  -11.5134   23.1440 H   0  0  0  0  0  0
   11.3725  -13.2090   22.9717 H   0  0  0  0  0  0
  1  2  1  0  0  0
  1 34  1  0  0  0
  1 35  1  0  0  0
  1 36  1  0  0  0
  2  3  1  0  0  0
  2 37  1  0  0  0
  3 31  1  0  0  0
  3  4  1  0  0  0
  3 11  1  0  0  0
  4  5  1  0  0  0
  4 38  1  0  0  0
  4 39  1  0  0  0
  5 10  1  0  0  0
  5  6  2  0  0  0
  6  7  1  0  0  0
  6 40  1  0  0  0
  7  8  2  0  0  0
  7 41  1  0  0  0
  8  9  1  0  0  0
  8 42  1  0  0  0
  9 10  2  0  0  0
  9 43  1  0  0  0
 10 44  1  0  0  0
 11 12  2  0  0  0
 11 13  1  0  0  0
 13 17  1  0  0  0
 13 14  1  0  0  0
 14 15  1  0  0  0
 14 45  1  0  0  0
 14 46  1  0  0  0
 15 16  1  0  0  0
 15 47  1  0  0  0
 15 48  1  0  0  0
 16 17  1  0  0  0
 16 49  1  0  0  0
 16 50  1  0  0  0
 17 32  1  0  0  0
 17 18  1  0  0  0
 18 19  2  0  0  0
 18 20  1  0  0  0
 20 21  1  0  0  0
 20 51  1  0  0  0
 21 33  1  0  0  0
 21 26  1  0  0  0
 21 22  1  0  0  0
 22 23  1  0  0  0
 22 52  1  0  0  0
 22 53  1  0  0  0
 23 24  1  0  0  0
 23 54  1  0  0  0
 23 55  1  0  0  0
 24 25  1  0  0  0
 24 56  1  0  0  0
 24 57  1  0  0  0
 25 26  1  0  0  0
 25 28  1  0  0  0
 25 58  1  0  0  0
 26 27  1  0  0  0
 26 59  1  0  0  0
 27 60  1  0  0  0
 28 29  2  3  0  0
 28 30  1  0  0  0
 29 61  1  0  0  0
 30 62  1  0  0  0
 30 63  1  0  0  0
M  END
> <s_m_entry_id>
37770

> <s_m_entry_name>
ligand_docking-pose.117

> <s_m_Source_Path>
/home/csk/Desktop/cluster/DUD-E-result/thrb

> <s_m_Source_File>
ligand_docking-pose.sdf

> <i_m_Source_File_Index>
117

> <i_lp_mmshare_version>
53161

> <i_f3d_flags>
0

> <r_lp_tautomer_probability>
1

> <s_lp_Force_Field>
OPLS_2005

> <r_lp_Energy>
30.716914

> <b_lp_Chiralities_Consistent>
1

> <s_lp_Variant>
232558-3

> <s_i_glide_gridfile>
glide-grid_1ype

> <i_i_glide_lignum>
4458

> <i_i_glide_rotatable_bonds>
10

> <r_i_docking_score>
-7.78920077820536

> <r_i_glide_ligand_efficiency>
-0.259640025940179

> <r_i_glide_ligand_efficiency_sa>
-0.806761927533375

> <r_i_glide_ligand_efficiency_ln>
-1.7697912869483

> <r_i_glide_gscore>
-7.78920077820536

> <r_i_glide_lipo>
-2.40268626954388

> <r_i_glide_hbond>
-1.18229810865798

> <r_i_glide_metal>
0

> <r_i_glide_rewards>
-1.61307532719513

> <r_i_glide_evdw>
-33.3747787475586

> <r_i_glide_ecoul>
-10.7241401672363

> <r_i_glide_erotb>
0.686218889655004

> <r_i_glide_esite>
0

> <r_i_glide_emodel>
-60.222987069594

> <r_i_glide_energy>
-44.0989189147949

> <r_i_glide_einternal>
12.3708553314209

> <i_i_glide_confnum>
38

> <i_i_glide_posenum>
182

> <r_i_glide_eff_state_penalty>
0

> <s_user_duplicate_titles>
232558

> <s_m_subgroup_title>
dock_pv

> <s_m_subgroupid>
dock_pv1

> <b_m_subgroup_collapsed>
0

$$$$
346805
                    3D
 Schrodinger Suite 2021-1.
 65 67  0  0  1  0            999 V2000
   14.0475  -10.0550   20.8465 C   0  0  0  0  0  0
   13.3999   -9.5465   21.9622 C   0  0  0  0  0  0
   12.4043  -10.3112   22.5898 C   0  0  0  0  0  0
   12.0442  -11.5334   22.0852 N   0  0  0  0  0  0
   12.6832  -12.0147   20.9900 C   0  0  0  0  0  0
   13.7008  -11.3109   20.3425 C   0  0  0  0  0  0
   14.4699  -11.9122   19.1776 C   0  0  0  0  0  0
   15.9090  -11.7453   19.3715 N   0  0  0  0  0  0
   16.8332  -12.7064   19.2829 C   0  0  0  0  0  0
   16.5866  -13.8497   18.9000 O   0  0  0  0  0  0
   18.2707  -12.2875   19.6795 C   0  0  2  0  0  0
   19.1262  -12.3202   18.4028 C   0  0  0  0  0  0
   20.8160  -12.4700   18.9499 S   0  0  0  0  0  0
   20.2729  -13.6748   20.1627 C   0  0  0  0  0  0
   18.9749  -13.1845   20.6388 N   0  0  0  0  0  0
   18.3730  -13.6298   21.7742 C   0  0  0  0  0  0
   17.4733  -12.9840   22.3209 O   0  0  0  0  0  0
   18.7452  -15.0270   22.3633 C   0  0  1  0  0  0
   19.0711  -14.9761   23.8848 C   0  0  0  0  0  0
   20.3311  -14.1733   24.2950 C   0  0  0  0  0  0
   20.3878  -13.9897   25.8305 C   0  0  0  0  0  0
   21.6001  -13.1412   26.2622 C   0  0  0  0  0  0
   22.9230  -13.7234   25.7116 C   0  0  0  0  0  0
   22.8719  -13.9977   24.1950 C   0  0  0  0  0  0
   21.6433  -14.8470   23.8239 C   0  0  0  0  0  0
   17.6619  -15.9943   22.0178 N   0  0  2  0  0  0
   16.4160  -15.8532   22.7782 C   0  0  0  0  0  0
   15.2685  -16.6778   22.1851 C   0  0  0  0  0  0
   15.4005  -17.6445   21.4364 O   0  0  0  0  0  0
   14.0868  -16.2533   22.7210 O   0  0  0  0  0  0
   11.7290   -9.8369   23.8305 C   0  0  0  0  0  0
   12.0158   -8.7079   24.3210 N   0  0  0  0  0  0
   10.8161  -10.7094   24.3583 N   0  0  0  0  0  0
   18.2728  -11.2830   20.1059 H   0  0  0  0  0  0
   19.6351  -15.4155   21.8747 H   0  0  0  0  0  0
   14.8464   -9.4798   20.4055 H   0  0  0  0  0  0
   13.7133   -8.5876   22.3460 H   0  0  0  0  0  0
   12.3768  -12.9969   20.6588 H   0  0  0  0  0  0
   14.1758  -11.4074   18.2570 H   0  0  0  0  0  0
   14.1925  -12.9615   19.0452 H   0  0  0  0  0  0
   16.2121  -10.8171   19.6210 H   0  0  0  0  0  0
   19.0140  -11.4530   17.7968 H   0  0  0  0  0  0
   18.8536  -13.0531   17.6751 H   0  0  0  0  0  0
   21.0418  -13.7263   20.9345 H   0  0  0  0  0  0
   20.2071  -14.6509   19.6780 H   0  0  0  0  0  0
   19.1744  -15.9971   24.2565 H   0  0  0  0  0  0
   18.2090  -14.5673   24.4161 H   0  0  0  0  0  0
   20.2849  -13.1770   23.8503 H   0  0  0  0  0  0
   20.4134  -14.9644   26.3207 H   0  0  0  0  0  0
   19.4668  -13.5249   26.1869 H   0  0  0  0  0  0
   21.6349  -13.0833   27.3501 H   0  0  0  0  0  0
   21.4697  -12.1143   25.9210 H   0  0  0  0  0  0
   23.1504  -14.6522   26.2380 H   0  0  0  0  0  0
   23.7538  -13.0531   25.9210 H   0  0  0  0  0  0
   23.7859  -14.5026   23.8801 H   0  0  0  0  0  0
   22.8419  -13.0529   23.6504 H   0  0  0  0  0  0
   21.6340  -15.0187   22.7493 H   0  0  0  0  0  0
   21.7236  -15.8460   24.2558 H   0  0  0  0  0  0
   17.9973  -16.9423   22.1283 H   0  0  0  0  0  0
   16.5555  -16.1180   23.8268 H   0  0  0  0  0  0
   16.0820  -14.8204   22.7210 H   0  0  0  0  0  0
   14.2459  -15.5047   23.3189 H   0  0  0  0  0  0
   12.7248   -8.2187   23.8012 H   0  0  0  0  0  0
   10.1675  -10.3756   25.0657 H   0  0  0  0  0  0
   10.5252  -11.5104   23.8170 H   0  0  0  0  0  0
  1  6  1  0  0  0
  1  2  2  0  0  0
  1 36  1  0  0  0
  2  3  1  0  0  0
  2 37  1  0  0  0
  3  4  2  0  0  0
  3 31  1  0  0  0
  4  5  1  0  0  0
  5  6  2  0  0  0
  5 38  1  0  0  0
  6  7  1  0  0  0
  7  8  1  0  0  0
  7 39  1  0  0  0
  7 40  1  0  0  0
  8  9  1  0  0  0
  8 41  1  0  0  0
  9 10  2  0  0  0
  9 11  1  0  0  0
 11 34  1  0  0  0
 11 15  1  0  0  0
 11 12  1  0  0  0
 12 13  1  0  0  0
 12 42  1  0  0  0
 12 43  1  0  0  0
 13 14  1  0  0  0
 14 15  1  0  0  0
 14 44  1  0  0  0
 14 45  1  0  0  0
 15 16  1  0  0  0
 16 17  2  0  0  0
 16 18  1  0  0  0
 18 35  1  0  0  0
 18 19  1  0  0  0
 18 26  1  0  0  0
 19 20  1  0  0  0
 19 46  1  0  0  0
 19 47  1  0  0  0
 20 25  1  0  0  0
 20 21  1  0  0  0
 20 48  1  0  0  0
 21 22  1  0  0  0
 21 49  1  0  0  0
 21 50  1  0  0  0
 22 23  1  0  0  0
 22 51  1  0  0  0
 22 52  1  0  0  0
 23 24  1  0  0  0
 23 53  1  0  0  0
 23 54  1  0  0  0
 24 25  1  0  0  0
 24 55  1  0  0  0
 24 56  1  0  0  0
 25 57  1  0  0  0
 25 58  1  0  0  0
 26 27  1  0  0  0
 26 59  1  0  0  0
 27 28  1  0  0  0
 27 60  1  0  0  0
 27 61  1  0  0  0
 28 29  2  0  0  0
 28 30  1  0  0  0
 30 62  1  0  0  0
 31 32  2  3  0  0
 31 33  1  0  0  0
 32 63  1  0  0  0
 33 64  1  0  0  0
 33 65  1  0  0  0
M  END
> <s_m_entry_id>
37771

> <s_m_entry_name>
ligand_docking-pose.118

> <s_m_Source_Path>
/home/csk/Desktop/cluster/DUD-E-result/thrb

> <s_m_Source_File>
ligand_docking-pose.sdf

> <i_m_Source_File_Index>
118

> <i_lp_mmshare_version>
53161

> <i_f3d_flags>
0

> <r_lp_tautomer_probability>
1

> <s_lp_Force_Field>
OPLS_2005

> <r_lp_Energy>
22.965857

> <b_lp_Chiralities_Consistent>
1

> <s_lp_Variant>
346805-2

> <s_i_glide_gridfile>
glide-grid_1ype

> <i_i_glide_lignum>
2026

> <i_i_glide_rotatable_bonds>
13

> <r_i_docking_score>
-7.77670129322859

> <r_i_glide_ligand_efficiency>
-0.235657614946321

> <r_i_glide_ligand_efficiency_sa>
-0.755879889184282

> <r_i_glide_ligand_efficiency_ln>
-1.72949810200971

> <r_i_glide_gscore>
-7.77670129322859

> <r_i_glide_lipo>
-3.45557689779308

> <r_i_glide_hbond>
-0.136769999948385

> <r_i_glide_metal>
0

> <r_i_glide_rewards>
-0.86319494530191

> <r_i_glide_evdw>
-46.420825958252

> <r_i_glide_ecoul>
-11.89524269104

> <r_i_glide_erotb>
0.891555930813567

> <r_i_glide_esite>
-0.107387679430171

> <r_i_glide_emodel>
-81.5509893280673

> <r_i_glide_energy>
-58.316068649292

> <r_i_glide_einternal>
6.08886337280273

> <i_i_glide_confnum>
304

> <i_i_glide_posenum>
194

> <r_i_glide_eff_state_penalty>
0

> <s_user_duplicate_titles>
346805

> <s_m_subgroup_title>
dock_pv

> <s_m_subgroupid>
dock_pv1

> <b_m_subgroup_collapsed>
0

$$$$
46595
                    3D
 Schrodinger Suite 2021-1.
 63 66  0  0  1  0            999 V2000
   20.3134  -14.0123   25.8435 C   0  0  0  0  0  0
   21.5542  -13.4536   25.5433 C   0  0  0  0  0  0
   22.4342  -14.1332   24.7003 C   0  0  0  0  0  0
   22.0820  -15.3695   24.1610 C   0  0  0  0  0  0
   20.8450  -15.9298   24.4657 C   0  0  0  0  0  0
   19.9545  -15.2457   25.2959 C   0  0  0  0  0  0
   18.3694  -15.9295   25.7023 S   0  0  0  0  0  0
   17.7977  -17.0361   24.3663 C   0  0  0  0  0  0
   17.1918  -16.3164   23.1342 C   0  0  2  0  0  0
   16.3918  -17.2402   22.1823 C   0  0  0  0  0  0
   16.3062  -18.4420   22.3238 O   0  0  0  0  0  0
   15.7587  -16.5096   21.2190 O   0  0  0  0  0  0
   18.1757  -15.4557   22.4122 N   0  0  0  0  0  0
   19.0906  -15.8884   21.5218 C   0  0  0  0  0  0
   19.6122  -17.0030   21.4754 O   0  0  0  0  0  0
   19.3821  -14.8204   20.7593 N   0  0  0  0  0  0
   18.8420  -13.6970   21.4006 N   0  0  0  0  0  0
   17.9961  -14.1287   22.3496 C   0  0  0  0  0  0
   17.2175  -13.4531   23.0178 O   0  0  0  0  0  0
   18.8185  -12.3993   20.6409 C   0  0  1  0  0  0
   19.9774  -12.3108   19.6665 C   0  0  0  0  0  0
   20.8183  -13.3184   19.4501 C   0  0  0  0  0  0
   20.7448  -14.6283   20.2051 C   0  0  0  0  0  0
   17.4698  -11.9882   20.0153 C   0  0  0  0  0  0
   17.3444  -11.8452   18.7966 O   0  0  0  0  0  0
   16.4883  -11.7254   20.8825 N   0  0  0  0  0  0
   15.2040  -11.1391   20.5451 C   0  0  0  0  0  0
   14.1743  -12.1166   19.9342 C   0  0  2  0  0  0
   12.8303  -11.4190   19.6511 C   0  0  0  0  0  0
   12.1391  -10.9723   20.9580 C   0  0  0  0  0  0
   11.8803  -12.1913   21.8713 C   0  0  1  0  0  0
   13.1649  -13.0241   22.1044 C   0  0  0  0  0  0
   13.8871  -13.3783   20.7855 C   0  0  0  0  0  0
   11.2113  -11.8530   23.1065 N   0  0  0  0  0  0
   23.9758  -13.4529   24.3218 Cl  0  0  0  0  0  0
   19.6301  -13.4865   26.4949 H   0  0  0  0  0  0
   21.8284  -12.4963   25.9631 H   0  0  0  0  0  0
   22.7664  -15.8978   23.5132 H   0  0  0  0  0  0
   20.5982  -16.8942   24.0517 H   0  0  0  0  0  0
   18.5947  -17.7172   24.0715 H   0  0  0  0  0  0
   17.0332  -17.6677   24.8214 H   0  0  0  0  0  0
   16.4160  -15.6717   23.5456 H   0  0  0  0  0  0
   15.9216  -15.5689   21.3077 H   0  0  0  0  0  0
   18.9728  -11.6256   21.3947 H   0  0  0  0  0  0
   20.1358  -11.3950   19.1157 H   0  0  0  0  0  0
   21.6157  -13.1657   18.7383 H   0  0  0  0  0  0
   21.4944  -14.6544   20.9987 H   0  0  0  0  0  0
   20.9736  -15.4513   19.5261 H   0  0  0  0  0  0
   16.6391  -11.9760   21.8529 H   0  0  0  0  0  0
   14.8292  -10.7505   21.4905 H   0  0  0  0  0  0
   15.3201  -10.2530   19.9248 H   0  0  0  0  0  0
   14.5619  -12.4498   18.9699 H   0  0  0  0  0  0
   12.9717  -10.5495   19.0083 H   0  0  0  0  0  0
   12.1844  -12.1169   19.1221 H   0  0  0  0  0  0
   11.2161  -10.4489   20.7249 H   0  0  0  0  0  0
   12.7483  -10.2356   21.4797 H   0  0  0  0  0  0
   11.2156  -12.8472   21.3071 H   0  0  0  0  0  0
   12.9263  -13.9390   22.6483 H   0  0  0  0  0  0
   13.8569  -12.4577   22.7213 H   0  0  0  0  0  0
   13.2839  -14.0868   20.2152 H   0  0  0  0  0  0
   14.8188  -13.8895   21.0230 H   0  0  0  0  0  0
   10.3404  -11.3634   22.9212 H   0  0  0  0  0  0
   10.9256  -12.7332   23.5316 H   0  0  0  0  0  0
  1  6  1  0  0  0
  1  2  2  0  0  0
  1 36  1  0  0  0
  2  3  1  0  0  0
  2 37  1  0  0  0
  3  4  2  0  0  0
  3 35  1  0  0  0
  4  5  1  0  0  0
  4 38  1  0  0  0
  5  6  2  0  0  0
  5 39  1  0  0  0
  6  7  1  0  0  0
  7  8  1  0  0  0
  8  9  1  0  0  0
  8 40  1  0  0  0
  8 41  1  0  0  0
  9 10  1  0  0  0
  9 13  1  0  0  0
  9 42  1  0  0  0
 10 11  2  0  0  0
 10 12  1  0  0  0
 12 43  1  0  0  0
 13 18  1  0  0  0
 13 14  1  0  0  0
 14 15  2  0  0  0
 14 16  1  0  0  0
 16 23  1  0  0  0
 16 17  1  0  0  0
 17 18  1  0  0  0
 17 20  1  0  0  0
 18 19  2  0  0  0
 20 21  1  0  0  0
 20 24  1  0  0  0
 20 44  1  0  0  0
 21 22  2  0  0  0
 21 45  1  0  0  0
 22 23  1  0  0  0
 22 46  1  0  0  0
 23 47  1  0  0  0
 23 48  1  0  0  0
 24 25  2  0  0  0
 24 26  1  0  0  0
 26 27  1  0  0  0
 26 49  1  0  0  0
 27 28  1  0  0  0
 27 50  1  0  0  0
 27 51  1  0  0  0
 28 33  1  0  0  0
 28 29  1  0  0  0
 28 52  1  0  0  0
 29 30  1  0  0  0
 29 53  1  0  0  0
 29 54  1  0  0  0
 30 31  1  0  0  0
 30 55  1  0  0  0
 30 56  1  0  0  0
 31 32  1  0  0  0
 31 34  1  0  0  0
 31 57  1  0  0  0
 32 33  1  0  0  0
 32 58  1  0  0  0
 32 59  1  0  0  0
 33 60  1  0  0  0
 33 61  1  0  0  0
 34 62  1  0  0  0
 34 63  1  0  0  0
M  END
> <s_m_entry_id>
37773

> <s_m_entry_name>
ligand_docking-pose.120

> <s_m_Source_Path>
/home/csk/Desktop/cluster/DUD-E-result/thrb

> <s_m_Source_File>
ligand_docking-pose.sdf

> <i_m_Source_File_Index>
120

> <i_lp_mmshare_version>
53161

> <i_f3d_flags>
0

> <r_lp_tautomer_probability>
1

> <s_lp_Force_Field>
OPLS_2005

> <r_lp_Energy>
22.691918

> <b_lp_Chiralities_Consistent>
1

> <s_lp_Variant>
46595-1

> <s_i_glide_gridfile>
glide-grid_1ype

> <i_i_glide_lignum>
1827

> <i_i_glide_rotatable_bonds>
10

> <r_i_docking_score>
-7.76411701719159

> <r_i_glide_ligand_efficiency>
-0.221831914776903

> <r_i_glide_ligand_efficiency_sa>
-0.7256269020914

> <r_i_glide_ligand_efficiency_ln>
-1.70439600056665

> <r_i_glide_gscore>
-7.76411701719159

> <r_i_glide_lipo>
-3.3910897598195

> <r_i_glide_hbond>
-0.602224410811558

> <r_i_glide_metal>
0

> <r_i_glide_rewards>
-0.906811109652426

> <r_i_glide_evdw>
-47.8805770874023

> <r_i_glide_ecoul>
-7.15726184844971

> <r_i_glide_erotb>
0.603626394729465

> <r_i_glide_esite>
0

> <r_i_glide_emodel>
-73.4134051623821

> <r_i_glide_energy>
-55.0378389358521

> <r_i_glide_einternal>
11.5533075332642

> <i_i_glide_confnum>
62

> <i_i_glide_posenum>
87

> <r_i_glide_eff_state_penalty>
0

> <s_user_duplicate_titles>
46595

> <s_m_subgroup_title>
dock_pv

> <s_m_subgroupid>
dock_pv1

> <b_m_subgroup_collapsed>
0

$$$$
641233
                    3D
 Schrodinger Suite 2021-1.
 66 69  0  0  1  0            999 V2000
   20.6775  -13.0480   18.8366 C   0  0  0  0  0  0
   20.0176  -11.9868   19.4358 C   0  0  0  0  0  0
   19.5179  -12.1360   20.7210 C   0  0  0  0  0  0
   19.7482  -13.3173   21.4408 C   0  0  0  0  0  0
   20.3423  -14.4018   20.8021 C   0  0  0  0  0  0
   20.8159  -14.2530   19.5154 C   0  0  0  0  0  0
   19.3062  -13.4480   22.9072 C   0  0  0  0  0  0
   20.4531  -13.5236   23.9452 C   0  0  0  0  0  0
   21.7119  -14.0723   23.6478 C   0  0  0  0  0  0
   22.6881  -14.1843   24.6317 C   0  0  0  0  0  0
   22.4160  -13.7454   25.9210 C   0  0  0  0  0  0
   21.1905  -13.1653   26.2307 C   0  0  0  0  0  0
   20.2168  -13.0559   25.2442 C   0  0  0  0  0  0
   18.2676  -14.6049   23.1157 C   0  0  2  0  0  0
   17.1274  -14.6252   22.0448 C   0  0  0  0  0  0
   16.5505  -13.5611   21.8009 O   0  0  0  0  0  0
   16.8572  -15.8011   21.4089 N   0  0  0  0  0  0
   17.5054  -17.0885   21.7007 C   0  0  0  0  0  0
   17.0102  -18.0696   20.6441 C   0  0  0  0  0  0
   15.6750  -17.4889   20.2340 C   0  0  0  0  0  0
   15.9170  -15.9731   20.2752 C   0  0  1  0  0  0
   14.5934  -15.1888   20.2942 C   0  0  0  0  0  0
   13.6953  -15.5135   21.0714 O   0  0  0  0  0  0
   14.5125  -14.1939   19.3946 N   0  0  0  0  0  0
   13.3501  -13.3389   19.1812 C   0  0  0  0  0  0
   13.0123  -12.4274   20.3512 C   0  0  0  0  0  0
   13.6376  -11.1895   20.4933 C   0  0  0  0  0  0
   13.2634  -10.3384   21.5307 C   0  0  0  0  0  0
   12.2529  -10.6972   22.4433 C   0  0  0  0  0  0
   11.6442  -11.9541   22.2752 C   0  0  0  0  0  0
   12.0161  -12.8052   21.2443 C   0  0  0  0  0  0
   11.8486   -9.7697   23.5381 C   0  0  0  0  0  0
   12.4159   -8.6531   23.6908 N   0  0  0  0  0  0
   10.8162  -10.2279   24.3209 N   0  0  0  0  0  0
   17.6160  -14.5450   24.4389 N   0  0  0  0  0  0
   18.8415  -15.5263   23.0917 H   0  0  0  0  0  0
   16.4681  -15.6910   19.3782 H   0  0  0  0  0  0
   21.0636  -12.9527   17.8325 H   0  0  0  0  0  0
   19.9041  -11.0532   18.9156 H   0  0  0  0  0  0
   19.0053  -11.3040   21.1828 H   0  0  0  0  0  0
   20.4659  -15.3496   21.3052 H   0  0  0  0  0  0
   21.2565  -15.0982   19.0211 H   0  0  0  0  0  0
   18.7886  -12.5146   23.1213 H   0  0  0  0  0  0
   21.9674  -14.4334   22.6669 H   0  0  0  0  0  0
   23.6496  -14.6190   24.4005 H   0  0  0  0  0  0
   23.1704  -13.8531   26.6866 H   0  0  0  0  0  0
   20.9886  -12.8124   27.2309 H   0  0  0  0  0  0
   19.2585  -12.6326   25.5049 H   0  0  0  0  0  0
   18.5936  -17.0442   21.6554 H   0  0  0  0  0  0
   17.2077  -17.4155   22.6981 H   0  0  0  0  0  0
   17.6833  -18.0528   19.7863 H   0  0  0  0  0  0
   16.9490  -19.0974   21.0021 H   0  0  0  0  0  0
   15.3526  -17.8390   19.2527 H   0  0  0  0  0  0
   14.9139  -17.7837   20.9589 H   0  0  0  0  0  0
   15.3247  -13.9977   18.8294 H   0  0  0  0  0  0
   13.5468  -12.7180   18.3065 H   0  0  0  0  0  0
   12.4841  -13.9484   18.9128 H   0  0  0  0  0  0
   14.4163  -10.8882   19.8082 H   0  0  0  0  0  0
   13.7701   -9.3875   21.6178 H   0  0  0  0  0  0
   10.8626  -12.3005   22.9351 H   0  0  0  0  0  0
   11.5272  -13.7645   21.1498 H   0  0  0  0  0  0
   12.0320   -8.1510   24.4765 H   0  0  0  0  0  0
   10.3259   -9.6246   24.9721 H   0  0  0  0  0  0
   10.3002  -11.0530   24.0507 H   0  0  0  0  0  0
   16.7166  -15.0196   24.4568 H   0  0  0  0  0  0
   18.1931  -14.9507   25.1627 H   0  0  0  0  0  0
  1  6  1  0  0  0
  1  2  2  0  0  0
  1 38  1  0  0  0
  2  3  1  0  0  0
  2 39  1  0  0  0
  3  4  2  0  0  0
  3 40  1  0  0  0
  4  5  1  0  0  0
  4  7  1  0  0  0
  5  6  2  0  0  0
  5 41  1  0  0  0
  6 42  1  0  0  0
  7  8  1  0  0  0
  7 14  1  0  0  0
  7 43  1  0  0  0
  8 13  1  0  0  0
  8  9  2  0  0  0
  9 10  1  0  0  0
  9 44  1  0  0  0
 10 11  2  0  0  0
 10 45  1  0  0  0
 11 12  1  0  0  0
 11 46  1  0  0  0
 12 13  2  0  0  0
 12 47  1  0  0  0
 13 48  1  0  0  0
 14 36  1  0  0  0
 14 15  1  0  0  0
 14 35  1  0  0  0
 15 16  2  0  0  0
 15 17  1  0  0  0
 17 21  1  0  0  0
 17 18  1  0  0  0
 18 19  1  0  0  0
 18 49  1  0  0  0
 18 50  1  0  0  0
 19 20  1  0  0  0
 19 51  1  0  0  0
 19 52  1  0  0  0
 20 21  1  0  0  0
 20 53  1  0  0  0
 20 54  1  0  0  0
 21 37  1  0  0  0
 21 22  1  0  0  0
 22 23  2  0  0  0
 22 24  1  0  0  0
 24 25  1  0  0  0
 24 55  1  0  0  0
 25 26  1  0  0  0
 25 56  1  0  0  0
 25 57  1  0  0  0
 26 31  1  0  0  0
 26 27  2  0  0  0
 27 28  1  0  0  0
 27 58  1  0  0  0
 28 29  2  0  0  0
 28 59  1  0  0  0
 29 30  1  0  0  0
 29 32  1  0  0  0
 30 31  2  0  0  0
 30 60  1  0  0  0
 31 61  1  0  0  0
 32 33  2  3  0  0
 32 34  1  0  0  0
 33 62  1  0  0  0
 34 63  1  0  0  0
 34 64  1  0  0  0
 35 65  1  0  0  0
 35 66  1  0  0  0
M  END
> <s_m_entry_id>
37774

> <s_m_entry_name>
ligand_docking-pose.121

> <s_m_Source_Path>
/home/csk/Desktop/cluster/DUD-E-result/thrb

> <s_m_Source_File>
ligand_docking-pose.sdf

> <i_m_Source_File_Index>
121

> <i_lp_mmshare_version>
53161

> <i_f3d_flags>
0

> <r_lp_tautomer_probability>
1

> <s_lp_Force_Field>
OPLS_2005

> <r_lp_Energy>
24.676349

> <b_lp_Chiralities_Consistent>
1

> <s_lp_Variant>
641233-1

> <s_i_glide_gridfile>
glide-grid_1ype

> <i_i_glide_lignum>
705

> <i_i_glide_rotatable_bonds>
10

> <r_i_docking_score>
-7.7552688619711

> <r_i_glide_ligand_efficiency>
-0.221579110342031

> <r_i_glide_ligand_efficiency_sa>
-0.724799962022407

> <r_i_glide_ligand_efficiency_ln>
-1.70245363412153

> <r_i_glide_gscore>
-7.7552688619711

> <r_i_glide_lipo>
-4.10481359058015

> <r_i_glide_hbond>
-0.335953814085685

> <r_i_glide_metal>
0

> <r_i_glide_rewards>
-0.878878911861113

> <r_i_glide_evdw>
-45.9796829223633

> <r_i_glide_ecoul>
-5.92080640792847

> <r_i_glide_erotb>
0.824418214192552

> <r_i_glide_esite>
-0.0729356523292714

> <r_i_glide_emodel>
-66.287148477829

> <r_i_glide_energy>
-51.9004893302917

> <r_i_glide_einternal>
15.5635375976562

> <i_i_glide_confnum>
97

> <i_i_glide_posenum>
28

> <r_i_glide_eff_state_penalty>
0

> <s_user_duplicate_titles>
641233

> <s_m_subgroup_title>
dock_pv

> <s_m_subgroupid>
dock_pv1

> <b_m_subgroup_collapsed>
0

$$$$
1562
                    3D
 Schrodinger Suite 2021-1.
 72 75  0  0  1  0            999 V2000
   16.6951  -15.4198   12.8131 C   0  0  0  0  0  0
   16.4257  -14.3053   13.8154 C   0  0  0  0  0  0
   16.5666  -12.9809   13.3924 C   0  0  0  0  0  0
   16.3081  -11.9033   14.2533 C   0  0  0  0  0  0
   15.9182  -12.1747   15.5763 C   0  0  0  0  0  0
   15.8006  -13.4977   16.0033 C   0  0  0  0  0  0
   16.0231  -14.5719   15.1353 C   0  0  0  0  0  0
   15.7601  -15.9932   15.6433 C   0  0  0  0  0  0
   14.4412  -16.1141   16.2605 N   0  0  0  0  0  0
   14.1893  -16.4809   17.5225 C   0  0  0  0  0  0
   15.0376  -16.8668   18.3277 O   0  0  0  0  0  0
   12.7152  -16.3558   17.9455 C   0  0  1  0  0  0
   12.0690  -17.7263   18.2004 C   0  0  0  0  0  0
   10.9506  -17.4256   19.1788 C   0  0  0  0  0  0
   11.5839  -16.3684   20.0721 C   0  0  0  0  0  0
   12.4812  -15.5997   19.1991 N   0  0  0  0  0  0
   12.9743  -14.3439   19.4235 C   0  0  0  0  0  0
   13.6158  -13.7289   18.5684 O   0  0  0  0  0  0
   12.6636  -13.5912   20.7591 C   0  0  2  0  0  0
   13.3742  -12.1852   20.9085 C   0  0  0  0  0  0
   14.9272  -12.2460   20.9384 C   0  0  0  0  0  0
   15.6445  -13.1619   21.7190 C   0  0  0  0  0  0
   17.0367  -13.1653   21.7305 C   0  0  0  0  0  0
   17.7333  -12.2550   20.9442 C   0  0  0  0  0  0
   17.0435  -11.3552   20.1400 C   0  0  0  0  0  0
   15.6508  -11.3574   20.1375 C   0  0  0  0  0  0
   12.7630  -11.2323   21.9651 C   0  0  0  0  0  0
   13.2690   -9.9282   22.0781 C   0  0  0  0  0  0
   12.7887   -9.0530   23.0504 C   0  0  0  0  0  0
   11.7733   -9.4674   23.9066 C   0  0  0  0  0  0
   11.2160  -10.7342   23.7736 C   0  0  0  0  0  0
   11.7033  -11.6092   22.8053 C   0  0  0  0  0  0
   12.8163  -14.4932   21.9210 N   0  0  0  0  0  0
   15.5492  -11.0665   16.5545 C   0  0  0  0  0  0
   16.3685  -10.4585   13.7498 C   0  0  0  0  0  0
   17.2160  -10.2531   12.5876 N   0  0  0  0  0  0
   17.0918  -15.0434   11.8690 H   0  0  0  0  0  0
   17.4204  -16.1276   13.2161 H   0  0  0  0  0  0
   15.7731  -15.9643   12.6022 H   0  0  0  0  0  0
   16.8486  -12.7943   12.3663 H   0  0  0  0  0  0
   15.4994  -13.7010   17.0193 H   0  0  0  0  0  0
   16.5670  -16.2628   16.3268 H   0  0  0  0  0  0
   15.7985  -16.7306   14.8434 H   0  0  0  0  0  0
   13.6522  -15.8742   15.6698 H   0  0  0  0  0  0
   12.1524  -15.8531   17.1556 H   0  0  0  0  0  0
   12.7805  -18.4141   18.6620 H   0  0  0  0  0  0
   11.7025  -18.1900   17.2838 H   0  0  0  0  0  0
   10.6037  -18.3042   19.7249 H   0  0  0  0  0  0
   10.0980  -16.9997   18.6480 H   0  0  0  0  0  0
   12.1809  -16.8556   20.8453 H   0  0  0  0  0  0
   10.8190  -15.7673   20.5599 H   0  0  0  0  0  0
   11.6016  -13.3741   20.6426 H   0  0  0  0  0  0
   13.1273  -11.6567   19.9841 H   0  0  0  0  0  0
   15.1528  -13.8978   22.3212 H   0  0  0  0  0  0
   17.5724  -13.8767   22.3425 H   0  0  0  0  0  0
   18.8133  -12.2542   20.9518 H   0  0  0  0  0  0
   17.5857  -10.6536   19.5251 H   0  0  0  0  0  0
   15.1253  -10.6530   19.5167 H   0  0  0  0  0  0
   14.0682   -9.5913   21.4367 H   0  0  0  0  0  0
   13.2176   -8.0681   23.1556 H   0  0  0  0  0  0
   11.3996   -8.7991   24.6691 H   0  0  0  0  0  0
   10.4074  -11.0405   24.4232 H   0  0  0  0  0  0
   11.2372  -12.5785   22.7391 H   0  0  0  0  0  0
   13.6333  -14.2535   22.4665 H   0  0  0  0  0  0
   12.0356  -14.3800   22.5654 H   0  0  0  0  0  0
   14.8725  -11.4390   17.3232 H   0  0  0  0  0  0
   16.4388  -10.6572   17.0325 H   0  0  0  0  0  0
   15.0162  -10.2562   16.0586 H   0  0  0  0  0  0
   15.3559  -10.1320   13.5135 H   0  0  0  0  0  0
   16.7357   -9.8041   14.5406 H   0  0  0  0  0  0
   16.8101  -10.7711   11.8197 H   0  0  0  0  0  0
   17.0723   -9.2826   12.3217 H   0  0  0  0  0  0
  1  2  1  0  0  0
  1 37  1  0  0  0
  1 38  1  0  0  0
  1 39  1  0  0  0
  2  7  1  0  0  0
  2  3  2  0  0  0
  3  4  1  0  0  0
  3 40  1  0  0  0
  4  5  2  0  0  0
  4 35  1  0  0  0
  5  6  1  0  0  0
  5 34  1  0  0  0
  6  7  2  0  0  0
  6 41  1  0  0  0
  7  8  1  0  0  0
  8  9  1  0  0  0
  8 42  1  0  0  0
  8 43  1  0  0  0
  9 10  1  0  0  0
  9 44  1  0  0  0
 10 11  2  0  0  0
 10 12  1  0  0  0
 12 16  1  0  0  0
 12 13  1  0  0  0
 12 45  1  0  0  0
 13 14  1  0  0  0
 13 46  1  0  0  0
 13 47  1  0  0  0
 14 15  1  0  0  0
 14 48  1  0  0  0
 14 49  1  0  0  0
 15 16  1  0  0  0
 15 50  1  0  0  0
 15 51  1  0  0  0
 16 17  1  0  0  0
 17 18  2  0  0  0
 17 19  1  0  0  0
 19 20  1  0  0  0
 19 33  1  0  0  0
 19 52  1  0  0  0
 20 21  1  0  0  0
 20 27  1  0  0  0
 20 53  1  0  0  0
 21 26  1  0  0  0
 21 22  2  0  0  0
 22 23  1  0  0  0
 22 54  1  0  0  0
 23 24  2  0  0  0
 23 55  1  0  0  0
 24 25  1  0  0  0
 24 56  1  0  0  0
 25 26  2  0  0  0
 25 57  1  0  0  0
 26 58  1  0  0  0
 27 32  1  0  0  0
 27 28  2  0  0  0
 28 29  1  0  0  0
 28 59  1  0  0  0
 29 30  2  0  0  0
 29 60  1  0  0  0
 30 31  1  0  0  0
 30 61  1  0  0  0
 31 32  2  0  0  0
 31 62  1  0  0  0
 32 63  1  0  0  0
 33 64  1  0  0  0
 33 65  1  0  0  0
 34 66  1  0  0  0
 34 67  1  0  0  0
 34 68  1  0  0  0
 35 36  1  0  0  0
 35 69  1  0  0  0
 35 70  1  0  0  0
 36 71  1  0  0  0
 36 72  1  0  0  0
M  END
> <s_m_entry_id>
37775

> <s_m_entry_name>
ligand_docking-pose.122

> <s_m_Source_Path>
/home/csk/Desktop/cluster/DUD-E-result/thrb

> <s_m_Source_File>
ligand_docking-pose.sdf

> <i_m_Source_File_Index>
122

> <i_lp_mmshare_version>
53161

> <i_f3d_flags>
0

> <r_lp_tautomer_probability>
1

> <s_lp_Force_Field>
OPLS_2005

> <r_lp_Energy>
31.575195

> <b_lp_Chiralities_Consistent>
1

> <s_lp_Variant>
1562-2

> <s_i_glide_gridfile>
glide-grid_1ype

> <i_i_glide_lignum>
2390

> <i_i_glide_rotatable_bonds>
10

> <r_i_docking_score>
-7.74313059536111

> <r_i_glide_ligand_efficiency>
-0.215086960982253

> <r_i_glide_ligand_efficiency_sa>
-0.710201496500896

> <r_i_glide_ligand_efficiency_ln>
-1.68934190069459

> <r_i_glide_gscore>
-7.74313059536111

> <r_i_glide_lipo>
-2.93662577572471

> <r_i_glide_hbond>
-0.621748686621169

> <r_i_glide_metal>
0

> <r_i_glide_rewards>
-0.483491514815021

> <r_i_glide_evdw>
-47.6798439025879

> <r_i_glide_ecoul>
-13.4454193115234

> <r_i_glide_erotb>
0.778239379690303

> <r_i_glide_esite>
-0.0786989060326023

> <r_i_glide_emodel>
-84.1290323731225

> <r_i_glide_energy>
-61.1252632141113

> <r_i_glide_einternal>
11.2752885818481

> <i_i_glide_confnum>
47

> <i_i_glide_posenum>
47

> <r_i_glide_eff_state_penalty>
0

> <s_user_duplicate_titles>
1562

> <s_m_subgroup_title>
dock_pv

> <s_m_subgroupid>
dock_pv1

> <b_m_subgroup_collapsed>
0

$$$$
74448
                    3D
 Schrodinger Suite 2021-1.
 43 45  0  0  1  0            999 V2000
   18.5988  -12.2529   19.1592 C   0  0  0  0  0  0
   17.2991  -11.8530   18.8606 C   0  0  0  0  0  0
   16.2914  -12.0893   19.7935 C   0  0  0  0  0  0
   16.5260  -12.7397   20.9727 N   0  0  0  0  0  0
   17.7919  -13.1563   21.2489 C   0  0  0  0  0  0
   18.8577  -12.8882   20.3707 C   0  0  0  0  0  0
   17.8929  -13.8675   22.4358 O   0  0  0  0  0  0
   19.1036  -14.2550   22.9749 C   0  0  0  0  0  0
   19.3723  -13.9152   24.2964 C   0  0  0  0  0  0
   20.6269  -14.1569   24.8479 C   0  0  0  0  0  0
   21.6440  -14.7874   24.1038 C   0  0  0  0  0  0
   21.3002  -15.2469   22.8182 C   0  0  0  0  0  0
   20.0467  -15.0004   22.2651 C   0  0  0  0  0  0
   23.0334  -14.9700   24.6306 C   0  0  0  0  0  0
   23.9479  -15.4686   23.9209 N   0  0  0  0  0  0
   23.2159  -14.5420   25.9211 N   0  0  0  0  0  0
   15.0279  -11.6063   19.5094 O   0  0  0  0  0  0
   14.0957  -11.4156   20.4998 C   0  0  0  0  0  0
   14.0163  -10.1820   21.1393 C   0  0  0  0  0  0
   13.0823   -9.9843   22.1522 C   0  0  0  0  0  0
   12.2057  -11.0113   22.5488 C   0  0  0  0  0  0
   12.2880  -12.2370   21.8565 C   0  0  0  0  0  0
   13.2211  -12.4392   20.8452 C   0  0  0  0  0  0
   11.2427  -10.7909   23.6692 C   0  0  0  0  0  0
   11.2160   -9.7105   24.3175 N   0  0  0  0  0  0
   10.4160  -11.8530   23.9210 N   0  0  0  0  0  0
   19.4037  -12.0648   18.4643 H   0  0  0  0  0  0
   17.0739  -11.3448   17.9356 H   0  0  0  0  0  0
   19.8752  -13.1661   20.5888 H   0  0  0  0  0  0
   18.6073  -13.4529   24.8967 H   0  0  0  0  0  0
   20.7892  -13.8185   25.8601 H   0  0  0  0  0  0
   22.0161  -15.7858   22.2146 H   0  0  0  0  0  0
   19.8282  -15.3501   21.2669 H   0  0  0  0  0  0
   24.8230  -15.5198   24.4217 H   0  0  0  0  0  0
   24.1115  -14.6346   26.3869 H   0  0  0  0  0  0
   22.4409  -14.1858   26.4550 H   0  0  0  0  0  0
   14.6935   -9.3862   20.8653 H   0  0  0  0  0  0
   13.0596   -9.0221   22.6449 H   0  0  0  0  0  0
   11.6364  -13.0632   22.0963 H   0  0  0  0  0  0
   13.2759  -13.3918   20.3394 H   0  0  0  0  0  0
   10.4756   -9.7332   25.0096 H   0  0  0  0  0  0
    9.6496  -11.7503   24.5864 H   0  0  0  0  0  0
   10.5652  -12.7719   23.5211 H   0  0  0  0  0  0
  1  6  1  0  0  0
  1  2  2  0  0  0
  1 27  1  0  0  0
  2  3  1  0  0  0
  2 28  1  0  0  0
  3  4  2  0  0  0
  3 17  1  0  0  0
  4  5  1  0  0  0
  5  6  2  0  0  0
  5  7  1  0  0  0
  6 29  1  0  0  0
  7  8  1  0  0  0
  8 13  1  0  0  0
  8  9  2  0  0  0
  9 10  1  0  0  0
  9 30  1  0  0  0
 10 11  2  0  0  0
 10 31  1  0  0  0
 11 12  1  0  0  0
 11 14  1  0  0  0
 12 13  2  0  0  0
 12 32  1  0  0  0
 13 33  1  0  0  0
 14 15  2  3  0  0
 14 16  1  0  0  0
 15 34  1  0  0  0
 16 35  1  0  0  0
 16 36  1  0  0  0
 17 18  1  0  0  0
 18 23  1  0  0  0
 18 19  2  0  0  0
 19 20  1  0  0  0
 19 37  1  0  0  0
 20 21  2  0  0  0
 20 38  1  0  0  0
 21 22  1  0  0  0
 21 24  1  0  0  0
 22 23  2  0  0  0
 22 39  1  0  0  0
 23 40  1  0  0  0
 24 25  2  3  0  0
 24 26  1  0  0  0
 25 41  1  0  0  0
 26 42  1  0  0  0
 26 43  1  0  0  0
M  END
> <s_m_entry_id>
37776

> <s_m_entry_name>
ligand_docking-pose.123

> <s_m_Source_Path>
/home/csk/Desktop/cluster/DUD-E-result/thrb

> <s_m_Source_File>
ligand_docking-pose.sdf

> <i_m_Source_File_Index>
123

> <i_lp_mmshare_version>
53161

> <i_f3d_flags>
0

> <r_lp_tautomer_probability>
1

> <s_lp_Force_Field>
OPLS_2005

> <r_lp_Energy>
12.676763

> <b_lp_Chiralities_Consistent>
1

> <s_lp_Variant>
74448-1

> <s_i_glide_gridfile>
glide-grid_1ype

> <i_i_glide_lignum>
2037

> <i_i_glide_rotatable_bonds>
6

> <r_i_docking_score>
-7.70613088133216

> <r_i_glide_ligand_efficiency>
-0.296389649282006

> <r_i_glide_ligand_efficiency_sa>
-0.878053169760989

> <r_i_glide_ligand_efficiency_ln>
-1.80975955160303

> <r_i_glide_gscore>
-7.70613088133216

> <r_i_glide_lipo>
-2.80166993928919

> <r_i_glide_hbond>
-0.627294227707666

> <r_i_glide_metal>
0

> <r_i_glide_rewards>
-1.20199238123327

> <r_i_glide_evdw>
-38.0757141113281

> <r_i_glide_ecoul>
-11.1150760650635

> <r_i_glide_erotb>
0.630616923236282

> <r_i_glide_esite>
-0.134744141012385

> <r_i_glide_emodel>
-70.4908183840805

> <r_i_glide_energy>
-49.1907901763916

> <r_i_glide_einternal>
4.01383495330811

> <i_i_glide_confnum>
2

> <i_i_glide_posenum>
373

> <r_i_glide_eff_state_penalty>
0

> <s_user_duplicate_titles>
74448

> <s_m_subgroup_title>
dock_pv

> <s_m_subgroupid>
dock_pv1

> <b_m_subgroup_collapsed>
0

$$$$
19808
                    3D
 Schrodinger Suite 2021-1.
 60 63  0  0  1  0            999 V2000
   21.5786  -13.2608   26.3190 C   0  0  0  0  0  0
   20.2112  -13.4515   26.4738 C   0  0  0  0  0  0
   19.6132  -14.6024   25.9775 C   0  0  0  0  0  0
   20.3861  -15.5529   25.3076 C   0  0  0  0  0  0
   21.7672  -15.3735   25.1783 C   0  0  0  0  0  0
   22.3661  -14.2205   25.6843 C   0  0  0  0  0  0
   19.7002  -16.7471   24.6680 C   0  0  0  0  0  0
   19.7594  -16.6893   22.7765 S   0  0  0  0  0  0
   18.5066  -17.2737   22.2841 O   0  0  0  0  0  0
   21.0436  -17.2377   22.3257 O   0  0  0  0  0  0
   19.7143  -14.9620   22.3675 N   0  0  3  0  0  0
   20.7085  -14.3813   21.4630 C   0  0  0  0  0  0
   19.9569  -13.9802   20.1933 C   0  0  2  0  0  0
   20.7936  -13.2368   19.1574 C   0  0  0  0  0  0
   19.8710  -12.2436   18.4778 C   0  0  0  0  0  0
   18.6480  -12.0764   19.4085 C   0  0  2  0  0  0
   18.8549  -13.0474   20.5080 N   0  0  0  0  0  0
   18.1776  -13.0514   21.7014 C   0  0  0  0  0  0
   17.2698  -12.2534   21.9211 O   0  0  0  0  0  0
   18.5706  -14.1023   22.7769 C   0  0  0  0  0  0
   17.2841  -12.1379   18.6586 C   0  0  0  0  0  0
   17.1333  -11.4720   17.6325 O   0  0  0  0  0  0
   16.2937  -12.8733   19.1941 N   0  0  0  0  0  0
   14.8819  -12.8879   18.8087 C   0  0  0  0  0  0
   14.0088  -12.2902   19.9115 C   0  0  0  0  0  0
   12.9295  -13.0012   20.4400 C   0  0  0  0  0  0
   12.1944  -12.4733   21.5034 C   0  0  0  0  0  0
   12.5054  -11.2157   22.0575 C   0  0  0  0  0  0
   13.5811  -10.5106   21.4888 C   0  0  0  0  0  0
   14.3249  -11.0398   20.4418 C   0  0  0  0  0  0
   11.7574  -10.6286   23.2090 C   0  0  0  0  0  0
   12.0071   -9.4581   23.6053 N   0  0  0  0  0  0
   10.8161  -11.4530   23.7806 N   0  0  0  0  0  0
   19.5141  -14.8642   19.7340 H   0  0  0  0  0  0
   18.6272  -11.0807   19.8571 H   0  0  0  0  0  0
   22.0154  -12.3529   26.7023 H   0  0  0  0  0  0
   19.6169  -12.7051   26.9758 H   0  0  0  0  0  0
   18.5457  -14.7358   26.0879 H   0  0  0  0  0  0
   22.3672  -16.1086   24.6615 H   0  0  0  0  0  0
   23.4304  -14.0657   25.5766 H   0  0  0  0  0  0
   18.6476  -16.7854   24.9460 H   0  0  0  0  0  0
   20.1572  -17.6848   24.9819 H   0  0  0  0  0  0
   21.4885  -15.1105   21.2436 H   0  0  0  0  0  0
   21.1767  -13.5306   21.9606 H   0  0  0  0  0  0
   21.2184  -13.9430   18.4479 H   0  0  0  0  0  0
   21.6162  -12.7033   19.6358 H   0  0  0  0  0  0
   19.5974  -12.6526   17.5033 H   0  0  0  0  0  0
   20.4127  -11.3100   18.3200 H   0  0  0  0  0  0
   18.8320  -13.5721   23.6908 H   0  0  0  0  0  0
   17.7052  -14.7210   23.0204 H   0  0  0  0  0  0
   16.5095  -13.3692   20.0474 H   0  0  0  0  0  0
   14.5917  -13.9179   18.5978 H   0  0  0  0  0  0
   14.7125  -12.3197   17.8915 H   0  0  0  0  0  0
   12.6680  -13.9741   20.0492 H   0  0  0  0  0  0
   11.3783  -13.0636   21.8939 H   0  0  0  0  0  0
   13.8743   -9.5424   21.8721 H   0  0  0  0  0  0
   15.1692  -10.4822   20.0627 H   0  0  0  0  0  0
   11.4212   -9.2143   24.3892 H   0  0  0  0  0  0
   10.1482  -11.0949   24.4560 H   0  0  0  0  0  0
   10.7123  -12.4161   23.4947 H   0  0  0  0  0  0
  1  6  1  0  0  0
  1  2  2  0  0  0
  1 36  1  0  0  0
  2  3  1  0  0  0
  2 37  1  0  0  0
  3  4  2  0  0  0
  3 38  1  0  0  0
  4  5  1  0  0  0
  4  7  1  0  0  0
  5  6  2  0  0  0
  5 39  1  0  0  0
  6 40  1  0  0  0
  7  8  1  0  0  0
  7 41  1  0  0  0
  7 42  1  0  0  0
  8  9  2  0  0  0
  8 10  2  0  0  0
  8 11  1  0  0  0
 11 20  1  0  0  0
 11 12  1  0  0  0
 12 13  1  0  0  0
 12 43  1  0  0  0
 12 44  1  0  0  0
 13 34  1  0  0  0
 13 17  1  0  0  0
 13 14  1  0  0  0
 14 15  1  0  0  0
 14 45  1  0  0  0
 14 46  1  0  0  0
 15 16  1  0  0  0
 15 47  1  0  0  0
 15 48  1  0  0  0
 16 35  1  0  0  0
 16 17  1  0  0  0
 16 21  1  0  0  0
 17 18  1  0  0  0
 18 19  2  0  0  0
 18 20  1  0  0  0
 20 49  1  0  0  0
 20 50  1  0  0  0
 21 22  2  0  0  0
 21 23  1  0  0  0
 23 24  1  0  0  0
 23 51  1  0  0  0
 24 25  1  0  0  0
 24 52  1  0  0  0
 24 53  1  0  0  0
 25 30  1  0  0  0
 25 26  2  0  0  0
 26 27  1  0  0  0
 26 54  1  0  0  0
 27 28  2  0  0  0
 27 55  1  0  0  0
 28 29  1  0  0  0
 28 31  1  0  0  0
 29 30  2  0  0  0
 29 56  1  0  0  0
 30 57  1  0  0  0
 31 32  2  3  0  0
 31 33  1  0  0  0
 32 58  1  0  0  0
 33 59  1  0  0  0
 33 60  1  0  0  0
M  END
> <s_m_entry_id>
37777

> <s_m_entry_name>
ligand_docking-pose.124

> <s_m_Source_Path>
/home/csk/Desktop/cluster/DUD-E-result/thrb

> <s_m_Source_File>
ligand_docking-pose.sdf

> <i_m_Source_File_Index>
124

> <i_lp_mmshare_version>
53161

> <i_f3d_flags>
0

> <r_lp_tautomer_probability>
1

> <s_lp_Force_Field>
OPLS_2005

> <r_lp_Energy>
7.486589

> <b_lp_Chiralities_Consistent>
1

> <s_lp_Variant>
19808-1

> <s_i_glide_gridfile>
glide-grid_1ype

> <i_i_glide_lignum>
1512

> <i_i_glide_rotatable_bonds>
8

> <r_i_docking_score>
-7.69869646718068

> <r_i_glide_ligand_efficiency>
-0.233293832338808

> <r_i_glide_ligand_efficiency_sa>
-0.748297975330875

> <r_i_glide_ligand_efficiency_ln>
-1.71215023258403

> <r_i_glide_gscore>
-7.69869646718068

> <r_i_glide_lipo>
-3.43950776853231

> <r_i_glide_hbond>
-0.221661546225575

> <r_i_glide_metal>
0

> <r_i_glide_rewards>
-1.01751593951361

> <r_i_glide_evdw>
-51.3632431030273

> <r_i_glide_ecoul>
-6.78563547134399

> <r_i_glide_erotb>
0.641265141270727

> <r_i_glide_esite>
-0.0752688783269382

> <r_i_glide_emodel>
-78.010428547107

> <r_i_glide_energy>
-58.1488785743713

> <r_i_glide_einternal>
12.3406095504761

> <i_i_glide_confnum>
83

> <i_i_glide_posenum>
2

> <r_i_glide_eff_state_penalty>
0

> <s_user_duplicate_titles>
19808

> <s_m_subgroup_title>
dock_pv

> <s_m_subgroupid>
dock_pv1

> <b_m_subgroup_collapsed>
0

$$$$
347431
                    3D
 Schrodinger Suite 2021-1.
 70 72  0  0  1  0            999 V2000
   14.0148   -9.4831   21.4985 C   0  0  0  0  0  0
   12.9259   -9.4520   22.3536 C   0  0  0  0  0  0
   12.3191  -10.6568   22.7420 C   0  0  0  0  0  0
   12.7608  -11.8589   22.2591 N   0  0  0  0  0  0
   13.8288  -11.8722   21.4216 C   0  0  0  0  0  0
   14.4903  -10.7055   21.0314 C   0  0  0  0  0  0
   15.6899  -10.7348   20.1129 C   0  0  0  0  0  0
   16.8706  -11.3026   20.7187 N   0  0  0  0  0  0
   17.4845  -12.4099   20.3026 C   0  0  0  0  0  0
   17.0641  -13.1335   19.3980 O   0  0  0  0  0  0
   18.8065  -12.7349   21.0285 C   0  0  2  0  0  0
   19.9709  -12.3435   20.0545 C   0  0  0  0  0  0
   21.2183  -13.2097   20.1058 C   0  0  0  0  0  0
   20.7854  -14.6628   20.2494 C   0  0  0  0  0  0
   20.1367  -14.8805   21.5942 C   0  0  0  0  0  0
   18.8829  -14.1062   21.6560 N   0  0  0  0  0  0
   17.9152  -14.5014   22.5472 C   0  0  0  0  0  0
   16.8879  -13.8416   22.7263 O   0  0  0  0  0  0
   18.1077  -15.7718   23.4574 C   0  0  1  0  0  0
   18.5346  -15.3582   24.8935 C   0  0  0  0  0  0
   19.9014  -14.6196   24.9963 C   0  0  0  0  0  0
   20.1047  -13.9898   26.3835 C   0  0  0  0  0  0
   21.3931  -13.1358   26.4304 C   0  0  0  0  0  0
   22.6435  -13.9182   25.9515 C   0  0  0  0  0  0
   22.4131  -14.7218   24.6576 C   0  0  0  0  0  0
   21.1149  -15.5502   24.7432 C   0  0  0  0  0  0
   16.8592  -16.5771   23.4774 N   0  0  1  0  0  0
   16.6507  -17.3590   22.2534 C   0  0  0  0  0  0
   15.2143  -17.9014   22.1862 C   0  0  0  0  0  0
   14.4159  -17.9229   23.1212 O   0  0  0  0  0  0
   14.9681  -18.4487   20.9651 O   0  0  0  0  0  0
   11.2158  -10.6595   23.7344 C   0  0  0  0  0  0
   10.9071   -9.5951   24.3214 N   0  0  0  0  0  0
   10.5663  -11.8529   23.9202 N   0  0  0  0  0  0
   18.8688  -12.0345   21.8650 H   0  0  0  0  0  0
   18.8854  -16.4474   23.1254 H   0  0  0  0  0  0
   14.5071   -8.5626   21.2259 H   0  0  0  0  0  0
   12.5848   -8.5036   22.7404 H   0  0  0  0  0  0
   14.1694  -12.8435   21.0899 H   0  0  0  0  0  0
   16.0160   -9.7212   19.9213 H   0  0  0  0  0  0
   15.4153  -11.1873   19.1575 H   0  0  0  0  0  0
   17.2674  -10.7874   21.4927 H   0  0  0  0  0  0
   20.2590  -11.3079   20.2481 H   0  0  0  0  0  0
   19.6415  -12.3495   19.0101 H   0  0  0  0  0  0
   21.8555  -12.9162   20.9416 H   0  0  0  0  0  0
   21.7987  -13.0499   19.1985 H   0  0  0  0  0  0
   21.6179  -15.3499   20.1723 H   0  0  0  0  0  0
   20.0803  -14.9542   19.4838 H   0  0  0  0  0  0
   20.8262  -14.5555   22.3663 H   0  0  0  0  0  0
   19.9796  -15.9579   21.5956 H   0  0  0  0  0  0
   18.5709  -16.2461   25.5259 H   0  0  0  0  0  0
   17.7443  -14.7342   25.3202 H   0  0  0  0  0  0
   19.9172  -13.8017   24.2757 H   0  0  0  0  0  0
   20.1139  -14.7862   27.1209 H   0  0  0  0  0  0
   19.2436  -13.3751   26.6457 H   0  0  0  0  0  0
   21.5526  -12.7690   27.4456 H   0  0  0  0  0  0
   21.2586  -12.2495   25.8099 H   0  0  0  0  0  0
   22.9530  -14.6210   26.7205 H   0  0  0  0  0  0
   23.4841  -13.2366   25.8193 H   0  0  0  0  0  0
   23.2624  -15.3817   24.4748 H   0  0  0  0  0  0
   22.3725  -14.0334   23.8129 H   0  0  0  0  0  0
   20.9966  -16.1203   23.8236 H   0  0  0  0  0  0
   21.1728  -16.3250   25.5100 H   0  0  0  0  0  0
   16.8846  -17.2207   24.2560 H   0  0  0  0  0  0
   16.7932  -16.7236   21.3779 H   0  0  0  0  0  0
   17.3636  -18.1828   22.2004 H   0  0  0  0  0  0
   14.0742  -18.7960   20.9306 H   0  0  0  0  0  0
   10.0908   -9.7234   24.9199 H   0  0  0  0  0  0
    9.7354  -11.8606   24.5104 H   0  0  0  0  0  0
   10.8751  -12.7279   23.5125 H   0  0  0  0  0  0
  1  6  1  0  0  0
  1  2  2  0  0  0
  1 37  1  0  0  0
  2  3  1  0  0  0
  2 38  1  0  0  0
  3  4  2  0  0  0
  3 32  1  0  0  0
  4  5  1  0  0  0
  5  6  2  0  0  0
  5 39  1  0  0  0
  6  7  1  0  0  0
  7  8  1  0  0  0
  7 40  1  0  0  0
  7 41  1  0  0  0
  8  9  1  0  0  0
  8 42  1  0  0  0
  9 10  2  0  0  0
  9 11  1  0  0  0
 11 35  1  0  0  0
 11 16  1  0  0  0
 11 12  1  0  0  0
 12 13  1  0  0  0
 12 43  1  0  0  0
 12 44  1  0  0  0
 13 14  1  0  0  0
 13 45  1  0  0  0
 13 46  1  0  0  0
 14 15  1  0  0  0
 14 47  1  0  0  0
 14 48  1  0  0  0
 15 16  1  0  0  0
 15 49  1  0  0  0
 15 50  1  0  0  0
 16 17  1  0  0  0
 17 18  2  0  0  0
 17 19  1  0  0  0
 19 36  1  0  0  0
 19 20  1  0  0  0
 19 27  1  0  0  0
 20 21  1  0  0  0
 20 51  1  0  0  0
 20 52  1  0  0  0
 21 26  1  0  0  0
 21 22  1  0  0  0
 21 53  1  0  0  0
 22 23  1  0  0  0
 22 54  1  0  0  0
 22 55  1  0  0  0
 23 24  1  0  0  0
 23 56  1  0  0  0
 23 57  1  0  0  0
 24 25  1  0  0  0
 24 58  1  0  0  0
 24 59  1  0  0  0
 25 26  1  0  0  0
 25 60  1  0  0  0
 25 61  1  0  0  0
 26 62  1  0  0  0
 26 63  1  0  0  0
 27 28  1  0  0  0
 27 64  1  0  0  0
 28 29  1  0  0  0
 28 65  1  0  0  0
 28 66  1  0  0  0
 29 30  2  0  0  0
 29 31  1  0  0  0
 31 67  1  0  0  0
 32 33  2  3  0  0
 32 34  1  0  0  0
 33 68  1  0  0  0
 34 69  1  0  0  0
 34 70  1  0  0  0
M  END
> <s_m_entry_id>
37778

> <s_m_entry_name>
ligand_docking-pose.125

> <s_m_Source_Path>
/home/csk/Desktop/cluster/DUD-E-result/thrb

> <s_m_Source_File>
ligand_docking-pose.sdf

> <i_m_Source_File_Index>
125

> <i_lp_mmshare_version>
53161

> <i_f3d_flags>
0

> <r_lp_tautomer_probability>
1

> <s_lp_Force_Field>
OPLS_2005

> <r_lp_Energy>
39.597133

> <b_lp_Chiralities_Consistent>
1

> <s_lp_Variant>
347431-1

> <s_i_glide_gridfile>
glide-grid_1ype

> <i_i_glide_lignum>
2010

> <i_i_glide_rotatable_bonds>
13

> <r_i_docking_score>
-7.69678745411004

> <r_i_glide_ligand_efficiency>
-0.226376101591472

> <r_i_glide_ligand_efficiency_sa>
-0.733370689380879

> <r_i_glide_ligand_efficiency_ln>
-1.7004362361884

> <r_i_glide_gscore>
-7.69678745411004

> <r_i_glide_lipo>
-3.5095840711445

> <r_i_glide_hbond>
-0.912347776255723

> <r_i_glide_metal>
0

> <r_i_glide_rewards>
-0.748968604763966

> <r_i_glide_evdw>
-40.7051887512207

> <r_i_glide_ecoul>
-8.52229404449463

> <r_i_glide_erotb>
0.905427819356982

> <r_i_glide_esite>
-0.1177112770676

> <r_i_glide_emodel>
-67.3771163709302

> <r_i_glide_energy>
-49.2274827957153

> <r_i_glide_einternal>
7.88362455368042

> <i_i_glide_confnum>
53

> <i_i_glide_posenum>
108

> <r_i_glide_eff_state_penalty>
0

> <s_user_duplicate_titles>
347431

> <s_m_subgroup_title>
dock_pv

> <s_m_subgroupid>
dock_pv1

> <b_m_subgroup_collapsed>
0

$$$$
114124
                    3D
 Schrodinger Suite 2021-1.
 67 71  0  0  1  0            999 V2000
   11.7949  -15.5307   20.3655 C   0  0  0  0  0  0
   12.9725  -14.8503   19.7042 C   0  0  0  0  0  0
   13.3351  -15.0887   18.4619 N   0  0  0  0  0  0
   14.4434  -14.3070   18.2676 C   0  0  0  0  0  0
   14.7613  -13.6037   19.4463 C   0  0  0  0  0  0
   13.7981  -13.9549   20.3648 N   0  0  0  0  0  0
   13.6972  -13.4789   21.7446 C   0  0  0  0  0  0
   13.1958  -12.0475   21.9287 C   0  0  0  0  0  0
   13.9635  -10.9487   21.5206 C   0  0  0  0  0  0
   13.5574   -9.6524   21.8188 C   0  0  0  0  0  0
   12.3910   -9.4525   22.5469 C   0  0  0  0  0  0
   11.6158  -10.5341   22.9510 C   0  0  0  0  0  0
   12.0049  -11.8284   22.6256 C   0  0  0  0  0  0
   15.8005  -12.7871   19.6063 N   0  0  0  0  0  0
   16.5734  -12.6665   18.5000 C   0  0  0  0  0  0
   16.3806  -13.2469   17.2910 N   0  0  0  0  0  0
   15.3032  -14.0799   17.1765 C   0  0  0  0  0  0
   15.0454  -14.7328   15.9840 O   0  0  0  0  0  0
   15.8062  -14.5074   14.8518 C   0  0  0  0  0  0
   15.9125  -13.2266   14.2960 C   0  0  0  0  0  0
   16.6870  -12.9660   13.1487 C   0  0  0  0  0  0
   17.3447  -14.0692   12.5679 C   0  0  0  0  0  0
   17.2330  -15.3537   13.1018 C   0  0  0  0  0  0
   16.4595  -15.5747   14.2366 C   0  0  0  0  0  0
   16.3559  -16.8401   14.7490 O   0  0  0  0  0  0
   16.8241  -11.5949   12.5747 C   0  0  0  0  0  0
   17.6855  -11.3474   11.6886 N   0  0  0  0  0  0
   15.9818  -10.6530   13.1086 N   0  0  0  0  0  0
   17.6736  -11.8528   18.6043 O   0  0  0  0  0  0
   18.7225  -12.2474   19.4053 C   0  0  0  0  0  0
   19.9910  -12.2538   18.8331 C   0  0  0  0  0  0
   21.0920  -12.6508   19.5802 C   0  0  0  0  0  0
   20.9380  -13.0608   20.9023 C   0  0  0  0  0  0
   19.6729  -13.0639   21.5045 C   0  0  0  0  0  0
   18.5784  -12.6117   20.7547 C   0  0  0  0  0  0
   19.5318  -13.4782   22.9556 C   0  0  0  0  0  0
   20.3980  -13.1143   23.7544 O   0  0  0  0  0  0
   18.4508  -14.2080   23.3473 N   0  0  0  0  0  0
   18.1100  -14.3641   24.7651 C   0  0  0  0  0  0
   17.6027  -15.0144   22.4640 C   0  0  0  0  0  0
   11.1113  -15.9767   19.6434 H   0  0  0  0  0  0
   12.1190  -16.3278   21.0344 H   0  0  0  0  0  0
   11.2166  -14.8310   20.9685 H   0  0  0  0  0  0
   13.1039  -14.1872   22.3249 H   0  0  0  0  0  0
   14.6954  -13.5279   22.1788 H   0  0  0  0  0  0
   14.9074  -11.0707   21.0218 H   0  0  0  0  0  0
   14.1644   -8.8096   21.5224 H   0  0  0  0  0  0
   12.0869   -8.4527   22.8144 H   0  0  0  0  0  0
   10.7093  -10.3717   23.5188 H   0  0  0  0  0  0
   11.3948  -12.6532   22.9595 H   0  0  0  0  0  0
   15.3852  -12.4319   14.8004 H   0  0  0  0  0  0
   17.9486  -13.9580   11.6776 H   0  0  0  0  0  0
   17.7405  -16.1826   12.6289 H   0  0  0  0  0  0
   15.7177  -16.8759   15.4673 H   0  0  0  0  0  0
   18.1951  -12.1705   11.4084 H   0  0  0  0  0  0
   16.0018   -9.7125   12.7225 H   0  0  0  0  0  0
   15.1694  -10.9414   13.6275 H   0  0  0  0  0  0
   20.1222  -11.9642   17.8007 H   0  0  0  0  0  0
   22.0630  -12.6521   19.1224 H   0  0  0  0  0  0
   21.8117  -13.3782   21.4561 H   0  0  0  0  0  0
   17.6136  -12.5430   21.2320 H   0  0  0  0  0  0
   18.7081  -13.7306   25.4222 H   0  0  0  0  0  0
   17.0653  -14.1069   24.9337 H   0  0  0  0  0  0
   18.2534  -15.4012   25.0749 H   0  0  0  0  0  0
   17.8814  -14.9619   21.4116 H   0  0  0  0  0  0
   17.6625  -16.0656   22.7529 H   0  0  0  0  0  0
   16.5590  -14.7066   22.5558 H   0  0  0  0  0  0
  1  2  1  0  0  0
  1 41  1  0  0  0
  1 42  1  0  0  0
  1 43  1  0  0  0
  2  6  1  0  0  0
  2  3  2  0  0  0
  3  4  1  0  0  0
  4 17  2  0  0  0
  4  5  1  0  0  0
  5  6  1  0  0  0
  5 14  2  0  0  0
  6  7  1  0  0  0
  7  8  1  0  0  0
  7 44  1  0  0  0
  7 45  1  0  0  0
  8 13  1  0  0  0
  8  9  2  0  0  0
  9 10  1  0  0  0
  9 46  1  0  0  0
 10 11  2  0  0  0
 10 47  1  0  0  0
 11 12  1  0  0  0
 11 48  1  0  0  0
 12 13  2  0  0  0
 12 49  1  0  0  0
 13 50  1  0  0  0
 14 15  1  0  0  0
 15 16  2  0  0  0
 15 29  1  0  0  0
 16 17  1  0  0  0
 17 18  1  0  0  0
 18 19  1  0  0  0
 19 24  1  0  0  0
 19 20  2  0  0  0
 20 21  1  0  0  0
 20 51  1  0  0  0
 21 22  2  0  0  0
 21 26  1  0  0  0
 22 23  1  0  0  0
 22 52  1  0  0  0
 23 24  2  0  0  0
 23 53  1  0  0  0
 24 25  1  0  0  0
 25 54  1  0  0  0
 26 27  2  3  0  0
 26 28  1  0  0  0
 27 55  1  0  0  0
 28 56  1  0  0  0
 28 57  1  0  0  0
 29 30  1  0  0  0
 30 35  1  0  0  0
 30 31  2  0  0  0
 31 32  1  0  0  0
 31 58  1  0  0  0
 32 33  2  0  0  0
 32 59  1  0  0  0
 33 34  1  0  0  0
 33 60  1  0  0  0
 34 35  2  0  0  0
 34 36  1  0  0  0
 35 61  1  0  0  0
 36 37  2  0  0  0
 36 38  1  0  0  0
 38 39  1  0  0  0
 38 40  1  0  0  0
 39 62  1  0  0  0
 39 63  1  0  0  0
 39 64  1  0  0  0
 40 65  1  0  0  0
 40 66  1  0  0  0
 40 67  1  0  0  0
M  END
> <s_m_entry_id>
37779

> <s_m_entry_name>
ligand_docking-pose.126

> <s_m_Source_Path>
/home/csk/Desktop/cluster/DUD-E-result/thrb

> <s_m_Source_File>
ligand_docking-pose.sdf

> <i_m_Source_File_Index>
126

> <i_lp_mmshare_version>
53161

> <i_f3d_flags>
0

> <r_lp_tautomer_probability>
1

> <s_lp_Force_Field>
OPLS_2005

> <r_lp_Energy>
32.868686

> <b_lp_Chiralities_Consistent>
1

> <s_lp_Variant>
114124-2

> <s_i_glide_gridfile>
glide-grid_1ype

> <i_i_glide_lignum>
3147

> <i_i_glide_rotatable_bonds>
10

> <r_i_docking_score>
-7.6961689294176

> <r_i_glide_ligand_efficiency>
-0.19240422323544

> <r_i_glide_ligand_efficiency_sa>
-0.658013186734122

> <r_i_glide_ligand_efficiency_ln>
-1.64136634450372

> <r_i_glide_gscore>
-7.6961689294176

> <r_i_glide_lipo>
-2.93634985802036

> <r_i_glide_hbond>
-0.32

> <r_i_glide_metal>
0

> <r_i_glide_rewards>
-0.837365678798219

> <r_i_glide_evdw>
-53.1291618347168

> <r_i_glide_ecoul>
-9.05667400360107

> <r_i_glide_erotb>
0.500382885856541

> <r_i_glide_esite>
-0.0878770861795587

> <r_i_glide_emodel>
-84.7880071597473

> <r_i_glide_energy>
-62.1858358383179

> <r_i_glide_einternal>
9.76546382904053

> <i_i_glide_confnum>
10

> <i_i_glide_posenum>
119

> <r_i_glide_eff_state_penalty>
0

> <s_user_duplicate_titles>
114124

> <s_m_subgroup_title>
dock_pv

> <s_m_subgroupid>
dock_pv1

> <b_m_subgroup_collapsed>
0

$$$$
167818
                    3D
 Schrodinger Suite 2021-1.
 54 57  0  0  1  0            999 V2000
   13.2067  -15.0479   18.9986 C   0  0  0  0  0  0
   12.2118  -14.9906   19.9689 C   0  0  0  0  0  0
   12.0188  -13.8182   20.6967 C   0  0  0  0  0  0
   12.8121  -12.6864   20.4661 C   0  0  0  0  0  0
   13.8451  -12.7548   19.5012 C   0  0  0  0  0  0
   14.0154  -13.9368   18.7675 C   0  0  0  0  0  0
   14.7937  -11.6017   19.1989 C   0  0  0  0  0  0
   15.8791  -11.5175   20.1723 N   0  0  0  0  0  0
   17.1848  -11.4535   19.8697 C   0  0  0  0  0  0
   17.6163  -11.4530   18.7171 O   0  0  0  0  0  0
   18.1570  -11.3569   21.0510 C   0  0  0  0  0  0
   18.7440  -12.6926   21.3123 N   0  0  0  0  0  0
   19.9378  -13.1251   20.7392 C   0  0  0  0  0  0
   20.4163  -14.3738   20.9649 C   0  0  0  0  0  0
   19.7664  -15.2743   21.7652 N   0  0  0  0  0  0
   18.6829  -14.8886   22.3435 C   0  0  0  0  0  0
   18.0279  -13.5397   22.1526 C   0  0  0  0  0  0
   16.9433  -13.2206   22.6576 O   0  0  0  0  0  0
   18.0939  -15.8525   23.1508 N   0  0  0  0  0  0
   17.5878  -15.6044   24.5097 C   0  0  0  0  0  0
   18.5914  -15.9508   25.6402 C   0  0  0  0  0  0
   19.8676  -15.0975   25.5957 C   0  0  0  0  0  0
   21.1108  -15.6371   25.2322 C   0  0  0  0  0  0
   22.2281  -14.7992   25.2059 C   0  0  0  0  0  0
   22.0831  -13.4529   25.5380 C   0  0  0  0  0  0
   20.8163  -12.9835   25.8864 C   0  0  0  0  0  0
   19.7178  -13.7813   25.9110 N   0  0  0  0  0  0
   18.0171  -15.7737   26.8303 F   0  0  0  0  0  0
   18.9126  -17.2462   25.5703 F   0  0  0  0  0  0
   20.8298  -11.9904   19.7086 Cl  0  0  0  0  0  0
   12.5409  -11.5385   21.2512 N   0  0  0  0  0  0
   12.3760  -10.2204   20.8844 C   0  0  0  0  0  0
   12.0640   -9.4537   21.8978 N   0  0  0  0  0  0
   12.0158  -10.2747   23.0185 N   0  0  0  0  0  0
   12.2774  -11.4887   22.6015 C   0  0  0  0  0  0
   13.3529  -15.9522   18.4256 H   0  0  0  0  0  0
   11.5865  -15.8508   20.1552 H   0  0  0  0  0  0
   11.2343  -13.7984   21.4422 H   0  0  0  0  0  0
   14.7923  -14.0064   18.0189 H   0  0  0  0  0  0
   15.1688  -11.7061   18.1773 H   0  0  0  0  0  0
   14.2696  -10.6532   19.1751 H   0  0  0  0  0  0
   15.6049  -11.5087   21.1442 H   0  0  0  0  0  0
   18.9100  -10.5949   20.8516 H   0  0  0  0  0  0
   17.6176  -10.9831   21.9202 H   0  0  0  0  0  0
   21.3454  -14.6968   20.5161 H   0  0  0  0  0  0
   18.5307  -16.7597   23.0763 H   0  0  0  0  0  0
   17.2469  -14.5788   24.6439 H   0  0  0  0  0  0
   16.6943  -16.2170   24.6444 H   0  0  0  0  0  0
   21.2165  -16.6798   24.9716 H   0  0  0  0  0  0
   23.1969  -15.1921   24.9325 H   0  0  0  0  0  0
   22.9340  -12.7883   25.5246 H   0  0  0  0  0  0
   20.6631  -11.9471   26.1510 H   0  0  0  0  0  0
   12.4163   -9.9153   19.8525 H   0  0  0  0  0  0
   12.2828  -12.3956   23.1893 H   0  0  0  0  0  0
  1  6  1  0  0  0
  1  2  2  0  0  0
  1 36  1  0  0  0
  2  3  1  0  0  0
  2 37  1  0  0  0
  3  4  2  0  0  0
  3 38  1  0  0  0
  4  5  1  0  0  0
  4 31  1  0  0  0
  5  6  2  0  0  0
  5  7  1  0  0  0
  6 39  1  0  0  0
  7  8  1  0  0  0
  7 40  1  0  0  0
  7 41  1  0  0  0
  8  9  1  0  0  0
  8 42  1  0  0  0
  9 10  2  0  0  0
  9 11  1  0  0  0
 11 12  1  0  0  0
 11 43  1  0  0  0
 11 44  1  0  0  0
 12 17  1  0  0  0
 12 13  1  0  0  0
 13 14  2  0  0  0
 13 30  1  0  0  0
 14 15  1  0  0  0
 14 45  1  0  0  0
 15 16  2  0  0  0
 16 17  1  0  0  0
 16 19  1  0  0  0
 17 18  2  0  0  0
 19 20  1  0  0  0
 19 46  1  0  0  0
 20 21  1  0  0  0
 20 47  1  0  0  0
 20 48  1  0  0  0
 21 22  1  0  0  0
 21 28  1  0  0  0
 21 29  1  0  0  0
 22 27  1  0  0  0
 22 23  2  0  0  0
 23 24  1  0  0  0
 23 49  1  0  0  0
 24 25  2  0  0  0
 24 50  1  0  0  0
 25 26  1  0  0  0
 25 51  1  0  0  0
 26 27  2  0  0  0
 26 52  1  0  0  0
 31 35  1  0  0  0
 31 32  1  0  0  0
 32 33  2  0  0  0
 32 53  1  0  0  0
 33 34  1  0  0  0
 34 35  2  0  0  0
 35 54  1  0  0  0
M  END
> <s_m_entry_id>
37780

> <s_m_entry_name>
ligand_docking-pose.127

> <s_m_Source_Path>
/home/csk/Desktop/cluster/DUD-E-result/thrb

> <s_m_Source_File>
ligand_docking-pose.sdf

> <i_m_Source_File_Index>
127

> <i_lp_mmshare_version>
53161

> <i_f3d_flags>
0

> <r_lp_tautomer_probability>
1

> <s_lp_Force_Field>
OPLS_2005

> <r_lp_Energy>
31.666078

> <b_lp_Chiralities_Consistent>
1

> <s_lp_Variant>
167818-1

> <s_i_glide_gridfile>
glide-grid_1ype

> <i_i_glide_lignum>
1365

> <i_i_glide_rotatable_bonds>
10

> <r_i_docking_score>
-7.69524842343784

> <r_i_glide_ligand_efficiency>
-0.219864240669653

> <r_i_glide_ligand_efficiency_sa>
-0.719190509617373

> <r_i_glide_ligand_efficiency_ln>
-1.68927781578161

> <r_i_glide_gscore>
-7.69524842343784

> <r_i_glide_lipo>
-3.03974341991421

> <r_i_glide_hbond>
-0.0834527753449003

> <r_i_glide_metal>
0

> <r_i_glide_rewards>
-1.85833332704547

> <r_i_glide_evdw>
-54.9239082336426

> <r_i_glide_ecoul>
-4.66757154464722

> <r_i_glide_erotb>
0.732612242245949

> <r_i_glide_esite>
0

> <r_i_glide_emodel>
-78.9553851696768

> <r_i_glide_energy>
-59.5914797782898

> <r_i_glide_einternal>
17.9521217346191

> <i_i_glide_confnum>
19

> <i_i_glide_posenum>
201

> <r_i_glide_eff_state_penalty>
0

> <s_user_duplicate_titles>
167818

> <s_m_subgroup_title>
dock_pv

> <s_m_subgroupid>
dock_pv1

> <b_m_subgroup_collapsed>
0

$$$$
33672
                    3D
 Schrodinger Suite 2021-1.
 71 75  0  0  1  0            999 V2000
   21.3799  -16.4872   23.0406 C   0  0  0  0  0  0
   20.9792  -15.0253   23.2946 C   0  0  0  0  0  0
   20.7447  -14.2525   22.0085 C   0  0  0  0  0  0
   21.5962  -13.3690   21.5549 N   0  0  0  0  0  0
   21.0343  -12.9012   20.3985 C   0  0  0  0  0  0
   21.5188  -11.9482   19.5034 C   0  0  0  0  0  0
   20.8075  -11.7193   18.3285 C   0  0  0  0  0  0
   19.5382  -12.2531   18.1111 C   0  0  0  0  0  0
   18.9804  -13.1211   19.0650 C   0  0  0  0  0  0
   19.7877  -13.5019   20.1503 C   0  0  0  0  0  0
   19.6288  -14.3960   21.2003 N   0  0  0  0  0  0
   18.4347  -15.2142   21.4545 C   0  0  0  0  0  0
   17.1406  -14.4035   21.4763 C   0  0  0  0  0  0
   15.9128  -15.0230   21.2188 C   0  0  0  0  0  0
   14.7533  -14.2514   21.1198 C   0  0  0  0  0  0
   14.8442  -12.8617   21.2223 C   0  0  0  0  0  0
   16.0690  -12.2565   21.4685 C   0  0  0  0  0  0
   17.1910  -13.0214   21.6765 C   0  0  0  0  0  0
   13.6858  -11.9647   21.1937 C   0  0  0  0  0  0
   13.5707  -11.0075   20.1850 C   0  0  0  0  0  0
   12.6864   -9.9480   20.3350 C   0  0  0  0  0  0
   11.9383   -9.8395   21.5034 C   0  0  0  0  0  0
   12.0291  -10.7899   22.5280 C   0  0  0  0  0  0
   12.8664  -11.8912   22.3193 C   0  0  0  0  0  0
   11.3208  -10.5981   23.8043 C   0  0  0  0  0  0
   11.2159   -9.4553   24.3174 N   0  0  0  0  0  0
   10.8159  -11.7591   24.3176 N   0  0  0  0  0  0
   18.9243  -11.8530   16.9299 O   0  0  0  0  0  0
   17.5846  -12.2366   16.5908 C   0  0  0  0  0  0
   16.5855  -11.1306   16.9951 C   0  0  0  0  0  0
   15.1559  -11.4396   16.4751 C   0  0  0  0  0  0
   15.2161  -11.6775   15.0203 N   0  0  0  0  0  0
   16.0239  -12.8585   14.6934 C   0  0  0  0  0  0
   17.4813  -12.5199   15.0686 C   0  0  0  0  0  0
   15.0040  -10.6672   14.0862 C   0  0  0  0  0  0
   14.8166   -9.4515   14.3211 N   0  0  0  0  0  0
   15.0300  -11.0592   12.6147 C   0  0  0  0  0  0
   21.5540  -17.0127   23.9798 H   0  0  0  0  0  0
   20.6079  -17.0312   22.4975 H   0  0  0  0  0  0
   22.2963  -16.5479   22.4535 H   0  0  0  0  0  0
   21.7675  -14.5497   23.8795 H   0  0  0  0  0  0
   20.0979  -14.9879   23.9349 H   0  0  0  0  0  0
   22.4492  -11.4478   19.6912 H   0  0  0  0  0  0
   21.2229  -11.0529   17.5884 H   0  0  0  0  0  0
   18.0022  -13.5563   18.9542 H   0  0  0  0  0  0
   18.3865  -15.9606   20.6601 H   0  0  0  0  0  0
   18.5366  -15.7502   22.3975 H   0  0  0  0  0  0
   15.8561  -16.0936   21.0862 H   0  0  0  0  0  0
   13.7978  -14.7246   20.9481 H   0  0  0  0  0  0
   16.1508  -11.1816   21.5209 H   0  0  0  0  0  0
   18.1108  -12.5072   21.9138 H   0  0  0  0  0  0
   14.2138  -11.0521   19.3181 H   0  0  0  0  0  0
   12.5813   -9.2007   19.5627 H   0  0  0  0  0  0
   11.2470   -9.0222   21.6032 H   0  0  0  0  0  0
   13.0020  -12.6200   23.1078 H   0  0  0  0  0  0
   10.6257   -9.4897   25.1383 H   0  0  0  0  0  0
   10.0916  -11.6839   25.0269 H   0  0  0  0  0  0
   10.8106  -12.6029   23.7601 H   0  0  0  0  0  0
   17.2693  -13.1488   17.0947 H   0  0  0  0  0  0
   16.8930  -10.1763   16.5655 H   0  0  0  0  0  0
   16.5516  -11.0197   18.0793 H   0  0  0  0  0  0
   14.4164  -10.6862   16.7494 H   0  0  0  0  0  0
   14.8392  -12.3842   16.9215 H   0  0  0  0  0  0
   15.6968  -13.6603   15.3582 H   0  0  0  0  0  0
   15.8883  -13.2637   13.6898 H   0  0  0  0  0  0
   18.1115  -13.3338   14.7208 H   0  0  0  0  0  0
   17.7694  -11.6365   14.4999 H   0  0  0  0  0  0
   14.7494   -8.9107   13.4618 H   0  0  0  0  0  0
   16.0451  -11.2827   12.2857 H   0  0  0  0  0  0
   14.6453  -10.2723   11.9627 H   0  0  0  0  0  0
   14.4133  -11.9414   12.4363 H   0  0  0  0  0  0
  1  2  1  0  0  0
  1 38  1  0  0  0
  1 39  1  0  0  0
  1 40  1  0  0  0
  2  3  1  0  0  0
  2 41  1  0  0  0
  2 42  1  0  0  0
  3 11  1  0  0  0
  3  4  2  0  0  0
  4  5  1  0  0  0
  5 10  2  0  0  0
  5  6  1  0  0  0
  6  7  2  0  0  0
  6 43  1  0  0  0
  7  8  1  0  0  0
  7 44  1  0  0  0
  8  9  2  0  0  0
  8 28  1  0  0  0
  9 10  1  0  0  0
  9 45  1  0  0  0
 10 11  1  0  0  0
 11 12  1  0  0  0
 12 13  1  0  0  0
 12 46  1  0  0  0
 12 47  1  0  0  0
 13 18  1  0  0  0
 13 14  2  0  0  0
 14 15  1  0  0  0
 14 48  1  0  0  0
 15 16  2  0  0  0
 15 49  1  0  0  0
 16 17  1  0  0  0
 16 19  1  0  0  0
 17 18  2  0  0  0
 17 50  1  0  0  0
 18 51  1  0  0  0
 19 24  1  0  0  0
 19 20  2  0  0  0
 20 21  1  0  0  0
 20 52  1  0  0  0
 21 22  2  0  0  0
 21 53  1  0  0  0
 22 23  1  0  0  0
 22 54  1  0  0  0
 23 24  2  0  0  0
 23 25  1  0  0  0
 24 55  1  0  0  0
 25 26  2  3  0  0
 25 27  1  0  0  0
 26 56  1  0  0  0
 27 57  1  0  0  0
 27 58  1  0  0  0
 28 29  1  0  0  0
 29 34  1  0  0  0
 29 30  1  0  0  0
 29 59  1  0  0  0
 30 31  1  0  0  0
 30 60  1  0  0  0
 30 61  1  0  0  0
 31 32  1  0  0  0
 31 62  1  0  0  0
 31 63  1  0  0  0
 32 33  1  0  0  0
 32 35  1  0  0  0
 33 34  1  0  0  0
 33 64  1  0  0  0
 33 65  1  0  0  0
 34 66  1  0  0  0
 34 67  1  0  0  0
 35 36  2  3  0  0
 35 37  1  0  0  0
 36 68  1  0  0  0
 37 69  1  0  0  0
 37 70  1  0  0  0
 37 71  1  0  0  0
M  END
> <s_m_entry_id>
37781

> <s_m_entry_name>
ligand_docking-pose.128

> <s_m_Source_Path>
/home/csk/Desktop/cluster/DUD-E-result/thrb

> <s_m_Source_File>
ligand_docking-pose.sdf

> <i_m_Source_File_Index>
128

> <i_lp_mmshare_version>
53161

> <i_f3d_flags>
0

> <r_lp_tautomer_probability>
0.499900269896156

> <s_lp_Force_Field>
OPLS_2005

> <r_lp_Energy>
28.737469

> <b_lp_Chiralities_Consistent>
1

> <s_lp_Variant>
33672-1

> <s_i_glide_gridfile>
glide-grid_1ype

> <i_i_glide_lignum>
3237

> <i_i_glide_rotatable_bonds>
8

> <r_i_docking_score>
-7.69415839600035

> <r_i_glide_ligand_efficiency>
-0.207950226918928

> <r_i_glide_ligand_efficiency_sa>
-0.692936289359942

> <r_i_glide_ligand_efficiency_ln>
-1.66868257942766

> <r_i_glide_gscore>
-7.69415839600035

> <r_i_glide_lipo>
-3.22280714056049

> <r_i_glide_hbond>
-0.734215198906426

> <r_i_glide_metal>
0

> <r_i_glide_rewards>
-0.655077309272727

> <r_i_glide_evdw>
-39.6922454833984

> <r_i_glide_ecoul>
-9.45462322235107

> <r_i_glide_erotb>
0.416493203075779

> <r_i_glide_esite>
-0.0957461928138963

> <r_i_glide_emodel>
-46.3695002276269

> <r_i_glide_energy>
-49.1468687057495

> <r_i_glide_einternal>
12.6476383209229

> <i_i_glide_confnum>
2

> <i_i_glide_posenum>
26

> <r_i_glide_eff_state_penalty>
0

> <s_user_duplicate_titles>
33672

> <s_m_subgroup_title>
dock_pv

> <s_m_subgroupid>
dock_pv1

> <b_m_subgroup_collapsed>
0

$$$$
119180
                    3D
 Schrodinger Suite 2021-1.
 64 67  0  0  1  0            999 V2000
   21.3715  -15.2988   25.0200 C   0  0  0  0  0  0
   20.0282  -14.5462   24.7504 C   0  0  0  0  0  0
   20.0980  -13.2779   25.6509 C   0  0  0  0  0  0
   19.8529  -14.0444   23.2877 C   0  0  0  0  0  0
   20.9553  -13.9351   22.4250 C   0  0  0  0  0  0
   20.8137  -13.4511   21.1255 C   0  0  0  0  0  0
   19.5612  -13.0547   20.6489 C   0  0  0  0  0  0
   18.4460  -13.1426   21.5052 C   0  0  0  0  0  0
   18.5988  -13.6183   22.8097 C   0  0  0  0  0  0
   17.1554  -12.7670   21.0740 N   0  0  0  0  0  0
   17.0026  -12.3587   19.8621 C   0  0  0  0  0  0
   18.0811  -12.2324   18.8412 C   0  0  0  0  0  0
   17.8794  -11.8517   17.6816 O   0  0  0  0  0  0
   19.3270  -12.5473   19.3329 N   0  0  0  0  0  0
   20.4924  -12.3908   18.4432 C   0  0  0  0  0  0
   15.5900  -11.9818   19.3649 C   0  0  0  0  0  0
   14.5310  -11.6805   20.4260 C   0  0  0  0  0  0
   14.4278  -10.3977   20.9596 C   0  0  0  0  0  0
   13.4604  -10.1149   21.9146 C   0  0  0  0  0  0
   12.5826  -11.1076   22.3866 C   0  0  0  0  0  0
   12.6931  -12.3931   21.8224 C   0  0  0  0  0  0
   13.6533  -12.6765   20.8536 C   0  0  0  0  0  0
   11.6145  -10.7829   23.4762 C   0  0  0  0  0  0
   11.5751   -9.6303   23.9819 N   0  0  0  0  0  0
   10.8150  -11.8251   23.8814 N   0  0  0  0  0  0
   18.8276  -15.4738   25.1796 C   0  0  0  0  0  0
   18.0537  -15.0621   26.0504 O   0  0  0  0  0  0
   18.7203  -16.7517   24.7063 N   0  0  0  0  0  0
   17.7116  -17.6699   25.2764 C   0  0  0  0  0  0
   16.4722  -17.6433   24.3554 C   0  0  0  0  0  0
   16.8292  -18.0036   22.9005 C   0  0  0  0  0  0
   18.0146  -17.1599   22.3955 C   0  0  0  0  0  0
   19.2122  -17.1730   23.3758 C   0  0  0  0  0  0
   21.5424  -16.1553   24.3698 H   0  0  0  0  0  0
   22.2362  -14.6426   24.9041 H   0  0  0  0  0  0
   21.4190  -15.6721   26.0459 H   0  0  0  0  0  0
   19.2159  -12.6553   25.5368 H   0  0  0  0  0  0
   20.1792  -13.5249   26.7105 H   0  0  0  0  0  0
   20.9552  -12.6511   25.4018 H   0  0  0  0  0  0
   21.9446  -14.2248   22.7418 H   0  0  0  0  0  0
   21.6913  -13.3965   20.5010 H   0  0  0  0  0  0
   17.7288  -13.6673   23.4500 H   0  0  0  0  0  0
   20.2716  -11.8548   17.5190 H   0  0  0  0  0  0
   21.2828  -11.8348   18.9461 H   0  0  0  0  0  0
   20.8893  -13.3693   18.1732 H   0  0  0  0  0  0
   15.6403  -11.1009   18.7195 H   0  0  0  0  0  0
   15.2190  -12.7809   18.7215 H   0  0  0  0  0  0
   15.1087   -9.6172   20.6538 H   0  0  0  0  0  0
   13.4245   -9.1104   22.3135 H   0  0  0  0  0  0
   12.0508  -13.2011   22.1391 H   0  0  0  0  0  0
   13.7209  -13.6763   20.4492 H   0  0  0  0  0  0
   10.8631   -9.5796   24.6985 H   0  0  0  0  0  0
   10.0528  -11.6459   24.5277 H   0  0  0  0  0  0
   10.8932  -12.7653   23.5115 H   0  0  0  0  0  0
   17.5029  -17.4692   26.3297 H   0  0  0  0  0  0
   18.1552  -18.6666   25.2790 H   0  0  0  0  0  0
   16.0154  -16.6539   24.3942 H   0  0  0  0  0  0
   15.7201  -18.3359   24.7346 H   0  0  0  0  0  0
   17.0867  -19.0631   22.8421 H   0  0  0  0  0  0
   15.9624  -17.8628   22.2524 H   0  0  0  0  0  0
   18.3382  -17.5303   21.4228 H   0  0  0  0  0  0
   17.6874  -16.1366   22.2183 H   0  0  0  0  0  0
   20.0708  -16.6176   23.0063 H   0  0  0  0  0  0
   19.5844  -18.1916   23.4911 H   0  0  0  0  0  0
  1  2  1  0  0  0
  1 34  1  0  0  0
  1 35  1  0  0  0
  1 36  1  0  0  0
  2  3  1  0  0  0
  2  4  1  0  0  0
  2 26  1  0  0  0
  3 37  1  0  0  0
  3 38  1  0  0  0
  3 39  1  0  0  0
  4  9  1  0  0  0
  4  5  2  0  0  0
  5  6  1  0  0  0
  5 40  1  0  0  0
  6  7  2  0  0  0
  6 41  1  0  0  0
  7 14  1  0  0  0
  7  8  1  0  0  0
  8  9  2  0  0  0
  8 10  1  0  0  0
  9 42  1  0  0  0
 10 11  2  0  0  0
 11 12  1  0  0  0
 11 16  1  0  0  0
 12 13  2  0  0  0
 12 14  1  0  0  0
 14 15  1  0  0  0
 15 43  1  0  0  0
 15 44  1  0  0  0
 15 45  1  0  0  0
 16 17  1  0  0  0
 16 46  1  0  0  0
 16 47  1  0  0  0
 17 22  1  0  0  0
 17 18  2  0  0  0
 18 19  1  0  0  0
 18 48  1  0  0  0
 19 20  2  0  0  0
 19 49  1  0  0  0
 20 21  1  0  0  0
 20 23  1  0  0  0
 21 22  2  0  0  0
 21 50  1  0  0  0
 22 51  1  0  0  0
 23 24  2  3  0  0
 23 25  1  0  0  0
 24 52  1  0  0  0
 25 53  1  0  0  0
 25 54  1  0  0  0
 26 27  2  0  0  0
 26 28  1  0  0  0
 28 33  1  0  0  0
 28 29  1  0  0  0
 29 30  1  0  0  0
 29 55  1  0  0  0
 29 56  1  0  0  0
 30 31  1  0  0  0
 30 57  1  0  0  0
 30 58  1  0  0  0
 31 32  1  0  0  0
 31 59  1  0  0  0
 31 60  1  0  0  0
 32 33  1  0  0  0
 32 61  1  0  0  0
 32 62  1  0  0  0
 33 63  1  0  0  0
 33 64  1  0  0  0
M  END
> <s_m_entry_id>
37782

> <s_m_entry_name>
ligand_docking-pose.129

> <s_m_Source_Path>
/home/csk/Desktop/cluster/DUD-E-result/thrb

> <s_m_Source_File>
ligand_docking-pose.sdf

> <i_m_Source_File_Index>
129

> <i_lp_mmshare_version>
53161

> <i_f3d_flags>
0

> <r_lp_tautomer_probability>
1

> <s_lp_Force_Field>
OPLS_2005

> <r_lp_Energy>
57.224155

> <b_lp_Chiralities_Consistent>
1

> <s_lp_Variant>
119180-1

> <s_i_glide_gridfile>
glide-grid_1ype

> <i_i_glide_lignum>
3261

> <i_i_glide_rotatable_bonds>
6

> <r_i_docking_score>
-7.69078936930735

> <r_i_glide_ligand_efficiency>
-0.233054223312344

> <r_i_glide_ligand_efficiency_sa>
-0.74752942115361

> <r_i_glide_ligand_efficiency_ln>
-1.71039173495776

> <r_i_glide_gscore>
-7.69078936930735

> <r_i_glide_lipo>
-3.33798511110575

> <r_i_glide_hbond>
-0.424070590737275

> <r_i_glide_metal>
0

> <r_i_glide_rewards>
-0.86038108199379

> <r_i_glide_evdw>
-47.5489654541016

> <r_i_glide_ecoul>
-7.35932016372681

> <r_i_glide_erotb>
0.503956814982647

> <r_i_glide_esite>
-0.0909631031890899

> <r_i_glide_emodel>
-79.1567537307394

> <r_i_glide_energy>
-54.9082856178284

> <r_i_glide_einternal>
1.79532206058502

> <i_i_glide_confnum>
5

> <i_i_glide_posenum>
287

> <r_i_glide_eff_state_penalty>
0

> <s_user_duplicate_titles>
119180

> <s_m_subgroup_title>
dock_pv

> <s_m_subgroupid>
dock_pv1

> <b_m_subgroup_collapsed>
0

$$$$
216265
                    3D
 Schrodinger Suite 2021-1.
 67 70  0  0  1  0            999 V2000
   18.9572  -17.9097   26.7792 C   0  0  0  0  0  0
   18.4159  -16.6719   27.1189 C   0  0  0  0  0  0
   18.0489  -15.7842   26.1109 C   0  0  0  0  0  0
   18.2316  -16.1327   24.7692 C   0  0  0  0  0  0
   18.7732  -17.3766   24.4372 C   0  0  0  0  0  0
   19.1393  -18.2656   25.4442 C   0  0  0  0  0  0
   17.8677  -15.1418   23.6675 C   0  0  0  0  0  0
   19.0870  -14.5491   22.8844 C   0  0  2  0  0  0
   20.2784  -14.2206   23.8080 C   0  0  0  0  0  0
   21.4916  -14.9072   23.6580 C   0  0  0  0  0  0
   22.5673  -14.6328   24.4979 C   0  0  0  0  0  0
   22.4208  -13.7020   25.5219 C   0  0  0  0  0  0
   21.2064  -13.0520   25.7158 C   0  0  0  0  0  0
   20.1453  -13.2929   24.8486 C   0  0  0  0  0  0
   18.6753  -13.3402   21.9914 C   0  0  0  0  0  0
   17.7077  -12.6536   22.3210 O   0  0  0  0  0  0
   19.3635  -13.0589   20.8560 N   0  0  0  0  0  0
   20.5992  -13.7081   20.4268 C   0  0  0  0  0  0
   21.2740  -12.6557   19.5728 C   0  0  0  0  0  0
   20.1149  -12.0243   18.8459 C   0  0  0  0  0  0
   18.9786  -11.9940   19.8950 C   0  0  1  0  0  0
   17.5746  -12.2084   19.2817 C   0  0  0  0  0  0
   17.4225  -13.0000   18.3522 O   0  0  0  0  0  0
   16.5695  -11.5182   19.8440 N   0  0  0  0  0  0
   15.1531  -11.7725   19.5760 C   0  0  0  0  0  0
   14.2598  -11.4681   20.8015 C   0  0  2  0  0  0
   12.8776  -12.1540   20.6983 C   0  0  0  0  0  0
   12.0726  -11.9582   22.0006 C   0  0  0  0  0  0
   11.8915  -10.4635   22.3526 C   0  0  2  0  0  0
   13.2057   -9.6564   22.2594 C   0  0  0  0  0  0
   14.0112   -9.9525   20.9789 C   0  0  0  0  0  0
   11.2161  -10.2528   23.6152 N   0  0  0  0  0  0
   19.0119  -11.0417   20.4299 H   0  0  0  0  0  0
   19.2473  -18.5978   27.5586 H   0  0  0  0  0  0
   18.2758  -16.4023   28.1556 H   0  0  0  0  0  0
   17.6330  -14.8235   26.3744 H   0  0  0  0  0  0
   18.9226  -17.6485   23.4025 H   0  0  0  0  0  0
   19.5690  -19.2218   25.1890 H   0  0  0  0  0  0
   17.1982  -15.6508   22.9702 H   0  0  0  0  0  0
   17.2538  -14.3492   24.1030 H   0  0  0  0  0  0
   19.3981  -15.3378   22.1972 H   0  0  0  0  0  0
   21.6099  -15.6494   22.8798 H   0  0  0  0  0  0
   23.5078  -15.1460   24.3667 H   0  0  0  0  0  0
   23.2537  -13.4697   26.1712 H   0  0  0  0  0  0
   21.0953  -12.3362   26.5168 H   0  0  0  0  0  0
   19.2162  -12.7683   25.0036 H   0  0  0  0  0  0
   21.2619  -13.9938   21.2363 H   0  0  0  0  0  0
   20.3540  -14.5967   19.8427 H   0  0  0  0  0  0
   21.7610  -11.9173   20.2140 H   0  0  0  0  0  0
   22.0149  -13.0531   18.8898 H   0  0  0  0  0  0
   20.4147  -11.0531   18.4681 H   0  0  0  0  0  0
   19.8586  -12.6453   17.9861 H   0  0  0  0  0  0
   16.7813  -10.9053   20.6209 H   0  0  0  0  0  0
   14.8256  -11.2027   18.7051 H   0  0  0  0  0  0
   15.0007  -12.8135   19.2821 H   0  0  0  0  0  0
   14.7552  -11.8526   21.6966 H   0  0  0  0  0  0
   12.3300  -11.7911   19.8288 H   0  0  0  0  0  0
   13.0068  -13.2223   20.5149 H   0  0  0  0  0  0
   12.6162  -12.4586   22.8034 H   0  0  0  0  0  0
   11.1013  -12.4488   21.9192 H   0  0  0  0  0  0
   11.2565  -10.0606   21.5608 H   0  0  0  0  0  0
   13.8302   -9.9140   23.1067 H   0  0  0  0  0  0
   12.9973   -8.5902   22.3238 H   0  0  0  0  0  0
   14.9641   -9.4222   21.0122 H   0  0  0  0  0  0
   13.4990   -9.5465   20.1055 H   0  0  0  0  0  0
   10.2685  -10.6198   23.5757 H   0  0  0  0  0  0
   11.6802  -10.7613   24.3530 H   0  0  0  0  0  0
  1  6  1  0  0  0
  1  2  2  0  0  0
  1 34  1  0  0  0
  2  3  1  0  0  0
  2 35  1  0  0  0
  3  4  2  0  0  0
  3 36  1  0  0  0
  4  5  1  0  0  0
  4  7  1  0  0  0
  5  6  2  0  0  0
  5 37  1  0  0  0
  6 38  1  0  0  0
  7  8  1  0  0  0
  7 39  1  0  0  0
  7 40  1  0  0  0
  8  9  1  0  0  0
  8 15  1  0  0  0
  8 41  1  0  0  0
  9 14  1  0  0  0
  9 10  2  0  0  0
 10 11  1  0  0  0
 10 42  1  0  0  0
 11 12  2  0  0  0
 11 43  1  0  0  0
 12 13  1  0  0  0
 12 44  1  0  0  0
 13 14  2  0  0  0
 13 45  1  0  0  0
 14 46  1  0  0  0
 15 16  2  0  0  0
 15 17  1  0  0  0
 17 21  1  0  0  0
 17 18  1  0  0  0
 18 19  1  0  0  0
 18 47  1  0  0  0
 18 48  1  0  0  0
 19 20  1  0  0  0
 19 49  1  0  0  0
 19 50  1  0  0  0
 20 21  1  0  0  0
 20 51  1  0  0  0
 20 52  1  0  0  0
 21 33  1  0  0  0
 21 22  1  0  0  0
 22 23  2  0  0  0
 22 24  1  0  0  0
 24 25  1  0  0  0
 24 53  1  0  0  0
 25 26  1  0  0  0
 25 54  1  0  0  0
 25 55  1  0  0  0
 26 31  1  0  0  0
 26 27  1  0  0  0
 26 56  1  0  0  0
 27 28  1  0  0  0
 27 57  1  0  0  0
 27 58  1  0  0  0
 28 29  1  0  0  0
 28 59  1  0  0  0
 28 60  1  0  0  0
 29 30  1  0  0  0
 29 32  1  0  0  0
 29 61  1  0  0  0
 30 31  1  0  0  0
 30 62  1  0  0  0
 30 63  1  0  0  0
 31 64  1  0  0  0
 31 65  1  0  0  0
 32 66  1  0  0  0
 32 67  1  0  0  0
M  END
> <s_m_entry_id>
37783

> <s_m_entry_name>
ligand_docking-pose.130

> <s_m_Source_Path>
/home/csk/Desktop/cluster/DUD-E-result/thrb

> <s_m_Source_File>
ligand_docking-pose.sdf

> <i_m_Source_File_Index>
130

> <i_lp_mmshare_version>
53161

> <i_f3d_flags>
0

> <r_lp_tautomer_probability>
1

> <s_lp_Force_Field>
OPLS_2005

> <r_lp_Energy>
32.967845

> <b_lp_Chiralities_Consistent>
1

> <s_lp_Variant>
216265-3

> <s_i_glide_gridfile>
glide-grid_1ype

> <i_i_glide_lignum>
872

> <i_i_glide_rotatable_bonds>
9

> <r_i_docking_score>
-7.68069512555691

> <r_i_glide_ligand_efficiency>
-0.240021722673654

> <r_i_glide_ligand_efficiency_sa>
-0.762021469254432

> <r_i_glide_ligand_efficiency_ln>
-1.71991700645388

> <r_i_glide_gscore>
-7.68069512555691

> <r_i_glide_lipo>
-4.28406601832345

> <r_i_glide_hbond>
-0.193664115323134

> <r_i_glide_metal>
0

> <r_i_glide_rewards>
-1.25320498996018

> <r_i_glide_evdw>
-45.7006645202637

> <r_i_glide_ecoul>
-4.11871337890625

> <r_i_glide_erotb>
0.953080230898971

> <r_i_glide_esite>
0

> <r_i_glide_emodel>
-68.3811211906365

> <r_i_glide_energy>
-49.8193778991699

> <r_i_glide_einternal>
6.55724668502808

> <i_i_glide_confnum>
190

> <i_i_glide_posenum>
159

> <r_i_glide_eff_state_penalty>
0

> <s_user_duplicate_titles>
216265

> <s_m_subgroup_title>
dock_pv

> <s_m_subgroupid>
dock_pv1

> <b_m_subgroup_collapsed>
0

$$$$
242113
                    3D
 Schrodinger Suite 2021-1.
 77 80  0  0  1  0            999 V2000
   21.3278  -13.6636   26.4557 C   0  0  0  0  0  0
   20.3225  -13.0516   25.7384 C   0  0  0  0  0  0
   20.3848  -13.0064   24.3616 C   0  0  0  0  0  0
   21.4593  -13.6132   23.6899 C   0  0  0  0  0  0
   22.4900  -14.2252   24.4357 C   0  0  0  0  0  0
   22.4196  -14.2360   25.8204 C   0  0  0  0  0  0
   21.4605  -13.6776   22.1756 C   0  0  0  0  0  0
   20.2929  -14.4709   21.5068 C   0  0  2  0  0  0
   19.1096  -13.5345   21.1160 C   0  0  0  0  0  0
   18.2002  -13.3257   21.9244 O   0  0  0  0  0  0
   19.1446  -12.9768   19.8786 N   0  0  0  0  0  0
   20.2907  -13.0247   18.9654 C   0  0  0  0  0  0
   19.9697  -12.0409   17.8474 C   0  0  0  0  0  0
   18.4422  -11.9669   17.8454 C   0  0  0  0  0  0
   18.0360  -12.1814   19.3062 C   0  0  1  0  0  0
   16.6508  -12.8477   19.3779 C   0  0  0  0  0  0
   16.5068  -14.0264   19.0605 O   0  0  0  0  0  0
   15.6584  -12.0620   19.7963 N   0  0  0  0  0  0
   14.3174  -12.5517   20.0836 C   0  0  0  0  0  0
   13.3580  -11.4333   20.5466 C   0  0  0  0  0  0
   12.1589  -12.0424   21.3056 C   0  0  0  0  0  0
   11.2414  -10.9676   21.9124 C   0  0  0  0  0  0
   12.0198  -10.0431   22.7472 N   0  0  0  0  0  0
   13.0258   -9.3206   21.9637 C   0  0  0  0  0  0
   14.0192  -10.3736   21.4613 C   0  0  0  0  0  0
   11.6357   -9.6446   24.0585 C   0  0  0  0  0  0
   12.0157   -8.5776   24.6099 N   0  0  0  0  0  0
   10.8160  -10.5700   24.7211 N   0  0  0  0  0  0
   19.8195  -15.5709   22.4011 N   0  0  1  0  0  0
   18.5972  -16.7428   21.9121 S   0  0  0  0  0  0
   19.1477  -18.0725   22.1928 O   0  0  0  0  0  0
   18.1281  -16.4087   20.5663 O   0  0  0  0  0  0
   17.1761  -16.4311   23.1132 C   0  0  0  0  0  0
   17.5907  -16.6208   24.5619 C   0  0  0  0  0  0
   17.6586  -17.9044   25.1067 C   0  0  0  0  0  0
   18.0730  -18.0778   26.4257 C   0  0  0  0  0  0
   18.4157  -16.9665   27.1936 C   0  0  0  0  0  0
   18.3438  -15.6851   26.6538 C   0  0  0  0  0  0
   17.9320  -15.5111   25.3361 C   0  0  0  0  0  0
   20.6815  -14.9647   20.6167 H   0  0  0  0  0  0
   18.0270  -11.2238   19.8307 H   0  0  0  0  0  0
   21.2239  -13.7089   27.5213 H   0  0  0  0  0  0
   19.4799  -12.6332   26.2603 H   0  0  0  0  0  0
   19.5996  -12.5173   23.8108 H   0  0  0  0  0  0
   23.3250  -14.7008   23.9433 H   0  0  0  0  0  0
   23.1983  -14.7091   26.4023 H   0  0  0  0  0  0
   22.4088  -14.1350   21.9205 H   0  0  0  0  0  0
   21.5267  -12.6557   21.7952 H   0  0  0  0  0  0
   21.2261  -12.7527   19.4552 H   0  0  0  0  0  0
   20.4168  -14.0295   18.5712 H   0  0  0  0  0  0
   20.4148  -11.0840   18.1202 H   0  0  0  0  0  0
   20.3932  -12.3365   16.8876 H   0  0  0  0  0  0
   18.0162  -11.0533   17.4289 H   0  0  0  0  0  0
   18.0214  -12.7628   17.2361 H   0  0  0  0  0  0
   15.8576  -11.1048   20.0447 H   0  0  0  0  0  0
   13.8921  -13.1119   19.2480 H   0  0  0  0  0  0
   14.4419  -13.2652   20.9019 H   0  0  0  0  0  0
   12.9704  -10.9027   19.6748 H   0  0  0  0  0  0
   11.6032  -12.7282   20.6656 H   0  0  0  0  0  0
   12.5115  -12.6713   22.1262 H   0  0  0  0  0  0
   10.8161  -10.3529   21.1207 H   0  0  0  0  0  0
   10.4178  -11.4528   22.4355 H   0  0  0  0  0  0
   12.5260   -8.8287   21.1272 H   0  0  0  0  0  0
   13.5513   -8.5522   22.5317 H   0  0  0  0  0  0
   14.4160  -10.9080   22.3205 H   0  0  0  0  0  0
   14.8701   -9.8900   20.9801 H   0  0  0  0  0  0
   12.6218   -8.0388   24.0140 H   0  0  0  0  0  0
   10.2746  -10.2609   25.5205 H   0  0  0  0  0  0
   10.3451  -11.2919   24.1964 H   0  0  0  0  0  0
   20.5528  -15.9693   22.9936 H   0  0  0  0  0  0
   16.3741  -17.1165   22.8446 H   0  0  0  0  0  0
   16.8187  -15.4167   22.9312 H   0  0  0  0  0  0
   17.4069  -18.7668   24.5068 H   0  0  0  0  0  0
   18.1335  -19.0690   26.8488 H   0  0  0  0  0  0
   18.7320  -17.0950   28.2184 H   0  0  0  0  0  0
   18.5990  -14.8258   27.2543 H   0  0  0  0  0  0
   17.8792  -14.5178   24.9140 H   0  0  0  0  0  0
  1  6  1  0  0  0
  1  2  2  0  0  0
  1 42  1  0  0  0
  2  3  1  0  0  0
  2 43  1  0  0  0
  3  4  2  0  0  0
  3 44  1  0  0  0
  4  5  1  0  0  0
  4  7  1  0  0  0
  5  6  2  0  0  0
  5 45  1  0  0  0
  6 46  1  0  0  0
  7  8  1  0  0  0
  7 47  1  0  0  0
  7 48  1  0  0  0
  8 40  1  0  0  0
  8  9  1  0  0  0
  8 29  1  0  0  0
  9 10  2  0  0  0
  9 11  1  0  0  0
 11 15  1  0  0  0
 11 12  1  0  0  0
 12 13  1  0  0  0
 12 49  1  0  0  0
 12 50  1  0  0  0
 13 14  1  0  0  0
 13 51  1  0  0  0
 13 52  1  0  0  0
 14 15  1  0  0  0
 14 53  1  0  0  0
 14 54  1  0  0  0
 15 41  1  0  0  0
 15 16  1  0  0  0
 16 17  2  0  0  0
 16 18  1  0  0  0
 18 19  1  0  0  0
 18 55  1  0  0  0
 19 20  1  0  0  0
 19 56  1  0  0  0
 19 57  1  0  0  0
 20 25  1  0  0  0
 20 21  1  0  0  0
 20 58  1  0  0  0
 21 22  1  0  0  0
 21 59  1  0  0  0
 21 60  1  0  0  0
 22 23  1  0  0  0
 22 61  1  0  0  0
 22 62  1  0  0  0
 23 24  1  0  0  0
 23 26  1  0  0  0
 24 25  1  0  0  0
 24 63  1  0  0  0
 24 64  1  0  0  0
 25 65  1  0  0  0
 25 66  1  0  0  0
 26 27  2  3  0  0
 26 28  1  0  0  0
 27 67  1  0  0  0
 28 68  1  0  0  0
 28 69  1  0  0  0
 29 30  1  0  0  0
 29 70  1  0  0  0
 30 31  2  0  0  0
 30 32  2  0  0  0
 30 33  1  0  0  0
 33 34  1  0  0  0
 33 71  1  0  0  0
 33 72  1  0  0  0
 34 39  1  0  0  0
 34 35  2  0  0  0
 35 36  1  0  0  0
 35 73  1  0  0  0
 36 37  2  0  0  0
 36 74  1  0  0  0
 37 38  1  0  0  0
 37 75  1  0  0  0
 38 39  2  0  0  0
 38 76  1  0  0  0
 39 77  1  0  0  0
M  END
> <s_m_entry_id>
37784

> <s_m_entry_name>
ligand_docking-pose.131

> <s_m_Source_Path>
/home/csk/Desktop/cluster/DUD-E-result/thrb

> <s_m_Source_File>
ligand_docking-pose.sdf

> <i_m_Source_File_Index>
131

> <i_lp_mmshare_version>
53161

> <i_f3d_flags>
0

> <r_lp_tautomer_probability>
1

> <s_lp_Force_Field>
OPLS_2005

> <r_lp_Energy>
30.581455

> <b_lp_Chiralities_Consistent>
1

> <s_lp_Variant>
242113-2

> <s_i_glide_gridfile>
glide-grid_1ype

> <i_i_glide_lignum>
1096

> <i_i_glide_rotatable_bonds>
13

> <r_i_docking_score>
-7.67505233070024

> <r_i_glide_ligand_efficiency>
-0.196796213607699

> <r_i_glide_ligand_efficiency_sa>
-0.667377570713295

> <r_i_glide_ligand_efficiency_ln>
-1.64574908901866

> <r_i_glide_gscore>
-7.67505233070024

> <r_i_glide_lipo>
-4.06177113570023

> <r_i_glide_hbond>
-0.0895932114793174

> <r_i_glide_metal>
0

> <r_i_glide_rewards>
-0.952523901586342

> <r_i_glide_evdw>
-46.4168357849121

> <r_i_glide_ecoul>
-5.09972858428955

> <r_i_glide_erotb>
0.600808225613015

> <r_i_glide_esite>
-0.0861712306583358

> <r_i_glide_emodel>
-66.2484049031557

> <r_i_glide_energy>
-51.5165643692017

> <r_i_glide_einternal>
12.9881372451782

> <i_i_glide_confnum>
76

> <i_i_glide_posenum>
272

> <r_i_glide_eff_state_penalty>
0

> <s_user_duplicate_titles>
242113

> <s_m_subgroup_title>
dock_pv

> <s_m_subgroupid>
dock_pv1

> <b_m_subgroup_collapsed>
0

$$$$
216814
                    3D
 Schrodinger Suite 2021-1.
 66 70  0  0  1  0            999 V2000
   21.1394  -13.0779   25.8401 C   0  0  0  0  0  0
   21.6070  -13.4765   24.5928 C   0  0  0  0  0  0
   20.9090  -14.4362   23.8703 C   0  0  0  0  0  0
   19.7446  -15.0248   24.3761 C   0  0  0  0  0  0
   19.3817  -14.7510   25.7033 C   0  0  0  0  0  0
   20.0362  -13.7229   26.3923 C   0  0  0  0  0  0
   18.3691  -15.6506   26.3952 C   0  0  0  0  0  0
   17.2239  -16.1776   25.5029 C   0  0  0  0  0  0
   17.6170  -16.3559   24.0947 N   0  0  0  0  0  0
   18.9655  -16.0695   23.5728 C   0  0  1  0  0  0
   18.7158  -15.8353   22.0686 C   0  0  1  0  0  0
   17.5028  -16.7453   21.8235 C   0  0  0  0  0  0
   16.7873  -16.8929   23.1700 C   0  0  0  0  0  0
   15.6669  -17.3763   23.3349 O   0  0  0  0  0  0
   18.3792  -14.3524   21.6809 C   0  0  0  0  0  0
   17.4140  -13.7992   22.2148 O   0  0  0  0  0  0
   19.1453  -13.6913   20.7766 N   0  0  0  0  0  0
   20.3448  -14.2093   20.1068 C   0  0  0  0  0  0
   20.8363  -13.0918   19.1971 C   0  0  0  0  0  0
   20.2843  -11.8521   19.8601 C   0  0  0  0  0  0
   18.9092  -12.2843   20.3997 C   0  0  1  0  0  0
   17.7605  -12.1088   19.3776 C   0  0  0  0  0  0
   18.0161  -11.8535   18.1989 O   0  0  0  0  0  0
   16.5088  -12.2254   19.8457 N   0  0  0  0  0  0
   15.3111  -12.0338   19.0228 C   0  0  0  0  0  0
   14.0050  -11.9319   19.8481 C   0  0  2  0  0  0
   14.0157  -10.7433   20.8405 C   0  0  0  0  0  0
   12.6937  -10.6277   21.6270 C   0  0  0  0  0  0
   12.3571  -11.9454   22.3575 C   0  0  2  0  0  0
   12.3489  -13.1378   21.3765 C   0  0  0  0  0  0
   13.6857  -13.2382   20.6137 C   0  0  0  0  0  0
   11.1625  -11.8530   23.1721 N   0  0  0  0  0  0
   18.6700  -11.6788   21.2766 H   0  0  0  0  0  0
   21.6506  -12.3083   26.3983 H   0  0  0  0  0  0
   22.5060  -13.0509   24.1762 H   0  0  0  0  0  0
   21.2836  -14.7295   22.9052 H   0  0  0  0  0  0
   19.7284  -13.4542   27.3914 H   0  0  0  0  0  0
   17.9683  -15.2007   27.3054 H   0  0  0  0  0  0
   18.9282  -16.5206   26.7429 H   0  0  0  0  0  0
   16.4163  -15.4496   25.5181 H   0  0  0  0  0  0
   16.8074  -17.0927   25.9244 H   0  0  0  0  0  0
   19.5544  -16.9811   23.6862 H   0  0  0  0  0  0
   19.5658  -16.1708   21.4790 H   0  0  0  0  0  0
   16.7708  -16.3043   21.1427 H   0  0  0  0  0  0
   17.7828  -17.7087   21.3948 H   0  0  0  0  0  0
   20.1472  -15.1036   19.5258 H   0  0  0  0  0  0
   21.1143  -14.4454   20.8385 H   0  0  0  0  0  0
   20.4081  -13.2067   18.2010 H   0  0  0  0  0  0
   21.9189  -13.0529   19.0986 H   0  0  0  0  0  0
   20.2554  -11.0137   19.1723 H   0  0  0  0  0  0
   20.9410  -11.5787   20.6853 H   0  0  0  0  0  0
   16.3758  -12.4976   20.8116 H   0  0  0  0  0  0
   15.2509  -12.8816   18.3363 H   0  0  0  0  0  0
   15.4391  -11.1172   18.4407 H   0  0  0  0  0  0
   13.1787  -11.7625   19.1531 H   0  0  0  0  0  0
   14.2188   -9.8094   20.3197 H   0  0  0  0  0  0
   14.8513  -10.8549   21.5262 H   0  0  0  0  0  0
   12.7714   -9.8126   22.3495 H   0  0  0  0  0  0
   11.8848  -10.3642   20.9425 H   0  0  0  0  0  0
   13.1818  -12.1331   23.0457 H   0  0  0  0  0  0
   12.1799  -14.0679   21.9206 H   0  0  0  0  0  0
   11.5269  -13.0380   20.6654 H   0  0  0  0  0  0
   14.4941  -13.4796   21.3066 H   0  0  0  0  0  0
   13.6560  -14.0793   19.9201 H   0  0  0  0  0  0
   10.3539  -11.5129   22.6637 H   0  0  0  0  0  0
   10.9052  -12.7783   23.5121 H   0  0  0  0  0  0
  1  6  1  0  0  0
  1  2  2  0  0  0
  1 34  1  0  0  0
  2  3  1  0  0  0
  2 35  1  0  0  0
  3  4  2  0  0  0
  3 36  1  0  0  0
  4 10  1  0  0  0
  4  5  1  0  0  0
  5  6  2  0  0  0
  5  7  1  0  0  0
  6 37  1  0  0  0
  7  8  1  0  0  0
  7 38  1  0  0  0
  7 39  1  0  0  0
  8  9  1  0  0  0
  8 40  1  0  0  0
  8 41  1  0  0  0
  9 13  1  0  0  0
  9 10  1  0  0  0
 10 11  1  0  0  0
 10 42  1  0  0  0
 11 12  1  0  0  0
 11 15  1  0  0  0
 11 43  1  0  0  0
 12 13  1  0  0  0
 12 44  1  0  0  0
 12 45  1  0  0  0
 13 14  2  0  0  0
 15 16  2  0  0  0
 15 17  1  0  0  0
 17 21  1  0  0  0
 17 18  1  0  0  0
 18 19  1  0  0  0
 18 46  1  0  0  0
 18 47  1  0  0  0
 19 20  1  0  0  0
 19 48  1  0  0  0
 19 49  1  0  0  0
 20 21  1  0  0  0
 20 50  1  0  0  0
 20 51  1  0  0  0
 21 33  1  0  0  0
 21 22  1  0  0  0
 22 23  2  0  0  0
 22 24  1  0  0  0
 24 25  1  0  0  0
 24 52  1  0  0  0
 25 26  1  0  0  0
 25 53  1  0  0  0
 25 54  1  0  0  0
 26 31  1  0  0  0
 26 27  1  0  0  0
 26 55  1  0  0  0
 27 28  1  0  0  0
 27 56  1  0  0  0
 27 57  1  0  0  0
 28 29  1  0  0  0
 28 58  1  0  0  0
 28 59  1  0  0  0
 29 30  1  0  0  0
 29 32  1  0  0  0
 29 60  1  0  0  0
 30 31  1  0  0  0
 30 61  1  0  0  0
 30 62  1  0  0  0
 31 63  1  0  0  0
 31 64  1  0  0  0
 32 65  1  0  0  0
 32 66  1  0  0  0
M  END
> <s_m_entry_id>
37785

> <s_m_entry_name>
ligand_docking-pose.132

> <s_m_Source_Path>
/home/csk/Desktop/cluster/DUD-E-result/thrb

> <s_m_Source_File>
ligand_docking-pose.sdf

> <i_m_Source_File_Index>
132

> <i_lp_mmshare_version>
53161

> <i_f3d_flags>
0

> <r_lp_tautomer_probability>
1

> <s_lp_Force_Field>
OPLS_2005

> <r_lp_Energy>
41.03577

> <b_lp_Chiralities_Consistent>
1

> <s_lp_Variant>
216814-5

> <s_i_glide_gridfile>
glide-grid_1ype

> <i_i_glide_lignum>
344

> <i_i_glide_rotatable_bonds>
6

> <r_i_docking_score>
-7.66599708579152

> <r_i_glide_ligand_efficiency>
-0.239562408930985

> <r_i_glide_ligand_efficiency_sa>
-0.760563239019527

> <r_i_glide_ligand_efficiency_ln>
-1.71662571469698

> <r_i_glide_gscore>
-7.66599708579152

> <r_i_glide_lipo>
-3.73105301859203

> <r_i_glide_hbond>
-0.586471382223405

> <r_i_glide_metal>
0

> <r_i_glide_rewards>
-1.00903518253416

> <r_i_glide_evdw>
-41.1185302734375

> <r_i_glide_ecoul>
-5.93618535995483

> <r_i_glide_erotb>
0.622371651162882

> <r_i_glide_esite>
-0.015454835939718

> <r_i_glide_emodel>
-66.0342348924268

> <r_i_glide_energy>
-47.0547156333923

> <r_i_glide_einternal>
3.1747784614563

> <i_i_glide_confnum>
2

> <i_i_glide_posenum>
74

> <r_i_glide_eff_state_penalty>
0

> <s_user_duplicate_titles>
216814

> <s_m_subgroup_title>
dock_pv

> <s_m_subgroupid>
dock_pv1

> <b_m_subgroup_collapsed>
0

$$$$
2240
                    3D
 Schrodinger Suite 2021-1.
 71 74  0  0  1  0            999 V2000
   19.8300  -12.5596   18.9888 C   0  0  0  0  0  0
   20.5599  -13.6292   19.4949 C   0  0  0  0  0  0
   20.4163  -14.0117   20.8230 C   0  0  0  0  0  0
   19.5472  -13.3072   21.6621 C   0  0  0  0  0  0
   18.8161  -12.2291   21.1390 C   0  0  0  0  0  0
   18.9491  -11.8626   19.8069 C   0  0  0  0  0  0
   19.3030  -13.7239   23.1272 C   0  0  0  0  0  0
   20.5549  -13.9263   23.9961 C   0  0  0  0  0  0
   21.3979  -15.0321   23.8189 C   0  0  0  0  0  0
   22.4877  -15.2282   24.6625 C   0  0  0  0  0  0
   22.7195  -14.3382   25.7068 C   0  0  0  0  0  0
   21.8622  -13.2622   25.9201 C   0  0  0  0  0  0
   20.7902  -13.0531   25.0625 C   0  0  0  0  0  0
   18.2596  -14.8773   23.3383 C   0  0  2  0  0  0
   17.0914  -14.8354   22.2979 C   0  0  0  0  0  0
   16.4213  -13.8001   22.2197 O   0  0  0  0  0  0
   16.8901  -15.9258   21.5075 N   0  0  0  0  0  0
   17.6653  -17.1724   21.5712 C   0  0  0  0  0  0
   17.2195  -18.0161   20.3827 C   0  0  0  0  0  0
   15.8224  -17.5079   20.1045 C   0  0  0  0  0  0
   15.9200  -16.0025   20.3907 C   0  0  1  0  0  0
   14.5194  -15.3920   20.5884 C   0  0  0  0  0  0
   13.7644  -15.8370   21.4541 O   0  0  0  0  0  0
   14.2026  -14.4149   19.7231 N   0  0  0  0  0  0
   12.8819  -13.8065   19.5956 C   0  0  0  0  0  0
   12.6222  -12.7265   20.6223 C   0  0  0  0  0  0
   11.6161  -12.6693   21.5728 C   0  0  0  0  0  0
   11.6149  -11.5353   22.3725 C   0  0  0  0  0  0
   12.6316  -10.6491   22.0552 C   0  0  0  0  0  0
   13.5898  -11.2856   20.7383 S   0  0  0  0  0  0
   12.9301   -9.3644   22.6854 C   0  0  0  0  0  0
   13.9037   -8.6548   22.3211 N   0  0  0  0  0  0
   12.0799   -9.0062   23.7695 N   0  0  0  0  0  0
   12.4140   -7.8532   24.6055 N   0  0  0  0  0  0
   17.6159  -14.7688   24.6745 N   0  0  2  0  0  0
   18.2330  -15.3996   25.8488 C   0  0  0  0  0  0
   18.1352  -16.9360   25.8099 C   0  0  0  0  0  0
   19.0325  -17.6637   26.2229 O   0  0  0  0  0  0
   16.9471  -17.4027   25.3305 O   0  0  0  0  0  0
   18.8033  -15.8151   23.2803 H   0  0  0  0  0  0
   16.4041  -15.5172   19.5406 H   0  0  0  0  0  0
   19.9348  -12.2857   17.9497 H   0  0  0  0  0  0
   21.2160  -14.1842   18.8427 H   0  0  0  0  0  0
   20.9801  -14.8607   21.1702 H   0  0  0  0  0  0
   18.1174  -11.6848   21.7595 H   0  0  0  0  0  0
   18.3559  -11.0520   19.4155 H   0  0  0  0  0  0
   18.8188  -12.8407   23.5411 H   0  0  0  0  0  0
   21.2045  -15.7614   23.0485 H   0  0  0  0  0  0
   23.1397  -16.0778   24.5195 H   0  0  0  0  0  0
   23.5609  -14.4961   26.3653 H   0  0  0  0  0  0
   22.0158  -12.5834   26.7443 H   0  0  0  0  0  0
   20.1318  -12.2158   25.2454 H   0  0  0  0  0  0
   18.7423  -17.0097   21.5140 H   0  0  0  0  0  0
   17.4350  -17.6820   22.5082 H   0  0  0  0  0  0
   17.8516  -17.7983   19.5223 H   0  0  0  0  0  0
   17.2652  -19.0893   20.5705 H   0  0  0  0  0  0
   15.4969  -17.7242   19.0865 H   0  0  0  0  0  0
   15.1186  -17.9891   20.7866 H   0  0  0  0  0  0
   14.9013  -14.1184   19.0585 H   0  0  0  0  0  0
   12.8147  -13.3848   18.5935 H   0  0  0  0  0  0
   12.1097  -14.5789   19.6366 H   0  0  0  0  0  0
   10.8871  -13.4530   21.6936 H   0  0  0  0  0  0
   10.8773  -11.3740   23.1472 H   0  0  0  0  0  0
   13.9142   -7.8446   22.9228 H   0  0  0  0  0  0
   11.6952   -9.7624   24.3238 H   0  0  0  0  0  0
   11.5606   -7.5078   25.0309 H   0  0  0  0  0  0
   13.0537   -8.1545   25.3334 H   0  0  0  0  0  0
   16.5938  -14.7806   24.6583 H   0  0  0  0  0  0
   19.2765  -15.1126   25.9644 H   0  0  0  0  0  0
   17.7138  -15.0542   26.7431 H   0  0  0  0  0  0
   16.9480  -18.3606   25.3491 H   0  0  0  0  0  0
  1  6  1  0  0  0
  1  2  2  0  0  0
  1 42  1  0  0  0
  2  3  1  0  0  0
  2 43  1  0  0  0
  3  4  2  0  0  0
  3 44  1  0  0  0
  4  5  1  0  0  0
  4  7  1  0  0  0
  5  6  2  0  0  0
  5 45  1  0  0  0
  6 46  1  0  0  0
  7  8  1  0  0  0
  7 14  1  0  0  0
  7 47  1  0  0  0
  8 13  1  0  0  0
  8  9  2  0  0  0
  9 10  1  0  0  0
  9 48  1  0  0  0
 10 11  2  0  0  0
 10 49  1  0  0  0
 11 12  1  0  0  0
 11 50  1  0  0  0
 12 13  2  0  0  0
 12 51  1  0  0  0
 13 52  1  0  0  0
 14 40  1  0  0  0
 14 15  1  0  0  0
 14 35  1  0  0  0
 15 16  2  0  0  0
 15 17  1  0  0  0
 17 21  1  0  0  0
 17 18  1  0  0  0
 18 19  1  0  0  0
 18 53  1  0  0  0
 18 54  1  0  0  0
 19 20  1  0  0  0
 19 55  1  0  0  0
 19 56  1  0  0  0
 20 21  1  0  0  0
 20 57  1  0  0  0
 20 58  1  0  0  0
 21 41  1  0  0  0
 21 22  1  0  0  0
 22 23  2  0  0  0
 22 24  1  0  0  0
 24 25  1  0  0  0
 24 59  1  0  0  0
 25 26  1  0  0  0
 25 60  1  0  0  0
 25 61  1  0  0  0
 26 30  1  0  0  0
 26 27  2  0  0  0
 27 28  1  0  0  0
 27 62  1  0  0  0
 28 29  2  0  0  0
 28 63  1  0  0  0
 29 30  1  0  0  0
 29 31  1  0  0  0
 31 32  2  3  0  0
 31 33  1  0  0  0
 32 64  1  0  0  0
 33 34  1  0  0  0
 33 65  1  0  0  0
 34 66  1  0  0  0
 34 67  1  0  0  0
 35 36  1  0  0  0
 35 68  1  0  0  0
 36 37  1  0  0  0
 36 69  1  0  0  0
 36 70  1  0  0  0
 37 38  2  0  0  0
 37 39  1  0  0  0
 39 71  1  0  0  0
M  END
> <s_m_entry_id>
37786

> <s_m_entry_name>
ligand_docking-pose.133

> <s_m_Source_Path>
/home/csk/Desktop/cluster/DUD-E-result/thrb

> <s_m_Source_File>
ligand_docking-pose.sdf

> <i_m_Source_File_Index>
133

> <i_lp_mmshare_version>
53161

> <i_f3d_flags>
0

> <r_lp_tautomer_probability>
1

> <s_lp_Force_Field>
OPLS_2005

> <r_lp_Energy>
26.363338

> <b_lp_Chiralities_Consistent>
1

> <s_lp_Variant>
2240-1

> <s_i_glide_gridfile>
glide-grid_1ype

> <i_i_glide_lignum>
734

> <i_i_glide_rotatable_bonds>
15

> <r_i_docking_score>
-7.65827127995461

> <r_i_glide_ligand_efficiency>
-0.196365930255246

> <r_i_glide_ligand_efficiency_sa>
-0.665918388886502

> <r_i_glide_ligand_efficiency_ln>
-1.64215075538035

> <r_i_glide_gscore>
-7.65827127995461

> <r_i_glide_lipo>
-3.61528440282674

> <r_i_glide_hbond>
-0.509029033898679

> <r_i_glide_metal>
0

> <r_i_glide_rewards>
-0.808001650081697

> <r_i_glide_evdw>
-51.1192512512207

> <r_i_glide_ecoul>
-7.51505374908447

> <r_i_glide_erotb>
0.963778835688425

> <r_i_glide_esite>
-0.00651440391221488

> <r_i_glide_emodel>
-75.342549760836

> <r_i_glide_energy>
-58.6343050003052

> <r_i_glide_einternal>
13.6585741043091

> <i_i_glide_confnum>
166

> <i_i_glide_posenum>
134

> <r_i_glide_eff_state_penalty>
0

> <s_user_duplicate_titles>
2240

> <s_m_subgroup_title>
dock_pv

> <s_m_subgroupid>
dock_pv1

> <b_m_subgroup_collapsed>
0

$$$$
614984
                    3D
 Schrodinger Suite 2021-1.
 59 60  0  0  1  0            999 V2000
   11.4810   -9.6548   24.0475 C   0  0  0  0  0  0
   11.9455  -10.4456   22.8390 C   0  0  0  0  0  0
   12.7024   -9.8414   21.8355 C   0  0  0  0  0  0
   13.1189  -10.5903   20.7367 C   0  0  0  0  0  0
   12.7849  -11.9462   20.6405 C   0  0  0  0  0  0
   12.0159  -12.5395   21.6413 C   0  0  0  0  0  0
   11.5946  -11.7900   22.7334 C   0  0  0  0  0  0
   13.2681  -12.8028   19.4707 C   0  0  0  0  0  0
   14.7411  -12.5759   19.0894 C   0  0  0  0  0  0
   15.6011  -12.7714   20.2457 N   0  0  0  0  0  0
   16.9828  -12.7796   20.2817 C   0  0  0  0  0  0
   17.5657  -12.9737   21.6460 C   0  0  0  0  0  0
   16.8658  -13.0529   22.6672 O   0  0  0  0  0  0
   18.9555  -13.0545   21.6530 N   0  0  0  0  0  0
   19.6709  -12.9268   20.4568 C   0  0  0  0  0  0
   19.0158  -12.7180   19.2814 C   0  0  0  0  0  0
   17.6545  -12.6396   19.1888 N   0  0  0  0  0  0
   21.1856  -13.0493   20.5070 C   0  0  0  0  0  0
   19.5939  -13.2672   22.9838 C   0  0  0  0  0  0
   19.3780  -14.7076   23.5140 C   0  0  0  0  0  0
   19.2310  -15.6232   22.7006 O   0  0  0  0  0  0
   19.3411  -14.9169   24.8576 N   0  0  0  0  0  0
   19.0507  -16.2435   25.4122 C   0  0  0  0  0  0
   19.6123  -13.8943   25.8897 C   0  0  0  0  0  0
   21.0713  -13.3865   25.9305 C   0  0  0  0  0  0
   21.9835  -14.4724   25.7740 O   0  0  0  0  0  0
   23.3164  -13.9697   25.6249 N   0  0  0  0  0  0
   23.8402  -13.7945   24.3225 C   0  0  0  0  0  0
   23.1664  -13.8531   23.2725 N   0  0  0  0  0  0
   25.2159  -13.5274   24.3210 N   0  0  0  0  0  0
   10.4171   -9.8287   24.2178 H   0  0  0  0  0  0
   12.0142   -9.9824   24.9394 H   0  0  0  0  0  0
   11.6198   -8.5811   23.9234 H   0  0  0  0  0  0
   12.9745   -8.7996   21.9102 H   0  0  0  0  0  0
   13.7158  -10.1191   19.9730 H   0  0  0  0  0  0
   11.7385  -13.5825   21.5824 H   0  0  0  0  0  0
   10.9901  -12.2532   23.5020 H   0  0  0  0  0  0
   12.6195  -12.6419   18.6152 H   0  0  0  0  0  0
   13.1489  -13.8565   19.7310 H   0  0  0  0  0  0
   14.8890  -11.5895   18.6480 H   0  0  0  0  0  0
   15.0243  -13.2833   18.3082 H   0  0  0  0  0  0
   15.1155  -12.8351   21.1326 H   0  0  0  0  0  0
   19.5672  -12.6342   18.3557 H   0  0  0  0  0  0
   21.6175  -12.9718   19.5090 H   0  0  0  0  0  0
   21.6161  -12.2556   21.1167 H   0  0  0  0  0  0
   21.4840  -14.0148   20.9186 H   0  0  0  0  0  0
   19.2157  -12.5318   23.6883 H   0  0  0  0  0  0
   20.6578  -13.0650   22.9265 H   0  0  0  0  0  0
   18.8635  -17.0023   24.6503 H   0  0  0  0  0  0
   19.8906  -16.5857   26.0203 H   0  0  0  0  0  0
   18.1682  -16.1957   26.0525 H   0  0  0  0  0  0
   19.3830  -14.3354   26.8604 H   0  0  0  0  0  0
   18.9293  -13.0590   25.7334 H   0  0  0  0  0  0
   21.2552  -12.8706   26.8740 H   0  0  0  0  0  0
   21.2141  -12.6534   25.1356 H   0  0  0  0  0  0
   23.8743  -14.2285   26.4309 H   0  0  0  0  0  0
   22.2170  -14.0873   23.5197 H   0  0  0  0  0  0
   25.7203  -13.4636   23.4465 H   0  0  0  0  0  0
   25.7917  -13.8334   25.0891 H   0  0  0  0  0  0
  1  2  1  0  0  0
  1 31  1  0  0  0
  1 32  1  0  0  0
  1 33  1  0  0  0
  2  7  1  0  0  0
  2  3  2  0  0  0
  3  4  1  0  0  0
  3 34  1  0  0  0
  4  5  2  0  0  0
  4 35  1  0  0  0
  5  6  1  0  0  0
  5  8  1  0  0  0
  6  7  2  0  0  0
  6 36  1  0  0  0
  7 37  1  0  0  0
  8  9  1  0  0  0
  8 38  1  0  0  0
  8 39  1  0  0  0
  9 10  1  0  0  0
  9 40  1  0  0  0
  9 41  1  0  0  0
 10 11  1  0  0  0
 10 42  1  0  0  0
 11 17  2  0  0  0
 11 12  1  0  0  0
 12 13  2  0  0  0
 12 14  1  0  0  0
 14 15  1  0  0  0
 14 19  1  0  0  0
 15 16  2  0  0  0
 15 18  1  0  0  0
 16 17  1  0  0  0
 16 43  1  0  0  0
 18 44  1  0  0  0
 18 45  1  0  0  0
 18 46  1  0  0  0
 19 20  1  0  0  0
 19 47  1  0  0  0
 19 48  1  0  0  0
 20 21  2  0  0  0
 20 22  1  0  0  0
 22 23  1  0  0  0
 22 24  1  0  0  0
 23 49  1  0  0  0
 23 50  1  0  0  0
 23 51  1  0  0  0
 24 25  1  0  0  0
 24 52  1  0  0  0
 24 53  1  0  0  0
 25 26  1  0  0  0
 25 54  1  0  0  0
 25 55  1  0  0  0
 26 27  1  0  0  0
 27 28  1  0  0  0
 27 56  1  0  0  0
 28 29  2  3  0  0
 28 30  1  0  0  0
 29 57  1  0  0  0
 30 58  1  0  0  0
 30 59  1  0  0  0
M  END
> <s_m_entry_id>
37787

> <s_m_entry_name>
ligand_docking-pose.134

> <s_m_Source_Path>
/home/csk/Desktop/cluster/DUD-E-result/thrb

> <s_m_Source_File>
ligand_docking-pose.sdf

> <i_m_Source_File_Index>
134

> <i_lp_mmshare_version>
53161

> <i_f3d_flags>
0

> <r_lp_tautomer_probability>
1

> <s_lp_Force_Field>
OPLS_2005

> <r_lp_Energy>
19.637642

> <b_lp_Chiralities_Consistent>
1

> <s_lp_Variant>
614984-2

> <s_i_glide_gridfile>
glide-grid_1ype

> <i_i_glide_lignum>
2331

> <i_i_glide_rotatable_bonds>
12

> <r_i_docking_score>
-7.65651928203159

> <r_i_glide_ligand_efficiency>
-0.255217309401053

> <r_i_glide_ligand_efficiency_sa>
-0.793019518953963

> <r_i_glide_ligand_efficiency_ln>
-1.73964460533693

> <r_i_glide_gscore>
-7.65651928203159

> <r_i_glide_lipo>
-3.49881825047218

> <r_i_glide_hbond>
-0.778475801666087

> <r_i_glide_metal>
0

> <r_i_glide_rewards>
-1.08019353438308

> <r_i_glide_evdw>
-49.1651000976562

> <r_i_glide_ecoul>
-8.08967781066895

> <r_i_glide_erotb>
1.37267498097291

> <r_i_glide_esite>
0

> <r_i_glide_emodel>
-78.6273978722175

> <r_i_glide_energy>
-57.2547779083252

> <r_i_glide_einternal>
10.4116163253784

> <i_i_glide_confnum>
144

> <i_i_glide_posenum>
120

> <r_i_glide_eff_state_penalty>
0

> <s_user_duplicate_titles>
614984

> <s_m_subgroup_title>
dock_pv

> <s_m_subgroupid>
dock_pv1

> <b_m_subgroup_collapsed>
0

$$$$
112712
                    3D
 Schrodinger Suite 2021-1.
 77 79  0  0  1  0            999 V2000
   13.7515  -16.5230   17.3705 C   0  0  0  0  0  0
   15.0188  -16.7192   18.2057 C   0  0  0  0  0  0
   16.0155  -17.1826   17.6532 O   0  0  0  0  0  0
   15.0212  -16.3477   19.5149 N   0  0  0  0  0  0
   16.1989  -16.5646   20.3688 C   0  0  0  0  0  0
   15.7784  -16.0812   21.7590 C   0  0  1  0  0  0
   14.2538  -16.1457   21.7452 C   0  0  0  0  0  0
   13.8544  -15.8576   20.2825 C   0  0  1  0  0  0
   13.5720  -14.3622   19.9994 C   0  0  0  0  0  0
   12.4599  -14.0150   19.6055 O   0  0  0  0  0  0
   14.6191  -13.5180   20.1036 N   0  0  0  0  0  0
   14.7411  -12.1307   19.6225 C   0  0  1  0  0  0
   14.8854  -12.0690   18.0729 C   0  0  0  0  0  0
   16.0777  -12.8588   17.4925 C   0  0  0  0  0  0
   16.2194  -12.7101   15.9636 C   0  0  0  0  0  0
   16.7436  -11.3928   15.6251 N   0  0  0  0  0  0
   16.2425  -10.7109   14.6767 C   0  0  0  0  0  0
   16.7773   -9.4663   14.3217 N   0  0  0  0  0  0
   15.1627  -11.0533   13.8378 N   0  0  0  0  0  0
   13.6329  -11.2133   20.1657 C   0  0  0  0  0  0
   13.2157  -10.2536   19.5194 O   0  0  0  0  0  0
   13.1264  -11.4496   21.5990 C   0  0  0  0  0  0
   12.4202   -9.9736   22.3233 Cl  0  0  0  0  0  0
   16.3104  -16.9503   22.7596 O   0  0  0  0  0  0
   17.3026  -16.3963   23.6293 C   0  0  0  0  0  0
   18.6009  -15.9419   22.9049 C   0  0  0  0  0  0
   19.0204  -14.4551   23.1557 C   0  0  0  0  0  0
   19.2318  -13.6754   21.8490 C   0  0  0  0  0  0
   20.2231  -14.0652   20.9408 C   0  0  0  0  0  0
   20.4137  -13.3544   19.7614 C   0  0  0  0  0  0
   19.6073  -12.2551   19.4824 C   0  0  0  0  0  0
   18.6129  -11.8596   20.3724 C   0  0  0  0  0  0
   18.4200  -12.5741   21.5510 C   0  0  0  0  0  0
   20.1989  -14.2889   24.1312 C   0  0  0  0  0  0
   20.1038  -13.3745   25.1889 C   0  0  0  0  0  0
   21.1636  -13.2097   26.0791 C   0  0  0  0  0  0
   22.3208  -13.9671   25.9192 C   0  0  0  0  0  0
   22.4325  -14.8786   24.8742 C   0  0  0  0  0  0
   21.3758  -15.0378   23.9811 C   0  0  0  0  0  0
   16.1004  -15.0560   21.9538 H   0  0  0  0  0  0
   12.9395  -16.3776   19.9923 H   0  0  0  0  0  0
   15.6715  -11.7548   20.0481 H   0  0  0  0  0  0
   13.5301  -15.4642   17.2453 H   0  0  0  0  0  0
   13.8766  -16.9522   16.3764 H   0  0  0  0  0  0
   12.8915  -17.0124   17.8286 H   0  0  0  0  0  0
   17.1549  -16.1703   20.0274 H   0  0  0  0  0  0
   16.3002  -17.6504   20.4308 H   0  0  0  0  0  0
   13.7799  -15.4519   22.4428 H   0  0  0  0  0  0
   13.9076  -17.1395   22.0407 H   0  0  0  0  0  0
   15.5076  -13.9677   20.2719 H   0  0  0  0  0  0
   14.9746  -11.0397   17.7417 H   0  0  0  0  0  0
   13.9793  -12.4603   17.6147 H   0  0  0  0  0  0
   15.9529  -13.9164   17.7230 H   0  0  0  0  0  0
   17.0042  -12.5540   17.9793 H   0  0  0  0  0  0
   15.2703  -12.9614   15.4848 H   0  0  0  0  0  0
   16.9277  -13.4566   15.6071 H   0  0  0  0  0  0
   17.2968   -8.9775   15.0333 H   0  0  0  0  0  0
   16.1772   -8.8275   13.8139 H   0  0  0  0  0  0
   14.8564  -12.0140   13.8557 H   0  0  0  0  0  0
   15.1977  -10.7241   12.8839 H   0  0  0  0  0  0
   12.3550  -12.2177   21.5954 H   0  0  0  0  0  0
   13.9391  -11.7770   22.2439 H   0  0  0  0  0  0
   16.8445  -15.5969   24.2128 H   0  0  0  0  0  0
   17.5538  -17.1654   24.3593 H   0  0  0  0  0  0
   19.3999  -16.6329   23.1802 H   0  0  0  0  0  0
   18.4869  -16.1183   21.8352 H   0  0  0  0  0  0
   18.1708  -13.9730   23.6402 H   0  0  0  0  0  0
   20.8544  -14.9176   21.1453 H   0  0  0  0  0  0
   21.1825  -13.6557   19.0651 H   0  0  0  0  0  0
   19.7527  -11.7098   18.5644 H   0  0  0  0  0  0
   17.9943  -11.0012   20.1558 H   0  0  0  0  0  0
   17.6481  -12.2583   22.2373 H   0  0  0  0  0  0
   19.2155  -12.7776   25.3244 H   0  0  0  0  0  0
   21.0828  -12.4997   26.8912 H   0  0  0  0  0  0
   23.1418  -13.8533   26.6110 H   0  0  0  0  0  0
   23.3350  -15.4628   24.7578 H   0  0  0  0  0  0
   21.4833  -15.7460   23.1736 H   0  0  0  0  0  0
  1  2  1  0  0  0
  1 43  1  0  0  0
  1 44  1  0  0  0
  1 45  1  0  0  0
  2  3  2  0  0  0
  2  4  1  0  0  0
  4  8  1  0  0  0
  4  5  1  0  0  0
  5  6  1  0  0  0
  5 46  1  0  0  0
  5 47  1  0  0  0
  6 40  1  0  0  0
  6  7  1  0  0  0
  6 24  1  0  0  0
  7  8  1  0  0  0
  7 48  1  0  0  0
  7 49  1  0  0  0
  8 41  1  0  0  0
  8  9  1  0  0  0
  9 10  2  0  0  0
  9 11  1  0  0  0
 11 12  1  0  0  0
 11 50  1  0  0  0
 12 42  1  0  0  0
 12 13  1  0  0  0
 12 20  1  0  0  0
 13 14  1  0  0  0
 13 51  1  0  0  0
 13 52  1  0  0  0
 14 15  1  0  0  0
 14 53  1  0  0  0
 14 54  1  0  0  0
 15 16  1  0  0  0
 15 55  1  0  0  0
 15 56  1  0  0  0
 16 17  2  3  0  0
 17 18  1  0  0  0
 17 19  1  0  0  0
 18 57  1  0  0  0
 18 58  1  0  0  0
 19 59  1  0  0  0
 19 60  1  0  0  0
 20 21  2  0  0  0
 20 22  1  0  0  0
 22 23  1  0  0  0
 22 61  1  0  0  0
 22 62  1  0  0  0
 24 25  1  0  0  0
 25 26  1  0  0  0
 25 63  1  0  0  0
 25 64  1  0  0  0
 26 27  1  0  0  0
 26 65  1  0  0  0
 26 66  1  0  0  0
 27 28  1  0  0  0
 27 34  1  0  0  0
 27 67  1  0  0  0
 28 33  1  0  0  0
 28 29  2  0  0  0
 29 30  1  0  0  0
 29 68  1  0  0  0
 30 31  2  0  0  0
 30 69  1  0  0  0
 31 32  1  0  0  0
 31 70  1  0  0  0
 32 33  2  0  0  0
 32 71  1  0  0  0
 33 72  1  0  0  0
 34 39  1  0  0  0
 34 35  2  0  0  0
 35 36  1  0  0  0
 35 73  1  0  0  0
 36 37  2  0  0  0
 36 74  1  0  0  0
 37 38  1  0  0  0
 37 75  1  0  0  0
 38 39  2  0  0  0
 38 76  1  0  0  0
 39 77  1  0  0  0
M  END
> <s_m_entry_id>
37788

> <s_m_entry_name>
ligand_docking-pose.135

> <s_m_Source_Path>
/home/csk/Desktop/cluster/DUD-E-result/thrb

> <s_m_Source_File>
ligand_docking-pose.sdf

> <i_m_Source_File_Index>
135

> <i_lp_mmshare_version>
53161

> <i_f3d_flags>
0

> <r_lp_tautomer_probability>
0.999999960000001

> <s_lp_Force_Field>
OPLS_2005

> <r_lp_Energy>
20.40701

> <b_lp_Chiralities_Consistent>
1

> <s_lp_Variant>
112712-1

> <s_i_glide_gridfile>
glide-grid_1ype

> <i_i_glide_lignum>
4060

> <i_i_glide_rotatable_bonds>
16

> <r_i_docking_score>
-7.65429061813615

> <r_i_glide_ligand_efficiency>
-0.196263862003491

> <r_i_glide_ligand_efficiency_sa>
-0.665572253863603

> <r_i_glide_ligand_efficiency_ln>
-1.64129718848866

> <r_i_glide_gscore>
-7.65429061813615

> <r_i_glide_lipo>
-3.39289731385774

> <r_i_glide_hbond>
-0.558712815324876

> <r_i_glide_metal>
0

> <r_i_glide_rewards>
-0.588521050757709

> <r_i_glide_evdw>
-53.2112998962402

> <r_i_glide_ecoul>
-8.26171493530273

> <r_i_glide_erotb>
0.86476961759666

> <r_i_glide_esite>
-0.0791068206850598

> <r_i_glide_emodel>
-83.4966632370807

> <r_i_glide_energy>
-61.473014831543

> <r_i_glide_einternal>
13.3951425552368

> <i_i_glide_confnum>
36

> <i_i_glide_posenum>
335

> <r_i_glide_eff_state_penalty>
0

> <s_user_duplicate_titles>
112712

> <s_m_subgroup_title>
dock_pv

> <s_m_subgroupid>
dock_pv1

> <b_m_subgroup_collapsed>
0

$$$$
279026
                    3D
 Schrodinger Suite 2021-1.
 56 58  0  0  1  0            999 V2000
   21.1800  -11.6760   19.5157 C   0  0  0  0  0  0
   20.0598  -12.5748   19.9867 C   0  0  0  0  0  0
   18.7382  -12.1307   19.9221 C   0  0  0  0  0  0
   17.6810  -12.9895   20.2551 C   0  0  0  0  0  0
   17.9706  -14.2886   20.6710 C   0  0  0  0  0  0
   19.2930  -14.7270   20.7802 C   0  0  0  0  0  0
   20.3335  -13.8695   20.4267 C   0  0  0  0  0  0
   19.6027  -16.0082   21.1597 O   0  0  0  0  0  0
   19.1567  -16.5649   22.6774 S   0  0  0  0  0  0
   17.7018  -16.4470   22.8350 O   0  0  0  0  0  0
   19.8434  -17.8401   22.9045 O   0  0  0  0  0  0
   19.9536  -15.3361   23.7100 C   0  0  0  0  0  0
   19.1979  -14.5655   24.5965 C   0  0  0  0  0  0
   19.8293  -13.6343   25.4196 C   0  0  0  0  0  0
   21.2123  -13.4648   25.3552 C   0  0  0  0  0  0
   21.9799  -14.2322   24.4670 C   0  0  0  0  0  0
   21.3390  -15.1695   23.6467 C   0  0  0  0  0  0
   23.4956  -14.0708   24.3848 C   0  0  0  0  0  0
   23.8633  -13.8529   23.1244 F   0  0  0  0  0  0
   23.9346  -13.0528   25.1208 F   0  0  0  0  0  0
   24.0840  -15.1862   24.8153 F   0  0  0  0  0  0
   16.3537  -12.6387   20.1561 O   0  0  0  0  0  0
   15.9986  -11.2636   20.2705 C   0  0  0  0  0  0
   14.4724  -11.1335   20.4743 C   0  0  0  0  0  0
   13.8712  -12.2446   21.3716 C   0  0  0  0  0  0
   12.3715  -12.0423   21.6562 C   0  0  0  0  0  0
   12.2023  -10.7180   22.2706 N   0  0  0  0  0  0
   12.5667   -9.6362   21.3464 C   0  0  0  0  0  0
   14.0673   -9.7381   21.0157 C   0  0  0  0  0  0
   11.5567  -10.4733   23.5217 C   0  0  0  0  0  0
   11.6161   -9.3860   24.1460 N   0  0  0  0  0  0
   10.8160  -11.5452   24.0436 N   0  0  0  0  0  0
   22.0146  -12.2564   19.1218 H   0  0  0  0  0  0
   20.8184  -11.0552   18.6961 H   0  0  0  0  0  0
   21.5391  -11.0356   20.3210 H   0  0  0  0  0  0
   18.5393  -11.1277   19.5803 H   0  0  0  0  0  0
   17.1576  -14.9605   20.9003 H   0  0  0  0  0  0
   21.3520  -14.2273   20.4727 H   0  0  0  0  0  0
   18.1261  -14.6917   24.6589 H   0  0  0  0  0  0
   19.2419  -13.0500   26.1132 H   0  0  0  0  0  0
   21.6773  -12.7363   26.0034 H   0  0  0  0  0  0
   21.9159  -15.7732   22.9587 H   0  0  0  0  0  0
   16.3037  -10.7165   19.3772 H   0  0  0  0  0  0
   16.5217  -10.8190   21.1205 H   0  0  0  0  0  0
   13.9745  -11.2435   19.5081 H   0  0  0  0  0  0
   14.4039  -12.2821   22.3209 H   0  0  0  0  0  0
   14.0404  -13.2281   20.9316 H   0  0  0  0  0  0
   12.0091  -12.8577   22.2844 H   0  0  0  0  0  0
   11.7988  -12.0802   20.7281 H   0  0  0  0  0  0
   12.3348   -8.6528   21.7535 H   0  0  0  0  0  0
   11.9730   -9.7408   20.4364 H   0  0  0  0  0  0
   14.3558   -8.9503   20.3254 H   0  0  0  0  0  0
   14.6254   -9.4994   21.9213 H   0  0  0  0  0  0
   12.1953   -8.7090   23.6758 H   0  0  0  0  0  0
   10.1898  -11.4019   24.8270 H   0  0  0  0  0  0
   10.6459  -12.3910   23.5209 H   0  0  0  0  0  0
  1  2  1  0  0  0
  1 33  1  0  0  0
  1 34  1  0  0  0
  1 35  1  0  0  0
  2  7  1  0  0  0
  2  3  2  0  0  0
  3  4  1  0  0  0
  3 36  1  0  0  0
  4  5  2  0  0  0
  4 22  1  0  0  0
  5  6  1  0  0  0
  5 37  1  0  0  0
  6  7  2  0  0  0
  6  8  1  0  0  0
  7 38  1  0  0  0
  8  9  1  0  0  0
  9 10  2  0  0  0
  9 11  2  0  0  0
  9 12  1  0  0  0
 12 17  1  0  0  0
 12 13  2  0  0  0
 13 14  1  0  0  0
 13 39  1  0  0  0
 14 15  2  0  0  0
 14 40  1  0  0  0
 15 16  1  0  0  0
 15 41  1  0  0  0
 16 17  2  0  0  0
 16 18  1  0  0  0
 17 42  1  0  0  0
 18 19  1  0  0  0
 18 20  1  0  0  0
 18 21  1  0  0  0
 22 23  1  0  0  0
 23 24  1  0  0  0
 23 43  1  0  0  0
 23 44  1  0  0  0
 24 29  1  0  0  0
 24 25  1  0  0  0
 24 45  1  0  0  0
 25 26  1  0  0  0
 25 46  1  0  0  0
 25 47  1  0  0  0
 26 27  1  0  0  0
 26 48  1  0  0  0
 26 49  1  0  0  0
 27 28  1  0  0  0
 27 30  1  0  0  0
 28 29  1  0  0  0
 28 50  1  0  0  0
 28 51  1  0  0  0
 29 52  1  0  0  0
 29 53  1  0  0  0
 30 31  2  3  0  0
 30 32  1  0  0  0
 31 54  1  0  0  0
 32 55  1  0  0  0
 32 56  1  0  0  0
M  END
> <s_m_entry_id>
37789

> <s_m_entry_name>
ligand_docking-pose.136

> <s_m_Source_Path>
/home/csk/Desktop/cluster/DUD-E-result/thrb

> <s_m_Source_File>
ligand_docking-pose.sdf

> <i_m_Source_File_Index>
136

> <i_lp_mmshare_version>
53161

> <i_f3d_flags>
0

> <r_lp_tautomer_probability>
1

> <s_lp_Force_Field>
OPLS_2005

> <r_lp_Energy>
24.6565

> <b_lp_Chiralities_Consistent>
1

> <s_lp_Variant>
279026-2

> <s_i_glide_gridfile>
glide-grid_1ype

> <i_i_glide_lignum>
2456

> <i_i_glide_rotatable_bonds>
8

> <r_i_docking_score>
-7.65253387419979

> <r_i_glide_ligand_efficiency>
-0.239141683568743

> <r_i_glide_ligand_efficiency_sa>
-0.759227519255845

> <r_i_glide_ligand_efficiency_ln>
-1.7136109346283

> <r_i_glide_gscore>
-7.65253387419979

> <r_i_glide_lipo>
-3.88096110058783

> <r_i_glide_hbond>
-0.245349742198709

> <r_i_glide_metal>
0

> <r_i_glide_rewards>
-1.12176375122318

> <r_i_glide_evdw>
-44.7393264770508

> <r_i_glide_ecoul>
-4.20302200317383

> <r_i_glide_erotb>
0.545543273055791

> <r_i_glide_esite>
-0.0825829289172513

> <r_i_glide_emodel>
-67.6784015842535

> <r_i_glide_energy>
-48.9423484802246

> <r_i_glide_einternal>
6.75895357131958

> <i_i_glide_confnum>
57

> <i_i_glide_posenum>
309

> <r_i_glide_eff_state_penalty>
0

> <s_user_duplicate_titles>
279026

> <s_m_subgroup_title>
dock_pv

> <s_m_subgroupid>
dock_pv1

> <b_m_subgroup_collapsed>
0

$$$$
79181
                    3D
 Schrodinger Suite 2021-1.
 54 57  0  0  1  0            999 V2000
   20.0332  -12.9680   25.1901 C   0  0  0  0  0  0
   19.8300  -13.7560   24.0240 O   0  0  0  0  0  0
   20.7897  -13.8460   23.0801 C   0  0  0  0  0  0
   21.9001  -13.3158   23.1243 O   0  0  0  0  0  0
   20.3648  -14.6971   21.8821 C   0  0  0  0  0  0
   19.6249  -13.8428   20.8581 C   0  0  0  0  0  0
   18.2739  -13.5397   21.0387 C   0  0  0  0  0  0
   17.5766  -12.7704   20.1001 C   0  0  0  0  0  0
   18.2429  -12.3378   18.9411 C   0  0  0  0  0  0
   19.6084  -12.6018   18.7775 C   0  0  0  0  0  0
   20.2912  -13.3541   19.7330 C   0  0  0  0  0  0
   20.5757  -11.9337   17.2749 Br  0  0  0  0  0  0
   17.5576  -11.6633   17.9611 O   0  0  0  0  0  0
   16.1870  -12.3433   20.4583 C   0  0  0  0  0  0
   15.1132  -13.0310   21.0298 C   0  0  0  0  0  0
   14.1701  -12.0175   21.4579 C   0  0  0  0  0  0
   13.0090  -12.0152   22.2552 C   0  0  0  0  0  0
   12.3938  -10.7947   22.6056 C   0  0  0  0  0  0
   12.8428   -9.6208   21.9807 C   0  0  0  0  0  0
   13.9482   -9.5806   21.1385 C   0  0  0  0  0  0
   14.6289  -10.7784   20.9424 C   0  0  0  0  0  0
   15.8283  -11.0266   20.3276 N   0  0  0  0  0  0
   11.3681  -10.6975   23.6788 C   0  0  0  0  0  0
   11.2168   -9.6218   24.3214 N   0  0  0  0  0  0
   10.6595  -11.8522   23.9072 N   0  0  0  0  0  0
   14.9865  -14.5254   21.2647 C   0  0  0  0  0  0
   13.8883  -15.1530   20.4203 C   0  0  0  0  0  0
   12.6911  -15.5616   21.0185 C   0  0  0  0  0  0
   11.6867  -16.1385   20.2471 C   0  0  0  0  0  0
   11.8828  -16.3069   18.8768 C   0  0  0  0  0  0
   13.0734  -15.8999   18.2719 C   0  0  0  0  0  0
   14.0751  -15.3193   19.0445 C   0  0  0  0  0  0
   16.4592  -10.3363   19.9475 H   0  0  0  0  0  0
   19.2380  -13.1564   25.9081 H   0  0  0  0  0  0
   20.0287  -11.9045   24.9455 H   0  0  0  0  0  0
   20.9854  -13.2092   25.6769 H   0  0  0  0  0  0
   21.2528  -15.1427   21.4322 H   0  0  0  0  0  0
   19.7302  -15.5174   22.2200 H   0  0  0  0  0  0
   17.7773  -13.8744   21.9407 H   0  0  0  0  0  0
   21.3409  -13.5649   19.5931 H   0  0  0  0  0  0
   16.6131  -11.8259   18.0137 H   0  0  0  0  0  0
   12.6895  -12.9441   22.7086 H   0  0  0  0  0  0
   12.3601   -8.6790   22.2094 H   0  0  0  0  0  0
   14.3093   -8.6512   20.7261 H   0  0  0  0  0  0
   10.4751   -9.7176   25.0033 H   0  0  0  0  0  0
    9.8615  -11.8315   24.5396 H   0  0  0  0  0  0
   10.8199  -12.7135   23.3959 H   0  0  0  0  0  0
   15.9140  -15.0325   21.0007 H   0  0  0  0  0  0
   14.8212  -14.7446   22.3180 H   0  0  0  0  0  0
   12.5271  -15.4171   22.0773 H   0  0  0  0  0  0
   10.7572  -16.4441   20.7055 H   0  0  0  0  0  0
   11.1012  -16.7523   18.2744 H   0  0  0  0  0  0
   13.2149  -16.0377   17.2078 H   0  0  0  0  0  0
   14.9960  -14.9993   18.5768 H   0  0  0  0  0  0
  1  2  1  0  0  0
  1 34  1  0  0  0
  1 35  1  0  0  0
  1 36  1  0  0  0
  2  3  1  0  0  0
  3  4  2  0  0  0
  3  5  1  0  0  0
  5  6  1  0  0  0
  5 37  1  0  0  0
  5 38  1  0  0  0
  6 11  1  0  0  0
  6  7  2  0  0  0
  7  8  1  0  0  0
  7 39  1  0  0  0
  8  9  2  0  0  0
  8 14  1  0  0  0
  9 10  1  0  0  0
  9 13  1  0  0  0
 10 11  2  0  0  0
 10 12  1  0  0  0
 11 40  1  0  0  0
 13 41  1  0  0  0
 14 22  1  0  0  0
 14 15  2  0  0  0
 15 16  1  0  0  0
 15 26  1  0  0  0
 16 21  2  0  0  0
 16 17  1  0  0  0
 17 18  2  0  0  0
 17 42  1  0  0  0
 18 19  1  0  0  0
 18 23  1  0  0  0
 19 20  2  0  0  0
 19 43  1  0  0  0
 20 21  1  0  0  0
 20 44  1  0  0  0
 21 22  1  0  0  0
 22 33  1  0  0  0
 23 24  2  3  0  0
 23 25  1  0  0  0
 24 45  1  0  0  0
 25 46  1  0  0  0
 25 47  1  0  0  0
 26 27  1  0  0  0
 26 48  1  0  0  0
 26 49  1  0  0  0
 27 32  1  0  0  0
 27 28  2  0  0  0
 28 29  1  0  0  0
 28 50  1  0  0  0
 29 30  2  0  0  0
 29 51  1  0  0  0
 30 31  1  0  0  0
 30 52  1  0  0  0
 31 32  2  0  0  0
 31 53  1  0  0  0
 32 54  1  0  0  0
M  END
> <s_m_entry_id>
37790

> <s_m_entry_name>
ligand_docking-pose.137

> <s_m_Source_Path>
/home/csk/Desktop/cluster/DUD-E-result/thrb

> <s_m_Source_File>
ligand_docking-pose.sdf

> <i_m_Source_File_Index>
137

> <i_lp_mmshare_version>
53161

> <i_f3d_flags>
0

> <r_lp_tautomer_probability>
0.999999999997365

> <s_lp_Force_Field>
OPLS_2005

> <r_lp_Energy>
12.652664

> <b_lp_Chiralities_Consistent>
1

> <s_lp_Variant>
79181-1

> <s_i_glide_gridfile>
glide-grid_1ype

> <i_i_glide_lignum>
4785

> <i_i_glide_rotatable_bonds>
8

> <r_i_docking_score>
-7.64392456803129

> <r_i_glide_ligand_efficiency>
-0.238872642750978

> <r_i_glide_ligand_efficiency_sa>
-0.758373367902545

> <r_i_glide_ligand_efficiency_ln>
-1.71168307629635

> <r_i_glide_gscore>
-7.64392456803129

> <r_i_glide_lipo>
-3.3463064724819

> <r_i_glide_hbond>
-0.478050995382107

> <r_i_glide_metal>
0

> <r_i_glide_rewards>
-0.377622131516024

> <r_i_glide_evdw>
-48.2603874206543

> <r_i_glide_ecoul>
-8.9560661315918

> <r_i_glide_erotb>
0.420010710274547

> <r_i_glide_esite>
-0.105526388154318

> <r_i_glide_emodel>
-78.7399247709661

> <r_i_glide_energy>
-57.2164535522461

> <r_i_glide_einternal>
2.77665066719055

> <i_i_glide_confnum>
14

> <i_i_glide_posenum>
268

> <r_i_glide_eff_state_penalty>
0

> <s_user_duplicate_titles>
79181

> <s_m_subgroup_title>
dock_pv

> <s_m_subgroupid>
dock_pv1

> <b_m_subgroup_collapsed>
0

$$$$
46392
                    3D
 Schrodinger Suite 2021-1.
 65 68  0  0  1  0            999 V2000
   14.9370  -11.0179   16.2682 C   0  0  0  0  0  0
   16.4317  -10.7393   16.4786 C   0  0  0  0  0  0
   17.0404  -11.7878   17.2172 O   0  0  0  0  0  0
   16.9025  -11.9020   18.5595 C   0  0  0  0  0  0
   16.4159  -11.0648   19.3203 O   0  0  0  0  0  0
   17.4930  -13.2328   19.0634 C   0  0  1  0  0  0
   18.5404  -13.0048   20.1961 C   0  0  0  0  0  0
   19.4964  -14.4717   20.6884 S   0  0  0  0  0  0
   19.9982  -14.1867   22.3494 C   0  0  0  0  0  0
   21.2714  -13.6872   22.6178 C   0  0  0  0  0  0
   21.6591  -13.4545   23.9376 C   0  0  0  0  0  0
   20.7800  -13.7222   24.9895 C   0  0  0  0  0  0
   19.5135  -14.2579   24.7149 C   0  0  0  0  0  0
   19.1240  -14.4798   23.3951 C   0  0  0  0  0  0
   18.4138  -14.6732   25.9773 Cl  0  0  0  0  0  0
   21.2845  -13.3717   26.6082 Cl  0  0  0  0  0  0
   16.4160  -14.2514   19.3063 N   0  0  0  0  0  0
   15.6720  -14.7366   18.2826 C   0  0  0  0  0  0
   16.0134  -14.8786   17.1071 O   0  0  0  0  0  0
   14.5065  -15.0984   18.8241 N   0  0  0  0  0  0
   14.6346  -15.0249   20.2084 N   0  0  0  0  0  0
   15.8056  -14.4374   20.4963 C   0  0  0  0  0  0
   16.2191  -14.1662   21.6232 O   0  0  0  0  0  0
   13.3576  -14.7188   20.9102 C   0  0  2  0  0  0
   12.3011  -15.7029   20.4086 C   0  0  0  0  0  0
   12.4203  -16.3572   19.2433 C   0  0  0  0  0  0
   13.6354  -16.1968   18.3332 C   0  0  0  0  0  0
   12.9005  -13.2579   20.7358 C   0  0  0  0  0  0
   13.1503  -12.6353   19.6997 O   0  0  0  0  0  0
   12.2241  -12.7276   21.7576 N   0  0  0  0  0  0
   11.5876  -11.4325   21.6939 C   0  0  0  0  0  0
   12.0801  -10.4180   22.6900 C   0  0  0  0  0  0
   13.0231   -9.4556   22.3320 C   0  0  0  0  0  0
   13.2293   -8.3715   23.1868 C   0  0  0  0  0  0
   12.4169   -8.2343   24.3102 C   0  0  0  0  0  0
   11.5621   -9.1940   24.7050 N   0  0  0  0  0  0
   11.4404  -10.2892   23.9217 C   0  0  0  0  0  0
   10.5686  -11.3940   24.4627 C   0  0  0  0  0  0
   12.4153   -7.0545   25.0336 N   0  0  0  0  0  0
   14.4770  -10.2458   15.6517 H   0  0  0  0  0  0
   14.7995  -11.9764   15.7690 H   0  0  0  0  0  0
   14.4094  -11.0534   17.2203 H   0  0  0  0  0  0
   16.5942   -9.7792   16.9613 H   0  0  0  0  0  0
   16.9215  -10.6861   15.5081 H   0  0  0  0  0  0
   18.0693  -13.6234   18.2238 H   0  0  0  0  0  0
   18.0624  -12.5902   21.0848 H   0  0  0  0  0  0
   19.2682  -12.2499   19.8925 H   0  0  0  0  0  0
   21.9569  -13.4742   21.8108 H   0  0  0  0  0  0
   22.6409  -13.0542   24.1432 H   0  0  0  0  0  0
   18.1444  -14.8849   23.1866 H   0  0  0  0  0  0
   13.5198  -14.8736   21.9805 H   0  0  0  0  0  0
   11.4049  -15.8567   20.9955 H   0  0  0  0  0  0
   11.6241  -17.0248   18.9428 H   0  0  0  0  0  0
   13.3049  -15.9499   17.3207 H   0  0  0  0  0  0
   14.1966  -17.1305   18.2655 H   0  0  0  0  0  0
   11.9955  -13.3049   22.5579 H   0  0  0  0  0  0
   11.6142  -10.9819   20.7015 H   0  0  0  0  0  0
   10.5418  -11.6272   21.9205 H   0  0  0  0  0  0
   13.5592   -9.5230   21.3967 H   0  0  0  0  0  0
   13.9479   -7.6105   22.9310 H   0  0  0  0  0  0
   11.0239  -12.3705   24.3205 H   0  0  0  0  0  0
   10.4157  -11.2731   25.5357 H   0  0  0  0  0  0
    9.6193  -11.4050   23.9216 H   0  0  0  0  0  0
   13.3314   -6.6616   25.2419 H   0  0  0  0  0  0
   11.7360   -7.0395   25.7813 H   0  0  0  0  0  0
  1  2  1  0  0  0
  1 40  1  0  0  0
  1 41  1  0  0  0
  1 42  1  0  0  0
  2  3  1  0  0  0
  2 43  1  0  0  0
  2 44  1  0  0  0
  3  4  1  0  0  0
  4  5  2  0  0  0
  4  6  1  0  0  0
  6  7  1  0  0  0
  6 17  1  0  0  0
  6 45  1  0  0  0
  7  8  1  0  0  0
  7 46  1  0  0  0
  7 47  1  0  0  0
  8  9  1  0  0  0
  9 14  1  0  0  0
  9 10  2  0  0  0
 10 11  1  0  0  0
 10 48  1  0  0  0
 11 12  2  0  0  0
 11 49  1  0  0  0
 12 13  1  0  0  0
 12 16  1  0  0  0
 13 14  2  0  0  0
 13 15  1  0  0  0
 14 50  1  0  0  0
 17 22  1  0  0  0
 17 18  1  0  0  0
 18 19  2  0  0  0
 18 20  1  0  0  0
 20 27  1  0  0  0
 20 21  1  0  0  0
 21 22  1  0  0  0
 21 24  1  0  0  0
 22 23  2  0  0  0
 24 25  1  0  0  0
 24 28  1  0  0  0
 24 51  1  0  0  0
 25 26  2  0  0  0
 25 52  1  0  0  0
 26 27  1  0  0  0
 26 53  1  0  0  0
 27 54  1  0  0  0
 27 55  1  0  0  0
 28 29  2  0  0  0
 28 30  1  0  0  0
 30 31  1  0  0  0
 30 56  1  0  0  0
 31 32  1  0  0  0
 31 57  1  0  0  0
 31 58  1  0  0  0
 32 37  1  0  0  0
 32 33  2  0  0  0
 33 34  1  0  0  0
 33 59  1  0  0  0
 34 35  2  0  0  0
 34 60  1  0  0  0
 35 36  1  0  0  0
 35 39  1  0  0  0
 36 37  2  0  0  0
 37 38  1  0  0  0
 38 61  1  0  0  0
 38 62  1  0  0  0
 38 63  1  0  0  0
 39 64  1  0  0  0
 39 65  1  0  0  0
M  END
> <s_m_entry_id>
37791

> <s_m_entry_name>
ligand_docking-pose.138

> <s_m_Source_Path>
/home/csk/Desktop/cluster/DUD-E-result/thrb

> <s_m_Source_File>
ligand_docking-pose.sdf

> <i_m_Source_File_Index>
138

> <i_lp_mmshare_version>
53161

> <i_f3d_flags>
0

> <r_lp_tautomer_probability>
0.999999772200052

> <s_lp_Force_Field>
OPLS_2005

> <r_lp_Energy>
11.86279

> <b_lp_Chiralities_Consistent>
1

> <s_lp_Variant>
46392-4

> <s_i_glide_gridfile>
glide-grid_1ype

> <i_i_glide_lignum>
4004

> <i_i_glide_rotatable_bonds>
11

> <r_i_docking_score>
-7.63886694489932

> <r_i_glide_ligand_efficiency>
-0.195868383202547

> <r_i_glide_ligand_efficiency_sa>
-0.664231101630009

> <r_i_glide_ligand_efficiency_ln>
-1.63798991511968

> <r_i_glide_gscore>
-7.63886694489932

> <r_i_glide_lipo>
-3.63038476038748

> <r_i_glide_hbond>
-0.518110180662364

> <r_i_glide_metal>
0

> <r_i_glide_rewards>
-0.522257648346012

> <r_i_glide_evdw>
-47.5328941345215

> <r_i_glide_ecoul>
-6.77284240722656

> <r_i_glide_erotb>
0.424456712306598

> <r_i_glide_esite>
0

> <r_i_glide_emodel>
-54.5006003873198

> <r_i_glide_energy>
-54.305736541748

> <r_i_glide_einternal>
25.2184219360352

> <i_i_glide_confnum>
3

> <i_i_glide_posenum>
10

> <r_i_glide_eff_state_penalty>
0

> <s_user_duplicate_titles>
46392

> <s_m_subgroup_title>
dock_pv

> <s_m_subgroupid>
dock_pv1

> <b_m_subgroup_collapsed>
0

$$$$
2906
                    3D
 Schrodinger Suite 2021-1.
 59 62  0  0  1  0            999 V2000
   23.0391  -13.8533   24.0468 C   0  0  0  0  0  0
   23.1247  -14.6845   25.1604 C   0  0  0  0  0  0
   22.0606  -15.5228   25.4872 C   0  0  0  0  0  0
   20.8923  -15.5339   24.7149 C   0  0  0  0  0  0
   20.8035  -14.6955   23.5837 C   0  0  0  0  0  0
   21.8868  -13.8669   23.2626 C   0  0  0  0  0  0
   19.5959  -14.6459   22.7286 C   0  0  0  0  0  0
   18.4587  -13.9510   23.1423 C   0  0  0  0  0  0
   17.3156  -13.9357   22.3459 C   0  0  0  0  0  0
   17.3268  -14.6534   21.1495 C   0  0  0  0  0  0
   18.4262  -15.3333   20.7210 N   0  0  0  0  0  0
   19.5382  -15.3115   21.5001 C   0  0  0  0  0  0
   16.1517  -14.6197   20.3958 N   0  0  0  0  0  0
   15.5859  -15.6184   19.6805 C   0  0  0  0  0  0
   16.1132  -16.7231   19.5293 O   0  0  0  0  0  0
   14.1733  -15.3151   19.0698 C   0  0  1  0  0  0
   13.2403  -14.6700   20.1198 C   0  0  0  0  0  0
   13.3560  -13.2010   19.8065 C   0  0  0  0  0  0
   13.9299  -13.0202   18.6916 N   0  0  0  0  0  0
   14.3257  -14.2582   18.1236 O   0  0  0  0  0  0
   12.9252  -12.1551   20.7459 C   0  0  0  0  0  0
   13.4739  -10.8667   20.6735 C   0  0  0  0  0  0
   13.1573   -9.9063   21.6324 C   0  0  0  0  0  0
   12.2828  -10.2155   22.6741 C   0  0  0  0  0  0
   11.6926  -11.4863   22.7302 C   0  0  0  0  0  0
   12.0247  -12.4483   21.7757 C   0  0  0  0  0  0
   10.8160  -11.8528   23.7516 N   0  0  0  0  0  0
   12.0159   -9.0280   23.9039 Cl  0  0  0  0  0  0
   13.5933  -16.5620   18.3301 C   0  0  0  0  0  0
   12.3366  -16.3558   17.5993 N   0  0  0  0  0  0
   11.1162  -16.6647   18.0581 C   0  0  0  0  0  0
   10.8609  -17.0494   19.1957 O   0  0  0  0  0  0
   10.1863  -16.5468   17.1211 N   0  0  0  0  0  0
   19.5418  -16.6323   25.2108 S   0  0  0  0  0  0
   18.9912  -17.2485   24.0013 O   0  0  0  0  0  0
   20.0164  -17.4637   26.3204 O   0  0  0  0  0  0
   18.3153  -15.5854   25.8707 N   0  0  0  0  0  0
   23.8615  -13.1991   23.7943 H   0  0  0  0  0  0
   24.0160  -14.6804   25.7713 H   0  0  0  0  0  0
   22.1548  -16.1685   26.3466 H   0  0  0  0  0  0
   21.8281  -13.2164   22.4024 H   0  0  0  0  0  0
   18.4591  -13.4532   24.0993 H   0  0  0  0  0  0
   16.4322  -13.4084   22.6764 H   0  0  0  0  0  0
   20.3866  -15.8705   21.1333 H   0  0  0  0  0  0
   15.5650  -13.8152   20.5535 H   0  0  0  0  0  0
   13.5501  -14.8844   21.1458 H   0  0  0  0  0  0
   12.2040  -14.9869   20.0286 H   0  0  0  0  0  0
   14.1868  -10.6152   19.9012 H   0  0  0  0  0  0
   13.6240   -8.9327   21.5912 H   0  0  0  0  0  0
   11.5860  -13.4336   21.8585 H   0  0  0  0  0  0
   10.4574  -12.8047   23.7416 H   0  0  0  0  0  0
   10.2610  -11.1300   24.1976 H   0  0  0  0  0  0
   14.3135  -16.9127   17.5881 H   0  0  0  0  0  0
   13.4843  -17.3880   19.0375 H   0  0  0  0  0  0
   12.4102  -16.0681   16.6292 H   0  0  0  0  0  0
    9.2562  -16.8882   17.3185 H   0  0  0  0  0  0
   10.4686  -16.2940   16.1785 H   0  0  0  0  0  0
   17.4856  -15.4909   25.2771 H   0  0  0  0  0  0
   18.1020  -15.7729   26.8549 H   0  0  0  0  0  0
  1  6  1  0  0  0
  1  2  2  0  0  0
  1 38  1  0  0  0
  2  3  1  0  0  0
  2 39  1  0  0  0
  3  4  2  0  0  0
  3 40  1  0  0  0
  4  5  1  0  0  0
  4 34  1  0  0  0
  5  6  2  0  0  0
  5  7  1  0  0  0
  6 41  1  0  0  0
  7 12  1  0  0  0
  7  8  2  0  0  0
  8  9  1  0  0  0
  8 42  1  0  0  0
  9 10  2  0  0  0
  9 43  1  0  0  0
 10 11  1  0  0  0
 10 13  1  0  0  0
 11 12  2  0  0  0
 12 44  1  0  0  0
 13 14  1  0  0  0
 13 45  1  0  0  0
 14 15  2  0  0  0
 14 16  1  0  0  0
 16 20  1  0  0  0
 16 17  1  0  0  0
 16 29  1  0  0  0
 17 18  1  0  0  0
 17 46  1  0  0  0
 17 47  1  0  0  0
 18 19  2  0  0  0
 18 21  1  0  0  0
 19 20  1  0  0  0
 21 26  1  0  0  0
 21 22  2  0  0  0
 22 23  1  0  0  0
 22 48  1  0  0  0
 23 24  2  0  0  0
 23 49  1  0  0  0
 24 25  1  0  0  0
 24 28  1  0  0  0
 25 26  2  0  0  0
 25 27  1  0  0  0
 26 50  1  0  0  0
 27 51  1  0  0  0
 27 52  1  0  0  0
 29 30  1  0  0  0
 29 53  1  0  0  0
 29 54  1  0  0  0
 30 31  1  0  0  0
 30 55  1  0  0  0
 31 32  2  0  0  0
 31 33  1  0  0  0
 33 56  1  0  0  0
 33 57  1  0  0  0
 34 35  2  0  0  0
 34 36  2  0  0  0
 34 37  1  0  0  0
 37 58  1  0  0  0
 37 59  1  0  0  0
M  END
> <s_m_entry_id>
37792

> <s_m_entry_name>
ligand_docking-pose.139

> <s_m_Source_Path>
/home/csk/Desktop/cluster/DUD-E-result/thrb

> <s_m_Source_File>
ligand_docking-pose.sdf

> <i_m_Source_File_Index>
139

> <i_lp_mmshare_version>
53161

> <i_f3d_flags>
0

> <r_lp_tautomer_probability>
1

> <s_lp_Force_Field>
OPLS_2005

> <r_lp_Energy>
33.130861

> <b_lp_Chiralities_Consistent>
1

> <s_lp_Variant>
2906-2

> <s_i_glide_gridfile>
glide-grid_1ype

> <i_i_glide_lignum>
625

> <i_i_glide_rotatable_bonds>
9

> <r_i_docking_score>
-7.63834973507087

> <r_i_glide_ligand_efficiency>
-0.206441884731645

> <r_i_glide_ligand_efficiency_sa>
-0.687910158569767

> <r_i_glide_ligand_efficiency_ln>
-1.65657898921269

> <r_i_glide_gscore>
-7.63834973507087

> <r_i_glide_lipo>
-3.0641773079937

> <r_i_glide_hbond>
-0.705703992737698

> <r_i_glide_metal>
0

> <r_i_glide_rewards>
-0.0883981659874559

> <r_i_glide_evdw>
-50.3700256347656

> <r_i_glide_ecoul>
-10.7589502334595

> <r_i_glide_erotb>
0.489557641706826

> <r_i_glide_esite>
-0.137284093301642

> <r_i_glide_emodel>
-83.5601026877863

> <r_i_glide_energy>
-61.1289758682251

> <r_i_glide_einternal>
10.0000524520874

> <i_i_glide_confnum>
36

> <i_i_glide_posenum>
276

> <r_i_glide_eff_state_penalty>
0

> <s_user_duplicate_titles>
2906

> <s_m_subgroup_title>
dock_pv

> <s_m_subgroupid>
dock_pv1

> <b_m_subgroup_collapsed>
0

$$$$
47192
                    3D
 Schrodinger Suite 2021-1.
 57 59  0  0  1  0            999 V2000
   11.9622   -8.0683   24.6596 C   0  0  0  0  0  0
   12.3332   -9.0561   23.5718 C   0  0  0  0  0  0
   13.3922   -8.7626   22.7210 C   0  0  0  0  0  0
   13.7111   -9.6286   21.6811 C   0  0  0  0  0  0
   12.9990  -10.8181   21.5201 C   0  0  0  0  0  0
   11.9501  -11.1301   22.3895 C   0  0  0  0  0  0
   11.6145  -10.2444   23.4123 C   0  0  0  0  0  0
   13.4125  -11.9101   20.1587 S   0  0  0  0  0  0
   13.6381  -11.0532   18.9889 O   0  0  0  0  0  0
   12.3826  -12.9540   20.1063 O   0  0  0  0  0  0
   14.9860  -12.6809   20.6561 C   0  0  0  0  0  0
   14.9433  -14.0228   21.2017 C   0  0  0  0  0  0
   16.0992  -14.6409   21.5211 C   0  0  0  0  0  0
   17.3480  -14.0372   21.3563 N   0  0  0  0  0  0
   17.4663  -12.7514   20.8415 C   0  0  0  0  0  0
   18.5633  -12.1888   20.6867 O   0  0  0  0  0  0
   16.1952  -12.0898   20.4721 C   0  0  0  0  0  0
   16.3633  -10.8388   19.9217 N   0  0  0  0  0  0
   18.6388  -14.7058   21.6840 C   0  0  0  0  0  0
   19.1096  -14.3271   23.1005 C   0  0  0  0  0  0
   18.3126  -14.2530   24.0359 O   0  0  0  0  0  0
   20.4234  -14.0952   23.2276 N   0  0  0  0  0  0
   21.1029  -13.7247   24.4656 C   0  0  0  0  0  0
   22.4030  -14.4991   24.6378 C   0  0  0  0  0  0
   23.6295  -13.8987   24.3223 C   0  0  0  0  0  0
   24.8157  -14.6148   24.4918 C   0  0  0  0  0  0
   24.7456  -15.9126   24.9982 C   0  0  0  0  0  0
   23.5747  -16.5096   25.3227 N   0  0  0  0  0  0
   22.4239  -15.8087   25.1473 C   0  0  0  0  0  0
   21.1522  -16.5510   25.5299 C   0  0  0  0  0  0
   25.9052  -16.6528   25.1954 N   0  0  0  0  0  0
   16.0732  -16.0469   22.1138 C   0  0  0  0  0  0
   12.0763   -7.0401   24.3208 H   0  0  0  0  0  0
   10.9205   -8.1828   24.9547 H   0  0  0  0  0  0
   12.6082   -8.2031   25.5209 H   0  0  0  0  0  0
   13.9612   -7.8536   22.8525 H   0  0  0  0  0  0
   14.5184   -9.3688   21.0147 H   0  0  0  0  0  0
   11.3796  -12.0413   22.2723 H   0  0  0  0  0  0
   10.7850  -10.4771   24.0669 H   0  0  0  0  0  0
   13.9917  -14.5099   21.3666 H   0  0  0  0  0  0
   15.6166  -10.3765   19.4100 H   0  0  0  0  0  0
   17.2749  -10.3991   19.9545 H   0  0  0  0  0  0
   19.4109  -14.4485   20.9559 H   0  0  0  0  0  0
   18.5416  -15.7885   21.6305 H   0  0  0  0  0  0
   20.9935  -14.0880   22.3951 H   0  0  0  0  0  0
   20.4743  -13.8615   25.3483 H   0  0  0  0  0  0
   21.2945  -12.6530   24.4351 H   0  0  0  0  0  0
   23.6666  -12.8880   23.9424 H   0  0  0  0  0  0
   25.7667  -14.1638   24.2499 H   0  0  0  0  0  0
   20.4907  -16.6360   24.6681 H   0  0  0  0  0  0
   21.3571  -17.5592   25.8930 H   0  0  0  0  0  0
   20.6210  -16.0161   26.3189 H   0  0  0  0  0  0
   26.8002  -16.1824   25.1202 H   0  0  0  0  0  0
   25.8241  -17.5553   25.6387 H   0  0  0  0  0  0
   15.0527  -16.3995   22.2658 H   0  0  0  0  0  0
   16.5669  -16.7592   21.4534 H   0  0  0  0  0  0
   16.5597  -16.0671   23.0891 H   0  0  0  0  0  0
  1  2  1  0  0  0
  1 33  1  0  0  0
  1 34  1  0  0  0
  1 35  1  0  0  0
  2  7  1  0  0  0
  2  3  2  0  0  0
  3  4  1  0  0  0
  3 36  1  0  0  0
  4  5  2  0  0  0
  4 37  1  0  0  0
  5  6  1  0  0  0
  5  8  1  0  0  0
  6  7  2  0  0  0
  6 38  1  0  0  0
  7 39  1  0  0  0
  8  9  2  0  0  0
  8 10  2  0  0  0
  8 11  1  0  0  0
 11 17  2  0  0  0
 11 12  1  0  0  0
 12 13  2  0  0  0
 12 40  1  0  0  0
 13 14  1  0  0  0
 13 32  1  0  0  0
 14 15  1  0  0  0
 14 19  1  0  0  0
 15 16  2  0  0  0
 15 17  1  0  0  0
 17 18  1  0  0  0
 18 41  1  0  0  0
 18 42  1  0  0  0
 19 20  1  0  0  0
 19 43  1  0  0  0
 19 44  1  0  0  0
 20 21  2  0  0  0
 20 22  1  0  0  0
 22 23  1  0  0  0
 22 45  1  0  0  0
 23 24  1  0  0  0
 23 46  1  0  0  0
 23 47  1  0  0  0
 24 29  1  0  0  0
 24 25  2  0  0  0
 25 26  1  0  0  0
 25 48  1  0  0  0
 26 27  2  0  0  0
 26 49  1  0  0  0
 27 28  1  0  0  0
 27 31  1  0  0  0
 28 29  2  0  0  0
 29 30  1  0  0  0
 30 50  1  0  0  0
 30 51  1  0  0  0
 30 52  1  0  0  0
 31 53  1  0  0  0
 31 54  1  0  0  0
 32 55  1  0  0  0
 32 56  1  0  0  0
 32 57  1  0  0  0
M  END
> <s_m_entry_id>
37795

> <s_m_entry_name>
ligand_docking-pose.142

> <s_m_Source_Path>
/home/csk/Desktop/cluster/DUD-E-result/thrb

> <s_m_Source_File>
ligand_docking-pose.sdf

> <i_m_Source_File_Index>
142

> <i_lp_mmshare_version>
53161

> <i_f3d_flags>
0

> <r_lp_tautomer_probability>
0.999999772200052

> <s_lp_Force_Field>
OPLS_2005

> <r_lp_Energy>
25.99392

> <b_lp_Chiralities_Consistent>
1

> <s_lp_Variant>
47192-1

> <s_i_glide_gridfile>
glide-grid_1ype

> <i_i_glide_lignum>
2524

> <i_i_glide_rotatable_bonds>
7

> <r_i_docking_score>
-7.63353871787506

> <r_i_glide_ligand_efficiency>
-0.238548084933596

> <r_i_glide_ligand_efficiency_sa>
-0.757342961062262

> <r_i_glide_ligand_efficiency_ln>
-1.70935740133879

> <r_i_glide_gscore>
-7.63353871787506

> <r_i_glide_lipo>
-3.36496339964395

> <r_i_glide_hbond>
-0.574453572639949

> <r_i_glide_metal>
0

> <r_i_glide_rewards>
-0.83171344999087

> <r_i_glide_evdw>
-48.3093605041504

> <r_i_glide_ecoul>
-7.39817333221436

> <r_i_glide_erotb>
0.677700628811464

> <r_i_glide_esite>
-0.0149148993720814

> <r_i_glide_emodel>
-78.5923694747389

> <r_i_glide_energy>
-55.7075338363647

> <r_i_glide_einternal>
4.01039981842041

> <i_i_glide_confnum>
87

> <i_i_glide_posenum>
356

> <r_i_glide_eff_state_penalty>
0

> <s_user_duplicate_titles>
47192

> <s_m_subgroup_title>
dock_pv

> <s_m_subgroupid>
dock_pv1

> <b_m_subgroup_collapsed>
0

$$$$
161613
                    3D
 Schrodinger Suite 2021-1.
 74 77  0  0  1  0            999 V2000
   17.0363  -16.0896   14.5931 C   0  0  0  0  0  0
   15.5458  -15.7972   14.8082 C   0  0  0  0  0  0
   15.0817  -15.2711   16.4957 S   0  0  0  0  0  0
   15.5166  -13.4844   16.3886 C   0  0  0  0  0  0
   16.0849  -12.9455   15.4371 O   0  0  0  0  0  0
   15.0127  -12.6674   17.6274 C   0  0  0  0  0  0
   14.4842  -11.5700   17.4388 O   0  0  0  0  0  0
   15.2779  -13.2138   19.0391 C   0  0  2  0  0  0
   14.5551  -12.4485   20.2014 C   0  0  2  0  0  0
   12.9990  -12.4731   20.2020 C   0  0  0  0  0  0
   12.3582  -11.5099   21.2190 C   0  0  0  0  0  0
   12.9301  -10.0789   21.1620 C   0  0  1  0  0  0
   14.3860  -10.1871   21.5615 C   0  0  0  0  0  0
   15.2139  -11.1062   20.6570 C   0  0  0  0  0  0
   12.8122   -9.3724   19.9133 N   0  0  0  0  0  0
   16.7310  -13.2977   19.3178 N   0  0  0  0  0  0
   17.6838  -12.3628   19.1116 C   0  0  0  0  0  0
   17.6146  -11.5089   18.2279 O   0  0  0  0  0  0
   18.8539  -12.2863   20.1110 C   0  0  2  0  0  0
   20.1923  -12.0842   19.4098 C   0  0  0  0  0  0
   21.1723  -12.8344   20.2695 C   0  0  0  0  0  0
   20.3780  -14.0403   20.7895 C   0  0  2  0  0  0
   19.0496  -13.4259   21.0382 N   0  0  0  0  0  0
   18.2588  -13.6935   22.1271 C   0  0  0  0  0  0
   17.2040  -13.0892   22.3152 O   0  0  0  0  0  0
   18.7469  -14.7376   23.1675 C   0  0  0  0  0  0
   19.8960  -15.5261   22.6563 N   0  0  1  0  0  0
   20.9517  -14.7075   22.0444 C   0  0  0  0  0  0
   20.4142  -16.8958   23.6561 S   0  0  0  0  0  0
   19.2025  -17.5776   24.1228 O   0  0  0  0  0  0
   21.4381  -17.6329   22.9086 O   0  0  0  0  0  0
   21.2380  -16.1099   25.1757 C   0  0  0  0  0  0
   22.5839  -15.4632   24.8852 C   0  0  0  0  0  0
   23.6864  -16.2747   24.6051 C   0  0  0  0  0  0
   24.9192  -15.6977   24.3137 C   0  0  0  0  0  0
   25.0470  -14.3131   24.3126 C   0  0  0  0  0  0
   23.9584  -13.4977   24.6121 C   0  0  0  0  0  0
   22.7220  -14.0717   24.9034 C   0  0  0  0  0  0
   14.8974  -14.2342   19.0956 H   0  0  0  0  0  0
   18.5860  -11.4042   20.6999 H   0  0  0  0  0  0
   20.2741  -14.7893   20.0030 H   0  0  0  0  0  0
   17.2232  -16.4762   13.5883 H   0  0  0  0  0  0
   17.6258  -15.1809   14.7106 H   0  0  0  0  0  0
   17.4071  -16.8248   15.3098 H   0  0  0  0  0  0
   14.9589  -16.6897   14.5791 H   0  0  0  0  0  0
   15.2212  -15.0480   14.0864 H   0  0  0  0  0  0
   14.7438  -13.0556   21.0881 H   0  0  0  0  0  0
   12.6113  -13.4902   20.2305 H   0  0  0  0  0  0
   12.6555  -12.1361   19.2230 H   0  0  0  0  0  0
   11.2887  -11.4910   21.1211 H   0  0  0  0  0  0
   12.5191  -11.9309   22.2121 H   0  0  0  0  0  0
   12.3867   -9.4736   21.8924 H   0  0  0  0  0  0
   14.8412   -9.2007   21.6623 H   0  0  0  0  0  0
   14.4114  -10.6430   22.5478 H   0  0  0  0  0  0
   15.3741  -10.5549   19.7395 H   0  0  0  0  0  0
   16.2354  -11.2151   21.0144 H   0  0  0  0  0  0
   11.8595   -9.4290   19.5574 H   0  0  0  0  0  0
   12.9892   -8.3918   20.0839 H   0  0  0  0  0  0
   16.9291  -13.8941   20.1110 H   0  0  0  0  0  0
   20.1965  -12.5499   18.4218 H   0  0  0  0  0  0
   20.4500  -11.0388   19.2837 H   0  0  0  0  0  0
   22.0295  -13.0628   19.6627 H   0  0  0  0  0  0
   21.5326  -12.2277   21.1019 H   0  0  0  0  0  0
   19.0108  -14.2133   24.0852 H   0  0  0  0  0  0
   17.9095  -15.4126   23.3596 H   0  0  0  0  0  0
   21.8123  -15.3310   21.8182 H   0  0  0  0  0  0
   21.2338  -13.9261   22.7480 H   0  0  0  0  0  0
   20.5328  -15.3948   25.5979 H   0  0  0  0  0  0
   21.3632  -16.9098   25.9018 H   0  0  0  0  0  0
   23.5845  -17.3533   24.6127 H   0  0  0  0  0  0
   25.7773  -16.3224   24.1058 H   0  0  0  0  0  0
   26.0116  -13.8727   24.1006 H   0  0  0  0  0  0
   24.0769  -12.4248   24.6288 H   0  0  0  0  0  0
   21.8821  -13.4283   25.1396 H   0  0  0  0  0  0
  1  2  1  0  0  0
  1 42  1  0  0  0
  1 43  1  0  0  0
  1 44  1  0  0  0
  2  3  1  0  0  0
  2 45  1  0  0  0
  2 46  1  0  0  0
  3  4  1  0  0  0
  4  5  2  0  0  0
  4  6  1  0  0  0
  6  7  2  0  0  0
  6  8  1  0  0  0
  8 39  1  0  0  0
  8  9  1  0  0  0
  8 16  1  0  0  0
  9 14  1  0  0  0
  9 10  1  0  0  0
  9 47  1  0  0  0
 10 11  1  0  0  0
 10 48  1  0  0  0
 10 49  1  0  0  0
 11 12  1  0  0  0
 11 50  1  0  0  0
 11 51  1  0  0  0
 12 13  1  0  0  0
 12 15  1  0  0  0
 12 52  1  0  0  0
 13 14  1  0  0  0
 13 53  1  0  0  0
 13 54  1  0  0  0
 14 55  1  0  0  0
 14 56  1  0  0  0
 15 57  1  0  0  0
 15 58  1  0  0  0
 16 17  1  0  0  0
 16 59  1  0  0  0
 17 18  2  0  0  0
 17 19  1  0  0  0
 19 40  1  0  0  0
 19 23  1  0  0  0
 19 20  1  0  0  0
 20 21  1  0  0  0
 20 60  1  0  0  0
 20 61  1  0  0  0
 21 22  1  0  0  0
 21 62  1  0  0  0
 21 63  1  0  0  0
 22 41  1  0  0  0
 22 28  1  0  0  0
 22 23  1  0  0  0
 23 24  1  0  0  0
 24 25  2  0  0  0
 24 26  1  0  0  0
 26 27  1  0  0  0
 26 64  1  0  0  0
 26 65  1  0  0  0
 27 28  1  0  0  0
 27 29  1  0  0  0
 28 66  1  0  0  0
 28 67  1  0  0  0
 29 30  2  0  0  0
 29 31  2  0  0  0
 29 32  1  0  0  0
 32 33  1  0  0  0
 32 68  1  0  0  0
 32 69  1  0  0  0
 33 38  1  0  0  0
 33 34  2  0  0  0
 34 35  1  0  0  0
 34 70  1  0  0  0
 35 36  2  0  0  0
 35 71  1  0  0  0
 36 37  1  0  0  0
 36 72  1  0  0  0
 37 38  2  0  0  0
 37 73  1  0  0  0
 38 74  1  0  0  0
M  END
> <s_m_entry_id>
37797

> <s_m_entry_name>
ligand_docking-pose.144

> <s_m_Source_Path>
/home/csk/Desktop/cluster/DUD-E-result/thrb

> <s_m_Source_File>
ligand_docking-pose.sdf

> <i_m_Source_File_Index>
144

> <i_lp_mmshare_version>
53161

> <i_f3d_flags>
0

> <r_lp_tautomer_probability>
1

> <s_lp_Force_Field>
OPLS_2005

> <r_lp_Energy>
18.212004

> <b_lp_Chiralities_Consistent>
1

> <s_lp_Variant>
161613-1

> <s_i_glide_gridfile>
glide-grid_1ype

> <i_i_glide_lignum>
4107

> <i_i_glide_rotatable_bonds>
11

> <r_i_docking_score>
-7.63254402416399

> <r_i_glide_ligand_efficiency>
-0.200856421688526

> <r_i_glide_ligand_efficiency_sa>
-0.675274349195677

> <r_i_glide_ligand_efficiency_ln>
-1.64580101830697

> <r_i_glide_gscore>
-7.63254402416399

> <r_i_glide_lipo>
-3.45169807530545

> <r_i_glide_hbond>
-0.575421876141128

> <r_i_glide_metal>
0

> <r_i_glide_rewards>
-0.621036873549767

> <r_i_glide_evdw>
-42.5487861633301

> <r_i_glide_ecoul>
-9.48424911499023

> <r_i_glide_erotb>
0.568191480212439

> <r_i_glide_esite>
-0.00250200396504718

> <r_i_glide_emodel>
-66.5499214660409

> <r_i_glide_energy>
-52.0330352783203

> <r_i_glide_einternal>
18.2277698516846

> <i_i_glide_confnum>
58

> <i_i_glide_posenum>
200

> <r_i_glide_eff_state_penalty>
0

> <s_user_duplicate_titles>
161613

> <s_m_subgroup_title>
dock_pv

> <s_m_subgroupid>
dock_pv1

> <b_m_subgroup_collapsed>
0

$$$$
33586
                    3D
 Schrodinger Suite 2021-1.
 65 68  0  0  1  0            999 V2000
   16.7540   -9.9257   15.4141 C   0  0  0  0  0  0
   16.7670  -11.4456   15.6177 C   0  0  0  0  0  0
   17.6191  -11.8530   16.8094 C   0  0  0  0  0  0
   18.9301  -11.8530   16.7370 N   0  0  0  0  0  0
   19.3529  -12.2530   17.9755 C   0  0  0  0  0  0
   20.6557  -12.3584   18.4787 C   0  0  0  0  0  0
   20.8160  -12.8205   19.7864 C   0  0  0  0  0  0
   19.7345  -13.2162   20.5765 C   0  0  0  0  0  0
   18.4260  -13.1539   20.0672 C   0  0  0  0  0  0
   18.2547  -12.6086   18.7913 C   0  0  0  0  0  0
   17.1370  -12.2644   18.0479 N   0  0  0  0  0  0
   15.7352  -12.3641   18.4964 C   0  0  0  0  0  0
   15.2915  -11.5385   19.7226 C   0  0  0  0  0  0
   13.9870  -11.5840   20.0920 C   0  0  0  0  0  0
   13.2947  -10.9226   21.2208 C   0  0  0  0  0  0
   13.5223   -9.5897   21.5863 C   0  0  0  0  0  0
   12.9153   -9.0530   22.7208 C   0  0  0  0  0  0
   12.0054   -9.8042   23.4540 C   0  0  0  0  0  0
   11.7242  -11.1084   23.0678 C   0  0  0  0  0  0
   12.3746  -11.6712   21.9672 C   0  0  0  0  0  0
   10.8160  -11.8530   23.8066 N   0  0  0  0  0  0
   16.3566  -10.7258   20.4652 C   0  0  0  0  0  0
   20.0430  -13.6362   21.8582 O   0  0  0  0  0  0
   19.0140  -14.0632   22.7539 C   0  0  0  0  0  0
   18.6136  -15.5291   22.5004 C   0  0  0  0  0  0
   17.5506  -16.0062   23.5155 C   0  0  0  0  0  0
   18.0413  -15.8012   24.8933 N   0  0  0  0  0  0
   18.3729  -14.3916   25.1791 C   0  0  0  0  0  0
   19.4718  -13.8996   24.2093 C   0  0  0  0  0  0
   18.0160  -16.8175   25.8519 C   0  0  0  0  0  0
   17.5625  -17.9898   25.7248 N   0  0  0  0  0  0
   18.5926  -16.4864   27.2201 C   0  0  0  0  0  0
   16.0875   -9.6351   14.6008 H   0  0  0  0  0  0
   16.4160   -9.4342   16.3210 H   0  0  0  0  0  0
   17.7468   -9.5373   15.1888 H   0  0  0  0  0  0
   17.1570  -11.9131   14.7126 H   0  0  0  0  0  0
   15.7457  -11.8164   15.6812 H   0  0  0  0  0  0
   21.5133  -12.0928   17.8787 H   0  0  0  0  0  0
   21.8104  -12.8908   20.2021 H   0  0  0  0  0  0
   17.5656  -13.4607   20.6385 H   0  0  0  0  0  0
   15.5505  -13.4179   18.7121 H   0  0  0  0  0  0
   15.0710  -12.1129   17.6724 H   0  0  0  0  0  0
   13.3291  -12.1903   19.4843 H   0  0  0  0  0  0
   14.1758   -8.9566   21.0073 H   0  0  0  0  0  0
   13.1516   -8.0493   23.0390 H   0  0  0  0  0  0
   11.5251   -9.3759   24.3222 H   0  0  0  0  0  0
   12.1676  -12.6982   21.7012 H   0  0  0  0  0  0
   10.6648  -12.8278   23.5573 H   0  0  0  0  0  0
   10.1155  -11.3797   24.3699 H   0  0  0  0  0  0
   17.0479  -10.2530   19.7743 H   0  0  0  0  0  0
   15.9789   -9.9402   21.1056 H   0  0  0  0  0  0
   16.9254  -11.3656   21.1335 H   0  0  0  0  0  0
   18.1409  -13.4158   22.6570 H   0  0  0  0  0  0
   18.2277  -15.6631   21.4901 H   0  0  0  0  0  0
   19.4902  -16.1700   22.6087 H   0  0  0  0  0  0
   16.6543  -15.3925   23.4224 H   0  0  0  0  0  0
   17.2509  -17.0342   23.3081 H   0  0  0  0  0  0
   17.4452  -13.8530   24.9841 H   0  0  0  0  0  0
   18.6276  -14.1742   26.2160 H   0  0  0  0  0  0
   20.3748  -14.4843   24.3917 H   0  0  0  0  0  0
   19.6987  -12.8556   24.4290 H   0  0  0  0  0  0
   17.1921  -18.1588   24.8025 H   0  0  0  0  0  0
   17.9526  -15.7864   27.7570 H   0  0  0  0  0  0
   18.7056  -17.3689   27.8524 H   0  0  0  0  0  0
   19.5794  -16.0362   27.1208 H   0  0  0  0  0  0
  1  2  1  0  0  0
  1 33  1  0  0  0
  1 34  1  0  0  0
  1 35  1  0  0  0
  2  3  1  0  0  0
  2 36  1  0  0  0
  2 37  1  0  0  0
  3 11  1  0  0  0
  3  4  2  0  0  0
  4  5  1  0  0  0
  5 10  2  0  0  0
  5  6  1  0  0  0
  6  7  2  0  0  0
  6 38  1  0  0  0
  7  8  1  0  0  0
  7 39  1  0  0  0
  8  9  2  0  0  0
  8 23  1  0  0  0
  9 10  1  0  0  0
  9 40  1  0  0  0
 10 11  1  0  0  0
 11 12  1  0  0  0
 12 13  1  0  0  0
 12 41  1  0  0  0
 12 42  1  0  0  0
 13 14  2  0  0  0
 13 22  1  0  0  0
 14 15  1  0  0  0
 14 43  1  0  0  0
 15 20  1  0  0  0
 15 16  2  0  0  0
 16 17  1  0  0  0
 16 44  1  0  0  0
 17 18  2  0  0  0
 17 45  1  0  0  0
 18 19  1  0  0  0
 18 46  1  0  0  0
 19 20  2  0  0  0
 19 21  1  0  0  0
 20 47  1  0  0  0
 21 48  1  0  0  0
 21 49  1  0  0  0
 22 50  1  0  0  0
 22 51  1  0  0  0
 22 52  1  0  0  0
 23 24  1  0  0  0
 24 29  1  0  0  0
 24 25  1  0  0  0
 24 53  1  0  0  0
 25 26  1  0  0  0
 25 54  1  0  0  0
 25 55  1  0  0  0
 26 27  1  0  0  0
 26 56  1  0  0  0
 26 57  1  0  0  0
 27 28  1  0  0  0
 27 30  1  0  0  0
 28 29  1  0  0  0
 28 58  1  0  0  0
 28 59  1  0  0  0
 29 60  1  0  0  0
 29 61  1  0  0  0
 30 31  2  3  0  0
 30 32  1  0  0  0
 31 62  1  0  0  0
 32 63  1  0  0  0
 32 64  1  0  0  0
 32 65  1  0  0  0
M  END
> <s_m_entry_id>
37800

> <s_m_entry_name>
ligand_docking-pose.147

> <s_m_Source_Path>
/home/csk/Desktop/cluster/DUD-E-result/thrb

> <s_m_Source_File>
ligand_docking-pose.sdf

> <i_m_Source_File_Index>
147

> <i_lp_mmshare_version>
53161

> <i_f3d_flags>
0

> <r_lp_tautomer_probability>
0.499900269896156

> <s_lp_Force_Field>
OPLS_2005

> <r_lp_Energy>
28.256477

> <b_lp_Chiralities_Consistent>
1

> <s_lp_Variant>
33586-2

> <s_i_glide_gridfile>
glide-grid_1ype

> <i_i_glide_lignum>
3246

> <i_i_glide_rotatable_bonds>
7

> <r_i_docking_score>
-7.62371348846169

> <r_i_glide_ligand_efficiency>
-0.238241046514428

> <r_i_glide_ligand_efficiency_sa>
-0.756368174844224

> <r_i_glide_ligand_efficiency_ln>
-1.70715726464749

> <r_i_glide_gscore>
-7.62371348846169

> <r_i_glide_lipo>
-3.55112295598264

> <r_i_glide_hbond>
-0.371301102822256

> <r_i_glide_metal>
0

> <r_i_glide_rewards>
-0.926002556256114

> <r_i_glide_evdw>
-43.6401634216309

> <r_i_glide_ecoul>
-6.86113119125366

> <r_i_glide_erotb>
0.53397225205525

> <r_i_glide_esite>
-0.0980812756863439

> <r_i_glide_emodel>
-71.2282221271911

> <r_i_glide_energy>
-50.5012946128845

> <r_i_glide_einternal>
5.99934959411621

> <i_i_glide_confnum>
10

> <i_i_glide_posenum>
382

> <r_i_glide_eff_state_penalty>
0

> <s_user_duplicate_titles>
33586

> <s_m_subgroup_title>
dock_pv

> <s_m_subgroupid>
dock_pv1

> <b_m_subgroup_collapsed>
0

$$$$
303072
                    3D
 Schrodinger Suite 2021-1.
 67 70  0  0  1  0            999 V2000
   15.9622  -16.6137   21.3741 C   0  0  0  0  0  0
   17.2475  -16.0209   21.5298 O   0  0  0  0  0  0
   17.4721  -14.7388   21.0559 C   0  0  0  0  0  0
   16.5248  -14.0178   20.3129 C   0  0  0  0  0  0
   16.7955  -12.7265   19.8407 C   0  0  0  0  0  0
   18.0139  -12.1311   20.1760 C   0  0  0  0  0  0
   18.9673  -12.8381   20.9047 C   0  0  0  0  0  0
   18.7226  -14.1598   21.3169 C   0  0  0  0  0  0
   19.6493  -14.9492   21.9741 O   0  0  0  0  0  0
   20.9970  -14.5169   22.1762 C   0  0  0  0  0  0
   21.2166  -14.0460   23.6100 C   0  0  0  0  0  0
   20.1816  -13.4558   24.3449 C   0  0  0  0  0  0
   20.3942  -13.0870   25.6703 C   0  0  0  0  0  0
   21.6365  -13.3031   26.2557 C   0  0  0  0  0  0
   22.6804  -13.8630   25.5241 C   0  0  0  0  0  0
   22.4713  -14.2325   24.2001 C   0  0  0  0  0  0
   15.8547  -12.0368   18.8763 C   0  0  1  0  0  0
   16.1989  -12.5217   17.4388 C   0  0  0  0  0  0
   17.3192  -12.2450   17.0040 O   0  0  0  0  0  0
   15.3156  -13.2565   16.7314 N   0  0  0  0  0  0
   15.6233  -13.9101   15.4531 C   0  0  0  0  0  0
   16.1297  -13.0115   14.3209 C   0  0  0  0  0  0
   15.6771  -11.6934   14.1965 C   0  0  0  0  0  0
   16.1989  -10.8698   13.2043 C   0  0  0  0  0  0
   17.1554  -11.3647   12.3216 C   0  0  0  0  0  0
   17.6084  -12.6780   12.4343 C   0  0  0  0  0  0
   17.1011  -13.4978   13.4393 C   0  0  0  0  0  0
   14.4415  -12.1946   19.2178 N   0  0  0  0  0  0
   13.7740  -11.6002   20.3015 C   0  0  0  0  0  0
   14.2005  -10.3906   20.8462 C   0  0  0  0  0  0
   13.5261   -9.8297   21.9210 C   0  0  0  0  0  0
   12.4147  -10.4640   22.5106 C   0  0  0  0  0  0
   11.9951  -11.6791   21.9308 C   0  0  0  0  0  0
   12.6616  -12.2368   20.8421 C   0  0  0  0  0  0
   11.7343   -9.8579   23.6994 C   0  0  0  0  0  0
   12.0162   -8.6896   24.0848 N   0  0  0  0  0  0
   10.8161  -10.6645   24.3192 N   0  0  0  0  0  0
   15.9570  -17.5929   21.8523 H   0  0  0  0  0  0
   15.1838  -16.0118   21.8479 H   0  0  0  0  0  0
   15.7123  -16.7613   20.3219 H   0  0  0  0  0  0
   15.5788  -14.4667   20.0543 H   0  0  0  0  0  0
   18.2467  -11.1338   19.8269 H   0  0  0  0  0  0
   19.8981  -12.3405   21.1189 H   0  0  0  0  0  0
   21.6143  -15.4033   22.0112 H   0  0  0  0  0  0
   21.3657  -13.7832   21.4598 H   0  0  0  0  0  0
   19.2077  -13.3019   23.9063 H   0  0  0  0  0  0
   19.5990  -12.6518   26.2541 H   0  0  0  0  0  0
   21.7862  -13.0291   27.2901 H   0  0  0  0  0  0
   23.6429  -14.0241   25.9878 H   0  0  0  0  0  0
   23.2770  -14.6851   23.6412 H   0  0  0  0  0  0
   16.0696  -10.9687   18.8803 H   0  0  0  0  0  0
   14.4157  -13.4650   17.1329 H   0  0  0  0  0  0
   14.7268  -14.4177   15.0978 H   0  0  0  0  0  0
   16.3471  -14.7036   15.6521 H   0  0  0  0  0  0
   14.9293  -11.3021   14.8719 H   0  0  0  0  0  0
   15.8519   -9.8539   13.1205 H   0  0  0  0  0  0
   17.5348  -10.7254   11.5366 H   0  0  0  0  0  0
   18.3407  -13.0607   11.7384 H   0  0  0  0  0  0
   17.4599  -14.5125   13.5302 H   0  0  0  0  0  0
   14.0078  -13.0380   18.8825 H   0  0  0  0  0  0
   15.0629   -9.8716   20.4571 H   0  0  0  0  0  0
   13.9118   -8.8994   22.3152 H   0  0  0  0  0  0
   11.1438  -12.2206   22.3209 H   0  0  0  0  0  0
   12.3099  -13.1751   20.4350 H   0  0  0  0  0  0
   12.7184   -8.2513   23.5119 H   0  0  0  0  0  0
   10.1945  -10.2530   25.0058 H   0  0  0  0  0  0
   10.4965  -11.5153   23.8851 H   0  0  0  0  0  0
  1  2  1  0  0  0
  1 38  1  0  0  0
  1 39  1  0  0  0
  1 40  1  0  0  0
  2  3  1  0  0  0
  3  8  1  0  0  0
  3  4  2  0  0  0
  4  5  1  0  0  0
  4 41  1  0  0  0
  5  6  2  0  0  0
  5 17  1  0  0  0
  6  7  1  0  0  0
  6 42  1  0  0  0
  7  8  2  0  0  0
  7 43  1  0  0  0
  8  9  1  0  0  0
  9 10  1  0  0  0
 10 11  1  0  0  0
 10 44  1  0  0  0
 10 45  1  0  0  0
 11 16  1  0  0  0
 11 12  2  0  0  0
 12 13  1  0  0  0
 12 46  1  0  0  0
 13 14  2  0  0  0
 13 47  1  0  0  0
 14 15  1  0  0  0
 14 48  1  0  0  0
 15 16  2  0  0  0
 15 49  1  0  0  0
 16 50  1  0  0  0
 17 18  1  0  0  0
 17 28  1  0  0  0
 17 51  1  0  0  0
 18 19  2  0  0  0
 18 20  1  0  0  0
 20 21  1  0  0  0
 20 52  1  0  0  0
 21 22  1  0  0  0
 21 53  1  0  0  0
 21 54  1  0  0  0
 22 27  1  0  0  0
 22 23  2  0  0  0
 23 24  1  0  0  0
 23 55  1  0  0  0
 24 25  2  0  0  0
 24 56  1  0  0  0
 25 26  1  0  0  0
 25 57  1  0  0  0
 26 27  2  0  0  0
 26 58  1  0  0  0
 27 59  1  0  0  0
 28 29  1  0  0  0
 28 60  1  0  0  0
 29 34  1  0  0  0
 29 30  2  0  0  0
 30 31  1  0  0  0
 30 61  1  0  0  0
 31 32  2  0  0  0
 31 62  1  0  0  0
 32 33  1  0  0  0
 32 35  1  0  0  0
 33 34  2  0  0  0
 33 63  1  0  0  0
 34 64  1  0  0  0
 35 36  2  3  0  0
 35 37  1  0  0  0
 36 65  1  0  0  0
 37 66  1  0  0  0
 37 67  1  0  0  0
M  END
> <s_m_entry_id>
37802

> <s_m_entry_name>
ligand_docking-pose.149

> <s_m_Source_Path>
/home/csk/Desktop/cluster/DUD-E-result/thrb

> <s_m_Source_File>
ligand_docking-pose.sdf

> <i_m_Source_File_Index>
149

> <i_lp_mmshare_version>
53161

> <i_f3d_flags>
0

> <r_lp_tautomer_probability>
1

> <s_lp_Force_Field>
OPLS_2005

> <r_lp_Energy>
31.947131

> <b_lp_Chiralities_Consistent>
1

> <s_lp_Variant>
303072-4

> <s_i_glide_gridfile>
glide-grid_1ype

> <i_i_glide_lignum>
4617

> <i_i_glide_rotatable_bonds>
12

> <r_i_docking_score>
-7.61966976729749

> <r_i_glide_ligand_efficiency>
-0.20593702073777

> <r_i_glide_ligand_efficiency_sa>
-0.686227839739292

> <r_i_glide_ligand_efficiency_ln>
-1.65252774212322

> <r_i_glide_gscore>
-7.61966976729749

> <r_i_glide_lipo>
-3.82014158433637

> <r_i_glide_hbond>
-0.15489399766237

> <r_i_glide_metal>
0

> <r_i_glide_rewards>
-0.456059068662708

> <r_i_glide_evdw>
-55.1245002746582

> <r_i_glide_ecoul>
-7.32002401351929

> <r_i_glide_erotb>
0.749816496721068

> <r_i_glide_esite>
-0.084162997596308

> <r_i_glide_emodel>
-88.2955151097335

> <r_i_glide_energy>
-62.4445242881775

> <r_i_glide_einternal>
8.05798244476318

> <i_i_glide_confnum>
39

> <i_i_glide_posenum>
146

> <r_i_glide_eff_state_penalty>
0

> <s_user_duplicate_titles>
303072

> <s_m_subgroup_title>
dock_pv

> <s_m_subgroupid>
dock_pv1

> <b_m_subgroup_collapsed>
0

$$$$
561268
                    3D
 Schrodinger Suite 2021-1.
 64 67  0  0  1  0            999 V2000
   22.0600  -13.8535   25.2195 C   0  0  0  0  0  0
   22.3284  -15.1939   24.9439 C   0  0  0  0  0  0
   21.4014  -16.1728   25.2975 C   0  0  0  0  0  0
   20.2064  -15.8052   25.9214 C   0  0  0  0  0  0
   19.9416  -14.4575   26.1899 C   0  0  0  0  0  0
   20.8699  -13.4798   25.8412 C   0  0  0  0  0  0
   19.2205  -16.8706   26.3918 C   0  0  0  0  0  0
   17.9465  -17.3942   25.1004 S   0  0  0  0  0  0
   16.8352  -18.0262   25.8180 O   0  0  0  0  0  0
   18.6348  -18.1150   24.0255 O   0  0  0  0  0  0
   17.3461  -15.8536   24.4997 N   0  0  1  0  0  0
   17.7254  -15.2597   23.1867 C   0  0  1  0  0  0
   19.2520  -15.2646   22.8672 C   0  0  0  0  0  0
   19.7035  -14.9557   21.1283 S   0  0  0  0  0  0
   18.6411  -13.5771   20.8510 C   0  0  0  0  0  0
   19.2168  -12.3127   20.7211 C   0  0  0  0  0  0
   18.4169  -11.1754   20.6770 C   0  0  0  0  0  0
   17.0342  -11.2997   20.7083 C   0  0  0  0  0  0
   16.4572  -12.5633   20.7954 C   0  0  0  0  0  0
   17.2324  -13.7279   20.8634 C   0  0  0  0  0  0
   16.6083  -15.0002   21.0245 N   0  0  0  0  0  0
   16.8259  -15.8610   22.0736 C   0  0  0  0  0  0
   16.3902  -17.0155   22.1440 O   0  0  0  0  0  0
   15.9591  -15.6055   19.8399 C   0  0  0  0  0  0
   14.4784  -15.2263   19.8583 C   0  0  0  0  0  0
   13.6767  -15.8377   20.5640 O   0  0  0  0  0  0
   14.1565  -14.1749   19.0941 N   0  0  0  0  0  0
   12.8704  -13.5031   19.1133 C   0  0  0  0  0  0
   12.7201  -12.5343   20.2713 C   0  0  0  0  0  0
   12.0159  -12.9269   21.4014 C   0  0  0  0  0  0
   11.7846  -12.0190   22.4237 C   0  0  0  0  0  0
   12.2676  -10.7013   22.3555 C   0  0  0  0  0  0
   13.0029  -10.3331   21.2146 C   0  0  0  0  0  0
   13.2153  -11.2337   20.1749 C   0  0  0  0  0  0
   12.0157   -9.7226   23.4459 C   0  0  0  0  0  0
   12.6728   -8.6529   23.5209 N   0  0  0  0  0  0
   11.0269  -10.0906   24.3208 N   0  0  0  0  0  0
   17.4202  -14.2196   23.3086 H   0  0  0  0  0  0
   22.7826  -13.0962   24.9522 H   0  0  0  0  0  0
   23.2564  -15.4731   24.4666 H   0  0  0  0  0  0
   21.6142  -17.2133   25.0964 H   0  0  0  0  0  0
   19.0262  -14.1684   26.6867 H   0  0  0  0  0  0
   20.6698  -12.4398   26.0585 H   0  0  0  0  0  0
   18.6564  -16.5067   27.2506 H   0  0  0  0  0  0
   19.7393  -17.7741   26.7091 H   0  0  0  0  0  0
   16.3844  -15.6321   24.7845 H   0  0  0  0  0  0
   19.7437  -14.4959   23.4584 H   0  0  0  0  0  0
   19.7268  -16.2066   23.1215 H   0  0  0  0  0  0
   20.2926  -12.2096   20.7197 H   0  0  0  0  0  0
   18.8672  -10.1943   20.6494 H   0  0  0  0  0  0
   16.4123  -10.4160   20.6960 H   0  0  0  0  0  0
   15.3854  -12.6370   20.8680 H   0  0  0  0  0  0
   16.0630  -16.6894   19.7650 H   0  0  0  0  0  0
   16.4160  -15.2140   18.9318 H   0  0  0  0  0  0
   14.8887  -13.7294   18.5627 H   0  0  0  0  0  0
   12.0408  -14.2142   19.0878 H   0  0  0  0  0  0
   12.8159  -12.9256   18.2012 H   0  0  0  0  0  0
   11.6236  -13.9310   21.4880 H   0  0  0  0  0  0
   11.2236  -12.3711   23.2774 H   0  0  0  0  0  0
   13.3976   -9.3312   21.1170 H   0  0  0  0  0  0
   13.7623  -10.9227   19.2978 H   0  0  0  0  0  0
   12.3927   -8.1073   24.3217 H   0  0  0  0  0  0
   10.6897   -9.4518   25.0269 H   0  0  0  0  0  0
   10.3791  -10.8257   24.0678 H   0  0  0  0  0  0
  1  6  1  0  0  0
  1  2  2  0  0  0
  1 39  1  0  0  0
  2  3  1  0  0  0
  2 40  1  0  0  0
  3  4  2  0  0  0
  3 41  1  0  0  0
  4  5  1  0  0  0
  4  7  1  0  0  0
  5  6  2  0  0  0
  5 42  1  0  0  0
  6 43  1  0  0  0
  7  8  1  0  0  0
  7 44  1  0  0  0
  7 45  1  0  0  0
  8  9  2  0  0  0
  8 10  2  0  0  0
  8 11  1  0  0  0
 11 12  1  0  0  0
 11 46  1  0  0  0
 12 38  1  0  0  0
 12 22  1  0  0  0
 12 13  1  0  0  0
 13 14  1  0  0  0
 13 47  1  0  0  0
 13 48  1  0  0  0
 14 15  1  0  0  0
 15 20  2  0  0  0
 15 16  1  0  0  0
 16 17  2  0  0  0
 16 49  1  0  0  0
 17 18  1  0  0  0
 17 50  1  0  0  0
 18 19  2  0  0  0
 18 51  1  0  0  0
 19 20  1  0  0  0
 19 52  1  0  0  0
 20 21  1  0  0  0
 21 22  1  0  0  0
 21 24  1  0  0  0
 22 23  2  0  0  0
 24 25  1  0  0  0
 24 53  1  0  0  0
 24 54  1  0  0  0
 25 26  2  0  0  0
 25 27  1  0  0  0
 27 28  1  0  0  0
 27 55  1  0  0  0
 28 29  1  0  0  0
 28 56  1  0  0  0
 28 57  1  0  0  0
 29 34  1  0  0  0
 29 30  2  0  0  0
 30 31  1  0  0  0
 30 58  1  0  0  0
 31 32  2  0  0  0
 31 59  1  0  0  0
 32 33  1  0  0  0
 32 35  1  0  0  0
 33 34  2  0  0  0
 33 60  1  0  0  0
 34 61  1  0  0  0
 35 36  2  3  0  0
 35 37  1  0  0  0
 36 62  1  0  0  0
 37 63  1  0  0  0
 37 64  1  0  0  0
M  END
> <s_m_entry_id>
37804

> <s_m_entry_name>
ligand_docking-pose.151

> <s_m_Source_Path>
/home/csk/Desktop/cluster/DUD-E-result/thrb

> <s_m_Source_File>
ligand_docking-pose.sdf

> <i_m_Source_File_Index>
151

> <i_lp_mmshare_version>
53161

> <i_f3d_flags>
0

> <r_lp_tautomer_probability>
1

> <s_lp_Force_Field>
OPLS_2005

> <r_lp_Energy>
27.349014

> <b_lp_Chiralities_Consistent>
1

> <s_lp_Variant>
561268-1

> <s_i_glide_gridfile>
glide-grid_1ype

> <i_i_glide_lignum>
1665

> <i_i_glide_rotatable_bonds>
10

> <r_i_docking_score>
-7.60559552446786

> <r_i_glide_ligand_efficiency>
-0.205556635796429

> <r_i_glide_ligand_efficiency_sa>
-0.684960312727243

> <r_i_glide_ligand_efficiency_ln>
-1.64947536880054

> <r_i_glide_gscore>
-7.60559552446786

> <r_i_glide_lipo>
-3.81170051137608

> <r_i_glide_hbond>
-0.308879715864371

> <r_i_glide_metal>
0

> <r_i_glide_rewards>
-0.554225878369359

> <r_i_glide_evdw>
-51.7869834899902

> <r_i_glide_ecoul>
-5.4043927192688

> <r_i_glide_erotb>
0.571696588395734

> <r_i_glide_esite>
-0.102477924863955

> <r_i_glide_emodel>
-77.9225867563866

> <r_i_glide_energy>
-57.191376209259

> <r_i_glide_einternal>
14.9571828842163

> <i_i_glide_confnum>
14

> <i_i_glide_posenum>
256

> <r_i_glide_eff_state_penalty>
0

> <s_user_duplicate_titles>
561268

> <s_m_subgroup_title>
dock_pv

> <s_m_subgroupid>
dock_pv1

> <b_m_subgroup_collapsed>
0

$$$$
130608
                    3D
 Schrodinger Suite 2021-1.
 64 66  0  0  1  0            999 V2000
   21.5478  -13.0625   26.0020 C   0  0  0  0  0  0
   22.2737  -13.5104   24.9058 C   0  0  0  0  0  0
   21.6737  -14.3273   23.9571 C   0  0  0  0  0  0
   20.3178  -14.6998   24.0996 C   0  0  0  0  0  0
   19.6117  -14.2696   25.2465 C   0  0  0  0  0  0
   20.2265  -13.4497   26.1781 C   0  0  0  0  0  0
   19.6825  -15.6524   23.0897 C   0  0  0  0  0  0
   18.2730  -15.2991   22.5383 C   0  0  2  0  0  0
   18.1301  -13.8217   22.0271 C   0  0  0  0  0  0
   17.3849  -13.0543   22.6430 O   0  0  0  0  0  0
   18.8353  -13.4210   20.9289 N   0  0  0  0  0  0
   19.3789  -14.4023   19.9782 C   0  0  0  0  0  0
   20.8155  -14.0282   19.5989 C   0  0  0  0  0  0
   20.8469  -12.6483   18.9497 C   0  0  0  0  0  0
   20.2127  -11.6490   19.9163 C   0  0  0  0  0  0
   18.7871  -12.0125   20.4438 C   0  0  1  0  0  0
   17.7302  -11.7114   19.3447 C   0  0  0  0  0  0
   16.2635  -12.0144   19.6676 C   0  0  0  0  0  0
   15.7631  -10.9849   20.5111 O   0  0  0  0  0  0
   14.3468  -10.9348   20.6399 C   0  0  0  0  0  0
   13.7798  -12.1668   21.3778 C   0  0  0  0  0  0
   12.2714  -12.0092   21.6556 C   0  0  0  0  0  0
   12.0575  -10.7592   22.4050 N   0  0  0  0  0  0
   12.4245   -9.5789   21.6106 C   0  0  0  0  0  0
   13.9402   -9.6259   21.3489 C   0  0  0  0  0  0
   11.3581  -10.6528   23.6492 C   0  0  0  0  0  0
   11.2161   -9.5928   24.3113 N   0  0  0  0  0  0
   10.8159  -11.8530   24.1324 N   0  0  0  0  0  0
   17.2158  -15.6433   23.5085 N   0  0  0  0  0  0
   18.0478  -15.9602   21.7032 H   0  0  0  0  0  0
   22.0160  -12.4120   26.7228 H   0  0  0  0  0  0
   23.3066  -13.2140   24.7881 H   0  0  0  0  0  0
   22.2486  -14.6704   23.1088 H   0  0  0  0  0  0
   18.5867  -14.5575   25.4174 H   0  0  0  0  0  0
   19.6629  -13.1086   27.0368 H   0  0  0  0  0  0
   20.3686  -15.7456   22.2485 H   0  0  0  0  0  0
   19.6642  -16.6457   23.5402 H   0  0  0  0  0  0
   19.3277  -15.4499   20.2597 H   0  0  0  0  0  0
   18.7378  -14.2530   19.1203 H   0  0  0  0  0  0
   21.4607  -14.0689   20.4788 H   0  0  0  0  0  0
   21.2160  -14.7627   18.9012 H   0  0  0  0  0  0
   21.8726  -12.3556   18.7245 H   0  0  0  0  0  0
   20.3111  -12.6601   17.9998 H   0  0  0  0  0  0
   20.9266  -11.5897   20.7210 H   0  0  0  0  0  0
   20.2236  -10.6530   19.5115 H   0  0  0  0  0  0
   18.5801  -11.3536   21.2905 H   0  0  0  0  0  0
   17.7766  -10.6537   19.0923 H   0  0  0  0  0  0
   17.9904  -12.2507   18.4341 H   0  0  0  0  0  0
   15.7053  -12.0222   18.7295 H   0  0  0  0  0  0
   16.1461  -13.0006   20.1154 H   0  0  0  0  0  0
   13.9195  -10.9092   19.6348 H   0  0  0  0  0  0
   13.9028  -13.0651   20.7733 H   0  0  0  0  0  0
   14.2982  -12.3297   22.3218 H   0  0  0  0  0  0
   11.7142  -11.9580   20.7191 H   0  0  0  0  0  0
   11.9095  -12.8927   22.1817 H   0  0  0  0  0  0
   11.8652   -9.5909   20.6732 H   0  0  0  0  0  0
   12.1604   -8.6531   22.1219 H   0  0  0  0  0  0
   14.4170   -9.5153   22.3197 H   0  0  0  0  0  0
   14.2159   -8.7666   20.7387 H   0  0  0  0  0  0
   10.6262   -9.7505   25.1205 H   0  0  0  0  0  0
   10.1522  -11.8475   24.8984 H   0  0  0  0  0  0
   10.8169  -12.7126   23.5963 H   0  0  0  0  0  0
   17.5276  -15.5316   24.4602 H   0  0  0  0  0  0
   16.3938  -15.0506   23.4086 H   0  0  0  0  0  0
  1  6  1  0  0  0
  1  2  2  0  0  0
  1 31  1  0  0  0
  2  3  1  0  0  0
  2 32  1  0  0  0
  3  4  2  0  0  0
  3 33  1  0  0  0
  4  5  1  0  0  0
  4  7  1  0  0  0
  5  6  2  0  0  0
  5 34  1  0  0  0
  6 35  1  0  0  0
  7  8  1  0  0  0
  7 36  1  0  0  0
  7 37  1  0  0  0
  8 30  1  0  0  0
  8  9  1  0  0  0
  8 29  1  0  0  0
  9 10  2  0  0  0
  9 11  1  0  0  0
 11 16  1  0  0  0
 11 12  1  0  0  0
 12 13  1  0  0  0
 12 38  1  0  0  0
 12 39  1  0  0  0
 13 14  1  0  0  0
 13 40  1  0  0  0
 13 41  1  0  0  0
 14 15  1  0  0  0
 14 42  1  0  0  0
 14 43  1  0  0  0
 15 16  1  0  0  0
 15 44  1  0  0  0
 15 45  1  0  0  0
 16 17  1  0  0  0
 16 46  1  0  0  0
 17 18  1  0  0  0
 17 47  1  0  0  0
 17 48  1  0  0  0
 18 19  1  0  0  0
 18 49  1  0  0  0
 18 50  1  0  0  0
 19 20  1  0  0  0
 20 25  1  0  0  0
 20 21  1  0  0  0
 20 51  1  0  0  0
 21 22  1  0  0  0
 21 52  1  0  0  0
 21 53  1  0  0  0
 22 23  1  0  0  0
 22 54  1  0  0  0
 22 55  1  0  0  0
 23 24  1  0  0  0
 23 26  1  0  0  0
 24 25  1  0  0  0
 24 56  1  0  0  0
 24 57  1  0  0  0
 25 58  1  0  0  0
 25 59  1  0  0  0
 26 27  2  3  0  0
 26 28  1  0  0  0
 27 60  1  0  0  0
 28 61  1  0  0  0
 28 62  1  0  0  0
 29 63  1  0  0  0
 29 64  1  0  0  0
M  END
> <s_m_entry_id>
37806

> <s_m_entry_name>
ligand_docking-pose.153

> <s_m_Source_Path>
/home/csk/Desktop/cluster/DUD-E-result/thrb

> <s_m_Source_File>
ligand_docking-pose.sdf

> <i_m_Source_File_Index>
153

> <i_lp_mmshare_version>
53161

> <i_f3d_flags>
0

> <r_lp_tautomer_probability>
1

> <s_lp_Force_Field>
OPLS_2005

> <r_lp_Energy>
41.836441

> <b_lp_Chiralities_Consistent>
1

> <s_lp_Variant>
130608-1

> <s_i_glide_gridfile>
glide-grid_1ype

> <i_i_glide_lignum>
1057

> <i_i_glide_rotatable_bonds>
9

> <r_i_docking_score>
-7.58665169765169

> <r_i_glide_ligand_efficiency>
-0.261608679229369

> <r_i_glide_ligand_efficiency_sa>
-0.803744746039692

> <r_i_glide_ligand_efficiency_ln>
-1.73715085787426

> <r_i_glide_gscore>
-7.58665169765169

> <r_i_glide_lipo>
-3.56261831069667

> <r_i_glide_hbond>
-0.34457322295087

> <r_i_glide_metal>
0

> <r_i_glide_rewards>
-1.50245924189799

> <r_i_glide_evdw>
-38.6630668640137

> <r_i_glide_ecoul>
-6.84200239181519

> <r_i_glide_erotb>
0.851567009680008

> <r_i_glide_esite>
-0.0691142298132067

> <r_i_glide_emodel>
-60.8263241504454

> <r_i_glide_energy>
-45.5050692558289

> <r_i_glide_einternal>
4.70178127288818

> <i_i_glide_confnum>
29

> <i_i_glide_posenum>
145

> <r_i_glide_eff_state_penalty>
0

> <s_user_duplicate_titles>
130608

> <s_m_subgroup_title>
dock_pv

> <s_m_subgroupid>
dock_pv1

> <b_m_subgroup_collapsed>
0

$$$$
179261
                    3D
 Schrodinger Suite 2021-1.
 72 75  0  0  1  0            999 V2000
   24.9168  -15.4805   24.4173 C   0  0  0  0  0  0
   23.8884  -16.2335   24.9808 C   0  0  0  0  0  0
   22.7469  -15.5924   25.4525 C   0  0  0  0  0  0
   22.6323  -14.2011   25.3571 C   0  0  0  0  0  0
   23.6689  -13.4568   24.7905 C   0  0  0  0  0  0
   24.8116  -14.0945   24.3225 C   0  0  0  0  0  0
   21.3664  -13.5100   25.8489 C   0  0  0  0  0  0
   20.3495  -13.2232   24.7251 C   0  0  0  0  0  0
   19.9700  -14.4741   23.8992 C   0  0  0  0  0  0
   18.8599  -14.2693   22.9595 N   0  0  2  0  0  0
   18.5817  -15.5330   22.2834 C   0  0  0  0  0  0
   17.3202  -15.3700   21.4202 C   0  0  2  0  0  0
   17.0704  -16.4790   20.3941 C   0  0  0  0  0  0
   16.1403  -15.8481   19.3670 C   0  0  0  0  0  0
   16.4819  -14.3416   19.3921 C   0  0  2  0  0  0
   17.3330  -14.1555   20.5845 N   0  0  0  0  0  0
   18.1591  -13.0895   20.7991 C   0  0  0  0  0  0
   18.1695  -12.1142   20.0492 O   0  0  0  0  0  0
   19.1427  -13.1812   22.0024 C   0  0  0  0  0  0
   15.2244  -13.4543   19.3677 C   0  0  0  0  0  0
   14.9299  -12.8438   18.3388 O   0  0  0  0  0  0
   14.4670  -13.4715   20.4841 N   0  0  0  0  0  0
   13.1257  -12.9078   20.7197 C   0  0  2  0  0  0
   12.0979  -13.4098   19.6678 C   0  0  0  0  0  0
   12.0224  -14.9298   19.3873 C   0  0  0  0  0  0
   11.6962  -15.8279   20.5917 C   0  0  0  0  0  0
   12.8114  -15.9276   21.5210 N   0  0  0  0  0  0
   13.6727  -16.9915   21.7602 C   0  0  0  0  0  0
   14.4830  -17.0101   22.7207 N   0  0  0  0  0  0
   13.5720  -18.0249   20.8503 N   0  0  0  0  0  0
   13.1812  -11.3741   20.7650 C   0  0  0  0  0  0
   13.6158  -10.7260   19.8108 O   0  0  0  0  0  0
   12.7030  -10.6600   21.9495 C   0  0  0  0  0  0
   13.0068   -9.4253   22.2644 N   0  0  0  0  0  0
   12.4160   -9.0355   23.3767 C   0  0  0  0  0  0
   11.5896   -9.9570   23.9974 C   0  0  0  0  0  0
   11.6148  -11.4186   23.0748 S   0  0  0  0  0  0
   16.4614  -15.3104   22.0879 H   0  0  0  0  0  0
   17.0327  -14.0190   18.5067 H   0  0  0  0  0  0
   25.8126  -15.9744   24.0718 H   0  0  0  0  0  0
   23.9774  -17.3085   25.0557 H   0  0  0  0  0  0
   21.9489  -16.1765   25.8860 H   0  0  0  0  0  0
   23.6161  -12.3810   24.7323 H   0  0  0  0  0  0
   25.6184  -13.5096   23.9183 H   0  0  0  0  0  0
   21.6391  -12.5774   26.3489 H   0  0  0  0  0  0
   20.8975  -14.1154   26.6265 H   0  0  0  0  0  0
   20.8160  -12.4954   24.0632 H   0  0  0  0  0  0
   19.4600  -12.7418   25.1319 H   0  0  0  0  0  0
   19.7334  -15.2843   24.5910 H   0  0  0  0  0  0
   20.8485  -14.8126   23.3476 H   0  0  0  0  0  0
   18.4279  -16.3353   23.0054 H   0  0  0  0  0  0
   19.4343  -15.8072   21.6611 H   0  0  0  0  0  0
   16.6631  -17.3824   20.8510 H   0  0  0  0  0  0
   18.0075  -16.7748   19.9227 H   0  0  0  0  0  0
   15.1201  -16.0435   19.7002 H   0  0  0  0  0  0
   16.2444  -16.2916   18.3762 H   0  0  0  0  0  0
   20.1502  -13.2588   21.5942 H   0  0  0  0  0  0
   19.0935  -12.2251   22.5201 H   0  0  0  0  0  0
   14.7922  -14.0781   21.2226 H   0  0  0  0  0  0
   12.8398  -13.3117   21.6863 H   0  0  0  0  0  0
   12.3203  -12.9262   18.7195 H   0  0  0  0  0  0
   11.1081  -13.0552   19.9503 H   0  0  0  0  0  0
   12.9444  -15.2656   18.9143 H   0  0  0  0  0  0
   11.2456  -15.0813   18.6361 H   0  0  0  0  0  0
   11.4192  -16.8201   20.2418 H   0  0  0  0  0  0
   10.8180  -15.4534   21.1204 H   0  0  0  0  0  0
   12.7217  -15.2748   22.2867 H   0  0  0  0  0  0
   14.5050  -16.1553   23.2741 H   0  0  0  0  0  0
   13.8662  -18.9194   21.2157 H   0  0  0  0  0  0
   12.6581  -18.1126   20.4283 H   0  0  0  0  0  0
   12.5938   -8.0354   23.7418 H   0  0  0  0  0  0
   10.9794   -9.8660   24.8863 H   0  0  0  0  0  0
  1  6  1  0  0  0
  1  2  2  0  0  0
  1 40  1  0  0  0
  2  3  1  0  0  0
  2 41  1  0  0  0
  3  4  2  0  0  0
  3 42  1  0  0  0
  4  5  1  0  0  0
  4  7  1  0  0  0
  5  6  2  0  0  0
  5 43  1  0  0  0
  6 44  1  0  0  0
  7  8  1  0  0  0
  7 45  1  0  0  0
  7 46  1  0  0  0
  8  9  1  0  0  0
  8 47  1  0  0  0
  8 48  1  0  0  0
  9 10  1  0  0  0
  9 49  1  0  0  0
  9 50  1  0  0  0
 10 19  1  0  0  0
 10 11  1  0  0  0
 11 12  1  0  0  0
 11 51  1  0  0  0
 11 52  1  0  0  0
 12 38  1  0  0  0
 12 16  1  0  0  0
 12 13  1  0  0  0
 13 14  1  0  0  0
 13 53  1  0  0  0
 13 54  1  0  0  0
 14 15  1  0  0  0
 14 55  1  0  0  0
 14 56  1  0  0  0
 15 39  1  0  0  0
 15 16  1  0  0  0
 15 20  1  0  0  0
 16 17  1  0  0  0
 17 18  2  0  0  0
 17 19  1  0  0  0
 19 57  1  0  0  0
 19 58  1  0  0  0
 20 21  2  0  0  0
 20 22  1  0  0  0
 22 23  1  0  0  0
 22 59  1  0  0  0
 23 24  1  0  0  0
 23 31  1  0  0  0
 23 60  1  0  0  0
 24 25  1  0  0  0
 24 61  1  0  0  0
 24 62  1  0  0  0
 25 26  1  0  0  0
 25 63  1  0  0  0
 25 64  1  0  0  0
 26 27  1  0  0  0
 26 65  1  0  0  0
 26 66  1  0  0  0
 27 28  1  0  0  0
 27 67  1  0  0  0
 28 29  2  3  0  0
 28 30  1  0  0  0
 29 68  1  0  0  0
 30 69  1  0  0  0
 30 70  1  0  0  0
 31 32  2  0  0  0
 31 33  1  0  0  0
 33 37  1  0  0  0
 33 34  2  0  0  0
 34 35  1  0  0  0
 35 36  2  0  0  0
 35 71  1  0  0  0
 36 37  1  0  0  0
 36 72  1  0  0  0
M  END
> <s_m_entry_id>
37808

> <s_m_entry_name>
ligand_docking-pose.155

> <s_m_Source_Path>
/home/csk/Desktop/cluster/DUD-E-result/thrb

> <s_m_Source_File>
ligand_docking-pose.sdf

> <i_m_Source_File_Index>
155

> <i_lp_mmshare_version>
53161

> <i_f3d_flags>
0

> <r_lp_tautomer_probability>
0.99990000499975

> <s_lp_Force_Field>
OPLS_2005

> <r_lp_Energy>
25.298956

> <b_lp_Chiralities_Consistent>
1

> <s_lp_Variant>
179261-2

> <s_i_glide_gridfile>
glide-grid_1ype

> <i_i_glide_lignum>
908

> <i_i_glide_rotatable_bonds>
14

> <r_i_docking_score>
-7.57704766291476

> <r_i_glide_ligand_efficiency>
-0.204785071970669

> <r_i_glide_ligand_efficiency_sa>
-0.682389290890202

> <r_i_glide_ligand_efficiency_ln>
-1.6432840068865

> <r_i_glide_gscore>
-7.57704766291476

> <r_i_glide_lipo>
-3.42888737782977

> <r_i_glide_hbond>
-0.65896322977706

> <r_i_glide_metal>
0

> <r_i_glide_rewards>
-0.602146322686579

> <r_i_glide_evdw>
-53.6789665222168

> <r_i_glide_ecoul>
-7.31340599060059

> <r_i_glide_erotb>
0.893908492079578

> <r_i_glide_esite>
0

> <r_i_glide_emodel>
-79.43063577055

> <r_i_glide_energy>
-60.9923725128174

> <r_i_glide_einternal>
22.250036239624

> <i_i_glide_confnum>
13

> <i_i_glide_posenum>
64

> <r_i_glide_eff_state_penalty>
0

> <s_user_duplicate_titles>
179261

> <s_m_subgroup_title>
dock_pv

> <s_m_subgroupid>
dock_pv1

> <b_m_subgroup_collapsed>
0

$$$$
38326
                    3D
 Schrodinger Suite 2021-1.
 52 54  0  0  1  0            999 V2000
   10.9078  -11.5138   23.5209 C   0  0  0  0  0  0
   11.1052  -10.3927   24.3204 C   0  0  0  0  0  0
   12.0166   -9.4264   23.9168 C   0  0  0  0  0  0
   12.7053   -9.5914   22.7683 N   0  3  0  0  0  0
   13.5522   -8.7028   22.4841 O   0  5  0  0  0  0
   12.5273  -10.6613   21.9430 C   0  0  0  0  0  0
   11.6162  -11.6565   22.3306 C   0  0  0  0  0  0
   13.2573  -10.7220   20.5968 C   0  0  0  0  0  0
   14.7980  -10.8077   20.6979 C   0  0  0  0  0  0
   15.3343  -12.0966   21.1537 N   0  0  0  0  0  0
   16.6718  -12.4523   21.0167 C   0  0  0  0  0  0
   16.9816  -13.9168   21.1477 C   0  0  0  0  0  0
   16.1405  -14.7500   21.5069 O   0  0  0  0  0  0
   18.2868  -14.2408   20.7938 N   0  0  0  0  0  0
   19.1839  -13.2304   20.4458 C   0  0  0  0  0  0
   18.8088  -11.9275   20.4330 C   0  0  0  0  0  0
   17.5299  -11.5360   20.7056 N   0  0  0  0  0  0
   20.8179  -13.6908   19.9497 Cl  0  0  0  0  0  0
   18.6068  -15.6849   20.6965 C   0  0  0  0  0  0
   19.1517  -16.2326   22.0185 C   0  0  0  0  0  0
   18.4735  -17.0244   22.6693 O   0  0  0  0  0  0
   20.3884  -15.8460   22.3723 N   0  0  0  0  0  0
   21.0835  -16.2305   23.6001 C   0  0  0  0  0  0
   20.9110  -15.1783   24.6969 C   0  0  0  0  0  0
   21.8642  -14.1604   24.9400 C   0  0  0  0  0  0
   21.5944  -13.1996   25.9245 C   0  0  0  0  0  0
   20.4169  -13.2384   26.6594 C   0  0  0  0  0  0
   19.4970  -14.2530   26.4316 C   0  0  0  0  0  0
   19.7432  -15.2223   25.4720 C   0  0  0  0  0  0
   18.8329  -16.2072   25.3070 F   0  0  0  0  0  0
   23.1564  -14.0352   24.1265 C   0  0  0  0  0  0
   23.8772  -15.1551   24.1702 F   0  0  0  0  0  0
   22.8170  -13.7696   22.8693 F   0  0  0  0  0  0
   23.9466  -13.0513   24.5537 F   0  0  0  0  0  0
   12.9000   -9.6300   19.9197 F   0  0  0  0  0  0
   12.8152  -11.7599   19.8819 F   0  0  0  0  0  0
   10.1776  -12.2529   23.8183 H   0  0  0  0  0  0
   10.5282  -10.2769   25.2263 H   0  0  0  0  0  0
   12.2393   -8.5330   24.4829 H   0  0  0  0  0  0
   11.4274  -12.5276   21.7170 H   0  0  0  0  0  0
   15.2063   -9.9892   21.2898 H   0  0  0  0  0  0
   15.1862  -10.6523   19.6901 H   0  0  0  0  0  0
   14.6672  -12.8384   21.3328 H   0  0  0  0  0  0
   19.5103  -11.1524   20.1592 H   0  0  0  0  0  0
   19.3505  -15.8467   19.9213 H   0  0  0  0  0  0
   17.7486  -16.2862   20.3931 H   0  0  0  0  0  0
   20.8674  -15.1794   21.7830 H   0  0  0  0  0  0
   22.1240  -16.4212   23.3556 H   0  0  0  0  0  0
   20.7133  -17.1878   23.9737 H   0  0  0  0  0  0
   22.2844  -12.3931   26.1131 H   0  0  0  0  0  0
   20.2196  -12.4844   27.4065 H   0  0  0  0  0  0
   18.5889  -14.2986   27.0127 H   0  0  0  0  0  0
  1  7  1  0  0  0
  1  2  2  0  0  0
  1 37  1  0  0  0
  2  3  1  0  0  0
  2 38  1  0  0  0
  3  4  2  0  0  0
  3 39  1  0  0  0
  4  5  1  0  0  0
  4  6  1  0  0  0
  6  7  2  0  0  0
  6  8  1  0  0  0
  7 40  1  0  0  0
  8  9  1  0  0  0
  8 35  1  0  0  0
  8 36  1  0  0  0
  9 10  1  0  0  0
  9 41  1  0  0  0
  9 42  1  0  0  0
 10 11  1  0  0  0
 10 43  1  0  0  0
 11 17  2  0  0  0
 11 12  1  0  0  0
 12 13  2  0  0  0
 12 14  1  0  0  0
 14 15  1  0  0  0
 14 19  1  0  0  0
 15 16  2  0  0  0
 15 18  1  0  0  0
 16 17  1  0  0  0
 16 44  1  0  0  0
 19 20  1  0  0  0
 19 45  1  0  0  0
 19 46  1  0  0  0
 20 21  2  0  0  0
 20 22  1  0  0  0
 22 23  1  0  0  0
 22 47  1  0  0  0
 23 24  1  0  0  0
 23 48  1  0  0  0
 23 49  1  0  0  0
 24 29  1  0  0  0
 24 25  2  0  0  0
 25 26  1  0  0  0
 25 31  1  0  0  0
 26 27  2  0  0  0
 26 50  1  0  0  0
 27 28  1  0  0  0
 27 51  1  0  0  0
 28 29  2  0  0  0
 28 52  1  0  0  0
 29 30  1  0  0  0
 31 32  1  0  0  0
 31 33  1  0  0  0
 31 34  1  0  0  0
M  CHG  2   4   1   5  -1
M  END
> <s_m_entry_id>
37809

> <s_m_entry_name>
ligand_docking-pose.156

> <s_m_Source_Path>
/home/csk/Desktop/cluster/DUD-E-result/thrb

> <s_m_Source_File>
ligand_docking-pose.sdf

> <i_m_Source_File_Index>
156

> <i_lp_mmshare_version>
53161

> <i_f3d_flags>
0

> <r_lp_tautomer_probability>
1

> <s_lp_Force_Field>
OPLS_2005

> <r_lp_Energy>
27.196882

> <b_lp_Chiralities_Consistent>
1

> <s_lp_Variant>
38326-1

> <s_i_glide_gridfile>
glide-grid_1ype

> <i_i_glide_lignum>
2056

> <i_i_glide_rotatable_bonds>
10

> <r_i_docking_score>
-7.5730505973854

> <r_i_glide_ligand_efficiency>
-0.210362516594039

> <r_i_glide_ligand_efficiency_sa>
-0.694601724858199

> <r_i_glide_ligand_efficiency_ln>
-1.65223504016682

> <r_i_glide_gscore>
-7.5730505973854

> <r_i_glide_lipo>
-3.50743429722746

> <r_i_glide_hbond>
0

> <r_i_glide_metal>
0

> <r_i_glide_rewards>
-1.56670258956036

> <r_i_glide_evdw>
-44.8666839599609

> <r_i_glide_ecoul>
-5.45235443115234

> <r_i_glide_erotb>
0.575298407479376

> <r_i_glide_esite>
-0.0130247554060575

> <r_i_glide_emodel>
-68.9474023493551

> <r_i_glide_energy>
-50.3190383911133

> <r_i_glide_einternal>
8.31075763702393

> <i_i_glide_confnum>
50

> <i_i_glide_posenum>
217

> <r_i_glide_eff_state_penalty>
0

> <s_user_duplicate_titles>
38326

> <s_m_subgroup_title>
dock_pv

> <s_m_subgroupid>
dock_pv1

> <b_m_subgroup_collapsed>
0

$$$$
287218
                    3D
 Schrodinger Suite 2021-1.
 67 69  0  0  1  0            999 V2000
   21.9932  -13.5841   25.5208 C   0  0  0  0  0  0
   20.7198  -13.0481   25.6923 C   0  0  0  0  0  0
   19.6188  -13.8939   25.7809 C   0  0  0  0  0  0
   19.7913  -15.2791   25.7100 C   0  0  0  0  0  0
   21.0737  -15.8085   25.5214 C   0  0  0  0  0  0
   22.1747  -14.9611   25.4289 C   0  0  0  0  0  0
   18.5930  -16.2098   25.8867 C   0  0  0  0  0  0
   18.3976  -17.2587   24.7634 C   0  0  0  0  0  0
   17.5042  -16.8324   23.5957 C   0  0  0  0  0  0
   16.1609  -17.3901   23.5123 C   0  0  0  0  0  0
   15.3896  -17.0406   22.4712 C   0  0  0  0  0  0
   15.7686  -16.1959   21.4609 N   0  0  0  0  0  0
   17.0593  -15.6891   21.4217 C   0  0  0  0  0  0
   17.4179  -15.0144   20.4579 O   0  0  0  0  0  0
   17.9298  -16.0066   22.5890 C   0  0  0  0  0  0
   19.2461  -15.4407   22.6856 N   0  0  0  0  0  0
   20.0544  -14.2344   21.6636 S   0  0  0  0  0  0
   21.2926  -13.8681   22.3560 O   0  0  0  0  0  0
   20.1249  -14.7417   20.2927 O   0  0  0  0  0  0
   18.9276  -12.7235   21.7453 C   0  0  0  0  0  0
   19.0799  -11.8636   20.4864 C   0  0  0  0  0  0
   18.5833  -10.6531   20.7211 F   0  0  0  0  0  0
   20.3492  -11.6970   20.1153 F   0  0  0  0  0  0
   18.4139  -12.3687   19.4498 F   0  0  0  0  0  0
   14.8349  -15.8570   20.3512 C   0  0  0  0  0  0
   14.2991  -14.4057   20.3905 C   0  0  0  0  0  0
   13.7515  -13.9675   19.3818 O   0  0  0  0  0  0
   14.4375  -13.6857   21.5210 N   0  0  0  0  0  0
   14.0399  -12.2879   21.7440 C   0  0  1  0  0  0
   14.4370  -11.2368   20.6749 C   0  0  0  0  0  0
   14.0659   -9.8116   21.1314 C   0  0  0  0  0  0
   12.6087   -9.7227   21.6014 C   0  0  0  0  0  0
   12.3839  -10.6648   22.7055 N   0  0  0  0  0  0
   12.6120  -12.0753   22.3314 C   0  0  1  0  0  0
   11.6160  -12.6530   21.5137 O   0  0  0  0  0  0
   11.6163  -10.2532   23.8408 C   0  0  0  0  0  0
   11.6160   -9.0919   24.3210 N   0  0  0  0  0  0
   10.8160  -11.2522   24.4134 N   0  0  0  0  0  0
   14.7076  -12.0337   22.5614 H   0  0  0  0  0  0
   22.8479  -12.9267   25.4559 H   0  0  0  0  0  0
   20.5875  -11.9775   25.7643 H   0  0  0  0  0  0
   18.6394  -13.4626   25.9211 H   0  0  0  0  0  0
   21.2281  -16.8762   25.4750 H   0  0  0  0  0  0
   23.1660  -15.3690   25.2968 H   0  0  0  0  0  0
   17.6739  -15.6377   26.0304 H   0  0  0  0  0  0
   18.7540  -16.7309   26.8320 H   0  0  0  0  0  0
   17.9526  -18.1480   25.2121 H   0  0  0  0  0  0
   19.3513  -17.6116   24.3701 H   0  0  0  0  0  0
   15.7935  -18.0716   24.2657 H   0  0  0  0  0  0
   14.3891  -17.4258   22.3307 H   0  0  0  0  0  0
   19.5141  -15.3077   23.6665 H   0  0  0  0  0  0
   17.8979  -13.0407   21.8756 H   0  0  0  0  0  0
   19.2151  -12.1933   22.6492 H   0  0  0  0  0  0
   14.0042  -16.5596   20.2944 H   0  0  0  0  0  0
   15.3726  -15.9735   19.4088 H   0  0  0  0  0  0
   14.7851  -14.1702   22.3395 H   0  0  0  0  0  0
   13.9023  -11.4392   19.7461 H   0  0  0  0  0  0
   15.5041  -11.2924   20.4535 H   0  0  0  0  0  0
   14.2071   -9.1050   20.3213 H   0  0  0  0  0  0
   14.7300   -9.4537   21.9188 H   0  0  0  0  0  0
   11.9313   -9.9831   20.7852 H   0  0  0  0  0  0
   12.3743   -8.6943   21.8830 H   0  0  0  0  0  0
   12.5829  -12.6807   23.2375 H   0  0  0  0  0  0
   11.0756  -13.2437   22.0497 H   0  0  0  0  0  0
   10.9682   -9.0341   25.0940 H   0  0  0  0  0  0
   10.0934  -11.0106   25.0845 H   0  0  0  0  0  0
   10.6126  -12.1044   23.9150 H   0  0  0  0  0  0
  1  6  1  0  0  0
  1  2  2  0  0  0
  1 40  1  0  0  0
  2  3  1  0  0  0
  2 41  1  0  0  0
  3  4  2  0  0  0
  3 42  1  0  0  0
  4  5  1  0  0  0
  4  7  1  0  0  0
  5  6  2  0  0  0
  5 43  1  0  0  0
  6 44  1  0  0  0
  7  8  1  0  0  0
  7 45  1  0  0  0
  7 46  1  0  0  0
  8  9  1  0  0  0
  8 47  1  0  0  0
  8 48  1  0  0  0
  9 15  2  0  0  0
  9 10  1  0  0  0
 10 11  2  0  0  0
 10 49  1  0  0  0
 11 12  1  0  0  0
 11 50  1  0  0  0
 12 13  1  0  0  0
 12 25  1  0  0  0
 13 14  2  0  0  0
 13 15  1  0  0  0
 15 16  1  0  0  0
 16 17  1  0  0  0
 16 51  1  0  0  0
 17 18  2  0  0  0
 17 19  2  0  0  0
 17 20  1  0  0  0
 20 21  1  0  0  0
 20 52  1  0  0  0
 20 53  1  0  0  0
 21 22  1  0  0  0
 21 23  1  0  0  0
 21 24  1  0  0  0
 25 26  1  0  0  0
 25 54  1  0  0  0
 25 55  1  0  0  0
 26 27  2  0  0  0
 26 28  1  0  0  0
 28 29  1  0  0  0
 28 56  1  0  0  0
 29 39  1  0  0  0
 29 34  1  0  0  0
 29 30  1  0  0  0
 30 31  1  0  0  0
 30 57  1  0  0  0
 30 58  1  0  0  0
 31 32  1  0  0  0
 31 59  1  0  0  0
 31 60  1  0  0  0
 32 33  1  0  0  0
 32 61  1  0  0  0
 32 62  1  0  0  0
 33 34  1  0  0  0
 33 36  1  0  0  0
 34 35  1  0  0  0
 34 63  1  0  0  0
 35 64  1  0  0  0
 36 37  2  3  0  0
 36 38  1  0  0  0
 37 65  1  0  0  0
 38 66  1  0  0  0
 38 67  1  0  0  0
M  END
> <s_m_entry_id>
37810

> <s_m_entry_name>
ligand_docking-pose.157

> <s_m_Source_Path>
/home/csk/Desktop/cluster/DUD-E-result/thrb

> <s_m_Source_File>
ligand_docking-pose.sdf

> <i_m_Source_File_Index>
157

> <i_lp_mmshare_version>
53161

> <i_f3d_flags>
0

> <r_lp_tautomer_probability>
1

> <s_lp_Force_Field>
OPLS_2005

> <r_lp_Energy>
29.90368

> <b_lp_Chiralities_Consistent>
1

> <s_lp_Variant>
287218-1

> <s_i_glide_gridfile>
glide-grid_1ype

> <i_i_glide_lignum>
882

> <i_i_glide_rotatable_bonds>
13

> <r_i_docking_score>
-7.57108864096458

> <r_i_glide_ligand_efficiency>
-0.199239174762226

> <r_i_glide_ligand_efficiency_sa>
-0.669837204809327

> <r_i_glide_ligand_efficiency_ln>
-1.63254942985496

> <r_i_glide_gscore>
-7.57108864096458

> <r_i_glide_lipo>
-2.95812412472215

> <r_i_glide_hbond>
-0.356614094290923

> <r_i_glide_metal>
0

> <r_i_glide_rewards>
-1.32622034357063

> <r_i_glide_evdw>
-49.4220314025879

> <r_i_glide_ecoul>
-6.37412643432617

> <r_i_glide_erotb>
0.587985789571292

> <r_i_glide_esite>
-0.0908953326738414

> <r_i_glide_emodel>
-73.3576308136146

> <r_i_glide_energy>
-55.7961578369141

> <r_i_glide_einternal>
16.9994125366211

> <i_i_glide_confnum>
132

> <i_i_glide_posenum>
84

> <r_i_glide_eff_state_penalty>
0

> <s_user_duplicate_titles>
287218

> <s_m_subgroup_title>
dock_pv

> <s_m_subgroupid>
dock_pv1

> <b_m_subgroup_collapsed>
0

$$$$
69380
                    3D
 Schrodinger Suite 2021-1.
 77 79  0  0  1  0            999 V2000
   17.8964  -16.6333   26.0586 C   0  0  0  0  0  0
   18.5997  -16.2192   24.7700 C   0  0  0  0  0  0
   18.5693  -16.9582   23.7885 O   0  0  0  0  0  0
   19.2382  -15.0406   24.7975 N   0  0  0  0  0  0
   19.9182  -14.4135   23.6581 C   0  0  2  0  0  0
   21.0173  -13.4666   24.2035 C   0  0  0  0  0  0
   22.3394  -14.1525   24.5253 C   0  0  0  0  0  0
   23.5079  -13.8361   23.7984 C   0  0  0  0  0  0
   24.7004  -14.4959   24.0669 C   0  0  0  0  0  0
   24.7484  -15.4794   25.0441 C   0  0  0  0  0  0
   23.6097  -15.8059   25.7695 C   0  0  0  0  0  0
   22.4118  -15.1501   25.5216 C   0  0  0  0  0  0
   18.9201  -13.7087   22.7076 C   0  0  0  0  0  0
   17.7903  -13.4534   23.1198 O   0  0  0  0  0  0
   19.3252  -13.3851   21.4559 N   0  0  0  0  0  0
   20.6233  -13.6977   20.8552 C   0  0  0  0  0  0
   20.7635  -12.6901   19.7259 C   0  0  0  0  0  0
   19.3327  -12.5469   19.2323 C   0  0  0  0  0  0
   18.4475  -12.6874   20.4861 C   0  0  1  0  0  0
   17.1423  -13.4477   20.1657 C   0  0  0  0  0  0
   17.1721  -14.6758   20.1244 O   0  0  0  0  0  0
   16.0314  -12.7119   19.9428 N   0  0  0  0  0  0
   14.6649  -13.1966   19.6211 C   0  0  1  0  0  0
   13.6806  -12.0317   19.3166 C   0  0  0  0  0  0
   13.4304  -11.0283   20.4645 C   0  0  0  0  0  0
   12.7548  -11.6279   21.7134 C   0  0  0  0  0  0
   12.5131  -10.5581   22.6613 N   0  0  0  0  0  0
   11.5852  -10.6527   23.5208 C   0  0  0  0  0  0
   11.2160   -9.5636   24.3219 N   0  0  0  0  0  0
   10.8160  -11.7873   23.8431 N   0  0  0  0  0  0
   14.7060  -14.1598   18.4296 C   0  0  0  0  0  0
   14.7967  -13.7792   17.2625 O   0  0  0  0  0  0
   14.6309  -15.6631   18.7304 C   0  0  0  0  0  0
   13.2310  -16.1438   18.7162 N   0  3  0  0  0  0
   12.5300  -16.1719   19.8779 C   0  0  0  0  0  0
   11.2159  -16.6451   19.8885 C   0  0  0  0  0  0
   10.6331  -17.0856   18.7004 C   0  0  0  0  0  0
   11.3782  -17.0526   17.5212 C   0  0  0  0  0  0
   12.6913  -16.5742   17.5487 C   0  0  0  0  0  0
   20.4031  -15.2034   23.0798 H   0  0  0  0  0  0
   18.2223  -11.7015   20.8957 H   0  0  0  0  0  0
   14.2923  -13.7164   20.5042 H   0  0  0  0  0  0
   18.5526  -17.2667   26.6594 H   0  0  0  0  0  0
   17.6168  -15.7600   26.6547 H   0  0  0  0  0  0
   16.9860  -17.1930   25.8367 H   0  0  0  0  0  0
   19.1905  -14.4792   25.6339 H   0  0  0  0  0  0
   21.2110  -12.6542   23.5059 H   0  0  0  0  0  0
   20.6664  -12.9714   25.1093 H   0  0  0  0  0  0
   23.4821  -13.0755   23.0345 H   0  0  0  0  0  0
   25.5997  -14.2488   23.5217 H   0  0  0  0  0  0
   25.6829  -15.9796   25.2527 H   0  0  0  0  0  0
   23.6596  -16.5652   26.5357 H   0  0  0  0  0  0
   21.5345  -15.4159   26.0942 H   0  0  0  0  0  0
   20.5859  -14.7129   20.4618 H   0  0  0  0  0  0
   21.4719  -13.6378   21.5329 H   0  0  0  0  0  0
   21.4610  -13.0062   18.9487 H   0  0  0  0  0  0
   21.1128  -11.7376   20.1295 H   0  0  0  0  0  0
   19.1237  -13.3491   18.5244 H   0  0  0  0  0  0
   19.1670  -11.6035   18.7143 H   0  0  0  0  0  0
   16.0875  -11.7238   20.1477 H   0  0  0  0  0  0
   14.0466  -11.4655   18.4574 H   0  0  0  0  0  0
   12.7123  -12.4333   19.0121 H   0  0  0  0  0  0
   14.3663  -10.5442   20.7463 H   0  0  0  0  0  0
   12.7908  -10.2306   20.0780 H   0  0  0  0  0  0
   11.8342  -12.1434   21.4252 H   0  0  0  0  0  0
   13.4229  -12.3596   22.1702 H   0  0  0  0  0  0
   11.5477   -8.6550   24.0435 H   0  0  0  0  0  0
   10.2511   -9.5231   24.6366 H   0  0  0  0  0  0
   10.8553  -12.5921   23.2362 H   0  0  0  0  0  0
    9.8702  -11.6379   24.1758 H   0  0  0  0  0  0
   15.0521  -15.9050   19.7073 H   0  0  0  0  0  0
   15.1751  -16.2325   17.9765 H   0  0  0  0  0  0
   13.0359  -15.8152   20.7660 H   0  0  0  0  0  0
   10.6411  -16.6534   20.8025 H   0  0  0  0  0  0
    9.6159  -17.4477   18.6922 H   0  0  0  0  0  0
   10.9417  -17.3738   16.5836 H   0  0  0  0  0  0
   13.3089  -16.5029   16.6627 H   0  0  0  0  0  0
  1  2  1  0  0  0
  1 43  1  0  0  0
  1 44  1  0  0  0
  1 45  1  0  0  0
  2  3  2  0  0  0
  2  4  1  0  0  0
  4  5  1  0  0  0
  4 46  1  0  0  0
  5 40  1  0  0  0
  5  6  1  0  0  0
  5 13  1  0  0  0
  6  7  1  0  0  0
  6 47  1  0  0  0
  6 48  1  0  0  0
  7 12  1  0  0  0
  7  8  2  0  0  0
  8  9  1  0  0  0
  8 49  1  0  0  0
  9 10  2  0  0  0
  9 50  1  0  0  0
 10 11  1  0  0  0
 10 51  1  0  0  0
 11 12  2  0  0  0
 11 52  1  0  0  0
 12 53  1  0  0  0
 13 14  2  0  0  0
 13 15  1  0  0  0
 15 19  1  0  0  0
 15 16  1  0  0  0
 16 17  1  0  0  0
 16 54  1  0  0  0
 16 55  1  0  0  0
 17 18  1  0  0  0
 17 56  1  0  0  0
 17 57  1  0  0  0
 18 19  1  0  0  0
 18 58  1  0  0  0
 18 59  1  0  0  0
 19 41  1  0  0  0
 19 20  1  0  0  0
 20 21  2  0  0  0
 20 22  1  0  0  0
 22 23  1  0  0  0
 22 60  1  0  0  0
 23 42  1  0  0  0
 23 24  1  0  0  0
 23 31  1  0  0  0
 24 25  1  0  0  0
 24 61  1  0  0  0
 24 62  1  0  0  0
 25 26  1  0  0  0
 25 63  1  0  0  0
 25 64  1  0  0  0
 26 27  1  0  0  0
 26 65  1  0  0  0
 26 66  1  0  0  0
 27 28  2  3  0  0
 28 29  1  0  0  0
 28 30  1  0  0  0
 29 67  1  0  0  0
 29 68  1  0  0  0
 30 69  1  0  0  0
 30 70  1  0  0  0
 31 32  2  0  0  0
 31 33  1  0  0  0
 33 34  1  0  0  0
 33 71  1  0  0  0
 33 72  1  0  0  0
 34 39  1  0  0  0
 34 35  2  0  0  0
 35 36  1  0  0  0
 35 73  1  0  0  0
 36 37  2  0  0  0
 36 74  1  0  0  0
 37 38  1  0  0  0
 37 75  1  0  0  0
 38 39  2  0  0  0
 38 76  1  0  0  0
 39 77  1  0  0  0
M  CHG  1  34   1
M  END
> <s_m_entry_id>
37812

> <s_m_entry_name>
ligand_docking-pose.159

> <s_m_Source_Path>
/home/csk/Desktop/cluster/DUD-E-result/thrb

> <s_m_Source_File>
ligand_docking-pose.sdf

> <i_m_Source_File_Index>
159

> <i_lp_mmshare_version>
53161

> <i_f3d_flags>
0

> <r_lp_tautomer_probability>
0.99990000499975

> <s_lp_Force_Field>
OPLS_2005

> <r_lp_Energy>
19.356586

> <b_lp_Chiralities_Consistent>
1

> <s_lp_Variant>
69380-1

> <s_i_glide_gridfile>
glide-grid_1ype

> <i_i_glide_lignum>
4100

> <i_i_glide_rotatable_bonds>
16

> <r_i_docking_score>
-7.56421178728012

> <r_i_glide_ligand_efficiency>
-0.193954148391798

> <r_i_glide_ligand_efficiency_sa>
-0.657739526643109

> <r_i_glide_ligand_efficiency_ln>
-1.62198173011345

> <r_i_glide_gscore>
-7.56421178728012

> <r_i_glide_lipo>
-2.94315603492386

> <r_i_glide_hbond>
-0.41285252145096

> <r_i_glide_metal>
0

> <r_i_glide_rewards>
-0.756184078374251

> <r_i_glide_evdw>
-52.1203536987305

> <r_i_glide_ecoul>
-10.939715385437

> <r_i_glide_erotb>
0.932231543218601

> <r_i_glide_esite>
-0.137275702997573

> <r_i_glide_emodel>
-87.6392621510773

> <r_i_glide_energy>
-63.0600690841675

> <r_i_glide_einternal>
15.540096282959

> <i_i_glide_confnum>
109

> <i_i_glide_posenum>
63

> <r_i_glide_eff_state_penalty>
0

> <s_user_duplicate_titles>
69380

> <s_m_subgroup_title>
dock_pv

> <s_m_subgroupid>
dock_pv1

> <b_m_subgroup_collapsed>
0

$$$$
1604
                    3D
 Schrodinger Suite 2021-1.
 69 72  0  0  1  0            999 V2000
   19.8157  -11.8532   19.5210 C   0  0  0  0  0  0
   18.6664  -11.7384   20.2977 C   0  0  0  0  0  0
   18.4355  -12.6435   21.3287 C   0  0  0  0  0  0
   19.3675  -13.6521   21.6013 C   0  0  0  0  0  0
   20.5205  -13.7504   20.8070 C   0  0  0  0  0  0
   20.7394  -12.8595   19.7648 C   0  0  0  0  0  0
   19.1278  -14.5870   22.8019 C   0  0  0  0  0  0
   19.9787  -14.2216   24.0266 C   0  0  0  0  0  0
   19.3391  -13.8527   25.2155 C   0  0  0  0  0  0
   20.0862  -13.4647   26.3210 C   0  0  0  0  0  0
   21.4699  -13.4553   26.2487 C   0  0  0  0  0  0
   22.1277  -13.8533   25.0870 C   0  0  0  0  0  0
   21.3794  -14.2414   23.9769 C   0  0  0  0  0  0
   19.1213  -16.1297   22.5051 C   0  0  1  0  0  0
   17.7535  -16.6272   21.9362 C   0  0  0  0  0  0
   17.5616  -16.5574   20.7195 O   0  0  0  0  0  0
   16.8269  -17.1287   22.7973 N   0  0  0  0  0  0
   16.8858  -17.1550   24.2658 C   0  0  0  0  0  0
   16.0945  -18.3899   24.6583 C   0  0  0  0  0  0
   15.0089  -18.4587   23.6021 C   0  0  0  0  0  0
   15.6419  -17.8837   22.3211 C   0  0  1  0  0  0
   14.5856  -17.1108   21.5081 C   0  0  0  0  0  0
   14.0359  -17.6785   20.5672 O   0  0  0  0  0  0
   14.2694  -15.8749   21.9214 N   0  0  0  0  0  0
   13.1386  -15.0995   21.4137 C   0  0  0  0  0  0
   13.3570  -13.5801   21.5519 C   0  0  2  0  0  0
   12.0842  -12.7683   21.2135 C   0  0  0  0  0  0
   12.3221  -11.2571   21.4409 C   0  0  0  0  0  0
   13.5199  -10.7012   20.6327 C   0  0  1  0  0  0
   14.7684  -11.5813   20.8938 C   0  0  0  0  0  0
   14.5125  -13.0795   20.6509 C   0  0  0  0  0  0
   13.2161  -10.6528   19.2147 N   0  0  0  0  0  0
   20.2017  -16.6836   21.6624 N   0  0  0  0  0  0
   20.0158  -11.1409   18.7340 H   0  0  0  0  0  0
   17.9622  -10.9414   20.1128 H   0  0  0  0  0  0
   17.5467  -12.5328   21.9331 H   0  0  0  0  0  0
   21.2831  -14.4876   20.9938 H   0  0  0  0  0  0
   21.6293  -12.9396   19.1591 H   0  0  0  0  0  0
   18.1059  -14.3637   23.1182 H   0  0  0  0  0  0
   18.2615  -13.8518   25.2850 H   0  0  0  0  0  0
   19.6088  -13.1607   27.2398 H   0  0  0  0  0  0
   22.0162  -13.1406   27.1213 H   0  0  0  0  0  0
   23.2067  -13.8493   25.0431 H   0  0  0  0  0  0
   21.8989  -14.5381   23.0805 H   0  0  0  0  0  0
   19.3100  -16.6296   23.4488 H   0  0  0  0  0  0
   17.8704  -17.2152   24.7211 H   0  0  0  0  0  0
   16.4104  -16.2526   24.6466 H   0  0  0  0  0  0
   16.7429  -19.2610   24.5731 H   0  0  0  0  0  0
   15.7157  -18.3539   25.6800 H   0  0  0  0  0  0
   14.6332  -19.4702   23.4587 H   0  0  0  0  0  0
   14.1630  -17.8535   23.9206 H   0  0  0  0  0  0
   16.0153  -18.7096   21.7111 H   0  0  0  0  0  0
   14.7312  -15.4963   22.7416 H   0  0  0  0  0  0
   12.9591  -15.3250   20.3595 H   0  0  0  0  0  0
   12.2186  -15.4037   21.9139 H   0  0  0  0  0  0
   13.6049  -13.3583   22.5923 H   0  0  0  0  0  0
   11.7674  -12.9675   20.1875 H   0  0  0  0  0  0
   11.2468  -13.1018   21.8296 H   0  0  0  0  0  0
   12.4730  -11.0505   22.5025 H   0  0  0  0  0  0
   11.4188  -10.7027   21.1853 H   0  0  0  0  0  0
   13.7419   -9.7060   21.0235 H   0  0  0  0  0  0
   15.1009  -11.4528   21.9209 H   0  0  0  0  0  0
   15.5941  -11.2449   20.2670 H   0  0  0  0  0  0
   15.4229  -13.6481   20.8526 H   0  0  0  0  0  0
   14.2941  -13.2846   19.6031 H   0  0  0  0  0  0
   13.1278  -11.6047   18.8880 H   0  0  0  0  0  0
   12.3009  -10.2299   19.0857 H   0  0  0  0  0  0
   20.2252  -16.1873   20.7815 H   0  0  0  0  0  0
   21.1038  -16.5281   22.0900 H   0  0  0  0  0  0
  1  6  1  0  0  0
  1  2  2  0  0  0
  1 34  1  0  0  0
  2  3  1  0  0  0
  2 35  1  0  0  0
  3  4  2  0  0  0
  3 36  1  0  0  0
  4  5  1  0  0  0
  4  7  1  0  0  0
  5  6  2  0  0  0
  5 37  1  0  0  0
  6 38  1  0  0  0
  7  8  1  0  0  0
  7 14  1  0  0  0
  7 39  1  0  0  0
  8 13  1  0  0  0
  8  9  2  0  0  0
  9 10  1  0  0  0
  9 40  1  0  0  0
 10 11  2  0  0  0
 10 41  1  0  0  0
 11 12  1  0  0  0
 11 42  1  0  0  0
 12 13  2  0  0  0
 12 43  1  0  0  0
 13 44  1  0  0  0
 14 15  1  0  0  0
 14 33  1  0  0  0
 14 45  1  0  0  0
 15 16  2  0  0  0
 15 17  1  0  0  0
 17 21  1  0  0  0
 17 18  1  0  0  0
 18 19  1  0  0  0
 18 46  1  0  0  0
 18 47  1  0  0  0
 19 20  1  0  0  0
 19 48  1  0  0  0
 19 49  1  0  0  0
 20 21  1  0  0  0
 20 50  1  0  0  0
 20 51  1  0  0  0
 21 22  1  0  0  0
 21 52  1  0  0  0
 22 23  2  0  0  0
 22 24  1  0  0  0
 24 25  1  0  0  0
 24 53  1  0  0  0
 25 26  1  0  0  0
 25 54  1  0  0  0
 25 55  1  0  0  0
 26 31  1  0  0  0
 26 27  1  0  0  0
 26 56  1  0  0  0
 27 28  1  0  0  0
 27 57  1  0  0  0
 27 58  1  0  0  0
 28 29  1  0  0  0
 28 59  1  0  0  0
 28 60  1  0  0  0
 29 30  1  0  0  0
 29 32  1  0  0  0
 29 61  1  0  0  0
 30 31  1  0  0  0
 30 62  1  0  0  0
 30 63  1  0  0  0
 31 64  1  0  0  0
 31 65  1  0  0  0
 32 66  1  0  0  0
 32 67  1  0  0  0
 33 68  1  0  0  0
 33 69  1  0  0  0
M  END
> <s_m_entry_id>
37814

> <s_m_entry_name>
ligand_docking-pose.161

> <s_m_Source_Path>
/home/csk/Desktop/cluster/DUD-E-result/thrb

> <s_m_Source_File>
ligand_docking-pose.sdf

> <i_m_Source_File_Index>
161

> <i_lp_mmshare_version>
53161

> <i_f3d_flags>
0

> <r_lp_tautomer_probability>
1

> <s_lp_Force_Field>
OPLS_2005

> <r_lp_Energy>
32.418347

> <b_lp_Chiralities_Consistent>
1

> <s_lp_Variant>
1604-2

> <s_i_glide_gridfile>
glide-grid_1ype

> <i_i_glide_lignum>
683

> <i_i_glide_rotatable_bonds>
9

> <r_i_docking_score>
-7.55445776971867

> <r_i_glide_ligand_efficiency>
-0.228922962718747

> <r_i_glide_ligand_efficiency_sa>
-0.734278260988934

> <r_i_glide_ligand_efficiency_ln>
-1.68007229309648

> <r_i_glide_gscore>
-7.55445776971867

> <r_i_glide_lipo>
-3.89213251390017

> <r_i_glide_hbond>
-0.806223169217191

> <r_i_glide_metal>
0

> <r_i_glide_rewards>
-0.526155188910062

> <r_i_glide_evdw>
-40.2018165588379

> <r_i_glide_ecoul>
-8.01801300048828

> <r_i_glide_erotb>
0.895968874946957

> <r_i_glide_esite>
-0.0131229946230609

> <r_i_glide_emodel>
-61.2691218325759

> <r_i_glide_energy>
-48.2198295593262

> <r_i_glide_einternal>
10.5384130477905

> <i_i_glide_confnum>
187

> <i_i_glide_posenum>
117

> <r_i_glide_eff_state_penalty>
0

> <s_user_duplicate_titles>
1604,279642

> <s_m_subgroup_title>
dock_pv

> <s_m_subgroupid>
dock_pv1

> <b_m_subgroup_collapsed>
0

$$$$
41119
                    3D
 Schrodinger Suite 2021-1.
 75 79  0  0  1  0            999 V2000
   19.7726  -12.2528   18.0535 C   0  0  0  0  0  0
   20.8160  -12.1560   18.9677 C   0  0  0  0  0  0
   20.5667  -12.3585   20.3208 C   0  0  0  0  0  0
   19.2782  -12.6849   20.7591 C   0  0  0  0  0  0
   18.2399  -12.7641   19.8317 C   0  0  0  0  0  0
   18.4786  -12.5370   18.4814 C   0  0  0  0  0  0
   18.9658  -12.9263   22.2439 C   0  0  0  0  0  0
   19.6220  -14.1554   22.9649 C   0  0  1  0  0  0
   19.3800  -14.0354   24.5001 C   0  0  0  0  0  0
   18.0859  -14.6815   24.9849 C   0  0  0  0  0  0
   18.1237  -16.1412   24.5382 C   0  0  1  0  0  0
   16.9339  -17.0199   24.9001 C   0  0  0  0  0  0
   17.0152  -18.1517   23.8872 C   0  0  0  0  0  0
   17.5163  -17.4780   22.5970 C   0  0  2  0  0  0
   18.2206  -16.2611   23.0702 N   0  0  0  0  0  0
   19.0265  -15.4646   22.3044 C   0  0  0  0  0  0
   19.2118  -15.7476   21.1170 O   0  0  0  0  0  0
   16.3669  -17.2564   21.5795 C   0  0  0  0  0  0
   16.0575  -18.1945   20.8438 O   0  0  0  0  0  0
   15.7130  -16.0755   21.5415 N   0  0  0  0  0  0
   14.5349  -15.8216   20.6885 C   0  0  1  0  0  0
   13.2464  -16.1673   21.4839 C   0  0  0  0  0  0
   11.9246  -15.9709   20.7175 C   0  0  0  0  0  0
   11.6784  -16.9690   19.5801 C   0  0  0  0  0  0
   10.4130  -16.6529   18.9453 N   0  0  0  0  0  0
   10.1010  -16.6139   17.5939 C   0  0  0  0  0  0
    9.2155  -15.8536   17.1206 N   0  0  0  0  0  0
   10.8449  -17.4863   16.8231 N   0  0  0  0  0  0
   14.7026  -14.3918   20.1565 C   0  0  0  0  0  0
   15.3667  -14.2515   19.1256 O   0  0  0  0  0  0
   14.1277  -13.2033   20.8227 C   0  0  0  0  0  0
   13.1444  -13.1782   21.6831 N   0  0  0  0  0  0
   12.8117  -11.9210   22.0716 C   0  0  0  0  0  0
   11.7775  -11.6005   22.9617 C   0  0  0  0  0  0
   11.6122  -10.2676   23.3345 C   0  0  0  0  0  0
   12.4311   -9.2688   22.8135 C   0  0  0  0  0  0
   13.4345   -9.5531   21.8868 C   0  0  0  0  0  0
   13.6159  -10.8924   21.5207 C   0  0  0  0  0  0
   14.7618  -11.6111   20.4043 S   0  0  0  0  0  0
   21.0571  -14.2274   22.7187 N   0  0  0  0  0  0
   19.0135  -16.6081   24.9669 H   0  0  0  0  0  0
   18.2390  -18.0995   22.0658 H   0  0  0  0  0  0
   14.5590  -16.4770   19.8128 H   0  0  0  0  0  0
   19.9682  -12.1066   17.0020 H   0  0  0  0  0  0
   21.8171  -11.9244   18.6333 H   0  0  0  0  0  0
   21.3863  -12.2593   21.0167 H   0  0  0  0  0  0
   17.2473  -13.0120   20.1630 H   0  0  0  0  0  0
   17.6678  -12.6177   17.7721 H   0  0  0  0  0  0
   17.8827  -12.9839   22.3701 H   0  0  0  0  0  0
   19.2160  -12.0098   22.7685 H   0  0  0  0  0  0
   20.2007  -14.5131   25.0424 H   0  0  0  0  0  0
   19.4170  -12.9955   24.8250 H   0  0  0  0  0  0
   17.2159  -14.1620   24.5857 H   0  0  0  0  0  0
   18.0375  -14.6251   26.0736 H   0  0  0  0  0  0
   16.0161  -16.4547   24.7625 H   0  0  0  0  0  0
   16.9552  -17.3509   25.9387 H   0  0  0  0  0  0
   16.0848  -18.7128   23.7770 H   0  0  0  0  0  0
   17.7599  -18.8783   24.2186 H   0  0  0  0  0  0
   15.9526  -15.3645   22.2177 H   0  0  0  0  0  0
   13.2956  -17.2110   21.7985 H   0  0  0  0  0  0
   13.2151  -15.6049   22.4181 H   0  0  0  0  0  0
   11.1115  -16.0303   21.4371 H   0  0  0  0  0  0
   11.8661  -14.9631   20.3099 H   0  0  0  0  0  0
   12.4799  -16.9127   18.8449 H   0  0  0  0  0  0
   11.6476  -17.9908   19.9580 H   0  0  0  0  0  0
    9.8435  -16.0481   19.5186 H   0  0  0  0  0  0
    8.7450  -15.3024   17.8279 H   0  0  0  0  0  0
   11.1190  -17.0808   15.9350 H   0  0  0  0  0  0
   11.6712  -17.8294   17.2874 H   0  0  0  0  0  0
   11.1373  -12.3673   23.3762 H   0  0  0  0  0  0
   10.8312  -10.0051   24.0369 H   0  0  0  0  0  0
   12.2767   -8.2529   23.1373 H   0  0  0  0  0  0
   14.0634   -8.7718   21.4842 H   0  0  0  0  0  0
   21.1966  -14.2834   21.7179 H   0  0  0  0  0  0
   21.4911  -13.3664   23.0105 H   0  0  0  0  0  0
  1  6  1  0  0  0
  1  2  2  0  0  0
  1 44  1  0  0  0
  2  3  1  0  0  0
  2 45  1  0  0  0
  3  4  2  0  0  0
  3 46  1  0  0  0
  4  5  1  0  0  0
  4  7  1  0  0  0
  5  6  2  0  0  0
  5 47  1  0  0  0
  6 48  1  0  0  0
  7  8  1  0  0  0
  7 49  1  0  0  0
  7 50  1  0  0  0
  8 16  1  0  0  0
  8  9  1  0  0  0
  8 40  1  0  0  0
  9 10  1  0  0  0
  9 51  1  0  0  0
  9 52  1  0  0  0
 10 11  1  0  0  0
 10 53  1  0  0  0
 10 54  1  0  0  0
 11 41  1  0  0  0
 11 15  1  0  0  0
 11 12  1  0  0  0
 12 13  1  0  0  0
 12 55  1  0  0  0
 12 56  1  0  0  0
 13 14  1  0  0  0
 13 57  1  0  0  0
 13 58  1  0  0  0
 14 42  1  0  0  0
 14 15  1  0  0  0
 14 18  1  0  0  0
 15 16  1  0  0  0
 16 17  2  0  0  0
 18 19  2  0  0  0
 18 20  1  0  0  0
 20 21  1  0  0  0
 20 59  1  0  0  0
 21 43  1  0  0  0
 21 22  1  0  0  0
 21 29  1  0  0  0
 22 23  1  0  0  0
 22 60  1  0  0  0
 22 61  1  0  0  0
 23 24  1  0  0  0
 23 62  1  0  0  0
 23 63  1  0  0  0
 24 25  1  0  0  0
 24 64  1  0  0  0
 24 65  1  0  0  0
 25 26  1  0  0  0
 25 66  1  0  0  0
 26 27  2  3  0  0
 26 28  1  0  0  0
 27 67  1  0  0  0
 28 68  1  0  0  0
 28 69  1  0  0  0
 29 30  2  0  0  0
 29 31  1  0  0  0
 31 39  1  0  0  0
 31 32  2  0  0  0
 32 33  1  0  0  0
 33 38  2  0  0  0
 33 34  1  0  0  0
 34 35  2  0  0  0
 34 70  1  0  0  0
 35 36  1  0  0  0
 35 71  1  0  0  0
 36 37  2  0  0  0
 36 72  1  0  0  0
 37 38  1  0  0  0
 37 73  1  0  0  0
 38 39  1  0  0  0
 40 74  1  0  0  0
 40 75  1  0  0  0
M  END
> <s_m_entry_id>
37816

> <s_m_entry_name>
ligand_docking-pose.163

> <s_m_Source_Path>
/home/csk/Desktop/cluster/DUD-E-result/thrb

> <s_m_Source_File>
ligand_docking-pose.sdf

> <i_m_Source_File_Index>
163

> <i_lp_mmshare_version>
53161

> <i_f3d_flags>
0

> <r_lp_tautomer_probability>
0.99990000499975

> <s_lp_Force_Field>
OPLS_2005

> <r_lp_Energy>
22.99114

> <b_lp_Chiralities_Consistent>
1

> <s_lp_Variant>
41119-2

> <s_i_glide_gridfile>
glide-grid_1ype

> <i_i_glide_lignum>
802

> <i_i_glide_rotatable_bonds>
12

> <r_i_docking_score>
-7.53963368721165

> <r_i_glide_ligand_efficiency>
-0.188490842180291

> <r_i_glide_ligand_efficiency_sa>
-0.644629611801609

> <r_i_glide_ligand_efficiency_ln>
-1.60798198396773

> <r_i_glide_gscore>
-7.53963368721165

> <r_i_glide_lipo>
-3.85978363429524

> <r_i_glide_hbond>
-0.408579321945632

> <r_i_glide_metal>
0

> <r_i_glide_rewards>
-0.22429087575062

> <r_i_glide_evdw>
-50.9692230224609

> <r_i_glide_ecoul>
-7.19553232192993

> <r_i_glide_erotb>
0.643752411661579

> <r_i_glide_esite>
-0.0629412674692034

> <r_i_glide_emodel>
-72.76385547194

> <r_i_glide_energy>
-58.1647553443909

> <r_i_glide_einternal>
22.1207046508789

> <i_i_glide_confnum>
10

> <i_i_glide_posenum>
266

> <r_i_glide_eff_state_penalty>
0

> <s_user_duplicate_titles>
41119

> <s_m_subgroup_title>
dock_pv

> <s_m_subgroupid>
dock_pv1

> <b_m_subgroup_collapsed>
0

$$$$
119647
                    3D
 Schrodinger Suite 2021-1.
 61 64  0  0  1  0            999 V2000
   18.7597  -14.5015   25.3028 C   0  0  0  0  0  0
   19.9303  -14.6876   24.2788 C   0  0  0  0  0  0
   20.0236  -16.2218   24.0379 C   0  0  0  0  0  0
   19.6351  -14.0067   22.9056 C   0  0  0  0  0  0
   20.6755  -13.6409   22.0283 C   0  0  0  0  0  0
   20.4213  -13.1198   20.7619 C   0  0  0  0  0  0
   19.1033  -12.9401   20.3294 C   0  0  0  0  0  0
   18.0482  -13.2881   21.1942 C   0  0  0  0  0  0
   18.3145  -13.8290   22.4525 C   0  0  0  0  0  0
   16.7005  -13.1129   20.8159 N   0  0  0  0  0  0
   16.4410  -12.5908   19.6684 C   0  0  0  0  0  0
   17.4485  -12.1694   18.6519 C   0  0  0  0  0  0
   17.1561  -11.6424   17.5723 O   0  0  0  0  0  0
   18.7413  -12.4383   19.0407 N   0  0  0  0  0  0
   19.8342  -12.1749   18.0869 C   0  0  0  0  0  0
   14.9526  -12.4146   19.3015 C   0  0  0  0  0  0
   14.0946  -11.7411   20.3747 C   0  0  0  0  0  0
   14.3721  -10.4347   20.7702 C   0  0  0  0  0  0
   13.6155   -9.8276   21.7669 C   0  0  0  0  0  0
   12.5632  -10.5079   22.4071 C   0  0  0  0  0  0
   12.2807  -11.8176   21.9667 C   0  0  0  0  0  0
   13.0323  -12.4247   20.9644 C   0  0  0  0  0  0
   11.8125   -9.8558   23.5248 C   0  0  0  0  0  0
   12.1021   -8.6937   23.9211 N   0  0  0  0  0  0
   10.8160  -10.6210   24.0744 N   0  0  0  0  0  0
   21.2192  -14.0459   24.9387 C   0  0  0  0  0  0
   21.0591  -12.9991   25.5740 O   0  0  0  0  0  0
   22.4733  -14.5778   24.8394 N   0  0  0  0  0  0
   23.6146  -13.9194   25.5003 C   0  0  0  0  0  0
   24.8095  -14.7911   25.1266 C   0  0  0  0  0  0
   24.4223  -15.3344   23.7795 C   0  0  0  0  0  0
   22.9291  -15.6353   23.9231 C   0  0  0  0  0  0
   18.4942  -13.4531   25.4335 H   0  0  0  0  0  0
   17.8481  -15.0237   25.0110 H   0  0  0  0  0  0
   19.0226  -14.8837   26.2904 H   0  0  0  0  0  0
   20.6146  -16.4887   23.1639 H   0  0  0  0  0  0
   20.4278  -16.7464   24.9046 H   0  0  0  0  0  0
   19.0391  -16.6504   23.8468 H   0  0  0  0  0  0
   21.7098  -13.7539   22.3092 H   0  0  0  0  0  0
   21.2632  -12.8671   20.1340 H   0  0  0  0  0  0
   17.4738  -14.1143   23.0680 H   0  0  0  0  0  0
   19.4914  -11.8561   17.1010 H   0  0  0  0  0  0
   20.4945  -11.4000   18.4754 H   0  0  0  0  0  0
   20.4267  -13.0789   17.9388 H   0  0  0  0  0  0
   14.8201  -11.8308   18.3887 H   0  0  0  0  0  0
   14.5352  -13.3951   19.0638 H   0  0  0  0  0  0
   15.1929   -9.8927   20.3212 H   0  0  0  0  0  0
   13.8918   -8.8236   22.0501 H   0  0  0  0  0  0
   11.4855  -12.4019   22.4085 H   0  0  0  0  0  0
   12.7970  -13.4378   20.6688 H   0  0  0  0  0  0
   12.8733   -8.2890   23.4186 H   0  0  0  0  0  0
   10.1928  -10.2002   24.7561 H   0  0  0  0  0  0
   10.4693  -11.4407   23.6007 H   0  0  0  0  0  0
   23.4769  -13.8549   26.5788 H   0  0  0  0  0  0
   23.7508  -12.9197   25.0863 H   0  0  0  0  0  0
   24.9187  -15.6055   25.8466 H   0  0  0  0  0  0
   25.7496  -14.2392   25.1181 H   0  0  0  0  0  0
   24.5906  -14.5419   23.0520 H   0  0  0  0  0  0
   25.0086  -16.2036   23.4747 H   0  0  0  0  0  0
   22.4875  -15.5948   22.9291 H   0  0  0  0  0  0
   22.8305  -16.6166   24.3985 H   0  0  0  0  0  0
  1  2  1  0  0  0
  1 33  1  0  0  0
  1 34  1  0  0  0
  1 35  1  0  0  0
  2  3  1  0  0  0
  2  4  1  0  0  0
  2 26  1  0  0  0
  3 36  1  0  0  0
  3 37  1  0  0  0
  3 38  1  0  0  0
  4  9  1  0  0  0
  4  5  2  0  0  0
  5  6  1  0  0  0
  5 39  1  0  0  0
  6  7  2  0  0  0
  6 40  1  0  0  0
  7 14  1  0  0  0
  7  8  1  0  0  0
  8  9  2  0  0  0
  8 10  1  0  0  0
  9 41  1  0  0  0
 10 11  2  0  0  0
 11 12  1  0  0  0
 11 16  1  0  0  0
 12 13  2  0  0  0
 12 14  1  0  0  0
 14 15  1  0  0  0
 15 42  1  0  0  0
 15 43  1  0  0  0
 15 44  1  0  0  0
 16 17  1  0  0  0
 16 45  1  0  0  0
 16 46  1  0  0  0
 17 22  1  0  0  0
 17 18  2  0  0  0
 18 19  1  0  0  0
 18 47  1  0  0  0
 19 20  2  0  0  0
 19 48  1  0  0  0
 20 21  1  0  0  0
 20 23  1  0  0  0
 21 22  2  0  0  0
 21 49  1  0  0  0
 22 50  1  0  0  0
 23 24  2  3  0  0
 23 25  1  0  0  0
 24 51  1  0  0  0
 25 52  1  0  0  0
 25 53  1  0  0  0
 26 27  2  0  0  0
 26 28  1  0  0  0
 28 32  1  0  0  0
 28 29  1  0  0  0
 29 30  1  0  0  0
 29 54  1  0  0  0
 29 55  1  0  0  0
 30 31  1  0  0  0
 30 56  1  0  0  0
 30 57  1  0  0  0
 31 32  1  0  0  0
 31 58  1  0  0  0
 31 59  1  0  0  0
 32 60  1  0  0  0
 32 61  1  0  0  0
M  END
> <s_m_entry_id>
37818

> <s_m_entry_name>
ligand_docking-pose.165

> <s_m_Source_Path>
/home/csk/Desktop/cluster/DUD-E-result/thrb

> <s_m_Source_File>
ligand_docking-pose.sdf

> <i_m_Source_File_Index>
165

> <i_lp_mmshare_version>
53161

> <i_f3d_flags>
0

> <r_lp_tautomer_probability>
1

> <s_lp_Force_Field>
OPLS_2005

> <r_lp_Energy>
63.516352

> <b_lp_Chiralities_Consistent>
1

> <s_lp_Variant>
119647-2

> <s_i_glide_gridfile>
glide-grid_1ype

> <i_i_glide_lignum>
3260

> <i_i_glide_rotatable_bonds>
6

> <r_i_docking_score>
-7.51627440583501

> <r_i_glide_ligand_efficiency>
-0.234883575182344

> <r_i_glide_ligand_efficiency_sa>
-0.745708867807533

> <r_i_glide_ligand_efficiency_ln>
-1.6830987253686

> <r_i_glide_gscore>
-7.51627440583501

> <r_i_glide_lipo>
-3.15236752740895

> <r_i_glide_hbond>
-0.129993053286228

> <r_i_glide_metal>
0

> <r_i_glide_rewards>
-1.6074249861284

> <r_i_glide_evdw>
-50.3245849609375

> <r_i_glide_ecoul>
-3.86240077018738

> <r_i_glide_erotb>
0.534068796357372

> <r_i_glide_esite>
-0.0649682717938264

> <r_i_glide_emodel>
-78.0529469490555

> <r_i_glide_energy>
-54.1869857311249

> <r_i_glide_einternal>
3.36207675933838

> <i_i_glide_confnum>
30

> <i_i_glide_posenum>
145

> <r_i_glide_eff_state_penalty>
0

> <s_user_duplicate_titles>
119647

> <s_m_subgroup_title>
dock_pv

> <s_m_subgroupid>
dock_pv1

> <b_m_subgroup_collapsed>
0

$$$$
270972
                    3D
 Schrodinger Suite 2021-1.
 68 71  0  0  1  0            999 V2000
   24.5916  -14.2965   24.1965 C   0  0  0  0  0  0
   24.2116  -15.5997   23.9220 C   0  0  0  0  0  0
   22.9666  -16.0743   24.3220 C   0  0  0  0  0  0
   22.0527  -15.2563   25.0523 C   0  0  0  0  0  0
   22.4677  -13.9117   25.3321 C   0  0  0  0  0  0
   23.7298  -13.4530   24.8820 C   0  0  0  0  0  0
   21.6170  -13.0525   26.0640 C   0  0  0  0  0  0
   20.4009  -13.5016   26.5427 C   0  0  0  0  0  0
   19.9850  -14.7952   26.2851 C   0  0  0  0  0  0
   20.7546  -15.6783   25.5205 C   0  0  0  0  0  0
   20.0269  -17.3117   25.2321 S   0  0  0  0  0  0
   19.0264  -17.5286   26.2847 O   0  0  0  0  0  0
   21.1081  -18.2882   25.0661 O   0  0  0  0  0  0
   19.1609  -17.1770   23.6804 N   0  0  1  0  0  0
   17.7861  -16.6702   23.6761 C   0  0  0  0  0  0
   17.8211  -15.1433   23.6671 C   0  0  0  0  0  0
   18.6812  -14.6428   22.5687 N   0  0  0  0  0  0
   19.7174  -15.3508   22.0057 C   0  0  0  0  0  0
   20.4391  -14.8695   21.1312 O   0  0  0  0  0  0
   19.9197  -16.8392   22.4447 C   0  0  0  0  0  0
   18.4522  -13.2323   22.1783 C   0  0  0  0  0  0
   17.1852  -13.1057   21.2978 C   0  0  0  0  0  0
   16.6190  -14.1098   20.8678 O   0  0  0  0  0  0
   16.7549  -11.8537   21.0151 N   0  0  0  0  0  0
   15.6264  -11.4625   20.1264 C   0  0  1  0  0  0
   15.9599  -11.8841   18.6583 C   0  0  0  0  0  0
   14.8498  -11.6656   17.6108 C   0  0  0  0  0  0
   15.2878  -11.9988   16.1822 C   0  0  0  0  0  0
   16.3156  -11.1008   15.6879 N   0  0  0  0  0  0
   16.2148  -10.0838   14.7501 C   0  0  0  0  0  0
   17.2160   -9.4531   14.3204 N   0  0  0  0  0  0
   14.9229   -9.8331   14.3210 N   0  0  0  0  0  0
   14.2942  -12.0290   20.6552 C   0  0  0  0  0  0
   13.9267  -13.1580   20.3232 O   0  0  0  0  0  0
   13.4473  -11.1934   21.5202 C   0  0  0  0  0  0
   13.6169   -9.9243   21.8188 N   0  0  0  0  0  0
   12.6638   -9.4544   22.6053 C   0  0  0  0  0  0
   11.6582  -10.3479   22.9580 C   0  0  0  0  0  0
   12.0159  -11.8848   22.2381 S   0  0  0  0  0  0
   25.5651  -13.9390   23.8870 H   0  0  0  0  0  0
   24.8887  -16.2535   23.3918 H   0  0  0  0  0  0
   22.7329  -17.0887   24.0607 H   0  0  0  0  0  0
   24.0347  -12.4393   25.0966 H   0  0  0  0  0  0
   21.9244  -12.0401   26.2763 H   0  0  0  0  0  0
   19.7752  -12.8423   27.1273 H   0  0  0  0  0  0
   19.0295  -15.1051   26.6834 H   0  0  0  0  0  0
   17.2337  -17.1082   24.5077 H   0  0  0  0  0  0
   17.3057  -17.0332   22.7647 H   0  0  0  0  0  0
   18.1923  -14.7320   24.5988 H   0  0  0  0  0  0
   16.8111  -14.7832   23.5116 H   0  0  0  0  0  0
   19.6240  -17.5053   21.6345 H   0  0  0  0  0  0
   20.9837  -16.9920   22.6194 H   0  0  0  0  0  0
   19.3059  -12.8051   21.6527 H   0  0  0  0  0  0
   18.3502  -12.6438   23.0848 H   0  0  0  0  0  0
   17.3217  -11.0824   21.3387 H   0  0  0  0  0  0
   15.5812  -10.3736   20.1465 H   0  0  0  0  0  0
   16.2432  -12.9365   18.6149 H   0  0  0  0  0  0
   16.8477  -11.3354   18.3475 H   0  0  0  0  0  0
   14.4534  -10.6547   17.6484 H   0  0  0  0  0  0
   14.0135  -12.3232   17.8486 H   0  0  0  0  0  0
   14.4211  -11.9232   15.5329 H   0  0  0  0  0  0
   15.6428  -13.0275   16.1162 H   0  0  0  0  0  0
   17.2509  -11.3269   15.9900 H   0  0  0  0  0  0
   16.9330   -8.7384   13.6571 H   0  0  0  0  0  0
   14.8862   -9.2782   13.4732 H   0  0  0  0  0  0
   14.3747  -10.6678   14.1659 H   0  0  0  0  0  0
   12.7111   -8.4258   22.9305 H   0  0  0  0  0  0
   10.7795  -10.2071   23.5750 H   0  0  0  0  0  0
  1  6  1  0  0  0
  1  2  2  0  0  0
  1 40  1  0  0  0
  2  3  1  0  0  0
  2 41  1  0  0  0
  3  4  2  0  0  0
  3 42  1  0  0  0
  4 10  1  0  0  0
  4  5  1  0  0  0
  5  6  2  0  0  0
  5  7  1  0  0  0
  6 43  1  0  0  0
  7  8  2  0  0  0
  7 44  1  0  0  0
  8  9  1  0  0  0
  8 45  1  0  0  0
  9 10  2  0  0  0
  9 46  1  0  0  0
 10 11  1  0  0  0
 11 12  2  0  0  0
 11 13  2  0  0  0
 11 14  1  0  0  0
 14 20  1  0  0  0
 14 15  1  0  0  0
 15 16  1  0  0  0
 15 47  1  0  0  0
 15 48  1  0  0  0
 16 17  1  0  0  0
 16 49  1  0  0  0
 16 50  1  0  0  0
 17 18  1  0  0  0
 17 21  1  0  0  0
 18 19  2  0  0  0
 18 20  1  0  0  0
 20 51  1  0  0  0
 20 52  1  0  0  0
 21 22  1  0  0  0
 21 53  1  0  0  0
 21 54  1  0  0  0
 22 23  2  0  0  0
 22 24  1  0  0  0
 24 25  1  0  0  0
 24 55  1  0  0  0
 25 26  1  0  0  0
 25 33  1  0  0  0
 25 56  1  0  0  0
 26 27  1  0  0  0
 26 57  1  0  0  0
 26 58  1  0  0  0
 27 28  1  0  0  0
 27 59  1  0  0  0
 27 60  1  0  0  0
 28 29  1  0  0  0
 28 61  1  0  0  0
 28 62  1  0  0  0
 29 30  1  0  0  0
 29 63  1  0  0  0
 30 31  2  3  0  0
 30 32  1  0  0  0
 31 64  1  0  0  0
 32 65  1  0  0  0
 32 66  1  0  0  0
 33 34  2  0  0  0
 33 35  1  0  0  0
 35 39  1  0  0  0
 35 36  2  0  0  0
 36 37  1  0  0  0
 37 38  2  0  0  0
 37 67  1  0  0  0
 38 39  1  0  0  0
 38 68  1  0  0  0
M  END
> <s_m_entry_id>
37819

> <s_m_entry_name>
ligand_docking-pose.166

> <s_m_Source_Path>
/home/csk/Desktop/cluster/DUD-E-result/thrb

> <s_m_Source_File>
ligand_docking-pose.sdf

> <i_m_Source_File_Index>
166

> <i_lp_mmshare_version>
53161

> <i_f3d_flags>
0

> <r_lp_tautomer_probability>
0.99990000499975

> <s_lp_Force_Field>
OPLS_2005

> <r_lp_Energy>
18.626648

> <b_lp_Chiralities_Consistent>
1

> <s_lp_Variant>
270972-3

> <s_i_glide_gridfile>
glide-grid_1ype

> <i_i_glide_lignum>
299

> <i_i_glide_rotatable_bonds>
13

> <r_i_docking_score>
-7.51153122073911

> <r_i_glide_ligand_efficiency>
-0.192603364634336

> <r_i_glide_ligand_efficiency_sa>
-0.653158733313361

> <r_i_glide_ligand_efficiency_ln>
-1.61068552122025

> <r_i_glide_gscore>
-7.51153122073911

> <r_i_glide_lipo>
-3.30073887946455

> <r_i_glide_hbond>
-0.547785120045103

> <r_i_glide_metal>
0

> <r_i_glide_rewards>
-0.583855479512637

> <r_i_glide_evdw>
-54.6535835266113

> <r_i_glide_ecoul>
-6.7335033416748

> <r_i_glide_erotb>
0.674204804762117

> <r_i_glide_esite>
-0.0106518688971489

> <r_i_glide_emodel>
-83.2534251052313

> <r_i_glide_energy>
-61.3870868682861

> <r_i_glide_einternal>
15.3073711395264

> <i_i_glide_confnum>
12

> <i_i_glide_posenum>
341

> <r_i_glide_eff_state_penalty>
0

> <s_user_duplicate_titles>
270972

> <s_m_subgroup_title>
dock_pv

> <s_m_subgroupid>
dock_pv1

> <b_m_subgroup_collapsed>
0

$$$$
178395
                    3D
 Schrodinger Suite 2021-1.
 73 76  0  0  1  0            999 V2000
   21.3761  -13.5514   24.8760 C   0  0  0  0  0  0
   22.7564  -13.4536   25.0371 C   0  0  0  0  0  0
   23.5842  -14.4634   24.5566 C   0  0  0  0  0  0
   23.0429  -15.5770   23.9203 C   0  0  0  0  0  0
   21.6649  -15.6707   23.7399 C   0  0  0  0  0  0
   20.8290  -14.6572   24.2177 C   0  0  0  0  0  0
   19.3164  -14.7790   24.0595 C   0  0  0  0  0  0
   18.6895  -13.7440   23.0866 C   0  0  1  0  0  0
   19.1166  -13.8267   21.5911 C   0  0  0  0  0  0
   19.6599  -14.8621   21.1992 O   0  0  0  0  0  0
   18.7951  -12.7991   20.7486 N   0  0  0  0  0  0
   18.8769  -12.9836   19.2971 C   0  0  0  0  0  0
   17.4047  -13.0570   18.8270 C   0  0  2  0  0  0
   17.1511  -13.0539   17.3228 C   0  0  0  0  0  0
   15.7529  -12.4979   17.1050 C   0  0  0  0  0  0
   15.4431  -11.7099   18.3843 C   0  0  2  0  0  0
   16.5832  -11.9285   19.2834 N   0  0  0  0  0  0
   16.8578  -11.1758   20.3810 C   0  0  0  0  0  0
   16.1230  -10.2531   20.7210 O   0  0  0  0  0  0
   18.1454  -11.5341   21.1614 C   0  0  0  0  0  0
   14.1011  -12.0842   19.0318 C   0  0  0  0  0  0
   13.2163  -11.2374   19.1135 O   0  0  0  0  0  0
   13.9804  -13.3444   19.4834 N   0  0  0  0  0  0
   12.7508  -14.0025   19.9367 C   0  0  2  0  0  0
   11.8942  -13.2254   20.9744 C   0  0  0  0  0  0
   12.5734  -12.2464   21.9732 C   0  0  0  0  0  0
   11.7859  -10.9207   22.0119 C   0  0  0  0  0  0
   12.4896   -9.8736   22.7213 N   0  0  0  0  0  0
   12.0289   -9.4530   23.8229 C   0  0  0  0  0  0
   12.4039   -8.1961   24.3213 N   0  0  0  0  0  0
   11.2122  -10.1659   24.7198 N   0  0  0  0  0  0
   13.1698  -15.3682   20.4780 C   0  0  0  0  0  0
   14.1521  -15.4713   21.2211 O   0  0  0  0  0  0
   12.3849  -16.5632   20.1377 C   0  0  0  0  0  0
   12.5052  -17.7323   20.7208 N   0  0  0  0  0  0
   11.6610  -18.6261   20.2450 C   0  0  0  0  0  0
   10.8343  -18.2112   19.2109 C   0  0  0  0  0  0
   11.1877  -16.5531   18.8603 S   0  0  0  0  0  0
   17.2162  -13.8534   23.1207 N   0  0  0  0  0  0
   24.9235  -14.3582   24.6999 F   0  0  0  0  0  0
   18.9969  -12.7665   23.4595 H   0  0  0  0  0  0
   16.9617  -13.9687   19.2337 H   0  0  0  0  0  0
   15.3700  -10.6530   18.1678 H   0  0  0  0  0  0
   20.7366  -12.7687   25.2585 H   0  0  0  0  0  0
   23.1916  -12.5975   25.5260 H   0  0  0  0  0  0
   23.6926  -16.3583   23.5528 H   0  0  0  0  0  0
   21.2509  -16.5287   23.2285 H   0  0  0  0  0  0
   18.8851  -14.6431   25.0531 H   0  0  0  0  0  0
   19.0491  -15.7931   23.7565 H   0  0  0  0  0  0
   19.4624  -13.8528   18.9944 H   0  0  0  0  0  0
   19.3776  -12.1259   18.8457 H   0  0  0  0  0  0
   17.2123  -14.0641   16.9278 H   0  0  0  0  0  0
   17.8843  -12.4259   16.8144 H   0  0  0  0  0  0
   15.0741  -13.3392   16.9476 H   0  0  0  0  0  0
   15.7223  -11.8640   16.2174 H   0  0  0  0  0  0
   18.8410  -10.7067   21.0284 H   0  0  0  0  0  0
   17.8698  -11.5140   22.2118 H   0  0  0  0  0  0
   14.7933  -13.9414   19.4451 H   0  0  0  0  0  0
   12.1670  -14.1105   19.0245 H   0  0  0  0  0  0
   11.2171  -13.8863   21.5182 H   0  0  0  0  0  0
   11.2160  -12.6534   20.3480 H   0  0  0  0  0  0
   13.6155  -12.0535   21.7236 H   0  0  0  0  0  0
   12.5982  -12.6980   22.9664 H   0  0  0  0  0  0
   10.8023  -11.1362   22.4149 H   0  0  0  0  0  0
   11.6155  -10.5466   21.0016 H   0  0  0  0  0  0
   13.1691   -7.7662   23.8267 H   0  0  0  0  0  0
   12.5884   -8.1471   25.3102 H   0  0  0  0  0  0
   10.8046  -11.0162   24.3571 H   0  0  0  0  0  0
   10.4701   -9.6451   25.1691 H   0  0  0  0  0  0
   11.6541  -19.6095   20.6839 H   0  0  0  0  0  0
   10.0694  -18.7561   18.6727 H   0  0  0  0  0  0
   16.7791  -13.6970   22.2210 H   0  0  0  0  0  0
   16.8805  -14.7479   23.4602 H   0  0  0  0  0  0
  1  6  1  0  0  0
  1  2  2  0  0  0
  1 44  1  0  0  0
  2  3  1  0  0  0
  2 45  1  0  0  0
  3  4  2  0  0  0
  3 40  1  0  0  0
  4  5  1  0  0  0
  4 46  1  0  0  0
  5  6  2  0  0  0
  5 47  1  0  0  0
  6  7  1  0  0  0
  7  8  1  0  0  0
  7 48  1  0  0  0
  7 49  1  0  0  0
  8 41  1  0  0  0
  8  9  1  0  0  0
  8 39  1  0  0  0
  9 10  2  0  0  0
  9 11  1  0  0  0
 11 20  1  0  0  0
 11 12  1  0  0  0
 12 13  1  0  0  0
 12 50  1  0  0  0
 12 51  1  0  0  0
 13 42  1  0  0  0
 13 17  1  0  0  0
 13 14  1  0  0  0
 14 15  1  0  0  0
 14 52  1  0  0  0
 14 53  1  0  0  0
 15 16  1  0  0  0
 15 54  1  0  0  0
 15 55  1  0  0  0
 16 43  1  0  0  0
 16 17  1  0  0  0
 16 21  1  0  0  0
 17 18  1  0  0  0
 18 19  2  0  0  0
 18 20  1  0  0  0
 20 56  1  0  0  0
 20 57  1  0  0  0
 21 22  2  0  0  0
 21 23  1  0  0  0
 23 24  1  0  0  0
 23 58  1  0  0  0
 24 25  1  0  0  0
 24 32  1  0  0  0
 24 59  1  0  0  0
 25 26  1  0  0  0
 25 60  1  0  0  0
 25 61  1  0  0  0
 26 27  1  0  0  0
 26 62  1  0  0  0
 26 63  1  0  0  0
 27 28  1  0  0  0
 27 64  1  0  0  0
 27 65  1  0  0  0
 28 29  2  3  0  0
 29 30  1  0  0  0
 29 31  1  0  0  0
 30 66  1  0  0  0
 30 67  1  0  0  0
 31 68  1  0  0  0
 31 69  1  0  0  0
 32 33  2  0  0  0
 32 34  1  0  0  0
 34 38  1  0  0  0
 34 35  2  0  0  0
 35 36  1  0  0  0
 36 37  2  0  0  0
 36 70  1  0  0  0
 37 38  1  0  0  0
 37 71  1  0  0  0
 39 72  1  0  0  0
 39 73  1  0  0  0
M  END
> <s_m_entry_id>
37820

> <s_m_entry_name>
ligand_docking-pose.167

> <s_m_Source_Path>
/home/csk/Desktop/cluster/DUD-E-result/thrb

> <s_m_Source_File>
ligand_docking-pose.sdf

> <i_m_Source_File_Index>
167

> <i_lp_mmshare_version>
53161

> <i_f3d_flags>
0

> <r_lp_tautomer_probability>
0.99990000499975

> <s_lp_Force_Field>
OPLS_2005

> <r_lp_Energy>
30.63402

> <b_lp_Chiralities_Consistent>
1

> <s_lp_Variant>
178395-1

> <s_i_glide_gridfile>
glide-grid_1ype

> <i_i_glide_lignum>
1117

> <i_i_glide_rotatable_bonds>
13

> <r_i_docking_score>
-7.50753531242976

> <r_i_glide_ligand_efficiency>
-0.187688382810744

> <r_i_glide_ligand_efficiency_sa>
-0.641885239364761

> <r_i_glide_ligand_efficiency_ln>
-1.60113634523975

> <r_i_glide_gscore>
-7.50753531242976

> <r_i_glide_lipo>
-2.96124888557928

> <r_i_glide_hbond>
-0.124775677273963

> <r_i_glide_metal>
0

> <r_i_glide_rewards>
-1.59916300515508

> <r_i_glide_evdw>
-54.2093162536621

> <r_i_glide_ecoul>
-4.28237295150757

> <r_i_glide_erotb>
0.607213085162871

> <r_i_glide_esite>
-0.0767390741750715

> <r_i_glide_emodel>
-61.0433260316936

> <r_i_glide_energy>
-58.4916892051697

> <r_i_glide_einternal>
29.7655868530273

> <i_i_glide_confnum>
44

> <i_i_glide_posenum>
10

> <r_i_glide_eff_state_penalty>
0

> <s_user_duplicate_titles>
178395

> <s_m_subgroup_title>
dock_pv

> <s_m_subgroupid>
dock_pv1

> <b_m_subgroup_collapsed>
0

$$$$
192613
                    3D
 Schrodinger Suite 2021-1.
 56 58  0  0  1  0            999 V2000
   21.6556  -13.7978   26.3155 C   0  0  0  0  0  0
   20.9137  -13.0528   25.4144 C   0  0  0  0  0  0
   20.8142  -13.4557   24.0916 C   0  0  0  0  0  0
   21.4290  -14.6539   23.6623 C   0  0  0  0  0  0
   22.1506  -15.4197   24.6026 C   0  0  0  0  0  0
   22.2773  -14.9730   25.9114 C   0  0  0  0  0  0
   21.2926  -15.1385   22.2201 C   0  0  0  0  0  0
   19.9063  -15.6364   21.7277 C   0  0  2  0  0  0
   18.7934  -14.5560   21.8377 C   0  0  0  0  0  0
   18.0082  -14.6039   22.7887 O   0  0  0  0  0  0
   18.8209  -13.5284   20.9479 N   0  0  0  0  0  0
   19.6671  -13.3945   19.7592 C   0  0  0  0  0  0
   20.0664  -11.9293   19.7629 C   0  0  0  0  0  0
   18.7911  -11.2483   20.2387 C   0  0  0  0  0  0
   18.1244  -12.2533   21.2065 C   0  0  1  0  0  0
   16.5871  -12.3508   21.1226 C   0  0  0  0  0  0
   15.9714  -12.6530   22.1421 O   0  0  0  0  0  0
   15.9854  -12.0736   19.9513 N   0  0  0  0  0  0
   14.5318  -12.1004   19.7450 C   0  0  0  0  0  0
   13.6933  -11.2445   20.7108 C   0  0  0  0  0  0
   14.1809   -9.9954   21.1211 C   0  0  0  0  0  0
   13.5115   -9.2498   22.0883 C   0  0  0  0  0  0
   12.3351   -9.7343   22.6509 C   0  0  0  0  0  0
   11.8252  -10.9622   22.2392 C   0  0  0  0  0  0
   12.4913  -11.7235   21.2711 C   0  0  0  0  0  0
   11.8733  -13.0501   20.8541 C   0  0  0  0  0  0
   12.5072  -14.1694   21.5208 N   0  0  0  0  0  0
   19.4820  -16.8690   22.4217 N   0  0  0  0  0  0
   19.9889  -15.9128   20.6763 H   0  0  0  0  0  0
   18.3782  -11.9467   22.2231 H   0  0  0  0  0  0
   21.7463  -13.4530   27.3349 H   0  0  0  0  0  0
   20.4342  -12.1393   25.7377 H   0  0  0  0  0  0
   20.2561  -12.8418   23.4031 H   0  0  0  0  0  0
   22.6273  -16.3423   24.3053 H   0  0  0  0  0  0
   22.8561  -15.5470   26.6204 H   0  0  0  0  0  0
   21.6314  -14.3127   21.5969 H   0  0  0  0  0  0
   22.0155  -15.9379   22.0576 H   0  0  0  0  0  0
   20.5440  -14.0365   19.7056 H   0  0  0  0  0  0
   19.0538  -13.6103   18.8847 H   0  0  0  0  0  0
   20.8710  -11.7802   20.4838 H   0  0  0  0  0  0
   20.4158  -11.5744   18.7933 H   0  0  0  0  0  0
   18.9881  -10.2887   20.7208 H   0  0  0  0  0  0
   18.1739  -11.0529   19.3650 H   0  0  0  0  0  0
   16.5565  -11.8727   19.1458 H   0  0  0  0  0  0
   14.3140  -11.7690   18.7298 H   0  0  0  0  0  0
   14.2355  -13.1487   19.7753 H   0  0  0  0  0  0
   15.1104   -9.6139   20.7230 H   0  0  0  0  0  0
   13.9185   -8.3057   22.4194 H   0  0  0  0  0  0
   11.8200   -9.1644   23.4108 H   0  0  0  0  0  0
   10.9065  -11.3241   22.6818 H   0  0  0  0  0  0
   10.8165  -13.0532   21.1091 H   0  0  0  0  0  0
   11.9368  -13.1716   19.7722 H   0  0  0  0  0  0
   12.1717  -14.1884   22.4800 H   0  0  0  0  0  0
   12.1691  -15.0290   21.1148 H   0  0  0  0  0  0
   19.8480  -16.8695   23.3643 H   0  0  0  0  0  0
   18.4741  -16.8640   22.5154 H   0  0  0  0  0  0
  1  6  1  0  0  0
  1  2  2  0  0  0
  1 31  1  0  0  0
  2  3  1  0  0  0
  2 32  1  0  0  0
  3  4  2  0  0  0
  3 33  1  0  0  0
  4  5  1  0  0  0
  4  7  1  0  0  0
  5  6  2  0  0  0
  5 34  1  0  0  0
  6 35  1  0  0  0
  7  8  1  0  0  0
  7 36  1  0  0  0
  7 37  1  0  0  0
  8 29  1  0  0  0
  8  9  1  0  0  0
  8 28  1  0  0  0
  9 10  2  0  0  0
  9 11  1  0  0  0
 11 15  1  0  0  0
 11 12  1  0  0  0
 12 13  1  0  0  0
 12 38  1  0  0  0
 12 39  1  0  0  0
 13 14  1  0  0  0
 13 40  1  0  0  0
 13 41  1  0  0  0
 14 15  1  0  0  0
 14 42  1  0  0  0
 14 43  1  0  0  0
 15 30  1  0  0  0
 15 16  1  0  0  0
 16 17  2  0  0  0
 16 18  1  0  0  0
 18 19  1  0  0  0
 18 44  1  0  0  0
 19 20  1  0  0  0
 19 45  1  0  0  0
 19 46  1  0  0  0
 20 25  1  0  0  0
 20 21  2  0  0  0
 21 22  1  0  0  0
 21 47  1  0  0  0
 22 23  2  0  0  0
 22 48  1  0  0  0
 23 24  1  0  0  0
 23 49  1  0  0  0
 24 25  2  0  0  0
 24 50  1  0  0  0
 25 26  1  0  0  0
 26 27  1  0  0  0
 26 51  1  0  0  0
 26 52  1  0  0  0
 27 53  1  0  0  0
 27 54  1  0  0  0
 28 55  1  0  0  0
 28 56  1  0  0  0
M  END
> <s_m_entry_id>
37821

> <s_m_entry_name>
ligand_docking-pose.168

> <s_m_Source_Path>
/home/csk/Desktop/cluster/DUD-E-result/thrb

> <s_m_Source_File>
ligand_docking-pose.sdf

> <i_m_Source_File_Index>
168

> <i_lp_mmshare_version>
53161

> <i_f3d_flags>
0

> <r_lp_tautomer_probability>
1

> <s_lp_Force_Field>
OPLS_2005

> <r_lp_Energy>
23.226536

> <b_lp_Chiralities_Consistent>
1

> <s_lp_Variant>
192613-1

> <s_i_glide_gridfile>
glide-grid_1ype

> <i_i_glide_lignum>
1088

> <i_i_glide_rotatable_bonds>
9

> <r_i_docking_score>
-7.5059907974048

> <r_i_glide_ligand_efficiency>
-0.268071099907314

> <r_i_glide_ligand_efficiency_sa>
-0.814021744752967

> <r_i_glide_ligand_efficiency_ln>
-1.73260306150719

> <r_i_glide_gscore>
-7.5059907974048

> <r_i_glide_lipo>
-3.71262826611991

> <r_i_glide_hbond>
-0.517334280951861

> <r_i_glide_metal>
0

> <r_i_glide_rewards>
-1.4161199549856

> <r_i_glide_evdw>
-40.8643112182617

> <r_i_glide_ecoul>
-5.03196668624878

> <r_i_glide_erotb>
0.938102268502974

> <r_i_glide_esite>
0

> <r_i_glide_emodel>
-61.710248655916

> <r_i_glide_energy>
-45.8962779045105

> <r_i_glide_einternal>
10.1349658966064

> <i_i_glide_confnum>
6

> <i_i_glide_posenum>
390

> <r_i_glide_eff_state_penalty>
0

> <s_user_duplicate_titles>
192613

> <s_m_subgroup_title>
dock_pv

> <s_m_subgroupid>
dock_pv1

> <b_m_subgroup_collapsed>
0

$$$$
129890
                    3D
 Schrodinger Suite 2021-1.
 79 81  0  0  1  0            999 V2000
   17.6568  -15.0641   25.7039 C   0  0  0  0  0  0
   18.6740  -15.1630   24.6457 N   0  0  2  0  0  0
   19.8466  -14.2606   24.7687 C   0  0  0  0  0  0
   20.2090  -13.7794   26.2035 C   0  0  0  0  0  0
   21.3995  -12.8086   26.2529 C   0  0  0  0  0  0
   22.6467  -13.3938   25.5640 C   0  0  0  0  0  0
   22.3331  -13.8786   24.1406 C   0  0  0  0  0  0
   21.1270  -14.8383   24.1022 C   0  0  0  0  0  0
   18.1507  -15.4343   23.2528 C   0  0  1  0  0  0
   17.0069  -16.5007   23.2066 C   0  0  0  0  0  0
   16.3057  -16.7563   21.8511 C   0  0  0  0  0  0
   14.9582  -17.4461   22.0495 C   0  0  0  0  0  0
   14.7176  -18.5927   21.6839 O   0  0  0  0  0  0
   14.0586  -16.6542   22.7052 O   0  0  0  0  0  0
   17.7278  -14.1085   22.5187 C   0  0  0  0  0  0
   16.8161  -13.4533   23.0333 O   0  0  0  0  0  0
   18.2984  -13.7331   21.3353 N   0  0  0  0  0  0
   19.4660  -14.3772   20.6941 C   0  0  0  0  0  0
   20.5621  -13.3089   20.5477 C   0  0  0  0  0  0
   20.0751  -12.1325   19.6880 C   0  0  0  0  0  0
   18.7396  -11.5788   20.2148 C   0  0  0  0  0  0
   17.6655  -12.6485   20.5397 C   0  0  1  0  0  0
   16.8782  -13.1673   19.3020 C   0  0  0  0  0  0
   15.4741  -12.5641   19.1920 C   0  0  0  0  0  0
   14.7745  -12.9202   20.3792 O   0  0  0  0  0  0
   13.5416  -12.2616   20.6313 C   0  0  0  0  0  0
   12.9141  -12.9057   21.8826 C   0  0  0  0  0  0
   11.6340  -12.1670   22.3270 C   0  0  0  0  0  0
   11.9467  -10.7469   22.5501 N   0  0  0  0  0  0
   12.4022  -10.0846   21.3192 C   0  0  0  0  0  0
   13.7092  -10.7409   20.8409 C   0  0  0  0  0  0
   11.6200   -9.9963   23.7275 C   0  0  0  0  0  0
   12.0161   -8.8217   23.9391 N   0  0  0  0  0  0
   10.8162  -10.6528   24.6758 N   0  0  0  0  0  0
   18.9504  -15.9309   22.7222 H   0  0  0  0  0  0
   16.9460  -12.1155   21.1635 H   0  0  0  0  0  0
   17.0834  -15.9851   25.7808 H   0  0  0  0  0  0
   18.0742  -14.9482   26.7016 H   0  0  0  0  0  0
   16.9583  -14.2529   25.5187 H   0  0  0  0  0  0
   19.6173  -13.3380   24.2325 H   0  0  0  0  0  0
   20.4285  -14.6443   26.8283 H   0  0  0  0  0  0
   19.3642  -13.2618   26.6544 H   0  0  0  0  0  0
   21.6172  -12.5668   27.2924 H   0  0  0  0  0  0
   21.1158  -11.8631   25.7889 H   0  0  0  0  0  0
   23.0301  -14.2271   26.1558 H   0  0  0  0  0  0
   23.4421  -12.6491   25.5305 H   0  0  0  0  0  0
   23.2098  -14.3691   23.7160 H   0  0  0  0  0  0
   22.1280  -13.0188   23.5033 H   0  0  0  0  0  0
   20.9455  -15.0960   23.0628 H   0  0  0  0  0  0
   21.3953  -15.7724   24.5992 H   0  0  0  0  0  0
   17.4213  -17.4478   23.5571 H   0  0  0  0  0  0
   16.2375  -16.2568   23.9314 H   0  0  0  0  0  0
   16.1025  -15.8336   21.3059 H   0  0  0  0  0  0
   16.9412  -17.3613   21.2060 H   0  0  0  0  0  0
   14.4164  -15.7923   22.9573 H   0  0  0  0  0  0
   19.8350  -15.3018   21.1288 H   0  0  0  0  0  0
   19.1462  -14.6727   19.6976 H   0  0  0  0  0  0
   20.8827  -12.9659   21.5311 H   0  0  0  0  0  0
   21.4455  -13.7546   20.0838 H   0  0  0  0  0  0
   20.8328  -11.3469   19.6670 H   0  0  0  0  0  0
   19.9511  -12.4697   18.6581 H   0  0  0  0  0  0
   18.9425  -11.0217   21.1313 H   0  0  0  0  0  0
   18.3173  -10.8484   19.5259 H   0  0  0  0  0  0
   17.4388  -12.9773   18.3858 H   0  0  0  0  0  0
   16.7757  -14.2525   19.3475 H   0  0  0  0  0  0
   15.5687  -11.4858   19.0660 H   0  0  0  0  0  0
   14.9504  -12.9535   18.3185 H   0  0  0  0  0  0
   12.8903  -12.4377   19.7738 H   0  0  0  0  0  0
   12.6417  -13.9404   21.6697 H   0  0  0  0  0  0
   13.6151  -12.9093   22.7206 H   0  0  0  0  0  0
   10.8699  -12.2530   21.5521 H   0  0  0  0  0  0
   11.2374  -12.6528   23.2192 H   0  0  0  0  0  0
   11.6184  -10.1829   20.5662 H   0  0  0  0  0  0
   12.5566   -9.0136   21.4619 H   0  0  0  0  0  0
   14.4876  -10.5294   21.5739 H   0  0  0  0  0  0
   13.9741  -10.2514   19.9062 H   0  0  0  0  0  0
   11.6862   -8.4701   24.8236 H   0  0  0  0  0  0
   10.3468  -10.1160   25.3951 H   0  0  0  0  0  0
   10.2629  -11.4545   24.4039 H   0  0  0  0  0  0
  1  2  1  0  0  0
  1 37  1  0  0  0
  1 38  1  0  0  0
  1 39  1  0  0  0
  2  3  1  0  0  0
  2  9  1  0  0  0
  3  8  1  0  0  0
  3  4  1  0  0  0
  3 40  1  0  0  0
  4  5  1  0  0  0
  4 41  1  0  0  0
  4 42  1  0  0  0
  5  6  1  0  0  0
  5 43  1  0  0  0
  5 44  1  0  0  0
  6  7  1  0  0  0
  6 45  1  0  0  0
  6 46  1  0  0  0
  7  8  1  0  0  0
  7 47  1  0  0  0
  7 48  1  0  0  0
  8 49  1  0  0  0
  8 50  1  0  0  0
  9 35  1  0  0  0
  9 10  1  0  0  0
  9 15  1  0  0  0
 10 11  1  0  0  0
 10 51  1  0  0  0
 10 52  1  0  0  0
 11 12  1  0  0  0
 11 53  1  0  0  0
 11 54  1  0  0  0
 12 13  2  0  0  0
 12 14  1  0  0  0
 14 55  1  0  0  0
 15 16  2  0  0  0
 15 17  1  0  0  0
 17 22  1  0  0  0
 17 18  1  0  0  0
 18 19  1  0  0  0
 18 56  1  0  0  0
 18 57  1  0  0  0
 19 20  1  0  0  0
 19 58  1  0  0  0
 19 59  1  0  0  0
 20 21  1  0  0  0
 20 60  1  0  0  0
 20 61  1  0  0  0
 21 22  1  0  0  0
 21 62  1  0  0  0
 21 63  1  0  0  0
 22 36  1  0  0  0
 22 23  1  0  0  0
 23 24  1  0  0  0
 23 64  1  0  0  0
 23 65  1  0  0  0
 24 25  1  0  0  0
 24 66  1  0  0  0
 24 67  1  0  0  0
 25 26  1  0  0  0
 26 31  1  0  0  0
 26 27  1  0  0  0
 26 68  1  0  0  0
 27 28  1  0  0  0
 27 69  1  0  0  0
 27 70  1  0  0  0
 28 29  1  0  0  0
 28 71  1  0  0  0
 28 72  1  0  0  0
 29 30  1  0  0  0
 29 32  1  0  0  0
 30 31  1  0  0  0
 30 73  1  0  0  0
 30 74  1  0  0  0
 31 75  1  0  0  0
 31 76  1  0  0  0
 32 33  2  3  0  0
 32 34  1  0  0  0
 33 77  1  0  0  0
 34 78  1  0  0  0
 34 79  1  0  0  0
M  END
> <s_m_entry_id>
37824

> <s_m_entry_name>
ligand_docking-pose.171

> <s_m_Source_Path>
/home/csk/Desktop/cluster/DUD-E-result/thrb

> <s_m_Source_File>
ligand_docking-pose.sdf

> <i_m_Source_File_Index>
171

> <i_lp_mmshare_version>
53161

> <i_f3d_flags>
0

> <r_lp_tautomer_probability>
1

> <s_lp_Force_Field>
OPLS_2005

> <r_lp_Energy>
61.467962

> <b_lp_Chiralities_Consistent>
1

> <s_lp_Variant>
129890-1

> <s_i_glide_gridfile>
glide-grid_1ype

> <i_i_glide_lignum>
4311

> <i_i_glide_rotatable_bonds>
13

> <r_i_docking_score>
-7.4864922265077

> <r_i_glide_ligand_efficiency>
-0.220190947838462

> <r_i_glide_ligand_efficiency_sa>
-0.713333192313465

> <r_i_glide_ligand_efficiency_ln>
-1.6539761218297

> <r_i_glide_gscore>
-7.4864922265077

> <r_i_glide_lipo>
-3.72973961175567

> <r_i_glide_hbond>
-0.301715519478867

> <r_i_glide_metal>
0

> <r_i_glide_rewards>
-0.745361028583029

> <r_i_glide_evdw>
-43.4870796203613

> <r_i_glide_ecoul>
-8.79699611663818

> <r_i_glide_erotb>
0.881182843322856

> <r_i_glide_esite>
-0.0969555114991937

> <r_i_glide_emodel>
-68.9321863651605

> <r_i_glide_energy>
-52.2840757369995

> <r_i_glide_einternal>
13.5082397460938

> <i_i_glide_confnum>
31

> <i_i_glide_posenum>
397

> <r_i_glide_eff_state_penalty>
0

> <s_user_duplicate_titles>
129890

> <s_m_subgroup_title>
dock_pv

> <s_m_subgroupid>
dock_pv1

> <b_m_subgroup_collapsed>
0

$$$$
179236
                    3D
 Schrodinger Suite 2021-1.
 71 74  0  0  1  0            999 V2000
   20.5447  -13.9042   26.3209 C   0  0  0  0  0  0
   21.6160  -13.0519   26.0790 C   0  0  0  0  0  0
   22.6959  -13.4799   25.3055 C   0  0  0  0  0  0
   22.6987  -14.7616   24.7570 C   0  0  0  0  0  0
   21.6241  -15.6277   25.0000 C   0  0  0  0  0  0
   20.5550  -15.1950   25.7953 C   0  0  0  0  0  0
   21.5647  -17.0080   24.3484 C   0  0  0  0  0  0
   20.9578  -17.0358   22.9189 C   0  0  0  0  0  0
   19.6176  -16.2766   22.8038 C   0  0  0  0  0  0
   18.5925  -16.9171   23.0467 O   0  0  0  0  0  0
   19.6058  -14.9266   22.6298 N   0  0  0  0  0  0
   20.7335  -14.1606   22.0872 C   0  0  0  0  0  0
   20.2433  -13.6533   20.7172 C   0  0  2  0  0  0
   21.1583  -12.6571   20.0098 C   0  0  0  0  0  0
   20.2473  -12.0059   18.9901 C   0  0  0  0  0  0
   18.8778  -11.9200   19.6887 C   0  0  2  0  0  0
   18.9740  -12.9020   20.7906 N   0  0  0  0  0  0
   18.0950  -13.0153   21.8277 C   0  0  0  0  0  0
   17.1156  -12.2779   21.9210 O   0  0  0  0  0  0
   18.3629  -14.1534   22.8373 C   0  0  0  0  0  0
   17.6948  -12.1137   18.7042 C   0  0  0  0  0  0
   17.6645  -11.4548   17.6660 O   0  0  0  0  0  0
   16.7306  -12.9898   19.0527 N   0  0  0  0  0  0
   15.4863  -13.4200   18.3970 C   0  0  2  0  0  0
   15.7081  -14.7823   17.6853 C   0  0  0  0  0  0
   14.4582  -15.4352   17.0772 C   0  0  0  0  0  0
   13.4219  -15.8299   18.1369 C   0  0  0  0  0  0
   12.2417  -16.3870   17.5210 N   0  0  0  0  0  0
   11.0283  -16.5936   18.1471 C   0  0  0  0  0  0
   10.8589  -16.6773   19.3923 N   0  0  0  0  0  0
   10.0104  -16.6532   17.2216 N   0  0  0  0  0  0
   14.8162  -12.2507   17.6576 C   0  0  0  0  0  0
   14.0258  -11.5716   18.3210 O   0  0  0  0  0  0
   15.1355  -11.8248   16.2731 C   0  0  0  0  0  0
   14.8155  -10.6531   15.7703 N   0  0  0  0  0  0
   15.2149  -10.4860   14.5255 C   0  0  0  0  0  0
   15.8875  -11.5533   13.9542 C   0  0  0  0  0  0
   16.0154  -12.8161   15.1345 S   0  0  0  0  0  0
   23.7264  -15.1441   23.9637 F   0  0  0  0  0  0
   20.1071  -14.5123   20.0563 H   0  0  0  0  0  0
   18.6897  -10.9280   20.0994 H   0  0  0  0  0  0
   19.7116  -13.5668   26.9217 H   0  0  0  0  0  0
   21.6144  -12.0538   26.4916 H   0  0  0  0  0  0
   23.5267  -12.8156   25.1189 H   0  0  0  0  0  0
   19.7117  -15.8465   25.9789 H   0  0  0  0  0  0
   20.9950  -17.6786   24.9928 H   0  0  0  0  0  0
   22.5679  -17.4373   24.3319 H   0  0  0  0  0  0
   20.7681  -18.0746   22.6464 H   0  0  0  0  0  0
   21.6765  -16.6976   22.1737 H   0  0  0  0  0  0
   21.6772  -14.6926   21.9989 H   0  0  0  0  0  0
   20.9418  -13.3145   22.7456 H   0  0  0  0  0  0
   22.0158  -13.1245   19.5447 H   0  0  0  0  0  0
   21.5478  -11.9196   20.7139 H   0  0  0  0  0  0
   20.2056  -12.6657   18.1198 H   0  0  0  0  0  0
   20.6200  -11.0529   18.6315 H   0  0  0  0  0  0
   18.4237  -13.6863   23.8198 H   0  0  0  0  0  0
   17.4761  -14.7881   22.8674 H   0  0  0  0  0  0
   16.9006  -13.4677   19.9271 H   0  0  0  0  0  0
   14.8324  -13.6483   19.2398 H   0  0  0  0  0  0
   16.0864  -15.4886   18.4247 H   0  0  0  0  0  0
   16.5035  -14.7240   16.9462 H   0  0  0  0  0  0
   14.7570  -16.3262   16.5232 H   0  0  0  0  0  0
   14.0120  -14.7676   16.3404 H   0  0  0  0  0  0
   13.1059  -14.9649   18.7192 H   0  0  0  0  0  0
   13.8359  -16.5585   18.8337 H   0  0  0  0  0  0
   12.1888  -16.2489   16.5158 H   0  0  0  0  0  0
    9.8891  -16.7899   19.6502 H   0  0  0  0  0  0
    9.3013  -17.3445   17.4369 H   0  0  0  0  0  0
   10.3255  -16.7827   16.2688 H   0  0  0  0  0  0
   14.9954   -9.5557   14.0222 H   0  0  0  0  0  0
   16.2832  -11.6592   12.9560 H   0  0  0  0  0  0
  1  6  1  0  0  0
  1  2  2  0  0  0
  1 42  1  0  0  0
  2  3  1  0  0  0
  2 43  1  0  0  0
  3  4  2  0  0  0
  3 44  1  0  0  0
  4  5  1  0  0  0
  4 39  1  0  0  0
  5  6  2  0  0  0
  5  7  1  0  0  0
  6 45  1  0  0  0
  7  8  1  0  0  0
  7 46  1  0  0  0
  7 47  1  0  0  0
  8  9  1  0  0  0
  8 48  1  0  0  0
  8 49  1  0  0  0
  9 10  2  0  0  0
  9 11  1  0  0  0
 11 20  1  0  0  0
 11 12  1  0  0  0
 12 13  1  0  0  0
 12 50  1  0  0  0
 12 51  1  0  0  0
 13 40  1  0  0  0
 13 17  1  0  0  0
 13 14  1  0  0  0
 14 15  1  0  0  0
 14 52  1  0  0  0
 14 53  1  0  0  0
 15 16  1  0  0  0
 15 54  1  0  0  0
 15 55  1  0  0  0
 16 41  1  0  0  0
 16 17  1  0  0  0
 16 21  1  0  0  0
 17 18  1  0  0  0
 18 19  2  0  0  0
 18 20  1  0  0  0
 20 56  1  0  0  0
 20 57  1  0  0  0
 21 22  2  0  0  0
 21 23  1  0  0  0
 23 24  1  0  0  0
 23 58  1  0  0  0
 24 25  1  0  0  0
 24 32  1  0  0  0
 24 59  1  0  0  0
 25 26  1  0  0  0
 25 60  1  0  0  0
 25 61  1  0  0  0
 26 27  1  0  0  0
 26 62  1  0  0  0
 26 63  1  0  0  0
 27 28  1  0  0  0
 27 64  1  0  0  0
 27 65  1  0  0  0
 28 29  1  0  0  0
 28 66  1  0  0  0
 29 30  2  3  0  0
 29 31  1  0  0  0
 30 67  1  0  0  0
 31 68  1  0  0  0
 31 69  1  0  0  0
 32 33  2  0  0  0
 32 34  1  0  0  0
 34 38  1  0  0  0
 34 35  2  0  0  0
 35 36  1  0  0  0
 36 37  2  0  0  0
 36 70  1  0  0  0
 37 38  1  0  0  0
 37 71  1  0  0  0
M  END
> <s_m_entry_id>
37825

> <s_m_entry_name>
ligand_docking-pose.172

> <s_m_Source_Path>
/home/csk/Desktop/cluster/DUD-E-result/thrb

> <s_m_Source_File>
ligand_docking-pose.sdf

> <i_m_Source_File_Index>
172

> <i_lp_mmshare_version>
53161

> <i_f3d_flags>
0

> <r_lp_tautomer_probability>
0.99990000499975

> <s_lp_Force_Field>
OPLS_2005

> <r_lp_Energy>
34.629661

> <b_lp_Chiralities_Consistent>
1

> <s_lp_Variant>
179236-1

> <s_i_glide_gridfile>
glide-grid_1ype

> <i_i_glide_lignum>
984

> <i_i_glide_rotatable_bonds>
14

> <r_i_docking_score>
-7.47998031286438

> <r_i_glide_ligand_efficiency>
-0.191794366996523

> <r_i_glide_ligand_efficiency_sa>
-0.650415251269987

> <r_i_glide_ligand_efficiency_ln>
-1.60392011094613

> <r_i_glide_gscore>
-7.47998031286438

> <r_i_glide_lipo>
-2.83571963496424

> <r_i_glide_hbond>
-0.537472066545946

> <r_i_glide_metal>
0

> <r_i_glide_rewards>
-1.01841994304872

> <r_i_glide_evdw>
-45.9775466918945

> <r_i_glide_ecoul>
-9.55724143981934

> <r_i_glide_erotb>
0.724667764636686

> <r_i_glide_esite>
-0.0805728823745353

> <r_i_glide_emodel>
-72.4924004352018

> <r_i_glide_energy>
-55.5347881317139

> <r_i_glide_einternal>
18.9329490661621

> <i_i_glide_confnum>
7

> <i_i_glide_posenum>
102

> <r_i_glide_eff_state_penalty>
0

> <s_user_duplicate_titles>
179236

> <s_m_subgroup_title>
dock_pv

> <s_m_subgroupid>
dock_pv1

> <b_m_subgroup_collapsed>
0

$$$$
121809
                    3D
 Schrodinger Suite 2021-1.
 67 69  0  0  1  0            999 V2000
   19.0144  -10.4767   20.7510 C   0  0  0  0  0  0
   20.1631  -11.2185   20.0253 C   0  0  0  0  0  0
   19.9017  -12.7198   19.7245 C   0  0  1  0  0  0
   20.0710  -13.5886   20.9567 C   0  0  0  0  0  0
   21.1314  -13.7775   21.5537 O   0  0  0  0  0  0
   18.8431  -14.0453   21.2775 N   0  0  0  0  0  0
   18.6213  -15.2285   22.1799 C   0  0  2  0  0  0
   17.3441  -15.9851   21.8249 C   0  0  0  0  0  0
   16.4145  -15.5118   20.9880 C   0  0  0  0  0  0
   16.5546  -14.1647   20.3106 C   0  0  2  0  0  0
   18.0006  -13.9190   20.1133 N   0  0  0  0  0  0
   18.4855  -12.9877   19.2701 C   0  0  0  0  0  0
   17.9089  -12.4540   18.3170 O   0  0  0  0  0  0
   15.8144  -13.0356   21.0582 C   0  0  0  0  0  0
   16.1909  -12.6561   22.1678 O   0  0  0  0  0  0
   14.7298  -12.5385   20.4456 N   0  0  0  0  0  0
   13.6107  -11.8767   21.1265 C   0  0  1  0  0  0
   13.2523  -10.5501   20.4188 C   0  0  0  0  0  0
   12.1890   -9.6746   21.1219 C   0  0  0  0  0  0
   12.5776   -9.1685   22.5270 C   0  0  0  0  0  0
   12.2402  -10.0576   23.7327 C   0  0  0  0  0  0
   10.8160  -10.1707   23.9217 N   0  0  0  0  0  0
   12.4156  -12.8385   21.2146 C   0  0  0  0  0  0
   11.4411  -12.5877   21.9207 O   0  0  0  0  0  0
   12.4160  -14.1964   20.3877 C   0  0  0  0  0  0
   12.7906  -14.2576   19.2186 O   0  0  0  0  0  0
   12.0171  -15.2362   21.1201 N   0  0  0  0  0  0
   18.5539  -14.7900   23.6748 C   0  0  0  0  0  0
   19.8847  -14.5101   24.3751 C   0  0  0  0  0  0
   20.0268  -13.3587   25.1549 C   0  0  0  0  0  0
   21.2132  -13.1134   25.8419 C   0  0  0  0  0  0
   22.2634  -14.0224   25.7477 C   0  0  0  0  0  0
   22.1331  -15.1761   24.9783 C   0  0  0  0  0  0
   20.9421  -15.4246   24.2998 C   0  0  0  0  0  0
   20.8174  -13.1357   18.6838 N   0  0  0  0  0  0
   19.2746   -9.4537   21.0132 H   0  0  0  0  0  0
   18.0928  -10.4343   20.1719 H   0  0  0  0  0  0
   18.7718  -10.9762   21.6902 H   0  0  0  0  0  0
   20.4082  -10.6934   19.1063 H   0  0  0  0  0  0
   21.0890  -11.1253   20.5957 H   0  0  0  0  0  0
   19.4377  -15.9332   22.0138 H   0  0  0  0  0  0
   17.1626  -16.9450   22.2869 H   0  0  0  0  0  0
   15.5253  -16.1007   20.8148 H   0  0  0  0  0  0
   16.1060  -14.2460   19.3164 H   0  0  0  0  0  0
   14.5227  -12.8469   19.5053 H   0  0  0  0  0  0
   13.9244  -11.6359   22.1415 H   0  0  0  0  0  0
   14.1621   -9.9537   20.3245 H   0  0  0  0  0  0
   12.9163  -10.7527   19.3994 H   0  0  0  0  0  0
   12.0295   -8.7997   20.4914 H   0  0  0  0  0  0
   11.2185  -10.1694   21.1468 H   0  0  0  0  0  0
   13.6348   -8.8994   22.5506 H   0  0  0  0  0  0
   12.0325   -8.2531   22.7029 H   0  0  0  0  0  0
   12.6883  -11.0423   23.6826 H   0  0  0  0  0  0
   12.6121   -9.5704   24.6288 H   0  0  0  0  0  0
   10.3518  -10.6877   23.1821 H   0  0  0  0  0  0
   10.5545  -10.6321   24.7847 H   0  0  0  0  0  0
   11.9714  -16.1547   20.7071 H   0  0  0  0  0  0
   11.6605  -15.0634   22.0560 H   0  0  0  0  0  0
   17.8910  -13.9288   23.7715 H   0  0  0  0  0  0
   18.0803  -15.5763   24.2650 H   0  0  0  0  0  0
   19.2169  -12.6545   25.2451 H   0  0  0  0  0  0
   21.3149  -12.2219   26.4453 H   0  0  0  0  0  0
   23.1853  -13.8399   26.2798 H   0  0  0  0  0  0
   22.9502  -15.8774   24.9178 H   0  0  0  0  0  0
   20.8472  -16.3307   23.7197 H   0  0  0  0  0  0
   21.6467  -12.5650   18.7169 H   0  0  0  0  0  0
   21.1327  -14.0799   18.8629 H   0  0  0  0  0  0
  1  2  1  0  0  0
  1 36  1  0  0  0
  1 37  1  0  0  0
  1 38  1  0  0  0
  2  3  1  0  0  0
  2 39  1  0  0  0
  2 40  1  0  0  0
  3 12  1  0  0  0
  3  4  1  0  0  0
  3 35  1  0  0  0
  4  5  2  0  0  0
  4  6  1  0  0  0
  6 11  1  0  0  0
  6  7  1  0  0  0
  7  8  1  0  0  0
  7 28  1  0  0  0
  7 41  1  0  0  0
  8  9  2  0  0  0
  8 42  1  0  0  0
  9 10  1  0  0  0
  9 43  1  0  0  0
 10 11  1  0  0  0
 10 14  1  0  0  0
 10 44  1  0  0  0
 11 12  1  0  0  0
 12 13  2  0  0  0
 14 15  2  0  0  0
 14 16  1  0  0  0
 16 17  1  0  0  0
 16 45  1  0  0  0
 17 18  1  0  0  0
 17 23  1  0  0  0
 17 46  1  0  0  0
 18 19  1  0  0  0
 18 47  1  0  0  0
 18 48  1  0  0  0
 19 20  1  0  0  0
 19 49  1  0  0  0
 19 50  1  0  0  0
 20 21  1  0  0  0
 20 51  1  0  0  0
 20 52  1  0  0  0
 21 22  1  0  0  0
 21 53  1  0  0  0
 21 54  1  0  0  0
 22 55  1  0  0  0
 22 56  1  0  0  0
 23 24  2  0  0  0
 23 25  1  0  0  0
 25 26  2  0  0  0
 25 27  1  0  0  0
 27 57  1  0  0  0
 27 58  1  0  0  0
 28 29  1  0  0  0
 28 59  1  0  0  0
 28 60  1  0  0  0
 29 34  1  0  0  0
 29 30  2  0  0  0
 30 31  1  0  0  0
 30 61  1  0  0  0
 31 32  2  0  0  0
 31 62  1  0  0  0
 32 33  1  0  0  0
 32 63  1  0  0  0
 33 34  2  0  0  0
 33 64  1  0  0  0
 34 65  1  0  0  0
 35 66  1  0  0  0
 35 67  1  0  0  0
M  END
> <s_m_entry_id>
37826

> <s_m_entry_name>
ligand_docking-pose.173

> <s_m_Source_Path>
/home/csk/Desktop/cluster/DUD-E-result/thrb

> <s_m_Source_File>
ligand_docking-pose.sdf

> <i_m_Source_File_Index>
173

> <i_lp_mmshare_version>
53161

> <i_f3d_flags>
0

> <r_lp_tautomer_probability>
0.99990000499975

> <s_lp_Force_Field>
OPLS_2005

> <r_lp_Energy>
8.880568

> <b_lp_Chiralities_Consistent>
1

> <s_lp_Variant>
121809-16

> <s_i_glide_gridfile>
glide-grid_1ype

> <i_i_glide_lignum>
3224

> <i_i_glide_rotatable_bonds>
12

> <r_i_docking_score>
-7.4758827115125

> <r_i_glide_ligand_efficiency>
-0.213596648900357

> <r_i_glide_ligand_efficiency_sa>
-0.698688801359111

> <r_i_glide_ligand_efficiency_ln>
-1.64112217345434

> <r_i_glide_gscore>
-7.4758827115125

> <r_i_glide_lipo>
-2.98504556733233

> <r_i_glide_hbond>
-0.709081456798199

> <r_i_glide_metal>
0

> <r_i_glide_rewards>
-1.26325567759842

> <r_i_glide_evdw>
-45.3439483642578

> <r_i_glide_ecoul>
-6.83843421936035

> <r_i_glide_erotb>
0.778487203880608

> <r_i_glide_esite>
-0.00402466254721314

> <r_i_glide_emodel>
-68.4767718661625

> <r_i_glide_energy>
-52.1823825836182

> <r_i_glide_einternal>
14.4930381774902

> <i_i_glide_confnum>
168

> <i_i_glide_posenum>
317

> <r_i_glide_eff_state_penalty>
0

> <s_user_duplicate_titles>
121809

> <s_m_subgroup_title>
dock_pv

> <s_m_subgroupid>
dock_pv1

> <b_m_subgroup_collapsed>
0

$$$$
37936
                    3D
 Schrodinger Suite 2021-1.
 49 51  0  0  1  0            999 V2000
   15.9827  -17.3792   19.0965 C   0  0  0  0  0  0
   16.4041  -17.8659   20.3333 C   0  0  0  0  0  0
   15.5522  -17.7450   21.4310 C   0  0  0  0  0  0
   14.3420  -17.1620   21.2899 N   0  3  0  0  0  0
   13.6185  -17.0965   22.3208 O   0  5  0  0  0  0
   13.8948  -16.6666   20.1027 C   0  0  0  0  0  0
   14.7290  -16.7771   18.9779 C   0  0  0  0  0  0
   12.5293  -15.9573   20.0223 C   0  0  0  0  0  0
   12.3874  -14.7281   20.9680 C   0  0  0  0  0  0
   13.6086  -13.9658   21.2671 N   0  0  0  0  0  0
   14.3633  -13.2197   20.3711 C   0  0  0  0  0  0
   15.5922  -12.5740   20.9427 C   0  0  0  0  0  0
   15.9031  -12.6540   22.1393 O   0  0  0  0  0  0
   16.3539  -11.8869   20.0029 N   0  0  0  0  0  0
   15.9573  -11.8749   18.6671 C   0  0  0  0  0  0
   14.8155  -12.4876   18.2638 C   0  0  0  0  0  0
   13.9956  -13.1506   19.1341 N   0  0  0  0  0  0
   17.0017  -11.0589   17.4930 Cl  0  0  0  0  0  0
   17.5315  -11.1441   20.5127 C   0  0  0  0  0  0
   18.7732  -12.0441   20.5506 C   0  0  0  0  0  0
   19.6497  -11.9137   19.6973 O   0  0  0  0  0  0
   18.8355  -12.9183   21.5660 N   0  0  0  0  0  0
   19.9273  -13.8455   21.8580 C   0  0  0  0  0  0
   20.2871  -13.8585   23.3422 C   0  0  0  0  0  0
   19.2967  -14.0809   24.3104 C   0  0  0  0  0  0
   19.6178  -14.0664   25.6668 C   0  0  0  0  0  0
   20.9316  -13.8400   26.0711 C   0  0  0  0  0  0
   21.9280  -13.6442   25.1176 C   0  0  0  0  0  0
   21.6092  -13.6541   23.7595 C   0  0  0  0  0  0
   22.5932  -13.4536   22.8550 F   0  0  0  0  0  0
   18.0154  -14.3058   23.9409 F   0  0  0  0  0  0
   11.5920  -16.8631   20.3088 F   0  0  0  0  0  0
   12.2908  -15.5727   18.7656 F   0  0  0  0  0  0
   16.6258  -17.4634   18.2317 H   0  0  0  0  0  0
   17.3743  -18.3308   20.4372 H   0  0  0  0  0  0
   15.7956  -18.0935   22.4242 H   0  0  0  0  0  0
   14.4163  -16.3911   18.0168 H   0  0  0  0  0  0
   12.0160  -15.0935   21.9214 H   0  0  0  0  0  0
   11.6147  -14.0581   20.5887 H   0  0  0  0  0  0
   13.9499  -14.0488   22.2196 H   0  0  0  0  0  0
   14.5220  -12.4813   17.2230 H   0  0  0  0  0  0
   17.3554  -10.7676   21.5212 H   0  0  0  0  0  0
   17.7392  -10.2530   19.9303 H   0  0  0  0  0  0
   18.0104  -13.0174   22.1462 H   0  0  0  0  0  0
   20.8060  -13.6403   21.2406 H   0  0  0  0  0  0
   19.5967  -14.8466   21.5763 H   0  0  0  0  0  0
   18.8446  -14.2282   26.4038 H   0  0  0  0  0  0
   21.1780  -13.8231   27.1216 H   0  0  0  0  0  0
   22.9490  -13.4773   25.4292 H   0  0  0  0  0  0
  1  7  1  0  0  0
  1  2  2  0  0  0
  1 34  1  0  0  0
  2  3  1  0  0  0
  2 35  1  0  0  0
  3  4  2  0  0  0
  3 36  1  0  0  0
  4  5  1  0  0  0
  4  6  1  0  0  0
  6  7  2  0  0  0
  6  8  1  0  0  0
  7 37  1  0  0  0
  8  9  1  0  0  0
  8 32  1  0  0  0
  8 33  1  0  0  0
  9 10  1  0  0  0
  9 38  1  0  0  0
  9 39  1  0  0  0
 10 11  1  0  0  0
 10 40  1  0  0  0
 11 17  2  0  0  0
 11 12  1  0  0  0
 12 13  2  0  0  0
 12 14  1  0  0  0
 14 15  1  0  0  0
 14 19  1  0  0  0
 15 16  2  0  0  0
 15 18  1  0  0  0
 16 17  1  0  0  0
 16 41  1  0  0  0
 19 20  1  0  0  0
 19 42  1  0  0  0
 19 43  1  0  0  0
 20 21  2  0  0  0
 20 22  1  0  0  0
 22 23  1  0  0  0
 22 44  1  0  0  0
 23 24  1  0  0  0
 23 45  1  0  0  0
 23 46  1  0  0  0
 24 29  1  0  0  0
 24 25  2  0  0  0
 25 26  1  0  0  0
 25 31  1  0  0  0
 26 27  2  0  0  0
 26 47  1  0  0  0
 27 28  1  0  0  0
 27 48  1  0  0  0
 28 29  2  0  0  0
 28 49  1  0  0  0
 29 30  1  0  0  0
M  CHG  2   4   1   5  -1
M  END
> <s_m_entry_id>
37828

> <s_m_entry_name>
ligand_docking-pose.175

> <s_m_Source_Path>
/home/csk/Desktop/cluster/DUD-E-result/thrb

> <s_m_Source_File>
ligand_docking-pose.sdf

> <i_m_Source_File_Index>
175

> <i_lp_mmshare_version>
53161

> <i_f3d_flags>
0

> <r_lp_tautomer_probability>
1

> <s_lp_Force_Field>
OPLS_2005

> <r_lp_Energy>
26.327826

> <b_lp_Chiralities_Consistent>
1

> <s_lp_Variant>
37936-1

> <s_i_glide_gridfile>
glide-grid_1ype

> <i_i_glide_lignum>
2059

> <i_i_glide_rotatable_bonds>
9

> <r_i_docking_score>
-7.46333166398416

> <r_i_glide_ligand_efficiency>
-0.226161565575278

> <r_i_glide_ligand_efficiency_sa>
-0.725420984862825

> <r_i_glide_ligand_efficiency_ln>
-1.65980631900685

> <r_i_glide_gscore>
-7.46333166398416

> <r_i_glide_lipo>
-2.39496009692294

> <r_i_glide_hbond>
-0.471610047492697

> <r_i_glide_metal>
0

> <r_i_glide_rewards>
-1.15506304389789

> <r_i_glide_evdw>
-38.913013458252

> <r_i_glide_ecoul>
-13.9909572601318

> <r_i_glide_erotb>
0.602595786261751

> <r_i_glide_esite>
0

> <r_i_glide_emodel>
-71.888762620201

> <r_i_glide_energy>
-52.9039707183838

> <r_i_glide_einternal>
7.53829193115234

> <i_i_glide_confnum>
22

> <i_i_glide_posenum>
191

> <r_i_glide_eff_state_penalty>
0

> <s_user_duplicate_titles>
37936

> <s_m_subgroup_title>
dock_pv

> <s_m_subgroupid>
dock_pv1

> <b_m_subgroup_collapsed>
0

$$$$
405423
                    3D
 Schrodinger Suite 2021-1.
 63 66  0  0  1  0            999 V2000
   21.2682  -13.5839   25.6622 C   0  0  0  0  0  0
   22.2998  -13.7912   24.7507 C   0  0  0  0  0  0
   22.0118  -13.8528   23.3890 C   0  0  0  0  0  0
   20.6956  -13.7218   22.9338 C   0  0  0  0  0  0
   19.6640  -13.5305   23.8625 C   0  0  0  0  0  0
   19.9532  -13.4552   25.2232 C   0  0  0  0  0  0
   20.4389  -13.8020   21.4257 C   0  0  0  0  0  0
   19.0525  -13.7108   21.0840 O   0  0  0  0  0  0
   18.5012  -12.5684   20.6198 C   0  0  0  0  0  0
   19.1232  -11.5468   20.3213 O   0  0  0  0  0  0
   17.1289  -12.7468   20.5367 N   0  0  0  0  0  0
   16.1980  -11.7193   20.0419 C   0  0  2  0  0  0
   14.9709  -11.5052   20.9279 C   0  0  0  0  0  0
   14.3198  -12.5768   21.5423 C   0  0  0  0  0  0
   13.1863  -12.3573   22.3208 C   0  0  0  0  0  0
   12.7122  -11.0540   22.5589 C   0  0  0  0  0  0
   13.3702   -9.9900   21.9181 C   0  0  0  0  0  0
   14.4837  -10.2123   21.1198 C   0  0  0  0  0  0
   11.6154  -10.7774   23.5209 C   0  0  0  0  0  0
   11.4895   -9.6304   24.0250 N   0  0  0  0  0  0
   10.8158  -11.8528   23.8264 N   0  0  0  0  0  0
   15.6334  -12.1480   18.3363 P   0  0  0  0  0  0
   14.4166  -11.4536   17.8361 O   0  0  0  0  0  0
   16.9576  -11.8590   17.4340 O   0  0  0  0  0  0
   16.8283  -11.6118   16.0963 C   0  0  0  0  0  0
   16.5356  -12.6524   15.2122 C   0  0  0  0  0  0
   16.3439  -12.3795   13.8606 C   0  0  0  0  0  0
   16.4536  -11.0675   13.4019 C   0  0  0  0  0  0
   16.7569  -10.0312   14.2822 C   0  0  0  0  0  0
   16.9512  -10.3037   15.6319 C   0  0  0  0  0  0
   15.5534  -13.7808   18.3508 O   0  0  0  0  0  0
   14.4380  -14.5774   18.4630 C   0  0  0  0  0  0
   13.2248  -14.1347   19.0047 C   0  0  0  0  0  0
   12.1495  -15.0098   19.1220 C   0  0  0  0  0  0
   12.2786  -16.3248   18.6855 C   0  0  0  0  0  0
   13.4782  -16.7733   18.1375 C   0  0  0  0  0  0
   14.5567  -15.8986   18.0335 C   0  0  0  0  0  0
   21.4884  -13.5246   26.7177 H   0  0  0  0  0  0
   23.3180  -13.8900   25.0983 H   0  0  0  0  0  0
   22.8165  -13.9974   22.6870 H   0  0  0  0  0  0
   18.6377  -13.4411   23.5411 H   0  0  0  0  0  0
   19.1604  -13.2998   25.9384 H   0  0  0  0  0  0
   20.8011  -14.7685   21.0752 H   0  0  0  0  0  0
   21.0332  -13.0395   20.9184 H   0  0  0  0  0  0
   16.7664  -13.6621   20.7534 H   0  0  0  0  0  0
   16.7115  -10.7577   19.9652 H   0  0  0  0  0  0
   14.6767  -13.5875   21.4118 H   0  0  0  0  0  0
   12.7265  -13.2162   22.7904 H   0  0  0  0  0  0
   13.0470   -8.9676   22.0537 H   0  0  0  0  0  0
   14.9845   -9.3641   20.6789 H   0  0  0  0  0  0
   12.1927   -8.9845   23.7073 H   0  0  0  0  0  0
    9.9933  -11.6839   24.4010 H   0  0  0  0  0  0
   10.9351  -12.7785   23.4331 H   0  0  0  0  0  0
   16.4257  -13.6621   15.5809 H   0  0  0  0  0  0
   16.0895  -13.1767   13.1763 H   0  0  0  0  0  0
   16.2831  -10.8484   12.3564 H   0  0  0  0  0  0
   16.8178   -9.0173   13.9191 H   0  0  0  0  0  0
   17.1571   -9.5003   16.3214 H   0  0  0  0  0  0
   13.0948  -13.1111   19.3178 H   0  0  0  0  0  0
   11.2159  -14.6623   19.5375 H   0  0  0  0  0  0
   11.4393  -17.0005   18.7626 H   0  0  0  0  0  0
   13.5689  -17.7923   17.7907 H   0  0  0  0  0  0
   15.4888  -16.2439   17.6137 H   0  0  0  0  0  0
  1  6  1  0  0  0
  1  2  2  0  0  0
  1 38  1  0  0  0
  2  3  1  0  0  0
  2 39  1  0  0  0
  3  4  2  0  0  0
  3 40  1  0  0  0
  4  5  1  0  0  0
  4  7  1  0  0  0
  5  6  2  0  0  0
  5 41  1  0  0  0
  6 42  1  0  0  0
  7  8  1  0  0  0
  7 43  1  0  0  0
  7 44  1  0  0  0
  8  9  1  0  0  0
  9 10  2  0  0  0
  9 11  1  0  0  0
 11 12  1  0  0  0
 11 45  1  0  0  0
 12 13  1  0  0  0
 12 22  1  0  0  0
 12 46  1  0  0  0
 13 18  1  0  0  0
 13 14  2  0  0  0
 14 15  1  0  0  0
 14 47  1  0  0  0
 15 16  2  0  0  0
 15 48  1  0  0  0
 16 17  1  0  0  0
 16 19  1  0  0  0
 17 18  2  0  0  0
 17 49  1  0  0  0
 18 50  1  0  0  0
 19 20  2  3  0  0
 19 21  1  0  0  0
 20 51  1  0  0  0
 21 52  1  0  0  0
 21 53  1  0  0  0
 22 23  2  0  0  0
 22 24  1  0  0  0
 22 31  1  0  0  0
 24 25  1  0  0  0
 25 30  1  0  0  0
 25 26  2  0  0  0
 26 27  1  0  0  0
 26 54  1  0  0  0
 27 28  2  0  0  0
 27 55  1  0  0  0
 28 29  1  0  0  0
 28 56  1  0  0  0
 29 30  2  0  0  0
 29 57  1  0  0  0
 30 58  1  0  0  0
 31 32  1  0  0  0
 32 37  1  0  0  0
 32 33  2  0  0  0
 33 34  1  0  0  0
 33 59  1  0  0  0
 34 35  2  0  0  0
 34 60  1  0  0  0
 35 36  1  0  0  0
 35 61  1  0  0  0
 36 37  2  0  0  0
 36 62  1  0  0  0
 37 63  1  0  0  0
M  END
> <s_m_entry_id>
37829

> <s_m_entry_name>
ligand_docking-pose.176

> <s_m_Source_Path>
/home/csk/Desktop/cluster/DUD-E-result/thrb

> <s_m_Source_File>
ligand_docking-pose.sdf

> <i_m_Source_File_Index>
176

> <i_lp_mmshare_version>
53161

> <i_f3d_flags>
0

> <r_lp_tautomer_probability>
1

> <s_lp_Force_Field>
OPLS_2005

> <r_lp_Energy>
12.933198

> <b_lp_Chiralities_Consistent>
1

> <s_lp_Variant>
405423-2

> <s_i_glide_gridfile>
glide-grid_1ype

> <i_i_glide_lignum>
1486

> <i_i_glide_rotatable_bonds>
12

> <r_i_docking_score>
-7.46285487198367

> <r_i_glide_ligand_efficiency>
-0.201698780323883

> <r_i_glide_ligand_efficiency_sa>
-0.672105082436608

> <r_i_glide_ligand_efficiency_ln>
-1.6185182675924

> <r_i_glide_gscore>
-7.46285487198367

> <r_i_glide_lipo>
-3.17687911245801

> <r_i_glide_hbond>
-0.407744507606546

> <r_i_glide_metal>
0

> <r_i_glide_rewards>
-0.277062788830454

> <r_i_glide_evdw>
-53.6011276245117

> <r_i_glide_ecoul>
-9.65194320678711

> <r_i_glide_erotb>
0.617737752245449

> <r_i_glide_esite>
-0.0910583530904593

> <r_i_glide_emodel>
-86.8716037658921

> <r_i_glide_energy>
-63.2530708312988

> <r_i_glide_einternal>
8.41806316375732

> <i_i_glide_confnum>
38

> <i_i_glide_posenum>
238

> <r_i_glide_eff_state_penalty>
0

> <s_user_duplicate_titles>
405423

> <s_m_subgroup_title>
dock_pv

> <s_m_subgroupid>
dock_pv1

> <b_m_subgroup_collapsed>
0

$$$$
179681
                    3D
 Schrodinger Suite 2021-1.
 61 63  0  0  1  0            999 V2000
   12.4193  -14.7597   19.9993 C   0  0  0  0  0  0
   12.2335  -13.6474   20.8189 C   0  0  0  0  0  0
   13.0209  -12.4979   20.6587 C   0  0  0  0  0  0
   14.0062  -12.4839   19.6573 C   0  0  0  0  0  0
   14.1791  -13.6004   18.8306 C   0  0  0  0  0  0
   13.3930  -14.7360   19.0060 C   0  0  0  0  0  0
   13.6148  -16.1037   17.9815 Cl  0  0  0  0  0  0
   14.8685  -11.2458   19.4324 C   0  0  0  0  0  0
   16.2198  -11.3592   19.9728 N   0  0  0  0  0  0
   17.2807  -11.8528   19.3108 C   0  0  0  0  0  0
   17.2496  -12.1817   18.1242 O   0  0  0  0  0  0
   18.5930  -11.9849   20.1184 C   0  0  2  0  0  0
   19.8542  -12.0351   19.2256 C   0  0  0  0  0  0
   20.8399  -12.8943   19.9862 C   0  0  0  0  0  0
   19.9348  -13.9327   20.6262 C   0  0  0  0  0  0
   18.7017  -13.2043   20.9526 N   0  0  0  0  0  0
   17.8401  -13.5084   21.9641 C   0  0  0  0  0  0
   16.8914  -12.7889   22.2936 O   0  0  0  0  0  0
   18.1091  -14.7862   22.8063 C   0  0  1  0  0  0
   18.7118  -14.4324   24.2047 C   0  0  0  0  0  0
   19.0352  -15.6766   25.0621 C   0  0  0  0  0  0
   19.3581  -15.2383   26.5073 C   0  0  0  0  0  0
   20.5593  -14.2546   26.5276 C   0  0  0  0  0  0
   20.3925  -13.0789   25.5448 C   0  0  0  0  0  0
   20.0350  -13.6141   24.1474 C   0  0  0  0  0  0
   16.8334  -15.5340   22.8853 N   0  0  0  0  0  0
   12.8689  -11.3559   21.4212 O   0  0  0  0  0  0
   11.8806  -11.2960   22.4499 C   0  0  0  0  0  0
   12.0200   -9.9433   23.1600 C   0  0  0  0  0  0
   12.7926   -9.0567   22.7931 O   0  0  0  0  0  0
   11.2155   -9.8525   24.2614 O   0  0  0  0  0  0
   18.6794  -11.1301   20.7939 H   0  0  0  0  0  0
   18.8035  -15.4523   22.2954 H   0  0  0  0  0  0
   11.7968  -15.6331   20.1300 H   0  0  0  0  0  0
   11.4601  -13.6947   21.5647 H   0  0  0  0  0  0
   14.9295  -13.5876   18.0548 H   0  0  0  0  0  0
   14.3860  -10.3598   19.8447 H   0  0  0  0  0  0
   14.9207  -11.0736   18.3562 H   0  0  0  0  0  0
   16.3205  -11.2073   20.9686 H   0  0  0  0  0  0
   20.2734  -11.0524   19.0188 H   0  0  0  0  0  0
   19.6645  -12.5219   18.2660 H   0  0  0  0  0  0
   21.3290  -12.2958   20.7584 H   0  0  0  0  0  0
   21.6151  -13.3255   19.3539 H   0  0  0  0  0  0
   20.4527  -14.3810   21.4707 H   0  0  0  0  0  0
   19.6973  -14.7298   19.9213 H   0  0  0  0  0  0
   17.9451  -13.8536   24.7259 H   0  0  0  0  0  0
   19.8265  -16.2772   24.6099 H   0  0  0  0  0  0
   18.1738  -16.3444   25.0834 H   0  0  0  0  0  0
   19.5767  -16.1141   27.1145 H   0  0  0  0  0  0
   18.4865  -14.7622   26.9602 H   0  0  0  0  0  0
   21.4682  -14.8023   26.2681 H   0  0  0  0  0  0
   20.7337  -13.8529   27.5208 H   0  0  0  0  0  0
   21.3125  -12.4956   25.5141 H   0  0  0  0  0  0
   19.6172  -12.4021   25.8996 H   0  0  0  0  0  0
   19.9306  -12.7543   23.4862 H   0  0  0  0  0  0
   20.8469  -14.2007   23.7119 H   0  0  0  0  0  0
   16.1726  -15.0597   23.5055 H   0  0  0  0  0  0
   16.3809  -15.6011   21.9856 H   0  0  0  0  0  0
   10.8802  -11.3766   22.0228 H   0  0  0  0  0  0
   12.0427  -12.0944   23.1746 H   0  0  0  0  0  0
   10.5611  -10.5505   24.3649 H   0  0  0  0  0  0
  1  6  1  0  0  0
  1  2  2  0  0  0
  1 34  1  0  0  0
  2  3  1  0  0  0
  2 35  1  0  0  0
  3  4  2  0  0  0
  3 27  1  0  0  0
  4  5  1  0  0  0
  4  8  1  0  0  0
  5  6  2  0  0  0
  5 36  1  0  0  0
  6  7  1  0  0  0
  8  9  1  0  0  0
  8 37  1  0  0  0
  8 38  1  0  0  0
  9 10  1  0  0  0
  9 39  1  0  0  0
 10 11  2  0  0  0
 10 12  1  0  0  0
 12 32  1  0  0  0
 12 16  1  0  0  0
 12 13  1  0  0  0
 13 14  1  0  0  0
 13 40  1  0  0  0
 13 41  1  0  0  0
 14 15  1  0  0  0
 14 42  1  0  0  0
 14 43  1  0  0  0
 15 16  1  0  0  0
 15 44  1  0  0  0
 15 45  1  0  0  0
 16 17  1  0  0  0
 17 18  2  0  0  0
 17 19  1  0  0  0
 19 33  1  0  0  0
 19 20  1  0  0  0
 19 26  1  0  0  0
 20 25  1  0  0  0
 20 21  1  0  0  0
 20 46  1  0  0  0
 21 22  1  0  0  0
 21 47  1  0  0  0
 21 48  1  0  0  0
 22 23  1  0  0  0
 22 49  1  0  0  0
 22 50  1  0  0  0
 23 24  1  0  0  0
 23 51  1  0  0  0
 23 52  1  0  0  0
 24 25  1  0  0  0
 24 53  1  0  0  0
 24 54  1  0  0  0
 25 55  1  0  0  0
 25 56  1  0  0  0
 26 57  1  0  0  0
 26 58  1  0  0  0
 27 28  1  0  0  0
 28 29  1  0  0  0
 28 59  1  0  0  0
 28 60  1  0  0  0
 29 30  2  0  0  0
 29 31  1  0  0  0
 31 61  1  0  0  0
M  END
> <s_m_entry_id>
37830

> <s_m_entry_name>
ligand_docking-pose.177

> <s_m_Source_Path>
/home/csk/Desktop/cluster/DUD-E-result/thrb

> <s_m_Source_File>
ligand_docking-pose.sdf

> <i_m_Source_File_Index>
177

> <i_lp_mmshare_version>
53161

> <i_f3d_flags>
0

> <r_lp_tautomer_probability>
1

> <s_lp_Force_Field>
OPLS_2005

> <r_lp_Energy>
29.895598

> <b_lp_Chiralities_Consistent>
1

> <s_lp_Variant>
179681-1

> <s_i_glide_gridfile>
glide-grid_1ype

> <i_i_glide_lignum>
1271

> <i_i_glide_rotatable_bonds>
11

> <r_i_docking_score>
-7.45845220477544

> <r_i_glide_ligand_efficiency>
-0.240595232412111

> <r_i_glide_ligand_efficiency_sa>
-0.755801207291879

> <r_i_glide_ligand_efficiency_ln>
-1.68210954628623

> <r_i_glide_gscore>
-7.45845220477544

> <r_i_glide_lipo>
-3.17517695786772

> <r_i_glide_hbond>
-0.321923662542534

> <r_i_glide_metal>
0

> <r_i_glide_rewards>
-1.36243920253094

> <r_i_glide_evdw>
-45.1266899108887

> <r_i_glide_ecoul>
-8.8316650390625

> <r_i_glide_erotb>
0.982171869569555

> <r_i_glide_esite>
0

> <r_i_glide_emodel>
-75.8058124228907

> <r_i_glide_energy>
-53.9583549499512

> <r_i_glide_einternal>
6.38073396682739

> <i_i_glide_confnum>
346

> <i_i_glide_posenum>
84

> <r_i_glide_eff_state_penalty>
0

> <s_user_duplicate_titles>
179681

> <s_m_subgroup_title>
dock_pv

> <s_m_subgroupid>
dock_pv1

> <b_m_subgroup_collapsed>
0

$$$$
60903
                    3D
 Schrodinger Suite 2021-1.
 53 55  0  0  1  0            999 V2000
   20.9599  -12.5941   19.9805 C   0  0  0  0  0  0
   19.8019  -13.0527   20.8480 C   0  0  0  0  0  0
   18.5555  -12.4249   20.7563 C   0  0  0  0  0  0
   17.4833  -12.8419   21.5631 C   0  0  0  0  0  0
   17.6949  -13.8693   22.4838 C   0  0  0  0  0  0
   18.9413  -14.4870   22.5972 C   0  0  0  0  0  0
   19.9889  -14.0846   21.7686 C   0  0  0  0  0  0
   19.1229  -15.5026   23.4999 O   0  0  0  0  0  0
   19.5180  -15.0937   25.0754 S   0  0  0  0  0  0
   18.8172  -13.8544   25.4263 O   0  0  0  0  0  0
   19.3916  -16.2999   25.9008 O   0  0  0  0  0  0
   21.2821  -14.7947   24.8537 C   0  0  0  0  0  0
   22.0039  -15.7629   24.1448 C   0  0  0  0  0  0
   23.3714  -15.6113   23.9217 C   0  0  0  0  0  0
   24.0334  -14.4840   24.4016 C   0  0  0  0  0  0
   23.3269  -13.5224   25.1204 C   0  0  0  0  0  0
   21.9603  -13.6737   25.3675 C   0  0  0  0  0  0
   21.1886  -12.4604   26.3265 Cl  0  0  0  0  0  0
   16.2110  -12.3069   21.5211 O   0  0  0  0  0  0
   15.8326  -11.4453   20.4488 C   0  0  0  0  0  0
   14.3081  -11.5613   20.2486 C   0  0  1  0  0  0
   13.8424  -12.9424   19.7394 C   0  0  0  0  0  0
   12.4033  -13.2570   20.1355 C   0  0  0  0  0  0
   12.1823  -13.0283   21.6366 C   0  0  0  0  0  0
   12.4160  -11.6348   22.0559 N   0  0  0  0  0  0
   13.4242  -10.8448   21.3173 C   0  0  0  0  0  0
   11.6719  -11.0135   23.1194 C   0  0  0  0  0  0
   11.7493   -9.7987   23.4283 N   0  0  0  0  0  0
   10.8160  -11.8530   23.8536 N   0  0  0  0  0  0
   21.8933  -12.6287   20.5438 H   0  0  0  0  0  0
   21.0659  -13.2388   19.1075 H   0  0  0  0  0  0
   20.8314  -11.5621   19.6534 H   0  0  0  0  0  0
   18.4342  -11.6121   20.0579 H   0  0  0  0  0  0
   16.8824  -14.1953   23.1174 H   0  0  0  0  0  0
   20.9497  -14.5717   21.8447 H   0  0  0  0  0  0
   21.5015  -16.6407   23.7628 H   0  0  0  0  0  0
   23.9147  -16.3710   23.3786 H   0  0  0  0  0  0
   25.0945  -14.3614   24.2346 H   0  0  0  0  0  0
   23.8514  -12.6599   25.5029 H   0  0  0  0  0  0
   16.3152  -11.7238   19.5101 H   0  0  0  0  0  0
   16.1280  -10.4195   20.6768 H   0  0  0  0  0  0
   14.1372  -10.9309   19.3749 H   0  0  0  0  0  0
   14.4195  -13.7014   20.2717 H   0  0  0  0  0  0
   14.0502  -13.0962   18.6793 H   0  0  0  0  0  0
   12.1708  -14.2932   19.8852 H   0  0  0  0  0  0
   11.7035  -12.6527   19.5598 H   0  0  0  0  0  0
   12.8624  -13.6576   22.2136 H   0  0  0  0  0  0
   11.1727  -13.3557   21.8799 H   0  0  0  0  0  0
   12.8468  -10.0675   20.8130 H   0  0  0  0  0  0
   14.0580  -10.3165   22.0313 H   0  0  0  0  0  0
   11.1277   -9.5921   24.1974 H   0  0  0  0  0  0
   10.1718  -11.4994   24.5515 H   0  0  0  0  0  0
   10.7009  -12.8361   23.6337 H   0  0  0  0  0  0
  1  2  1  0  0  0
  1 30  1  0  0  0
  1 31  1  0  0  0
  1 32  1  0  0  0
  2  7  1  0  0  0
  2  3  2  0  0  0
  3  4  1  0  0  0
  3 33  1  0  0  0
  4  5  2  0  0  0
  4 19  1  0  0  0
  5  6  1  0  0  0
  5 34  1  0  0  0
  6  7  2  0  0  0
  6  8  1  0  0  0
  7 35  1  0  0  0
  8  9  1  0  0  0
  9 10  2  0  0  0
  9 11  2  0  0  0
  9 12  1  0  0  0
 12 17  1  0  0  0
 12 13  2  0  0  0
 13 14  1  0  0  0
 13 36  1  0  0  0
 14 15  2  0  0  0
 14 37  1  0  0  0
 15 16  1  0  0  0
 15 38  1  0  0  0
 16 17  2  0  0  0
 16 39  1  0  0  0
 17 18  1  0  0  0
 19 20  1  0  0  0
 20 21  1  0  0  0
 20 40  1  0  0  0
 20 41  1  0  0  0
 21 26  1  0  0  0
 21 22  1  0  0  0
 21 42  1  0  0  0
 22 23  1  0  0  0
 22 43  1  0  0  0
 22 44  1  0  0  0
 23 24  1  0  0  0
 23 45  1  0  0  0
 23 46  1  0  0  0
 24 25  1  0  0  0
 24 47  1  0  0  0
 24 48  1  0  0  0
 25 26  1  0  0  0
 25 27  1  0  0  0
 26 49  1  0  0  0
 26 50  1  0  0  0
 27 28  2  3  0  0
 27 29  1  0  0  0
 28 51  1  0  0  0
 29 52  1  0  0  0
 29 53  1  0  0  0
M  END
> <s_m_entry_id>
37832

> <s_m_entry_name>
ligand_docking-pose.179

> <s_m_Source_Path>
/home/csk/Desktop/cluster/DUD-E-result/thrb

> <s_m_Source_File>
ligand_docking-pose.sdf

> <i_m_Source_File_Index>
179

> <i_lp_mmshare_version>
53161

> <i_f3d_flags>
0

> <r_lp_tautomer_probability>
1

> <s_lp_Force_Field>
OPLS_2005

> <r_lp_Energy>
23.751844

> <b_lp_Chiralities_Consistent>
1

> <s_lp_Variant>
60903-3

> <s_i_glide_gridfile>
glide-grid_1ype

> <i_i_glide_lignum>
2469

> <i_i_glide_rotatable_bonds>
7

> <r_i_docking_score>
-7.45452173056994

> <r_i_glide_ligand_efficiency>
-0.257052473467929

> <r_i_glide_ligand_efficiency_sa>
-0.789746638433247

> <r_i_glide_ligand_efficiency_ln>
-1.70689644593942

> <r_i_glide_gscore>
-7.45452173056994

> <r_i_glide_lipo>
-3.35882156866343

> <r_i_glide_hbond>
-0.389912898975373

> <r_i_glide_metal>
0

> <r_i_glide_rewards>
-1.02155631445982

> <r_i_glide_evdw>
-46.444408416748

> <r_i_glide_ecoul>
-6.08687686920166

> <r_i_glide_erotb>
0.62397495017276

> <r_i_glide_esite>
-0.0729539474264285

> <r_i_glide_emodel>
-68.4955617246687

> <r_i_glide_energy>
-52.5312852859497

> <r_i_glide_einternal>
12.58629322052

> <i_i_glide_confnum>
95

> <i_i_glide_posenum>
133

> <r_i_glide_eff_state_penalty>
0

> <s_user_duplicate_titles>
60903

> <s_m_subgroup_title>
dock_pv

> <s_m_subgroupid>
dock_pv1

> <b_m_subgroup_collapsed>
0

$$$$
549366
                    3D
 Schrodinger Suite 2021-1.
 60 62  0  0  1  0            999 V2000
   20.8148  -13.4342   18.8882 C   0  0  0  0  0  0
   20.0771  -13.8646   20.1488 C   0  0  0  0  0  0
   20.4153  -15.0914   20.7222 C   0  0  0  0  0  0
   19.7272  -15.5736   21.8300 C   0  0  0  0  0  0
   18.7014  -14.8229   22.4088 C   0  0  0  0  0  0
   18.3355  -13.6020   21.8203 C   0  0  0  0  0  0
   19.0326  -13.1018   20.7015 C   0  0  0  0  0  0
   18.6161  -11.7675   20.0659 C   0  0  0  0  0  0
   17.3756  -11.9667   19.1903 C   0  0  0  0  0  0
   17.4389  -12.6123   18.1456 O   0  0  0  0  0  0
   16.2436  -11.4464   19.6735 N   0  0  0  0  0  0
   14.8994  -11.7035   19.1664 C   0  0  0  0  0  0
   13.8716  -11.4440   20.2580 C   0  0  0  0  0  0
   12.9571  -12.4334   20.6127 C   0  0  0  0  0  0
   12.0924  -12.2282   21.6833 C   0  0  0  0  0  0
   12.1143  -11.0300   22.4264 C   0  0  0  0  0  0
   13.0137  -10.0306   22.0159 C   0  0  0  0  0  0
   13.8837  -10.2346   20.9554 C   0  0  0  0  0  0
   11.2480  -10.8092   23.6198 C   0  0  0  0  0  0
   11.3072   -9.7396   24.2845 N   0  0  0  0  0  0
   10.4162  -11.8530   23.9210 N   0  0  0  0  0  0
   17.2575  -12.9102   22.3205 O   0  0  0  0  0  0
   18.0327  -15.2632   23.5648 N   0  0  0  0  0  0
   18.8844  -16.0364   24.9142 S   0  0  0  0  0  0
   18.0161  -15.8832   26.0860 O   0  0  0  0  0  0
   19.3167  -17.3611   24.4544 O   0  0  0  0  0  0
   20.3482  -15.0404   25.1835 C   0  0  0  0  0  0
   20.2792  -13.8746   25.9488 C   0  0  0  0  0  0
   21.4157  -13.0853   26.1098 C   0  0  0  0  0  0
   22.6161  -13.4527   25.4963 C   0  0  0  0  0  0
   22.6956  -14.6090   24.7066 C   0  0  0  0  0  0
   21.5560  -15.4022   24.5759 C   0  0  0  0  0  0
   23.8257  -15.0198   24.0239 O   0  0  0  0  0  0
   25.0100  -14.2322   24.1004 C   0  0  0  0  0  0
   21.2157  -14.2987   18.3624 H   0  0  0  0  0  0
   20.1459  -12.9643   18.1695 H   0  0  0  0  0  0
   21.6198  -12.7395   19.1238 H   0  0  0  0  0  0
   21.2105  -15.6877   20.2971 H   0  0  0  0  0  0
   20.0058  -16.5344   22.2339 H   0  0  0  0  0  0
   19.4136  -11.3244   19.4737 H   0  0  0  0  0  0
   18.4299  -11.0361   20.8555 H   0  0  0  0  0  0
   16.3106  -10.7321   20.3828 H   0  0  0  0  0  0
   14.8165  -12.7268   18.7899 H   0  0  0  0  0  0
   14.6968  -11.0530   18.3166 H   0  0  0  0  0  0
   12.9321  -13.3773   20.0870 H   0  0  0  0  0  0
   11.4181  -13.0359   21.9321 H   0  0  0  0  0  0
   13.0806   -9.0857   22.5349 H   0  0  0  0  0  0
   14.5890   -9.4549   20.7092 H   0  0  0  0  0  0
   11.9805   -9.0858   23.9230 H   0  0  0  0  0  0
    9.6923  -11.7118   24.6261 H   0  0  0  0  0  0
   10.5171  -12.7783   23.5214 H   0  0  0  0  0  0
   16.9565  -12.2319   21.7129 H   0  0  0  0  0  0
   17.2858  -14.6485   23.8573 H   0  0  0  0  0  0
   19.3499  -13.5777   26.4150 H   0  0  0  0  0  0
   21.3612  -12.1817   26.7006 H   0  0  0  0  0  0
   23.4747  -12.8130   25.6222 H   0  0  0  0  0  0
   21.6158  -16.2976   23.9751 H   0  0  0  0  0  0
   25.7877  -14.6877   23.4871 H   0  0  0  0  0  0
   24.8433  -13.2199   23.7279 H   0  0  0  0  0  0
   25.3909  -14.1809   25.1198 H   0  0  0  0  0  0
  1  2  1  0  0  0
  1 35  1  0  0  0
  1 36  1  0  0  0
  1 37  1  0  0  0
  2  7  1  0  0  0
  2  3  2  0  0  0
  3  4  1  0  0  0
  3 38  1  0  0  0
  4  5  2  0  0  0
  4 39  1  0  0  0
  5  6  1  0  0  0
  5 23  1  0  0  0
  6  7  2  0  0  0
  6 22  1  0  0  0
  7  8  1  0  0  0
  8  9  1  0  0  0
  8 40  1  0  0  0
  8 41  1  0  0  0
  9 10  2  0  0  0
  9 11  1  0  0  0
 11 12  1  0  0  0
 11 42  1  0  0  0
 12 13  1  0  0  0
 12 43  1  0  0  0
 12 44  1  0  0  0
 13 18  1  0  0  0
 13 14  2  0  0  0
 14 15  1  0  0  0
 14 45  1  0  0  0
 15 16  2  0  0  0
 15 46  1  0  0  0
 16 17  1  0  0  0
 16 19  1  0  0  0
 17 18  2  0  0  0
 17 47  1  0  0  0
 18 48  1  0  0  0
 19 20  2  3  0  0
 19 21  1  0  0  0
 20 49  1  0  0  0
 21 50  1  0  0  0
 21 51  1  0  0  0
 22 52  1  0  0  0
 23 24  1  0  0  0
 23 53  1  0  0  0
 24 25  2  0  0  0
 24 26  2  0  0  0
 24 27  1  0  0  0
 27 32  1  0  0  0
 27 28  2  0  0  0
 28 29  1  0  0  0
 28 54  1  0  0  0
 29 30  2  0  0  0
 29 55  1  0  0  0
 30 31  1  0  0  0
 30 56  1  0  0  0
 31 32  2  0  0  0
 31 33  1  0  0  0
 32 57  1  0  0  0
 33 34  1  0  0  0
 34 58  1  0  0  0
 34 59  1  0  0  0
 34 60  1  0  0  0
M  END
> <s_m_entry_id>
37833

> <s_m_entry_name>
ligand_docking-pose.180

> <s_m_Source_Path>
/home/csk/Desktop/cluster/DUD-E-result/thrb

> <s_m_Source_File>
ligand_docking-pose.sdf

> <i_m_Source_File_Index>
180

> <i_lp_mmshare_version>
53161

> <i_f3d_flags>
0

> <r_lp_tautomer_probability>
1

> <s_lp_Force_Field>
OPLS_2005

> <r_lp_Energy>
14.150591

> <b_lp_Chiralities_Consistent>
1

> <s_lp_Variant>
549366-2

> <s_i_glide_gridfile>
glide-grid_1ype

> <i_i_glide_lignum>
2360

> <i_i_glide_rotatable_bonds>
11

> <r_i_docking_score>
-7.44880287737949

> <r_i_glide_ligand_efficiency>
-0.219082437569985

> <r_i_glide_ligand_efficiency_sa>
-0.709742049370092

> <r_i_glide_ligand_efficiency_ln>
-1.64564948745685

> <r_i_glide_gscore>
-7.44880287737949

> <r_i_glide_lipo>
-3.81540519994943

> <r_i_glide_hbond>
-0.466562412376496

> <r_i_glide_metal>
0

> <r_i_glide_rewards>
0.325363895531626

> <r_i_glide_evdw>
-52.8727264404297

> <r_i_glide_ecoul>
-9.40874862670898

> <r_i_glide_erotb>
0.697229160485134

> <r_i_glide_esite>
-0.134479705042492

> <r_i_glide_emodel>
-83.8187388805669

> <r_i_glide_energy>
-62.2814750671387

> <r_i_glide_einternal>
6.42150974273682

> <i_i_glide_confnum>
45

> <i_i_glide_posenum>
30

> <r_i_glide_eff_state_penalty>
0

> <s_user_duplicate_titles>
549366

> <s_m_subgroup_title>
dock_pv

> <s_m_subgroupid>
dock_pv1

> <b_m_subgroup_collapsed>
0

$$$$
19235
                    3D
 Schrodinger Suite 2021-1.
 61 63  0  0  1  0            999 V2000
   24.3748  -13.4506   24.6919 C   0  0  0  0  0  0
   23.2929  -14.4761   25.0710 C   0  0  0  0  0  0
   21.9114  -14.1047   24.5487 C   0  0  0  0  0  0
   20.8733  -13.8023   25.4310 C   0  0  0  0  0  0
   19.6166  -13.4648   24.9355 C   0  0  0  0  0  0
   19.3954  -13.4047   23.5590 C   0  0  0  0  0  0
   20.4259  -13.6895   22.6487 C   0  0  0  0  0  0
   21.6735  -14.0635   23.1721 C   0  0  0  0  0  0
   20.2393  -13.5578   21.2367 N   0  0  0  0  0  0
   21.3860  -13.0489   20.4413 C   0  0  0  0  0  0
   21.2116  -11.6916   19.7307 C   0  0  0  0  0  0
   19.0740  -13.8432   20.5663 C   0  0  0  0  0  0
   18.8056  -13.2936   19.4966 O   0  0  0  0  0  0
   18.0893  -14.7895   21.0898 C   0  0  0  0  0  0
   18.3862  -15.8372   21.8896 C   0  0  0  0  0  0
   17.1627  -16.6731   22.2018 C   0  0  0  0  0  0
   16.0109  -15.8959   21.5652 C   0  0  0  0  0  0
   16.6301  -14.8458   20.6364 C   0  0  1  0  0  0
   15.9165  -13.4754   20.7272 C   0  0  0  0  0  0
   16.0153  -12.7902   21.7482 O   0  0  0  0  0  0
   15.2589  -13.0779   19.6213 N   0  0  0  0  0  0
   14.6852  -11.7525   19.3727 C   0  0  0  0  0  0
   13.8721  -11.1507   20.5115 C   0  0  0  0  0  0
   14.3026   -9.9749   21.1208 C   0  0  0  0  0  0
   13.5970   -9.4512   22.1928 C   0  0  0  0  0  0
   12.4505  -10.0919   22.6978 C   0  0  0  0  0  0
   12.0210  -11.2663   22.0469 C   0  0  0  0  0  0
   12.7203  -11.7887   20.9652 C   0  0  0  0  0  0
   11.7491   -9.5392   23.8892 C   0  0  0  0  0  0
   12.0161   -8.3868   24.3270 N   0  0  0  0  0  0
   10.8160  -10.3822   24.4268 N   0  0  0  0  0  0
   25.3494  -13.7623   25.0677 H   0  0  0  0  0  0
   24.1537  -12.4701   25.1138 H   0  0  0  0  0  0
   24.4660  -13.3339   23.6117 H   0  0  0  0  0  0
   23.5598  -15.4572   24.6754 H   0  0  0  0  0  0
   23.2658  -14.5912   26.1564 H   0  0  0  0  0  0
   21.0338  -13.8287   26.4997 H   0  0  0  0  0  0
   18.8150  -13.2321   25.6202 H   0  0  0  0  0  0
   18.4205  -13.1018   23.2034 H   0  0  0  0  0  0
   22.4773  -14.3354   22.5113 H   0  0  0  0  0  0
   22.2842  -12.9577   21.0472 H   0  0  0  0  0  0
   21.6156  -13.8045   19.6897 H   0  0  0  0  0  0
   22.1901  -11.2658   19.5123 H   0  0  0  0  0  0
   20.7003  -11.8054   18.7752 H   0  0  0  0  0  0
   20.6490  -10.9712   20.3211 H   0  0  0  0  0  0
   19.3561  -16.0982   22.2901 H   0  0  0  0  0  0
   17.2703  -17.6596   21.7509 H   0  0  0  0  0  0
   17.0111  -16.8071   23.2731 H   0  0  0  0  0  0
   15.3556  -16.5697   21.0113 H   0  0  0  0  0  0
   15.3861  -15.4468   22.3371 H   0  0  0  0  0  0
   16.5744  -15.1791   19.5988 H   0  0  0  0  0  0
   15.2831  -13.6978   18.8261 H   0  0  0  0  0  0
   15.4897  -11.0784   19.0722 H   0  0  0  0  0  0
   14.0344  -11.8360   18.5013 H   0  0  0  0  0  0
   15.2025   -9.4771   20.7867 H   0  0  0  0  0  0
   13.9893   -8.5554   22.6519 H   0  0  0  0  0  0
   11.1408  -11.8042   22.3697 H   0  0  0  0  0  0
   12.3796  -12.7030   20.5007 H   0  0  0  0  0  0
   12.7407   -7.9300   23.7993 H   0  0  0  0  0  0
   10.1547  -10.0202   25.1109 H   0  0  0  0  0  0
   10.5441  -11.2258   23.9482 H   0  0  0  0  0  0
  1  2  1  0  0  0
  1 32  1  0  0  0
  1 33  1  0  0  0
  1 34  1  0  0  0
  2  3  1  0  0  0
  2 35  1  0  0  0
  2 36  1  0  0  0
  3  8  1  0  0  0
  3  4  2  0  0  0
  4  5  1  0  0  0
  4 37  1  0  0  0
  5  6  2  0  0  0
  5 38  1  0  0  0
  6  7  1  0  0  0
  6 39  1  0  0  0
  7  8  2  0  0  0
  7  9  1  0  0  0
  8 40  1  0  0  0
  9 10  1  0  0  0
  9 12  1  0  0  0
 10 11  1  0  0  0
 10 41  1  0  0  0
 10 42  1  0  0  0
 11 43  1  0  0  0
 11 44  1  0  0  0
 11 45  1  0  0  0
 12 13  2  0  0  0
 12 14  1  0  0  0
 14 18  1  0  0  0
 14 15  2  0  0  0
 15 16  1  0  0  0
 15 46  1  0  0  0
 16 17  1  0  0  0
 16 47  1  0  0  0
 16 48  1  0  0  0
 17 18  1  0  0  0
 17 49  1  0  0  0
 17 50  1  0  0  0
 18 19  1  0  0  0
 18 51  1  0  0  0
 19 20  2  0  0  0
 19 21  1  0  0  0
 21 22  1  0  0  0
 21 52  1  0  0  0
 22 23  1  0  0  0
 22 53  1  0  0  0
 22 54  1  0  0  0
 23 28  1  0  0  0
 23 24  2  0  0  0
 24 25  1  0  0  0
 24 55  1  0  0  0
 25 26  2  0  0  0
 25 56  1  0  0  0
 26 27  1  0  0  0
 26 29  1  0  0  0
 27 28  2  0  0  0
 27 57  1  0  0  0
 28 58  1  0  0  0
 29 30  2  3  0  0
 29 31  1  0  0  0
 30 59  1  0  0  0
 31 60  1  0  0  0
 31 61  1  0  0  0
M  END
> <s_m_entry_id>
37834

> <s_m_entry_name>
ligand_docking-pose.181

> <s_m_Source_Path>
/home/csk/Desktop/cluster/DUD-E-result/thrb

> <s_m_Source_File>
ligand_docking-pose.sdf

> <i_m_Source_File_Index>
181

> <i_lp_mmshare_version>
53161

> <i_f3d_flags>
0

> <r_lp_tautomer_probability>
1

> <s_lp_Force_Field>
OPLS_2005

> <r_lp_Energy>
43.826518

> <b_lp_Chiralities_Consistent>
1

> <s_lp_Variant>
19235-2

> <s_i_glide_gridfile>
glide-grid_1ype

> <i_i_glide_lignum>
3188

> <i_i_glide_rotatable_bonds>
10

> <r_i_docking_score>
-7.44818190889173

> <r_i_glide_ligand_efficiency>
-0.240263932544894

> <r_i_glide_ligand_efficiency_sa>
-0.754760468300056

> <r_i_glide_ligand_efficiency_ln>
-1.67979327981768

> <r_i_glide_gscore>
-7.44818190889173

> <r_i_glide_lipo>
-3.83137728252107

> <r_i_glide_hbond>
-0.156964366614191

> <r_i_glide_metal>
0

> <r_i_glide_rewards>
-1.00209578536483

> <r_i_glide_evdw>
-47.4767608642578

> <r_i_glide_ecoul>
-5.24737644195557

> <r_i_glide_erotb>
0.790243996598261

> <r_i_glide_esite>
-0.0870439614836716

> <r_i_glide_emodel>
-71.0538928156309

> <r_i_glide_energy>
-52.7241373062134

> <r_i_glide_einternal>
10.6036605834961

> <i_i_glide_confnum>
33

> <i_i_glide_posenum>
162

> <r_i_glide_eff_state_penalty>
0

> <s_user_duplicate_titles>
19235

> <s_m_subgroup_title>
dock_pv

> <s_m_subgroupid>
dock_pv1

> <b_m_subgroup_collapsed>
0

$$$$
111508
                    3D
 Schrodinger Suite 2021-1.
 72 76  0  0  1  0            999 V2000
   20.3744  -13.5873   26.2379 C   0  0  0  0  0  0
   19.2181  -14.3513   26.3010 C   0  0  0  0  0  0
   18.7322  -15.0018   25.1733 C   0  0  0  0  0  0
   19.4201  -14.9299   23.9281 C   0  0  0  0  0  0
   20.5865  -14.0979   23.8638 C   0  0  0  0  0  0
   21.0560  -13.4529   25.0360 C   0  0  0  0  0  0
   21.2597  -13.9339   22.6314 C   0  0  0  0  0  0
   20.8159  -14.5960   21.4952 C   0  0  0  0  0  0
   19.7239  -15.4489   21.5580 C   0  0  0  0  0  0
   19.0081  -15.6315   22.7442 C   0  0  0  0  0  0
   17.6977  -16.8740   22.7306 S   0  0  0  0  0  0
   17.6386  -17.5090   24.0505 O   0  0  0  0  0  0
   17.8960  -17.7131   21.5425 O   0  0  0  0  0  0
   16.2201  -15.9532   22.5093 N   0  0  2  0  0  0
   15.8557  -15.4385   21.1692 C   0  0  1  0  0  0
   14.4433  -15.9550   20.7943 C   0  0  0  0  0  0
   13.8575  -15.4038   19.4751 C   0  0  0  0  0  0
   14.9029  -15.2469   18.3528 C   0  0  0  0  0  0
   16.0158  -14.1860   18.6048 C   0  0  1  0  0  0
   16.1900  -13.1594   17.4756 C   0  0  0  0  0  0
   16.7124  -11.9109   18.1730 C   0  0  0  0  0  0
   15.9988  -11.9559   19.5318 C   0  0  2  0  0  0
   15.9488  -13.3918   19.8491 N   0  0  0  0  0  0
   16.0290  -13.8936   21.1172 C   0  0  0  0  0  0
   16.1802  -13.1903   22.1216 O   0  0  0  0  0  0
   14.5434  -11.4530   19.4857 C   0  0  0  0  0  0
   14.0160  -11.1048   18.4254 O   0  0  0  0  0  0
   13.8533  -11.5685   20.6237 N   0  0  0  0  0  0
   12.4160  -11.3947   20.7019 C   0  0  1  0  0  0
   11.7885  -12.3489   21.7264 C   0  0  0  0  0  0
   11.8582  -11.7807   23.1214 C   0  0  0  0  0  0
   11.4771  -10.2996   23.2872 C   0  0  0  0  0  0
   12.2332   -9.4874   22.3308 N   0  0  0  0  0  0
   11.9892   -9.9222   20.9521 C   0  0  1  0  0  0
   12.4160   -9.0511   19.9210 O   0  0  0  0  0  0
   13.3780   -8.7387   22.7150 C   0  0  0  0  0  0
   14.4160   -8.6539   21.9995 N   0  0  0  0  0  0
   13.2160   -8.0242   23.9210 N   0  0  0  0  0  0
   16.5748  -15.8679   20.4729 H   0  0  0  0  0  0
   16.9787  -14.6530   18.6980 H   0  0  0  0  0  0
   16.4801  -11.3745   20.3206 H   0  0  0  0  0  0
   12.0161  -11.7259   19.7431 H   0  0  0  0  0  0
   20.7343  -13.0818   27.1222 H   0  0  0  0  0  0
   18.6779  -14.4323   27.2311 H   0  0  0  0  0  0
   17.8112  -15.5510   25.2697 H   0  0  0  0  0  0
   21.9513  -12.8518   24.9969 H   0  0  0  0  0  0
   22.1293  -13.2946   22.5780 H   0  0  0  0  0  0
   21.3446  -14.4742   20.5613 H   0  0  0  0  0  0
   19.4372  -15.9782   20.6610 H   0  0  0  0  0  0
   15.8383  -15.4498   23.3214 H   0  0  0  0  0  0
   14.4837  -17.0439   20.7280 H   0  0  0  0  0  0
   13.7415  -15.7384   21.6027 H   0  0  0  0  0  0
   13.0535  -16.0600   19.1382 H   0  0  0  0  0  0
   13.3834  -14.4375   19.6561 H   0  0  0  0  0  0
   14.3889  -15.0460   17.4112 H   0  0  0  0  0  0
   15.3818  -16.2153   18.2010 H   0  0  0  0  0  0
   15.2247  -12.9319   17.0194 H   0  0  0  0  0  0
   16.8184  -13.5241   16.6657 H   0  0  0  0  0  0
   16.5384  -10.9851   17.6219 H   0  0  0  0  0  0
   17.7914  -11.9569   18.3289 H   0  0  0  0  0  0
   14.3578  -11.6577   21.4936 H   0  0  0  0  0  0
   12.2786  -13.3241   21.6973 H   0  0  0  0  0  0
   10.7493  -12.5738   21.5210 H   0  0  0  0  0  0
   12.8524  -11.9248   23.5196 H   0  0  0  0  0  0
   11.2154  -12.3650   23.7805 H   0  0  0  0  0  0
   11.6583   -9.9962   24.3194 H   0  0  0  0  0  0
   10.4160  -10.1536   23.1209 H   0  0  0  0  0  0
   10.9072   -9.8814   20.8511 H   0  0  0  0  0  0
   11.7855   -9.1395   19.1923 H   0  0  0  0  0  0
   15.1173   -8.0646   22.4167 H   0  0  0  0  0  0
   13.9604   -7.5023   24.3565 H   0  0  0  0  0  0
   12.3893   -8.1324   24.4876 H   0  0  0  0  0  0
  1  6  1  0  0  0
  1  2  2  0  0  0
  1 43  1  0  0  0
  2  3  1  0  0  0
  2 44  1  0  0  0
  3  4  2  0  0  0
  3 45  1  0  0  0
  4 10  1  0  0  0
  4  5  1  0  0  0
  5  6  2  0  0  0
  5  7  1  0  0  0
  6 46  1  0  0  0
  7  8  2  0  0  0
  7 47  1  0  0  0
  8  9  1  0  0  0
  8 48  1  0  0  0
  9 10  2  0  0  0
  9 49  1  0  0  0
 10 11  1  0  0  0
 11 12  2  0  0  0
 11 13  2  0  0  0
 11 14  1  0  0  0
 14 15  1  0  0  0
 14 50  1  0  0  0
 15 39  1  0  0  0
 15 24  1  0  0  0
 15 16  1  0  0  0
 16 17  1  0  0  0
 16 51  1  0  0  0
 16 52  1  0  0  0
 17 18  1  0  0  0
 17 53  1  0  0  0
 17 54  1  0  0  0
 18 19  1  0  0  0
 18 55  1  0  0  0
 18 56  1  0  0  0
 19 40  1  0  0  0
 19 23  1  0  0  0
 19 20  1  0  0  0
 20 21  1  0  0  0
 20 57  1  0  0  0
 20 58  1  0  0  0
 21 22  1  0  0  0
 21 59  1  0  0  0
 21 60  1  0  0  0
 22 41  1  0  0  0
 22 23  1  0  0  0
 22 26  1  0  0  0
 23 24  1  0  0  0
 24 25  2  0  0  0
 26 27  2  0  0  0
 26 28  1  0  0  0
 28 29  1  0  0  0
 28 61  1  0  0  0
 29 42  1  0  0  0
 29 34  1  0  0  0
 29 30  1  0  0  0
 30 31  1  0  0  0
 30 62  1  0  0  0
 30 63  1  0  0  0
 31 32  1  0  0  0
 31 64  1  0  0  0
 31 65  1  0  0  0
 32 33  1  0  0  0
 32 66  1  0  0  0
 32 67  1  0  0  0
 33 34  1  0  0  0
 33 36  1  0  0  0
 34 35  1  0  0  0
 34 68  1  0  0  0
 35 69  1  0  0  0
 36 37  2  3  0  0
 36 38  1  0  0  0
 37 70  1  0  0  0
 38 71  1  0  0  0
 38 72  1  0  0  0
M  END
> <s_m_entry_id>
37836

> <s_m_entry_name>
ligand_docking-pose.183

> <s_m_Source_Path>
/home/csk/Desktop/cluster/DUD-E-result/thrb

> <s_m_Source_File>
ligand_docking-pose.sdf

> <i_m_Source_File_Index>
183

> <i_lp_mmshare_version>
53161

> <i_f3d_flags>
0

> <r_lp_tautomer_probability>
1

> <s_lp_Force_Field>
OPLS_2005

> <r_lp_Energy>
30.090755

> <b_lp_Chiralities_Consistent>
1

> <s_lp_Variant>
111508-1

> <s_i_glide_gridfile>
glide-grid_1ype

> <i_i_glide_lignum>
301

> <i_i_glide_rotatable_bonds>
8

> <r_i_docking_score>
-7.44569403747364

> <r_i_glide_ligand_efficiency>
-0.195939316775622

> <r_i_glide_ligand_efficiency_sa>
-0.658743163425888

> <r_i_glide_ligand_efficiency_ln>
-1.60551066460681

> <r_i_glide_gscore>
-7.44569403747364

> <r_i_glide_lipo>
-2.64342704901764

> <r_i_glide_hbond>
-0.713301704368176

> <r_i_glide_metal>
0

> <r_i_glide_rewards>
-1.1129067548421

> <r_i_glide_evdw>
-30.3072090148926

> <r_i_glide_ecoul>
-12.3508358001709

> <r_i_glide_erotb>
0.421522739443044

> <r_i_glide_esite>
-0.0295954479184963

> <r_i_glide_emodel>
-60.1887630518326

> <r_i_glide_energy>
-42.6580448150635

> <r_i_glide_einternal>
10.0016212463379

> <i_i_glide_confnum>
29

> <i_i_glide_posenum>
328

> <r_i_glide_eff_state_penalty>
0

> <s_user_duplicate_titles>
111508

> <s_m_subgroup_title>
dock_pv

> <s_m_subgroupid>
dock_pv1

> <b_m_subgroup_collapsed>
0

$$$$
214153
                    3D
 Schrodinger Suite 2021-1.
 60 62  0  0  1  0            999 V2000
   13.0440   -7.8527   23.8234 C   0  0  0  0  0  0
   12.7418   -9.1491   23.1090 C   0  0  0  0  0  0
   13.4065   -9.4646   21.9212 C   0  0  0  0  0  0
   13.1250  -10.6609   21.2711 C   0  0  0  0  0  0
   12.1866  -11.5396   21.8145 C   0  0  0  0  0  0
   11.5308  -11.2241   23.0055 C   0  0  0  0  0  0
   11.7973  -10.0213   23.6473 C   0  0  0  0  0  0
   11.8432  -12.8238   21.0867 C   0  0  0  0  0  0
   12.9518  -13.8778   21.1194 C   0  0  0  0  0  0
   12.4608  -15.0831   20.4562 N   0  0  1  0  0  0
   13.5016  -15.9906   20.1814 N   0  0  0  0  0  0
   13.9029  -15.9929   18.7583 C   0  0  0  0  0  0
   14.6762  -17.2764   18.4237 C   0  0  0  0  0  0
   15.7170  -17.3710   19.3738 O   0  0  0  0  0  0
   15.2853  -17.6199   20.7159 C   0  0  2  0  0  0
   14.0614  -16.7577   21.1659 C   0  0  0  0  0  0
   13.6260  -16.8041   22.3207 O   0  0  0  0  0  0
   16.4684  -17.4534   21.7104 C   0  0  0  0  0  0
   17.2358  -16.1284   21.5790 C   0  0  0  0  0  0
   18.1116  -16.0151   20.7213 O   0  0  0  0  0  0
   16.9087  -15.1410   22.4307 N   0  0  0  0  0  0
   17.5660  -13.8323   22.4902 C   0  0  0  0  0  0
   18.9908  -13.8647   23.0423 C   0  0  0  0  0  0
   20.0785  -13.8348   22.1726 C   0  0  0  0  0  0
   21.3764  -13.8534   22.6752 C   0  0  0  0  0  0
   21.6335  -13.8991   24.0580 C   0  0  0  0  0  0
   20.5155  -13.8854   24.9178 C   0  0  0  0  0  0
   19.2156  -13.8666   24.4182 C   0  0  0  0  0  0
   23.0394  -13.9683   24.5676 C   0  0  0  0  0  0
   24.0242  -13.8530   23.7865 N   0  0  0  0  0  0
   23.1510  -14.1785   25.9209 N   0  0  0  0  0  0
   13.6161   -8.0122   24.7240 H   0  0  0  0  0  0
   13.6160   -7.1844   23.1808 H   0  0  0  0  0  0
   12.1215   -7.3492   24.1125 H   0  0  0  0  0  0
   14.1424   -8.7899   21.5062 H   0  0  0  0  0  0
   13.6315  -10.9037   20.3482 H   0  0  0  0  0  0
   10.7888  -11.8924   23.4225 H   0  0  0  0  0  0
   11.2752   -9.7756   24.5617 H   0  0  0  0  0  0
   11.6134  -12.5779   20.0493 H   0  0  0  0  0  0
   10.9281  -13.2270   21.5204 H   0  0  0  0  0  0
   13.2491  -14.0853   22.1501 H   0  0  0  0  0  0
   13.8456  -13.4865   20.6276 H   0  0  0  0  0  0
   11.7983  -15.5584   21.0548 H   0  0  0  0  0  0
   13.0359  -15.8861   18.1028 H   0  0  0  0  0  0
   14.5565  -15.1277   18.6422 H   0  0  0  0  0  0
   14.0285  -18.1559   18.4570 H   0  0  0  0  0  0
   15.0914  -17.2261   17.4172 H   0  0  0  0  0  0
   14.9455  -18.6559   20.7563 H   0  0  0  0  0  0
   17.1878  -18.2525   21.5323 H   0  0  0  0  0  0
   16.1385  -17.5888   22.7421 H   0  0  0  0  0  0
   16.1628  -15.2962   23.0980 H   0  0  0  0  0  0
   16.9579  -13.1844   23.1215 H   0  0  0  0  0  0
   17.5558  -13.3642   21.5038 H   0  0  0  0  0  0
   19.9226  -13.8200   21.1031 H   0  0  0  0  0  0
   22.1900  -13.8526   21.9646 H   0  0  0  0  0  0
   20.6284  -13.8925   25.9913 H   0  0  0  0  0  0
   18.3823  -13.8643   25.1043 H   0  0  0  0  0  0
   24.9028  -13.9252   24.2777 H   0  0  0  0  0  0
   24.0560  -14.2525   26.3735 H   0  0  0  0  0  0
   22.3272  -14.3266   26.4808 H   0  0  0  0  0  0
  1  2  1  0  0  0
  1 32  1  0  0  0
  1 33  1  0  0  0
  1 34  1  0  0  0
  2  7  1  0  0  0
  2  3  2  0  0  0
  3  4  1  0  0  0
  3 35  1  0  0  0
  4  5  2  0  0  0
  4 36  1  0  0  0
  5  6  1  0  0  0
  5  8  1  0  0  0
  6  7  2  0  0  0
  6 37  1  0  0  0
  7 38  1  0  0  0
  8  9  1  0  0  0
  8 39  1  0  0  0
  8 40  1  0  0  0
  9 10  1  0  0  0
  9 41  1  0  0  0
  9 42  1  0  0  0
 10 11  1  0  0  0
 10 43  1  0  0  0
 11 16  1  0  0  0
 11 12  1  0  0  0
 12 13  1  0  0  0
 12 44  1  0  0  0
 12 45  1  0  0  0
 13 14  1  0  0  0
 13 46  1  0  0  0
 13 47  1  0  0  0
 14 15  1  0  0  0
 15 16  1  0  0  0
 15 18  1  0  0  0
 15 48  1  0  0  0
 16 17  2  0  0  0
 18 19  1  0  0  0
 18 49  1  0  0  0
 18 50  1  0  0  0
 19 20  2  0  0  0
 19 21  1  0  0  0
 21 22  1  0  0  0
 21 51  1  0  0  0
 22 23  1  0  0  0
 22 52  1  0  0  0
 22 53  1  0  0  0
 23 28  1  0  0  0
 23 24  2  0  0  0
 24 25  1  0  0  0
 24 54  1  0  0  0
 25 26  2  0  0  0
 25 55  1  0  0  0
 26 27  1  0  0  0
 26 29  1  0  0  0
 27 28  2  0  0  0
 27 56  1  0  0  0
 28 57  1  0  0  0
 29 30  2  3  0  0
 29 31  1  0  0  0
 30 58  1  0  0  0
 31 59  1  0  0  0
 31 60  1  0  0  0
M  END
> <s_m_entry_id>
37837

> <s_m_entry_name>
ligand_docking-pose.184

> <s_m_Source_Path>
/home/csk/Desktop/cluster/DUD-E-result/thrb

> <s_m_Source_File>
ligand_docking-pose.sdf

> <i_m_Source_File_Index>
184

> <i_lp_mmshare_version>
53161

> <i_f3d_flags>
0

> <r_lp_tautomer_probability>
1

> <s_lp_Force_Field>
OPLS_2005

> <r_lp_Energy>
17.805359

> <b_lp_Chiralities_Consistent>
1

> <s_lp_Variant>
214153-3

> <s_i_glide_gridfile>
glide-grid_1ype

> <i_i_glide_lignum>
2342

> <i_i_glide_rotatable_bonds>
10

> <r_i_docking_score>
-7.43753777121307

> <r_i_glide_ligand_efficiency>
-0.239920573264938

> <r_i_glide_ligand_efficiency_sa>
-0.753681846102416

> <r_i_glide_ligand_efficiency_ln>
-1.6773927005675

> <r_i_glide_gscore>
-7.43753777121307

> <r_i_glide_lipo>
-2.94544312064009

> <r_i_glide_hbond>
-0.836612709122132

> <r_i_glide_metal>
0

> <r_i_glide_rewards>
-1.11229806220475

> <r_i_glide_evdw>
-42.5007057189941

> <r_i_glide_ecoul>
-9.27218151092529

> <r_i_glide_erotb>
0.994542945631379

> <r_i_glide_esite>
-0.0218643122889826

> <r_i_glide_emodel>
-72.7491453731129

> <r_i_glide_energy>
-51.7728872299194

> <r_i_glide_einternal>
4.55874586105347

> <i_i_glide_confnum>
26

> <i_i_glide_posenum>
392

> <r_i_glide_eff_state_penalty>
0

> <s_user_duplicate_titles>
214153

> <s_m_subgroup_title>
dock_pv

> <s_m_subgroupid>
dock_pv1

> <b_m_subgroup_collapsed>
0

$$$$
75079
                    3D
 Schrodinger Suite 2021-1.
 68 72  0  0  1  0            999 V2000
   12.5951  -15.9681   21.1462 C   0  0  0  0  0  0
   13.8043  -15.1977   20.8936 N   0  0  0  0  0  0
   15.1069  -15.6296   21.0655 C   0  0  0  0  0  0
   15.6849  -16.8110   21.5329 C   0  0  0  0  0  0
   17.0812  -16.8502   21.5849 C   0  0  0  0  0  0
   17.9035  -15.7751   21.2062 C   0  0  0  0  0  0
   17.2887  -14.6058   20.7269 C   0  0  0  0  0  0
   15.8952  -14.5362   20.6478 C   0  0  0  0  0  0
   15.1204  -13.5088   20.1941 N   0  0  0  0  0  0
   13.8882  -13.9321   20.3379 C   0  0  0  0  0  0
   12.6915  -13.0657   19.9879 C   0  0  0  0  0  0
   12.5518  -11.9201   20.9764 C   0  0  0  0  0  0
   11.6911  -12.0345   22.0643 C   0  0  0  0  0  0
   11.6148  -11.0102   22.9994 C   0  0  0  0  0  0
   12.3996   -9.8481   22.8787 C   0  0  0  0  0  0
   13.2592   -9.7567   21.7686 C   0  0  0  0  0  0
   13.3316  -10.7756   20.8260 C   0  0  0  0  0  0
   12.3408   -8.7519   23.8839 C   0  0  0  0  0  0
   13.2159   -7.8530   23.9212 N   0  0  0  0  0  0
   11.2604   -8.8005   24.7210 N   0  0  0  0  0  0
   19.3221  -15.8641   21.2917 N   0  0  0  0  0  0
   20.1669  -15.0214   20.4325 C   0  0  0  0  0  0
   20.5458  -13.6366   21.0074 C   0  0  0  0  0  0
   21.1067  -12.6369   19.9633 C   0  0  0  0  0  0
   20.1749  -12.2533   18.8068 C   0  0  0  0  0  0
   18.9507  -12.2516   18.8772 O   0  0  0  0  0  0
   20.8835  -11.8546   17.7136 O   0  0  0  0  0  0
   20.1827  -16.8971   22.4928 S   0  0  0  0  0  0
   21.6166  -16.6059   22.3934 O   0  0  0  0  0  0
   19.7244  -18.2789   22.3096 O   0  0  0  0  0  0
   19.5803  -16.3259   24.0958 C   0  0  0  0  0  0
   18.4921  -16.9914   24.6664 C   0  0  0  0  0  0
   17.9234  -16.5591   25.8572 C   0  0  0  0  0  0
   18.4200  -15.4404   26.5140 C   0  0  0  0  0  0
   19.5302  -14.7415   25.9843 C   0  0  0  0  0  0
   20.1378  -15.1951   24.7706 C   0  0  0  0  0  0
   21.2301  -14.5578   24.2614 N   0  0  0  0  0  0
   21.7432  -13.4911   24.9147 C   0  0  0  0  0  0
   21.1905  -12.9721   26.0777 C   0  0  0  0  0  0
   20.0725  -13.5948   26.6176 C   0  0  0  0  0  0
   12.2833  -16.4720   20.2314 H   0  0  0  0  0  0
   12.7907  -16.7095   21.9180 H   0  0  0  0  0  0
   11.7987  -15.3130   21.4996 H   0  0  0  0  0  0
   15.0908  -17.6594   21.8369 H   0  0  0  0  0  0
   17.5082  -17.7775   21.9209 H   0  0  0  0  0  0
   17.8625  -13.7505   20.4231 H   0  0  0  0  0  0
   12.8128  -12.6483   18.9878 H   0  0  0  0  0  0
   11.7602  -13.6305   19.9410 H   0  0  0  0  0  0
   11.0891  -12.9197   22.2052 H   0  0  0  0  0  0
   10.9350  -11.1524   23.8284 H   0  0  0  0  0  0
   13.8901   -8.8932   21.6173 H   0  0  0  0  0  0
   14.0151  -10.6890   19.9940 H   0  0  0  0  0  0
   13.9431   -8.0035   23.2407 H   0  0  0  0  0  0
   11.1081   -8.0262   25.3469 H   0  0  0  0  0  0
   10.5145   -9.4751   24.6112 H   0  0  0  0  0  0
   21.0638  -15.5378   20.0869 H   0  0  0  0  0  0
   19.6097  -14.8364   19.5212 H   0  0  0  0  0  0
   19.7055  -13.1875   21.5389 H   0  0  0  0  0  0
   21.2997  -13.7866   21.7785 H   0  0  0  0  0  0
   21.4017  -11.7155   20.4642 H   0  0  0  0  0  0
   22.0159  -13.0523   19.5443 H   0  0  0  0  0  0
   21.8242  -11.9847   17.8529 H   0  0  0  0  0  0
   18.0639  -17.8543   24.1778 H   0  0  0  0  0  0
   17.0777  -17.0912   26.2680 H   0  0  0  0  0  0
   17.9650  -15.0988   27.4333 H   0  0  0  0  0  0
   22.6261  -13.0527   24.4743 H   0  0  0  0  0  0
   21.6213  -12.1060   26.5572 H   0  0  0  0  0  0
   19.6230  -13.2106   27.5205 H   0  0  0  0  0  0
  1  2  1  0  0  0
  1 41  1  0  0  0
  1 42  1  0  0  0
  1 43  1  0  0  0
  2 10  1  0  0  0
  2  3  1  0  0  0
  3  8  2  0  0  0
  3  4  1  0  0  0
  4  5  2  0  0  0
  4 44  1  0  0  0
  5  6  1  0  0  0
  5 45  1  0  0  0
  6  7  2  0  0  0
  6 21  1  0  0  0
  7  8  1  0  0  0
  7 46  1  0  0  0
  8  9  1  0  0  0
  9 10  2  0  0  0
 10 11  1  0  0  0
 11 12  1  0  0  0
 11 47  1  0  0  0
 11 48  1  0  0  0
 12 17  1  0  0  0
 12 13  2  0  0  0
 13 14  1  0  0  0
 13 49  1  0  0  0
 14 15  2  0  0  0
 14 50  1  0  0  0
 15 16  1  0  0  0
 15 18  1  0  0  0
 16 17  2  0  0  0
 16 51  1  0  0  0
 17 52  1  0  0  0
 18 19  2  3  0  0
 18 20  1  0  0  0
 19 53  1  0  0  0
 20 54  1  0  0  0
 20 55  1  0  0  0
 21 22  1  0  0  0
 21 28  1  0  0  0
 22 23  1  0  0  0
 22 56  1  0  0  0
 22 57  1  0  0  0
 23 24  1  0  0  0
 23 58  1  0  0  0
 23 59  1  0  0  0
 24 25  1  0  0  0
 24 60  1  0  0  0
 24 61  1  0  0  0
 25 26  2  0  0  0
 25 27  1  0  0  0
 27 62  1  0  0  0
 28 29  2  0  0  0
 28 30  2  0  0  0
 28 31  1  0  0  0
 31 36  1  0  0  0
 31 32  2  0  0  0
 32 33  1  0  0  0
 32 63  1  0  0  0
 33 34  2  0  0  0
 33 64  1  0  0  0
 34 35  1  0  0  0
 34 65  1  0  0  0
 35 40  2  0  0  0
 35 36  1  0  0  0
 36 37  2  0  0  0
 37 38  1  0  0  0
 38 39  2  0  0  0
 38 66  1  0  0  0
 39 40  1  0  0  0
 39 67  1  0  0  0
 40 68  1  0  0  0
M  END
> <s_m_entry_id>
37839

> <s_m_entry_name>
ligand_docking-pose.186

> <s_m_Source_Path>
/home/csk/Desktop/cluster/DUD-E-result/thrb

> <s_m_Source_File>
ligand_docking-pose.sdf

> <i_m_Source_File_Index>
186

> <i_lp_mmshare_version>
53161

> <i_f3d_flags>
0

> <r_lp_tautomer_probability>
1

> <s_lp_Force_Field>
OPLS_2005

> <r_lp_Energy>
26.379747

> <b_lp_Chiralities_Consistent>
1

> <s_lp_Variant>
75079-2

> <s_i_glide_gridfile>
glide-grid_1ype

> <i_i_glide_lignum>
4126

> <i_i_glide_rotatable_bonds>
11

> <r_i_docking_score>
-7.4332010222174

> <r_i_glide_ligand_efficiency>
-0.185830025555435

> <r_i_glide_ligand_efficiency_sa>
-0.635529746958755

> <r_i_glide_ligand_efficiency_ln>
-1.58528302869796

> <r_i_glide_gscore>
-7.4332010222174

> <r_i_glide_lipo>
-3.88509669265655

> <r_i_glide_hbond>
-0.0194206313304607

> <r_i_glide_metal>
0

> <r_i_glide_rewards>
-0.861537102788235

> <r_i_glide_evdw>
-52.333568572998

> <r_i_glide_ecoul>
-3.50815486907959

> <r_i_glide_erotb>
0.527343555019671

> <r_i_glide_esite>
-0.0515884914499748

> <r_i_glide_emodel>
-78.9050868398061

> <r_i_glide_energy>
-55.8417234420776

> <r_i_glide_einternal>
6.38136625289917

> <i_i_glide_confnum>
1

> <i_i_glide_posenum>
369

> <r_i_glide_eff_state_penalty>
0

> <s_user_duplicate_titles>
75079

> <s_m_subgroup_title>
dock_pv

> <s_m_subgroupid>
dock_pv1

> <b_m_subgroup_collapsed>
0

$$$$
545320
                    3D
 Schrodinger Suite 2021-1.
 67 69  0  0  1  0            999 V2000
   14.0230   -9.5562   21.3633 C   0  0  0  0  0  0
   13.8064  -10.9925   21.5210 N   0  0  0  0  0  0
   14.6058  -11.9401   20.9298 C   0  0  0  0  0  0
   14.2123  -13.2236   21.2636 C   0  0  0  0  0  0
   13.0383  -13.0086   21.9893 C   0  0  0  0  0  0
   12.8057  -11.6452   22.2342 C   0  0  0  0  0  0
   11.7617  -10.9848   23.0523 C   0  0  0  0  0  0
   11.7996   -9.7503   23.2751 N   0  0  0  0  0  0
   10.8159  -11.8529   23.5223 N   0  0  0  0  0  0
   14.8334  -14.5503   20.8522 C   0  0  0  0  0  0
   15.6304  -15.1869   21.9207 N   0  0  0  0  0  0
   16.7361  -15.9318   21.6960 C   0  0  0  0  0  0
   17.1757  -16.1149   20.5609 O   0  0  0  0  0  0
   17.4649  -16.6477   22.8671 C   0  0  2  0  0  0
   16.7293  -17.9056   23.2838 C   0  0  0  0  0  0
   16.4159  -17.8557   24.5866 C   0  0  0  0  0  0
   16.8631  -16.5419   25.1790 C   0  0  0  0  0  0
   17.6155  -15.8834   24.1160 N   0  0  0  0  0  0
   18.4320  -14.8316   24.3807 C   0  0  0  0  0  0
   18.4241  -14.2531   25.4719 O   0  0  0  0  0  0
   19.4542  -14.3634   23.2964 C   0  0  1  0  0  0
   18.8467  -13.2083   22.4615 C   0  0  0  0  0  0
   19.1914  -13.2319   20.9546 C   0  0  0  0  0  0
   18.4094  -12.1364   20.2079 C   0  0  0  0  0  0
   18.6163  -12.2204   18.6896 C   0  0  0  0  0  0
   20.1085  -12.0611   18.3600 C   0  0  0  0  0  0
   20.9838  -13.0684   19.1276 C   0  0  0  0  0  0
   20.7003  -13.1329   20.6432 C   0  0  0  0  0  0
   20.7304  -13.9286   23.9317 N   0  0  2  0  0  0
   21.4750  -14.9297   24.7007 C   0  0  0  0  0  0
   22.7963  -14.3400   25.2141 C   0  0  0  0  0  0
   23.4396  -13.4492   24.6637 O   0  0  0  0  0  0
   23.2162  -15.0101   26.3208 O   0  0  0  0  0  0
   18.4451  -16.9217   22.4797 H   0  0  0  0  0  0
   19.6641  -15.1978   22.6280 H   0  0  0  0  0  0
   14.8851   -9.3664   20.7224 H   0  0  0  0  0  0
   13.1412   -9.0983   20.9132 H   0  0  0  0  0  0
   14.2257   -9.1042   22.3349 H   0  0  0  0  0  0
   15.4125  -11.6060   20.3019 H   0  0  0  0  0  0
   12.4184  -13.8160   22.3424 H   0  0  0  0  0  0
   11.0235   -9.4761   23.8603 H   0  0  0  0  0  0
   10.0100  -11.5054   24.0330 H   0  0  0  0  0  0
   10.8644  -12.8500   23.3522 H   0  0  0  0  0  0
   15.4466  -14.3828   19.9642 H   0  0  0  0  0  0
   14.0483  -15.2487   20.5570 H   0  0  0  0  0  0
   15.3147  -15.0506   22.8783 H   0  0  0  0  0  0
   16.5368  -18.7210   22.6020 H   0  0  0  0  0  0
   15.9084  -18.6148   25.1630 H   0  0  0  0  0  0
   17.4837  -16.6871   26.0650 H   0  0  0  0  0  0
   16.0245  -15.9335   25.5207 H   0  0  0  0  0  0
   19.1546  -12.2526   22.8821 H   0  0  0  0  0  0
   17.7573  -13.2076   22.5436 H   0  0  0  0  0  0
   18.8634  -14.1822   20.5328 H   0  0  0  0  0  0
   18.6644  -11.1480   20.5936 H   0  0  0  0  0  0
   17.3571  -12.2674   20.4316 H   0  0  0  0  0  0
   18.0253  -11.4533   18.1878 H   0  0  0  0  0  0
   18.2510  -13.1794   18.3203 H   0  0  0  0  0  0
   20.4280  -11.0533   18.6234 H   0  0  0  0  0  0
   20.2717  -12.1671   17.2870 H   0  0  0  0  0  0
   22.0158  -12.7697   18.9849 H   0  0  0  0  0  0
   20.8696  -14.0644   18.6975 H   0  0  0  0  0  0
   21.2408  -13.9608   21.1019 H   0  0  0  0  0  0
   21.1172  -12.2529   21.1192 H   0  0  0  0  0  0
   20.6328  -13.0366   24.4034 H   0  0  0  0  0  0
   20.8812  -15.2407   25.5616 H   0  0  0  0  0  0
   21.6822  -15.8153   24.0998 H   0  0  0  0  0  0
   24.0477  -14.6572   26.6590 H   0  0  0  0  0  0
  1  2  1  0  0  0
  1 36  1  0  0  0
  1 37  1  0  0  0
  1 38  1  0  0  0
  2  6  1  0  0  0
  2  3  1  0  0  0
  3  4  2  0  0  0
  3 39  1  0  0  0
  4  5  1  0  0  0
  4 10  1  0  0  0
  5  6  2  0  0  0
  5 40  1  0  0  0
  6  7  1  0  0  0
  7  8  2  3  0  0
  7  9  1  0  0  0
  8 41  1  0  0  0
  9 42  1  0  0  0
  9 43  1  0  0  0
 10 11  1  0  0  0
 10 44  1  0  0  0
 10 45  1  0  0  0
 11 12  1  0  0  0
 11 46  1  0  0  0
 12 13  2  0  0  0
 12 14  1  0  0  0
 14 34  1  0  0  0
 14 18  1  0  0  0
 14 15  1  0  0  0
 15 16  2  0  0  0
 15 47  1  0  0  0
 16 17  1  0  0  0
 16 48  1  0  0  0
 17 18  1  0  0  0
 17 49  1  0  0  0
 17 50  1  0  0  0
 18 19  1  0  0  0
 19 20  2  0  0  0
 19 21  1  0  0  0
 21 35  1  0  0  0
 21 22  1  0  0  0
 21 29  1  0  0  0
 22 23  1  0  0  0
 22 51  1  0  0  0
 22 52  1  0  0  0
 23 28  1  0  0  0
 23 24  1  0  0  0
 23 53  1  0  0  0
 24 25  1  0  0  0
 24 54  1  0  0  0
 24 55  1  0  0  0
 25 26  1  0  0  0
 25 56  1  0  0  0
 25 57  1  0  0  0
 26 27  1  0  0  0
 26 58  1  0  0  0
 26 59  1  0  0  0
 27 28  1  0  0  0
 27 60  1  0  0  0
 27 61  1  0  0  0
 28 62  1  0  0  0
 28 63  1  0  0  0
 29 30  1  0  0  0
 29 64  1  0  0  0
 30 31  1  0  0  0
 30 65  1  0  0  0
 30 66  1  0  0  0
 31 32  2  0  0  0
 31 33  1  0  0  0
 33 67  1  0  0  0
M  END
> <s_m_entry_id>
37843

> <s_m_entry_name>
ligand_docking-pose.190

> <s_m_Source_Path>
/home/csk/Desktop/cluster/DUD-E-result/thrb

> <s_m_Source_File>
ligand_docking-pose.sdf

> <i_m_Source_File_Index>
190

> <i_lp_mmshare_version>
53161

> <i_f3d_flags>
0

> <r_lp_tautomer_probability>
1

> <s_lp_Force_Field>
OPLS_2005

> <r_lp_Energy>
27.165868

> <b_lp_Chiralities_Consistent>
1

> <s_lp_Variant>
545320-1

> <s_i_glide_gridfile>
glide-grid_1ype

> <i_i_glide_lignum>
4204

> <i_i_glide_rotatable_bonds>
13

> <r_i_docking_score>
-7.41529305656092

> <r_i_glide_ligand_efficiency>
-0.224705850198816

> <r_i_glide_ligand_efficiency_sa>
-0.720751727823563

> <r_i_glide_ligand_efficiency_ln>
-1.64912278144652

> <r_i_glide_gscore>
-7.41529305656092

> <r_i_glide_lipo>
-2.29981493526803

> <r_i_glide_hbond>
-0.596834473044348

> <r_i_glide_metal>
0

> <r_i_glide_rewards>
-1.21841391206537

> <r_i_glide_evdw>
-45.6933441162109

> <r_i_glide_ecoul>
-12.2423410415649

> <r_i_glide_erotb>
0.95655660167864

> <r_i_glide_esite>
-0.135767975816519

> <r_i_glide_emodel>
-76.6783378971859

> <r_i_glide_energy>
-57.9356851577759

> <r_i_glide_einternal>
12.8480453491211

> <i_i_glide_confnum>
57

> <i_i_glide_posenum>
155

> <r_i_glide_eff_state_penalty>
0

> <s_user_duplicate_titles>
545320

> <s_m_subgroup_title>
dock_pv

> <s_m_subgroupid>
dock_pv1

> <b_m_subgroup_collapsed>
0

$$$$
511111
                    3D
 Schrodinger Suite 2021-1.
 50 52  0  0  1  0            999 V2000
   14.2337   -9.9113   21.0830 C   0  0  0  0  0  0
   13.5021   -9.4519   22.1633 C   0  0  0  0  0  0
   12.4491  -10.2021   22.7101 C   0  0  0  0  0  0
   12.1341  -11.4293   22.0872 C   0  0  0  0  0  0
   12.8647  -11.8920   20.9962 C   0  0  0  0  0  0
   13.9251  -11.1389   20.4977 C   0  0  0  0  0  0
   14.7793  -11.6664   19.3526 C   0  0  0  0  0  0
   16.2032  -11.5751   19.6710 N   0  0  0  0  0  0
   17.1193  -12.5015   19.3780 C   0  0  0  0  0  0
   16.8895  -13.5119   18.7190 O   0  0  0  0  0  0
   18.5322  -12.2268   19.9243 C   0  0  2  0  0  0
   19.6033  -12.3453   18.8333 C   0  0  0  0  0  0
   20.8653  -12.6836   19.5903 C   0  0  0  0  0  0
   20.3622  -13.6167   20.6813 C   0  0  0  0  0  0
   19.0063  -13.1508   20.9792 N   0  0  0  0  0  0
   18.3175  -13.4508   22.1095 C   0  0  0  0  0  0
   17.1904  -12.9947   22.3215 O   0  0  0  0  0  0
   18.9942  -14.3448   23.1881 C   0  0  1  0  0  0
   19.8668  -13.5191   24.1567 C   0  0  0  0  0  0
   19.6134  -14.1472   25.5288 C   0  0  0  0  0  0
   18.7318  -15.3626   25.2409 C   0  0  0  0  0  0
   18.0168  -15.0399   24.0201 N   0  0  1  0  0  0
   11.7432   -9.7038   23.9204 C   0  0  0  0  0  0
   12.0149   -8.5722   24.4110 N   0  0  0  0  0  0
   10.8162  -10.5716   24.4259 N   0  0  0  0  0  0
   18.5709  -11.2221   20.3485 H   0  0  0  0  0  0
   19.5720  -15.1133   22.6720 H   0  0  0  0  0  0
   15.0559   -9.3093   20.7212 H   0  0  0  0  0  0
   13.8067   -8.5066   22.5910 H   0  0  0  0  0  0
   11.3338  -12.0605   22.4484 H   0  0  0  0  0  0
   12.6169  -12.8487   20.5574 H   0  0  0  0  0  0
   14.4852  -12.6856   19.0876 H   0  0  0  0  0  0
   14.5910  -11.0556   18.4686 H   0  0  0  0  0  0
   16.4931  -10.7655   20.1996 H   0  0  0  0  0  0
   19.3704  -13.1600   18.1510 H   0  0  0  0  0  0
   19.7185  -11.4530   18.2295 H   0  0  0  0  0  0
   21.6196  -13.1389   18.9531 H   0  0  0  0  0  0
   21.2867  -11.7811   20.0368 H   0  0  0  0  0  0
   20.3098  -14.6434   20.3134 H   0  0  0  0  0  0
   21.0350  -13.5919   21.5374 H   0  0  0  0  0  0
   20.9251  -13.6210   23.9101 H   0  0  0  0  0  0
   19.6171  -12.4568   24.1823 H   0  0  0  0  0  0
   20.5400  -14.4400   26.0259 H   0  0  0  0  0  0
   19.1046  -13.4519   26.1980 H   0  0  0  0  0  0
   19.3301  -16.2688   25.1221 H   0  0  0  0  0  0
   18.0190  -15.5376   26.0483 H   0  0  0  0  0  0
   17.2445  -14.4086   24.2035 H   0  0  0  0  0  0
   12.7397   -8.0879   23.9090 H   0  0  0  0  0  0
   10.1591  -10.2268   25.1205 H   0  0  0  0  0  0
   10.5320  -11.3852   23.9033 H   0  0  0  0  0  0
  1  6  1  0  0  0
  1  2  2  0  0  0
  1 28  1  0  0  0
  2  3  1  0  0  0
  2 29  1  0  0  0
  3  4  2  0  0  0
  3 23  1  0  0  0
  4  5  1  0  0  0
  4 30  1  0  0  0
  5  6  2  0  0  0
  5 31  1  0  0  0
  6  7  1  0  0  0
  7  8  1  0  0  0
  7 32  1  0  0  0
  7 33  1  0  0  0
  8  9  1  0  0  0
  8 34  1  0  0  0
  9 10  2  0  0  0
  9 11  1  0  0  0
 11 26  1  0  0  0
 11 15  1  0  0  0
 11 12  1  0  0  0
 12 13  1  0  0  0
 12 35  1  0  0  0
 12 36  1  0  0  0
 13 14  1  0  0  0
 13 37  1  0  0  0
 13 38  1  0  0  0
 14 15  1  0  0  0
 14 39  1  0  0  0
 14 40  1  0  0  0
 15 16  1  0  0  0
 16 17  2  0  0  0
 16 18  1  0  0  0
 18 27  1  0  0  0
 18 22  1  0  0  0
 18 19  1  0  0  0
 19 20  1  0  0  0
 19 41  1  0  0  0
 19 42  1  0  0  0
 20 21  1  0  0  0
 20 43  1  0  0  0
 20 44  1  0  0  0
 21 22  1  0  0  0
 21 45  1  0  0  0
 21 46  1  0  0  0
 22 47  1  0  0  0
 23 24  2  3  0  0
 23 25  1  0  0  0
 24 48  1  0  0  0
 25 49  1  0  0  0
 25 50  1  0  0  0
M  END
> <s_m_entry_id>
37844

> <s_m_entry_name>
ligand_docking-pose.191

> <s_m_Source_Path>
/home/csk/Desktop/cluster/DUD-E-result/thrb

> <s_m_Source_File>
ligand_docking-pose.sdf

> <i_m_Source_File_Index>
191

> <i_lp_mmshare_version>
53161

> <i_f3d_flags>
0

> <r_lp_tautomer_probability>
1

> <s_lp_Force_Field>
OPLS_2005

> <r_lp_Energy>
35.693399

> <b_lp_Chiralities_Consistent>
1

> <s_lp_Variant>
511111-2

> <s_i_glide_gridfile>
glide-grid_1ype

> <i_i_glide_lignum>
1342

> <i_i_glide_rotatable_bonds>
7

> <r_i_docking_score>
-7.40531717835875

> <r_i_glide_ligand_efficiency>
-0.29621268713435

> <r_i_glide_ligand_efficiency_sa>
-0.866131150535214

> <r_i_glide_ligand_efficiency_ln>
-1.75528209071906

> <r_i_glide_gscore>
-7.40531717835875

> <r_i_glide_lipo>
-3.12077709115958

> <r_i_glide_hbond>
-0.157504577891293

> <r_i_glide_metal>
0

> <r_i_glide_rewards>
-1.9344648865281

> <r_i_glide_evdw>
-44.1962013244629

> <r_i_glide_ecoul>
-5.7199854850769

> <r_i_glide_erotb>
0.965314530605823

> <r_i_glide_esite>
-0.0900772644009182

> <r_i_glide_emodel>
-70.9865973434662

> <r_i_glide_energy>
-49.9161868095398

> <r_i_glide_einternal>
2.08366298675537

> <i_i_glide_confnum>
275

> <i_i_glide_posenum>
357

> <r_i_glide_eff_state_penalty>
0

> <s_user_duplicate_titles>
511111

> <s_m_subgroup_title>
dock_pv

> <s_m_subgroupid>
dock_pv1

> <b_m_subgroup_collapsed>
0

$$$$
172784
                    3D
 Schrodinger Suite 2021-1.
 62 65  0  0  1  0            999 V2000
   21.1337  -13.4528   24.9716 C   0  0  0  0  0  0
   20.2824  -14.0102   25.9193 C   0  0  0  0  0  0
   19.1097  -14.6493   25.5271 C   0  0  0  0  0  0
   18.7630  -14.7277   24.1547 C   0  0  0  0  0  0
   17.5941  -15.3928   23.7217 C   0  0  0  0  0  0
   17.2622  -15.4541   22.3659 C   0  0  0  0  0  0
   18.0913  -14.8515   21.4199 C   0  0  0  0  0  0
   19.2588  -14.1978   21.8118 C   0  0  0  0  0  0
   19.6210  -14.1308   23.1821 C   0  0  0  0  0  0
   20.8137  -13.5001   23.6154 C   0  0  0  0  0  0
   15.8057  -16.3655   21.8332 S   0  0  0  0  0  0
   15.2654  -17.0532   23.0128 O   0  0  0  0  0  0
   16.2301  -17.1398   20.6629 O   0  0  0  0  0  0
   14.5934  -15.1536   21.3464 N   0  0  2  0  0  0
   14.6920  -14.3270   20.0980 C   0  0  2  0  0  0
   13.4101  -13.4648   19.9147 C   0  0  0  0  0  0
   13.3393  -12.1996   20.7590 C   0  0  0  0  0  0
   14.1356  -11.1053   20.4211 C   0  0  0  0  0  0
   14.0157   -9.9120   21.1226 C   0  0  0  0  0  0
   13.1003   -9.8112   22.1691 C   0  0  0  0  0  0
   12.2837  -10.8948   22.5490 C   0  0  0  0  0  0
   12.4280  -12.0916   21.8154 C   0  0  0  0  0  0
   11.3099  -10.7460   23.6727 C   0  0  0  0  0  0
   11.2162   -9.6708   24.3209 N   0  0  0  0  0  0
   10.5395  -11.8529   23.9211 N   0  0  0  0  0  0
   14.8442  -15.2226   18.8317 C   0  0  0  0  0  0
   14.1851  -16.2647   18.7757 O   0  0  0  0  0  0
   15.6160  -14.8150   17.7836 N   0  0  0  0  0  0
   15.7090  -15.6260   16.5480 C   0  0  0  0  0  0
   15.2170  -14.7694   15.3548 C   0  0  0  0  0  0
   15.9862  -13.5143   15.3387 N   0  0  0  0  0  0
   15.9057  -12.6981   16.5582 C   0  0  0  0  0  0
   16.4089  -13.5666   17.7334 C   0  0  0  0  0  0
   16.8160  -13.2120   14.3167 C   0  0  0  0  0  0
   17.5955  -12.2534   14.3050 O   0  0  0  0  0  0
   22.0467  -12.9731   25.2952 H   0  0  0  0  0  0
   20.5385  -13.9519   26.9672 H   0  0  0  0  0  0
   18.4602  -15.0922   26.2694 H   0  0  0  0  0  0
   16.9518  -15.8533   24.4591 H   0  0  0  0  0  0
   17.8424  -14.9163   20.3700 H   0  0  0  0  0  0
   19.9043  -13.7512   21.0691 H   0  0  0  0  0  0
   21.4754  -13.0539   22.8884 H   0  0  0  0  0  0
   14.2046  -14.6538   22.1517 H   0  0  0  0  0  0
   15.5511  -13.6809   20.2424 H   0  0  0  0  0  0
   13.3299  -13.1159   18.8823 H   0  0  0  0  0  0
   12.5118  -14.0725   20.0517 H   0  0  0  0  0  0
   14.8359  -11.1692   19.6011 H   0  0  0  0  0  0
   14.6339   -9.0640   20.8630 H   0  0  0  0  0  0
   13.0365   -8.8668   22.6940 H   0  0  0  0  0  0
   11.8186  -12.9554   22.0414 H   0  0  0  0  0  0
   10.4732   -9.7379   25.0075 H   0  0  0  0  0  0
    9.7510  -11.7780   24.5642 H   0  0  0  0  0  0
   10.7280  -12.7642   23.5211 H   0  0  0  0  0  0
   15.1355  -16.5532   16.6063 H   0  0  0  0  0  0
   16.7510  -15.9091   16.3929 H   0  0  0  0  0  0
   15.2767  -15.3193   14.4138 H   0  0  0  0  0  0
   14.1669  -14.5328   15.5215 H   0  0  0  0  0  0
   16.4885  -11.7786   16.4778 H   0  0  0  0  0  0
   14.8652  -12.4134   16.7203 H   0  0  0  0  0  0
   17.4410  -13.8518   17.5356 H   0  0  0  0  0  0
   16.4333  -12.9789   18.6450 H   0  0  0  0  0  0
   16.7281  -13.9398   13.4938 H   0  0  0  0  0  0
  1 10  1  0  0  0
  1  2  2  0  0  0
  1 36  1  0  0  0
  2  3  1  0  0  0
  2 37  1  0  0  0
  3  4  2  0  0  0
  3 38  1  0  0  0
  4  9  1  0  0  0
  4  5  1  0  0  0
  5  6  2  0  0  0
  5 39  1  0  0  0
  6  7  1  0  0  0
  6 11  1  0  0  0
  7  8  2  0  0  0
  7 40  1  0  0  0
  8  9  1  0  0  0
  8 41  1  0  0  0
  9 10  2  0  0  0
 10 42  1  0  0  0
 11 12  2  0  0  0
 11 13  2  0  0  0
 11 14  1  0  0  0
 14 15  1  0  0  0
 14 43  1  0  0  0
 15 16  1  0  0  0
 15 26  1  0  0  0
 15 44  1  0  0  0
 16 17  1  0  0  0
 16 45  1  0  0  0
 16 46  1  0  0  0
 17 22  1  0  0  0
 17 18  2  0  0  0
 18 19  1  0  0  0
 18 47  1  0  0  0
 19 20  2  0  0  0
 19 48  1  0  0  0
 20 21  1  0  0  0
 20 49  1  0  0  0
 21 22  2  0  0  0
 21 23  1  0  0  0
 22 50  1  0  0  0
 23 24  2  3  0  0
 23 25  1  0  0  0
 24 51  1  0  0  0
 25 52  1  0  0  0
 25 53  1  0  0  0
 26 27  2  0  0  0
 26 28  1  0  0  0
 28 33  1  0  0  0
 28 29  1  0  0  0
 29 30  1  0  0  0
 29 54  1  0  0  0
 29 55  1  0  0  0
 30 31  1  0  0  0
 30 56  1  0  0  0
 30 57  1  0  0  0
 31 32  1  0  0  0
 31 34  1  0  0  0
 32 33  1  0  0  0
 32 58  1  0  0  0
 32 59  1  0  0  0
 33 60  1  0  0  0
 33 61  1  0  0  0
 34 35  2  0  0  0
 34 62  1  0  0  0
M  END
> <s_m_entry_id>
37845

> <s_m_entry_name>
ligand_docking-pose.192

> <s_m_Source_Path>
/home/csk/Desktop/cluster/DUD-E-result/thrb

> <s_m_Source_File>
ligand_docking-pose.sdf

> <i_m_Source_File_Index>
192

> <i_lp_mmshare_version>
53161

> <i_f3d_flags>
0

> <r_lp_tautomer_probability>
1

> <s_lp_Force_Field>
OPLS_2005

> <r_lp_Energy>
48.268577

> <b_lp_Chiralities_Consistent>
1

> <s_lp_Variant>
172784-1

> <s_i_glide_gridfile>
glide-grid_1ype

> <i_i_glide_lignum>
406

> <i_i_glide_rotatable_bonds>
9

> <r_i_docking_score>
-7.40490052794976

> <r_i_glide_ligand_efficiency>
-0.21156858651285

> <r_i_glide_ligand_efficiency_sa>
-0.692054874816239

> <r_i_glide_ligand_efficiency_ln>
-1.62554000879763

> <r_i_glide_gscore>
-7.40490052794976

> <r_i_glide_lipo>
-3.17091473402573

> <r_i_glide_hbond>
-0.67876326983616

> <r_i_glide_metal>
0

> <r_i_glide_rewards>
0.159659110106374

> <r_i_glide_evdw>
-44.7284126281738

> <r_i_glide_ecoul>
-11.5970869064331

> <r_i_glide_erotb>
0.501743974167365

> <r_i_glide_esite>
-0.240641940987951

> <r_i_glide_emodel>
-79.4152455156798

> <r_i_glide_energy>
-56.3254995346069

> <r_i_glide_einternal>
6.4910135269165

> <i_i_glide_confnum>
2

> <i_i_glide_posenum>
363

> <r_i_glide_eff_state_penalty>
0

> <s_user_duplicate_titles>
172784,172246

> <s_m_subgroup_title>
dock_pv

> <s_m_subgroupid>
dock_pv1

> <b_m_subgroup_collapsed>
0

$$$$
273734
                    3D
 Schrodinger Suite 2021-1.
 60 62  0  0  1  0            999 V2000
   21.4564  -13.8530   26.2092 C   0  0  0  0  0  0
   20.0659  -13.8414   26.2628 C   0  0  0  0  0  0
   19.3376  -14.8487   25.6349 C   0  0  0  0  0  0
   20.0056  -15.8674   24.9488 C   0  0  0  0  0  0
   21.4042  -15.9017   24.9438 C   0  0  0  0  0  0
   22.1308  -14.8864   25.5621 C   0  0  0  0  0  0
   19.2190  -16.9331   24.1924 C   0  0  0  0  0  0
   19.4039  -16.8543   22.3000 S   0  0  0  0  0  0
   18.6995  -18.0140   21.7466 O   0  0  0  0  0  0
   20.8175  -16.6418   21.9774 O   0  0  0  0  0  0
   18.4875  -15.4348   21.7814 N   0  0  2  0  0  0
   18.7581  -14.0523   22.2619 C   0  0  1  0  0  0
   20.2449  -13.6127   22.2565 C   0  0  0  0  0  0
   21.0044  -13.5572   20.9195 C   0  0  0  0  0  0
   20.3394  -12.7453   19.8042 C   0  0  0  0  0  0
   18.9403  -13.2630   19.4422 C   0  0  0  0  0  0
   17.8574  -12.7808   20.3087 N   0  0  0  0  0  0
   17.7032  -13.1018   21.6301 C   0  0  0  0  0  0
   16.7728  -12.6769   22.3210 O   0  0  0  0  0  0
   16.8393  -11.9164   19.6712 C   0  0  0  0  0  0
   15.5803  -12.7089   19.2483 C   0  0  0  0  0  0
   15.5773  -13.9360   19.1401 O   0  0  0  0  0  0
   14.3134  -11.9067   18.9419 C   0  0  0  0  0  0
   13.6598  -11.4086   20.2242 C   0  0  0  0  0  0
   14.0467  -10.1890   20.7738 C   0  0  0  0  0  0
   13.4185   -9.6997   21.9115 C   0  0  0  0  0  0
   12.3898  -10.4171   22.5436 C   0  0  0  0  0  0
   12.0267  -11.6600   21.9826 C   0  0  0  0  0  0
   12.6499  -12.1483   20.8364 C   0  0  0  0  0  0
   11.7315   -9.8530   23.7588 C   0  0  0  0  0  0
   12.0160   -8.7022   24.1903 N   0  0  0  0  0  0
   10.8160  -10.6853   24.3401 N   0  0  0  0  0  0
   18.4654  -14.0630   23.3098 H   0  0  0  0  0  0
   22.0142  -13.0647   26.6928 H   0  0  0  0  0  0
   19.5605  -13.0480   26.7895 H   0  0  0  0  0  0
   18.2577  -14.8220   25.6666 H   0  0  0  0  0  0
   21.9297  -16.6926   24.4279 H   0  0  0  0  0  0
   23.2110  -14.8993   25.5416 H   0  0  0  0  0  0
   18.1528  -16.8884   24.4124 H   0  0  0  0  0  0
   19.5729  -17.9185   24.4930 H   0  0  0  0  0  0
   17.5146  -15.6175   21.5214 H   0  0  0  0  0  0
   20.8143  -14.2615   22.9148 H   0  0  0  0  0  0
   20.3023  -12.6530   22.7563 H   0  0  0  0  0  0
   21.1702  -14.5718   20.5551 H   0  0  0  0  0  0
   22.0012  -13.1540   21.1056 H   0  0  0  0  0  0
   20.9755  -12.8296   18.9217 H   0  0  0  0  0  0
   20.3063  -11.6845   20.0566 H   0  0  0  0  0  0
   18.9750  -14.3485   19.5217 H   0  0  0  0  0  0
   18.6940  -13.0970   18.3927 H   0  0  0  0  0  0
   17.2586  -11.4514   18.7798 H   0  0  0  0  0  0
   16.5598  -11.1086   20.3481 H   0  0  0  0  0  0
   13.6109  -12.5474   18.4077 H   0  0  0  0  0  0
   14.5556  -11.0747   18.2814 H   0  0  0  0  0  0
   14.8398   -9.6106   20.3273 H   0  0  0  0  0  0
   13.7507   -8.7490   22.3051 H   0  0  0  0  0  0
   11.2468  -12.2702   22.4158 H   0  0  0  0  0  0
   12.3397  -13.0986   20.4253 H   0  0  0  0  0  0
   11.4747   -8.4817   25.0120 H   0  0  0  0  0  0
   10.1726  -10.3240   25.0391 H   0  0  0  0  0  0
   10.5256  -11.5296   23.8727 H   0  0  0  0  0  0
  1  6  1  0  0  0
  1  2  2  0  0  0
  1 34  1  0  0  0
  2  3  1  0  0  0
  2 35  1  0  0  0
  3  4  2  0  0  0
  3 36  1  0  0  0
  4  5  1  0  0  0
  4  7  1  0  0  0
  5  6  2  0  0  0
  5 37  1  0  0  0
  6 38  1  0  0  0
  7  8  1  0  0  0
  7 39  1  0  0  0
  7 40  1  0  0  0
  8  9  2  0  0  0
  8 10  2  0  0  0
  8 11  1  0  0  0
 11 12  1  0  0  0
 11 41  1  0  0  0
 12 33  1  0  0  0
 12 18  1  0  0  0
 12 13  1  0  0  0
 13 14  1  0  0  0
 13 42  1  0  0  0
 13 43  1  0  0  0
 14 15  1  0  0  0
 14 44  1  0  0  0
 14 45  1  0  0  0
 15 16  1  0  0  0
 15 46  1  0  0  0
 15 47  1  0  0  0
 16 17  1  0  0  0
 16 48  1  0  0  0
 16 49  1  0  0  0
 17 18  1  0  0  0
 17 20  1  0  0  0
 18 19  2  0  0  0
 20 21  1  0  0  0
 20 50  1  0  0  0
 20 51  1  0  0  0
 21 22  2  0  0  0
 21 23  1  0  0  0
 23 24  1  0  0  0
 23 52  1  0  0  0
 23 53  1  0  0  0
 24 29  1  0  0  0
 24 25  2  0  0  0
 25 26  1  0  0  0
 25 54  1  0  0  0
 26 27  2  0  0  0
 26 55  1  0  0  0
 27 28  1  0  0  0
 27 30  1  0  0  0
 28 29  2  0  0  0
 28 56  1  0  0  0
 29 57  1  0  0  0
 30 31  2  3  0  0
 30 32  1  0  0  0
 31 58  1  0  0  0
 32 59  1  0  0  0
 32 60  1  0  0  0
M  END
> <s_m_entry_id>
37847

> <s_m_entry_name>
ligand_docking-pose.194

> <s_m_Source_Path>
/home/csk/Desktop/cluster/DUD-E-result/thrb

> <s_m_Source_File>
ligand_docking-pose.sdf

> <i_m_Source_File_Index>
194

> <i_lp_mmshare_version>
53161

> <i_f3d_flags>
0

> <r_lp_tautomer_probability>
0.999999960000001

> <s_lp_Force_Field>
OPLS_2005

> <r_lp_Energy>
20.992334

> <b_lp_Chiralities_Consistent>
1

> <s_lp_Variant>
273734-1

> <s_i_glide_gridfile>
glide-grid_1ype

> <i_i_glide_lignum>
1581

> <i_i_glide_rotatable_bonds>
9

> <r_i_docking_score>
-7.4042445235577

> <r_i_glide_ligand_efficiency>
-0.231382641361178

> <r_i_glide_ligand_efficiency_sa>
-0.734594095759193

> <r_i_glide_ligand_efficiency_ln>
-1.65801218090746

> <r_i_glide_gscore>
-7.4042445235577

> <r_i_glide_lipo>
-3.58163228503155

> <r_i_glide_hbond>
-0.247945754625169

> <r_i_glide_metal>
0

> <r_i_glide_rewards>
-1.12286548170517

> <r_i_glide_evdw>
-45.9322891235352

> <r_i_glide_ecoul>
-4.95578289031982

> <r_i_glide_erotb>
0.674926247165315

> <r_i_glide_esite>
-0.0867453596363937

> <r_i_glide_emodel>
-69.5281919757923

> <r_i_glide_energy>
-50.888072013855

> <r_i_glide_einternal>
8.85385131835938

> <i_i_glide_confnum>
6

> <i_i_glide_posenum>
140

> <r_i_glide_eff_state_penalty>
0

> <s_user_duplicate_titles>
273734

> <s_m_subgroup_title>
dock_pv

> <s_m_subgroupid>
dock_pv1

> <b_m_subgroup_collapsed>
0

$$$$
57906
                    3D
 Schrodinger Suite 2021-1.
 61 63  0  0  1  0            999 V2000
   20.9227  -12.2707   20.0176 C   0  0  0  0  0  0
   19.7817  -12.9992   20.5851 N   0  0  0  0  0  0
   19.7829  -13.4591   21.8707 C   0  0  0  0  0  0
   18.7891  -14.1783   22.4217 C   0  0  0  0  0  0
   17.6395  -14.5303   21.5993 C   0  0  0  0  0  0
   16.7343  -15.2670   22.0033 O   0  0  0  0  0  0
   17.6589  -13.9415   20.3449 N   0  0  0  0  0  0
   18.6247  -13.0722   19.8365 C   0  0  0  0  0  0
   18.4249  -12.3391   18.8596 O   0  0  0  0  0  0
   16.4939  -14.2497   19.4534 C   0  0  0  0  0  0
   15.3066  -13.2876   19.6717 C   0  0  0  0  0  0
   14.6564  -12.9288   18.6924 O   0  0  0  0  0  0
   15.0620  -12.8601   20.9252 N   0  0  0  0  0  0
   14.2298  -11.7233   21.3356 C   0  0  1  0  0  0
   14.3883  -10.4524   20.4670 C   0  0  0  0  0  0
   13.5988   -9.2638   21.0173 C   0  0  0  0  0  0
   12.1568   -9.6477   21.3608 C   0  0  0  0  0  0
   12.1654  -10.7596   22.3200 N   0  0  0  0  0  0
   12.7634  -12.0024   21.7920 C   0  0  1  0  0  0
   12.0160  -12.6530   20.7822 O   0  0  0  0  0  0
   11.4044  -10.6627   23.5249 C   0  0  0  0  0  0
   11.2166   -9.6011   24.1665 N   0  0  0  0  0  0
   10.8154  -11.8529   23.9748 N   0  0  0  0  0  0
   18.7748  -14.6514   23.7469 N   0  0  0  0  0  0
   19.9892  -15.8084   24.2797 S   0  0  0  0  0  0
   19.2866  -16.8182   25.0752 O   0  0  0  0  0  0
   20.7853  -16.2083   23.1148 O   0  0  0  0  0  0
   21.0704  -14.7958   25.4551 C   0  0  0  0  0  0
   22.5406  -14.8346   25.0748 C   0  0  0  0  0  0
   23.0673  -13.8310   24.2629 C   0  0  0  0  0  0
   24.4089  -13.8555   23.8997 C   0  0  0  0  0  0
   25.2153  -14.9101   24.3203 C   0  0  0  0  0  0
   24.6943  -15.9240   25.1213 C   0  0  0  0  0  0
   23.3550  -15.8832   25.5079 C   0  0  0  0  0  0
   14.7255  -11.4529   22.2659 H   0  0  0  0  0  0
   21.8627  -12.6978   20.3736 H   0  0  0  0  0  0
   20.9434  -12.3164   18.9253 H   0  0  0  0  0  0
   20.8917  -11.2220   20.3193 H   0  0  0  0  0  0
   20.6434  -13.1208   22.4295 H   0  0  0  0  0  0
   16.1710  -15.2877   19.5345 H   0  0  0  0  0  0
   16.8073  -14.1414   18.4133 H   0  0  0  0  0  0
   15.5040  -13.3830   21.6702 H   0  0  0  0  0  0
   14.0029  -10.6537   19.4675 H   0  0  0  0  0  0
   15.4413  -10.1860   20.3596 H   0  0  0  0  0  0
   13.5817   -8.4802   20.2651 H   0  0  0  0  0  0
   14.0896   -8.8353   21.8924 H   0  0  0  0  0  0
   11.6182   -9.9653   20.4658 H   0  0  0  0  0  0
   11.6242   -8.7753   21.7440 H   0  0  0  0  0  0
   12.8310  -12.7341   22.6000 H   0  0  0  0  0  0
   11.2893  -13.1285   21.1925 H   0  0  0  0  0  0
   10.5817   -9.7517   24.9400 H   0  0  0  0  0  0
   10.1290  -11.8408   24.7201 H   0  0  0  0  0  0
   10.8352  -12.7215   23.4573 H   0  0  0  0  0  0
   17.8356  -14.9512   24.0299 H   0  0  0  0  0  0
   20.6924  -13.7731   25.4466 H   0  0  0  0  0  0
   20.9069  -15.1826   26.4596 H   0  0  0  0  0  0
   22.4337  -13.0365   23.9086 H   0  0  0  0  0  0
   24.8162  -13.0707   23.2800 H   0  0  0  0  0  0
   26.2538  -14.9411   24.0220 H   0  0  0  0  0  0
   25.3309  -16.7319   25.4509 H   0  0  0  0  0  0
   22.9531  -16.6687   26.1308 H   0  0  0  0  0  0
  1  2  1  0  0  0
  1 36  1  0  0  0
  1 37  1  0  0  0
  1 38  1  0  0  0
  2  8  1  0  0  0
  2  3  1  0  0  0
  3  4  2  0  0  0
  3 39  1  0  0  0
  4  5  1  0  0  0
  4 24  1  0  0  0
  5  6  2  0  0  0
  5  7  1  0  0  0
  7  8  1  0  0  0
  7 10  1  0  0  0
  8  9  2  0  0  0
 10 11  1  0  0  0
 10 40  1  0  0  0
 10 41  1  0  0  0
 11 12  2  0  0  0
 11 13  1  0  0  0
 13 14  1  0  0  0
 13 42  1  0  0  0
 14 35  1  0  0  0
 14 19  1  0  0  0
 14 15  1  0  0  0
 15 16  1  0  0  0
 15 43  1  0  0  0
 15 44  1  0  0  0
 16 17  1  0  0  0
 16 45  1  0  0  0
 16 46  1  0  0  0
 17 18  1  0  0  0
 17 47  1  0  0  0
 17 48  1  0  0  0
 18 19  1  0  0  0
 18 21  1  0  0  0
 19 20  1  0  0  0
 19 49  1  0  0  0
 20 50  1  0  0  0
 21 22  2  3  0  0
 21 23  1  0  0  0
 22 51  1  0  0  0
 23 52  1  0  0  0
 23 53  1  0  0  0
 24 25  1  0  0  0
 24 54  1  0  0  0
 25 26  2  0  0  0
 25 27  2  0  0  0
 25 28  1  0  0  0
 28 29  1  0  0  0
 28 55  1  0  0  0
 28 56  1  0  0  0
 29 34  1  0  0  0
 29 30  2  0  0  0
 30 31  1  0  0  0
 30 57  1  0  0  0
 31 32  2  0  0  0
 31 58  1  0  0  0
 32 33  1  0  0  0
 32 59  1  0  0  0
 33 34  2  0  0  0
 33 60  1  0  0  0
 34 61  1  0  0  0
M  END
> <s_m_entry_id>
37848

> <s_m_entry_name>
ligand_docking-pose.195

> <s_m_Source_Path>
/home/csk/Desktop/cluster/DUD-E-result/thrb

> <s_m_Source_File>
ligand_docking-pose.sdf

> <i_m_Source_File_Index>
195

> <i_lp_mmshare_version>
53161

> <i_f3d_flags>
0

> <r_lp_tautomer_probability>
1

> <s_lp_Force_Field>
OPLS_2005

> <r_lp_Energy>
23.520939

> <b_lp_Chiralities_Consistent>
1

> <s_lp_Variant>
57906-1

> <s_i_glide_gridfile>
glide-grid_1ype

> <i_i_glide_lignum>
4209

> <i_i_glide_rotatable_bonds>
10

> <r_i_docking_score>
-7.39933716352144

> <r_i_glide_ligand_efficiency>
-0.217627563632983

> <r_i_glide_ligand_efficiency_sa>
-0.705028822599951

> <r_i_glide_ligand_efficiency_ln>
-1.63472112379933

> <r_i_glide_gscore>
-7.39933716352144

> <r_i_glide_lipo>
-2.40271341776787

> <r_i_glide_hbond>
-0.425387878234529

> <r_i_glide_metal>
0

> <r_i_glide_rewards>
-1.37172438334107

> <r_i_glide_evdw>
-49.4928779602051

> <r_i_glide_ecoul>
-8.26006698608398

> <r_i_glide_erotb>
0.585457689300641

> <r_i_glide_esite>
-0.0713152275557643

> <r_i_glide_emodel>
-72.5640756785805

> <r_i_glide_energy>
-57.7529449462891

> <r_i_glide_einternal>
16.7980537414551

> <i_i_glide_confnum>
63

> <i_i_glide_posenum>
125

> <r_i_glide_eff_state_penalty>
0

> <s_user_duplicate_titles>
57906

> <s_m_subgroup_title>
dock_pv

> <s_m_subgroupid>
dock_pv1

> <b_m_subgroup_collapsed>
0

$$$$
46395
                    3D
 Schrodinger Suite 2021-1.
 63 66  0  0  1  0            999 V2000
   13.3314  -17.6181   18.9883 C   0  0  0  0  0  0
   12.6172  -18.2995   18.0050 C   0  0  0  0  0  0
   11.4237  -17.7744   17.5124 C   0  0  0  0  0  0
   10.9515  -16.5472   17.9985 C   0  0  0  0  0  0
   11.6703  -15.8642   18.9863 C   0  0  0  0  0  0
   12.8603  -16.4024   19.4864 C   0  0  0  0  0  0
   13.8096  -15.6030   20.7511 S   0  0  0  0  0  0
   13.0000  -14.0741   21.3116 C   0  0  0  0  0  0
   13.2738  -12.7759   20.4810 C   0  0  1  0  0  0
   12.6100  -11.4865   21.0521 C   0  0  0  0  0  0
   12.9355  -10.3664   20.7120 O   0  0  0  0  0  0
   11.6163  -11.7464   21.9530 O   0  0  0  0  0  0
   14.7114  -12.4497   20.2175 N   0  0  0  0  0  0
   15.2036  -12.2529   18.9812 C   0  0  0  0  0  0
   14.5793  -11.9543   17.9624 O   0  0  0  0  0  0
   16.5377  -12.3440   19.1220 N   0  0  0  0  0  0
   16.7998  -12.9064   20.3749 N   0  0  0  0  0  0
   15.6935  -12.6877   21.1012 C   0  0  0  0  0  0
   15.6161  -12.6530   22.3210 O   0  0  0  0  0  0
   18.1818  -12.7165   20.9350 C   0  0  2  0  0  0
   19.2126  -12.6323   19.8143 C   0  0  0  0  0  0
   18.8826  -12.6517   18.5179 C   0  0  0  0  0  0
   17.4456  -12.7862   18.0425 C   0  0  0  0  0  0
   18.5448  -13.8266   21.9516 C   0  0  0  0  0  0
   18.3170  -15.0067   21.6836 O   0  0  0  0  0  0
   19.0755  -13.4301   23.1214 N   0  0  0  0  0  0
   19.3851  -14.2848   24.2743 C   0  0  0  0  0  0
   20.8965  -14.5725   24.4581 C   0  0  2  0  0  0
   21.7432  -13.2846   24.6225 C   0  0  0  0  0  0
   23.2534  -13.5731   24.7947 C   0  0  0  0  0  0
   23.7804  -14.4251   23.6211 C   0  0  2  0  0  0
   22.9755  -15.7420   23.5392 C   0  0  0  0  0  0
   21.4762  -15.4563   23.3279 C   0  0  0  0  0  0
   25.2123  -14.6530   23.6421 N   0  0  0  0  0  0
    9.4953  -15.8529   17.3807 Cl  0  0  0  0  0  0
   10.5622  -18.6597   16.2989 Cl  0  0  0  0  0  0
   14.2527  -18.0404   19.3627 H   0  0  0  0  0  0
   12.9931  -19.2349   17.6220 H   0  0  0  0  0  0
   11.2904  -14.9219   19.3497 H   0  0  0  0  0  0
   11.9322  -14.2795   21.3926 H   0  0  0  0  0  0
   13.3313  -13.9236   22.3400 H   0  0  0  0  0  0
   12.7931  -12.9326   19.5142 H   0  0  0  0  0  0
   11.4609  -12.6702   22.1575 H   0  0  0  0  0  0
   18.2001  -11.7711   21.4841 H   0  0  0  0  0  0
   20.2605  -12.5437   20.0696 H   0  0  0  0  0  0
   19.6810  -12.6129   17.7899 H   0  0  0  0  0  0
   17.2157  -13.8148   17.7568 H   0  0  0  0  0  0
   17.2787  -12.1615   17.1632 H   0  0  0  0  0  0
   19.2160  -12.4420   23.2630 H   0  0  0  0  0  0
   19.0072  -13.7506   25.1480 H   0  0  0  0  0  0
   18.8353  -15.2267   24.1990 H   0  0  0  0  0  0
   21.0195  -15.1454   25.3795 H   0  0  0  0  0  0
   21.5996  -12.6545   23.7428 H   0  0  0  0  0  0
   21.3686  -12.6899   25.4575 H   0  0  0  0  0  0
   23.4290  -14.0852   25.7430 H   0  0  0  0  0  0
   23.8041  -12.6341   24.8499 H   0  0  0  0  0  0
   23.5714  -13.8531   22.7186 H   0  0  0  0  0  0
   23.1256  -16.3339   24.4431 H   0  0  0  0  0  0
   23.3353  -16.3665   22.7211 H   0  0  0  0  0  0
   20.9155  -16.3896   23.2585 H   0  0  0  0  0  0
   21.3310  -14.9721   22.3607 H   0  0  0  0  0  0
   25.7286  -13.7845   23.5441 H   0  0  0  0  0  0
   25.4943  -15.0547   24.5267 H   0  0  0  0  0  0
  1  6  1  0  0  0
  1  2  2  0  0  0
  1 37  1  0  0  0
  2  3  1  0  0  0
  2 38  1  0  0  0
  3  4  2  0  0  0
  3 36  1  0  0  0
  4  5  1  0  0  0
  4 35  1  0  0  0
  5  6  2  0  0  0
  5 39  1  0  0  0
  6  7  1  0  0  0
  7  8  1  0  0  0
  8  9  1  0  0  0
  8 40  1  0  0  0
  8 41  1  0  0  0
  9 10  1  0  0  0
  9 13  1  0  0  0
  9 42  1  0  0  0
 10 11  2  0  0  0
 10 12  1  0  0  0
 12 43  1  0  0  0
 13 18  1  0  0  0
 13 14  1  0  0  0
 14 15  2  0  0  0
 14 16  1  0  0  0
 16 23  1  0  0  0
 16 17  1  0  0  0
 17 18  1  0  0  0
 17 20  1  0  0  0
 18 19  2  0  0  0
 20 21  1  0  0  0
 20 24  1  0  0  0
 20 44  1  0  0  0
 21 22  2  0  0  0
 21 45  1  0  0  0
 22 23  1  0  0  0
 22 46  1  0  0  0
 23 47  1  0  0  0
 23 48  1  0  0  0
 24 25  2  0  0  0
 24 26  1  0  0  0
 26 27  1  0  0  0
 26 49  1  0  0  0
 27 28  1  0  0  0
 27 50  1  0  0  0
 27 51  1  0  0  0
 28 33  1  0  0  0
 28 29  1  0  0  0
 28 52  1  0  0  0
 29 30  1  0  0  0
 29 53  1  0  0  0
 29 54  1  0  0  0
 30 31  1  0  0  0
 30 55  1  0  0  0
 30 56  1  0  0  0
 31 32  1  0  0  0
 31 34  1  0  0  0
 31 57  1  0  0  0
 32 33  1  0  0  0
 32 58  1  0  0  0
 32 59  1  0  0  0
 33 60  1  0  0  0
 33 61  1  0  0  0
 34 62  1  0  0  0
 34 63  1  0  0  0
M  END
> <s_m_entry_id>
37850

> <s_m_entry_name>
ligand_docking-pose.197

> <s_m_Source_Path>
/home/csk/Desktop/cluster/DUD-E-result/thrb

> <s_m_Source_File>
ligand_docking-pose.sdf

> <i_m_Source_File_Index>
197

> <i_lp_mmshare_version>
53161

> <i_f3d_flags>
0

> <r_lp_tautomer_probability>
1

> <s_lp_Force_Field>
OPLS_2005

> <r_lp_Energy>
19.407766

> <b_lp_Chiralities_Consistent>
1

> <s_lp_Variant>
46395-8

> <s_i_glide_gridfile>
glide-grid_1ype

> <i_i_glide_lignum>
1842

> <i_i_glide_rotatable_bonds>
10

> <r_i_docking_score>
-7.39385287391229

> <r_i_glide_ligand_efficiency>
-0.205384802053119

> <r_i_glide_ligand_efficiency_sa>
-0.67816567359795

> <r_i_glide_ligand_efficiency_ln>
-1.61313893826798

> <r_i_glide_gscore>
-7.39385287391229

> <r_i_glide_lipo>
-1.92288325356731

> <r_i_glide_hbond>
-0.739689616624045

> <r_i_glide_metal>
0

> <r_i_glide_rewards>
-1.24314782397463

> <r_i_glide_evdw>
-48.0793151855469

> <r_i_glide_ecoul>
-10.2998628616333

> <r_i_glide_erotb>
0.460813008776035

> <r_i_glide_esite>
0

> <r_i_glide_emodel>
-80.9154662228557

> <r_i_glide_energy>
-58.3791780471802

> <r_i_glide_einternal>
3.98488330841064

> <i_i_glide_confnum>
31

> <i_i_glide_posenum>
337

> <r_i_glide_eff_state_penalty>
0

> <s_user_duplicate_titles>
46395

> <s_m_subgroup_title>
dock_pv

> <s_m_subgroupid>
dock_pv1

> <b_m_subgroup_collapsed>
0

$$$$
553118
                    3D
 Schrodinger Suite 2021-1.
 58 60  0  0  1  0            999 V2000
   11.6792   -8.3107   24.5446 C   0  0  0  0  0  0
   12.0094   -9.4535   23.6014 C   0  0  0  0  0  0
   11.2302  -10.6149   23.6057 C   0  0  0  0  0  0
   11.5352  -11.6660   22.7409 C   0  0  0  0  0  0
   12.6096  -11.5555   21.8529 C   0  0  0  0  0  0
   13.3639  -10.3823   21.8266 C   0  0  0  0  0  0
   13.0754   -9.3445   22.7086 C   0  0  0  0  0  0
   13.8698   -8.2542   22.7210 F   0  0  0  0  0  0
   13.0759  -12.9398   20.8234 S   0  0  0  0  0  0
   13.3092  -12.4388   19.4647 O   0  0  0  0  0  0
   12.1184  -14.0219   21.0663 O   0  0  0  0  0  0
   14.6211  -13.4945   21.5193 N   0  0  0  0  0  0
   15.9199  -13.1698   21.0672 C   0  0  0  0  0  0
   16.1639  -12.1077   20.1898 C   0  0  0  0  0  0
   17.4360  -11.8721   19.6872 C   0  0  0  0  0  0
   18.5067  -12.6932   20.0380 C   0  0  0  0  0  0
   18.3018  -13.7547   20.9437 C   0  0  0  0  0  0
   17.0106  -13.9636   21.4761 C   0  0  0  0  0  0
   16.8159  -14.9604   22.4100 O   0  0  0  0  0  0
   19.4612  -14.6880   21.3443 C   0  0  0  0  0  0
   20.4443  -14.0487   22.3317 C   0  0  0  0  0  0
   21.4358  -13.4530   21.9118 O   0  0  0  0  0  0
   20.1821  -14.2016   23.6403 N   0  0  0  0  0  0
   21.0747  -13.7736   24.7207 C   0  0  0  0  0  0
   22.4170  -14.5125   24.7339 C   0  0  0  0  0  0
   23.5980  -13.8253   24.4207 C   0  0  0  0  0  0
   24.8162  -14.5079   24.3983 C   0  0  0  0  0  0
   24.8254  -15.8668   24.7096 C   0  0  0  0  0  0
   23.7010  -16.5525   25.0230 N   0  0  0  0  0  0
   22.5190  -15.8815   25.0412 C   0  0  0  0  0  0
   21.3096  -16.7390   25.3802 C   0  0  0  0  0  0
   26.0160  -16.5867   24.7009 N   0  0  0  0  0  0
   19.8570  -12.4051   19.3897 C   0  0  0  0  0  0
   12.4287   -8.2315   25.3337 H   0  0  0  0  0  0
   11.6638   -7.3658   24.0014 H   0  0  0  0  0  0
   10.6887   -8.4332   24.9829 H   0  0  0  0  0  0
   10.3912  -10.7120   24.2829 H   0  0  0  0  0  0
   10.9344  -12.5634   22.7677 H   0  0  0  0  0  0
   14.2016  -10.2695   21.1596 H   0  0  0  0  0  0
   14.5240  -14.2495   22.1814 H   0  0  0  0  0  0
   15.3821  -11.4531   19.8524 H   0  0  0  0  0  0
   17.5787  -11.0534   18.9981 H   0  0  0  0  0  0
   16.0308  -14.8531   22.9556 H   0  0  0  0  0  0
   20.0088  -15.0110   20.4587 H   0  0  0  0  0  0
   19.0898  -15.6210   21.7698 H   0  0  0  0  0  0
   19.3320  -14.6773   23.9061 H   0  0  0  0  0  0
   20.5721  -13.9350   25.6749 H   0  0  0  0  0  0
   21.2175  -12.6922   24.6569 H   0  0  0  0  0  0
   23.5725  -12.7737   24.1718 H   0  0  0  0  0  0
   25.7306  -13.9867   24.1507 H   0  0  0  0  0  0
   20.7781  -17.0070   24.4677 H   0  0  0  0  0  0
   21.5934  -17.6601   25.8896 H   0  0  0  0  0  0
   20.6169  -16.2126   26.0355 H   0  0  0  0  0  0
   26.8947  -16.0744   24.7209 H   0  0  0  0  0  0
   25.9771  -17.5453   25.0052 H   0  0  0  0  0  0
   19.7425  -11.8537   18.4568 H   0  0  0  0  0  0
   20.4903  -11.8259   20.0611 H   0  0  0  0  0  0
   20.3866  -13.3188   19.1227 H   0  0  0  0  0  0
  1  2  1  0  0  0
  1 34  1  0  0  0
  1 35  1  0  0  0
  1 36  1  0  0  0
  2  7  1  0  0  0
  2  3  2  0  0  0
  3  4  1  0  0  0
  3 37  1  0  0  0
  4  5  2  0  0  0
  4 38  1  0  0  0
  5  6  1  0  0  0
  5  9  1  0  0  0
  6  7  2  0  0  0
  6 39  1  0  0  0
  7  8  1  0  0  0
  9 10  2  0  0  0
  9 11  2  0  0  0
  9 12  1  0  0  0
 12 13  1  0  0  0
 12 40  1  0  0  0
 13 18  1  0  0  0
 13 14  2  0  0  0
 14 15  1  0  0  0
 14 41  1  0  0  0
 15 16  2  0  0  0
 15 42  1  0  0  0
 16 17  1  0  0  0
 16 33  1  0  0  0
 17 18  2  0  0  0
 17 20  1  0  0  0
 18 19  1  0  0  0
 19 43  1  0  0  0
 20 21  1  0  0  0
 20 44  1  0  0  0
 20 45  1  0  0  0
 21 22  2  0  0  0
 21 23  1  0  0  0
 23 24  1  0  0  0
 23 46  1  0  0  0
 24 25  1  0  0  0
 24 47  1  0  0  0
 24 48  1  0  0  0
 25 30  1  0  0  0
 25 26  2  0  0  0
 26 27  1  0  0  0
 26 49  1  0  0  0
 27 28  2  0  0  0
 27 50  1  0  0  0
 28 29  1  0  0  0
 28 32  1  0  0  0
 29 30  2  0  0  0
 30 31  1  0  0  0
 31 51  1  0  0  0
 31 52  1  0  0  0
 31 53  1  0  0  0
 32 54  1  0  0  0
 32 55  1  0  0  0
 33 56  1  0  0  0
 33 57  1  0  0  0
 33 58  1  0  0  0
M  END
> <s_m_entry_id>
37851

> <s_m_entry_name>
ligand_docking-pose.198

> <s_m_Source_Path>
/home/csk/Desktop/cluster/DUD-E-result/thrb

> <s_m_Source_File>
ligand_docking-pose.sdf

> <i_m_Source_File_Index>
198

> <i_lp_mmshare_version>
53161

> <i_f3d_flags>
0

> <r_lp_tautomer_probability>
0.999999772200052

> <s_lp_Force_Field>
OPLS_2005

> <r_lp_Energy>
7.58482

> <b_lp_Chiralities_Consistent>
1

> <s_lp_Variant>
553118-1

> <s_i_glide_gridfile>
glide-grid_1ype

> <i_i_glide_lignum>
2413

> <i_i_glide_rotatable_bonds>
9

> <r_i_docking_score>
-7.39195728339878

> <r_i_glide_ligand_efficiency>
-0.223998705557539

> <r_i_glide_ligand_efficiency_sa>
-0.718483537113038

> <r_i_glide_ligand_efficiency_ln>
-1.64393302632143

> <r_i_glide_gscore>
-7.39195728339878

> <r_i_glide_lipo>
-3.44831959931057

> <r_i_glide_hbond>
-0.685952783658236

> <r_i_glide_metal>
0

> <r_i_glide_rewards>
-0.301325630190348

> <r_i_glide_evdw>
-49.2249565124512

> <r_i_glide_ecoul>
-7.96144771575928

> <r_i_glide_erotb>
0.724473873002364

> <r_i_glide_esite>
-0.0253681602555389

> <r_i_glide_emodel>
-78.7421297848952

> <r_i_glide_energy>
-57.1864042282104

> <r_i_glide_einternal>
5.01837062835693

> <i_i_glide_confnum>
53

> <i_i_glide_posenum>
77

> <r_i_glide_eff_state_penalty>
0

> <s_user_duplicate_titles>
553118

> <s_m_subgroup_title>
dock_pv

> <s_m_subgroupid>
dock_pv1

> <b_m_subgroup_collapsed>
0

$$$$
70229
                    3D
 Schrodinger Suite 2021-1.
 41 43  0  0  1  0            999 V2000
   23.0706  -13.5784   25.2777 C   0  0  0  0  0  0
   21.8853  -13.4535   25.9988 C   0  0  0  0  0  0
   20.6649  -13.6127   25.3518 C   0  0  0  0  0  0
   20.6339  -13.8964   23.9840 C   0  0  0  0  0  0
   21.8271  -14.0117   23.2637 C   0  0  0  0  0  0
   23.0486  -13.8521   23.9136 C   0  0  0  0  0  0
   19.3047  -14.0839   23.2756 C   0  0  0  0  0  0
   19.1534  -13.0531   22.3046 O   0  0  0  0  0  0
   17.9228  -12.8560   21.7159 C   0  0  0  0  0  0
   16.8252  -13.7163   21.8658 C   0  0  0  0  0  0
   15.6078  -13.4083   21.2654 C   0  0  0  0  0  0
   15.4757  -12.2357   20.5190 C   0  0  0  0  0  0
   16.5736  -11.3947   20.3426 C   0  0  0  0  0  0
   17.7905  -11.7057   20.9401 C   0  0  0  0  0  0
   14.1150  -11.8482   19.9558 C   0  0  0  0  0  0
   13.2585  -11.2869   21.0244 N   0  3  0  0  0  0
   12.3320  -12.0781   21.6226 C   0  0  0  0  0  0
   11.6146  -11.6013   22.7201 C   0  0  0  0  0  0
   11.8719  -10.3188   23.1968 C   0  0  0  0  0  0
   12.8160   -9.5158   22.5568 C   0  0  0  0  0  0
   13.5092  -10.0256   21.4585 C   0  0  0  0  0  0
   11.2150   -9.8487   24.3223 N   0  0  0  0  0  0
   24.0148  -13.4584   25.7866 H   0  0  0  0  0  0
   21.9123  -13.2342   27.0563 H   0  0  0  0  0  0
   19.7482  -13.5157   25.9181 H   0  0  0  0  0  0
   21.8105  -14.2273   22.2050 H   0  0  0  0  0  0
   23.9735  -13.9370   23.3652 H   0  0  0  0  0  0
   18.4949  -14.0555   24.0082 H   0  0  0  0  0  0
   19.2850  -15.0659   22.8004 H   0  0  0  0  0  0
   16.8919  -14.6201   22.4514 H   0  0  0  0  0  0
   14.7622  -14.0653   21.4099 H   0  0  0  0  0  0
   16.4792  -10.4794   19.7784 H   0  0  0  0  0  0
   18.6289  -11.0333   20.8318 H   0  0  0  0  0  0
   13.6037  -12.7093   19.5202 H   0  0  0  0  0  0
   14.1924  -11.0946   19.1696 H   0  0  0  0  0  0
   12.2032  -13.0773   21.2318 H   0  0  0  0  0  0
   10.8856  -12.2333   23.2108 H   0  0  0  0  0  0
   13.0360   -8.5259   22.9295 H   0  0  0  0  0  0
   14.2919   -9.4789   20.9511 H   0  0  0  0  0  0
   11.3704   -8.8925   24.5994 H   0  0  0  0  0  0
   10.3384  -10.2894   24.5930 H   0  0  0  0  0  0
  1  6  1  0  0  0
  1  2  2  0  0  0
  1 23  1  0  0  0
  2  3  1  0  0  0
  2 24  1  0  0  0
  3  4  2  0  0  0
  3 25  1  0  0  0
  4  5  1  0  0  0
  4  7  1  0  0  0
  5  6  2  0  0  0
  5 26  1  0  0  0
  6 27  1  0  0  0
  7  8  1  0  0  0
  7 28  1  0  0  0
  7 29  1  0  0  0
  8  9  1  0  0  0
  9 14  1  0  0  0
  9 10  2  0  0  0
 10 11  1  0  0  0
 10 30  1  0  0  0
 11 12  2  0  0  0
 11 31  1  0  0  0
 12 13  1  0  0  0
 12 15  1  0  0  0
 13 14  2  0  0  0
 13 32  1  0  0  0
 14 33  1  0  0  0
 15 16  1  0  0  0
 15 34  1  0  0  0
 15 35  1  0  0  0
 16 21  1  0  0  0
 16 17  2  0  0  0
 17 18  1  0  0  0
 17 36  1  0  0  0
 18 19  2  0  0  0
 18 37  1  0  0  0
 19 20  1  0  0  0
 19 22  1  0  0  0
 20 21  2  0  0  0
 20 38  1  0  0  0
 21 39  1  0  0  0
 22 40  1  0  0  0
 22 41  1  0  0  0
M  CHG  1  16   1
M  END
> <s_m_entry_id>
37852

> <s_m_entry_name>
ligand_docking-pose.199

> <s_m_Source_Path>
/home/csk/Desktop/cluster/DUD-E-result/thrb

> <s_m_Source_File>
ligand_docking-pose.sdf

> <i_m_Source_File_Index>
199

> <i_lp_mmshare_version>
53161

> <i_f3d_flags>
0

> <r_lp_tautomer_probability>
1

> <s_lp_Force_Field>
OPLS_2005

> <r_lp_Energy>
25.046155

> <b_lp_Chiralities_Consistent>
1

> <s_lp_Variant>
70229-1

> <s_i_glide_gridfile>
glide-grid_1ype

> <i_i_glide_lignum>
1480

> <i_i_glide_rotatable_bonds>
5

> <r_i_docking_score>
-7.3916616566034

> <r_i_glide_ligand_efficiency>
-0.3359846207547

> <r_i_glide_ligand_efficiency_sa>
-0.941442120879991

> <r_i_glide_ligand_efficiency_ln>
-1.80679172628375

> <r_i_glide_gscore>
-7.3916616566034

> <r_i_glide_lipo>
-3.75265020376433

> <r_i_glide_hbond>
-0.0297786790371576

> <r_i_glide_metal>
0

> <r_i_glide_rewards>
-1.79099062088209

> <r_i_glide_evdw>
-39.7867126464844

> <r_i_glide_ecoul>
-5.61253118515015

> <r_i_glide_erotb>
1.07426549632731

> <r_i_glide_esite>
-0.0612923391503916

> <r_i_glide_emodel>
-63.932055020185

> <r_i_glide_energy>
-45.3992438316345

> <r_i_glide_einternal>
5.50362586975098

> <i_i_glide_confnum>
135

> <i_i_glide_posenum>
353

> <r_i_glide_eff_state_penalty>
0

> <s_user_duplicate_titles>
70229

> <s_m_subgroup_title>
dock_pv

> <s_m_subgroupid>
dock_pv1

> <b_m_subgroup_collapsed>
0

$$$$
252034
                    3D
 Schrodinger Suite 2021-1.
 58 60  0  0  1  0            999 V2000
   14.5153  -15.6078   21.1617 C   0  0  0  0  0  0
   15.6918  -15.9619   20.5001 C   0  0  0  0  0  0
   15.6141  -16.6571   19.2956 C   0  0  0  0  0  0
   14.3720  -16.9511   18.7363 C   0  0  0  0  0  0
   13.1717  -16.5767   19.3737 C   0  0  0  0  0  0
   13.2781  -15.9080   20.6077 C   0  0  0  0  0  0
   11.8289  -16.8698   18.7925 C   0  0  0  0  0  0
   10.7751  -16.6531   19.4426 N   0  0  0  0  0  0
   11.8433  -17.3804   17.5207 N   0  0  0  0  0  0
   17.0049  -15.6073   21.0829 C   0  0  0  0  0  0
   17.4187  -14.3845   21.4999 C   0  0  0  0  0  0
   16.5751  -13.1848   21.3345 C   0  0  0  0  0  0
   16.1471  -12.6530   22.3510 O   0  0  0  0  0  0
   16.2724  -12.6296   19.9815 C   0  0  0  0  0  0
   15.2321  -11.7910   19.7374 C   0  0  0  0  0  0
   14.2482  -11.2666   20.6915 C   0  0  0  0  0  0
   14.3882   -9.9523   21.1209 C   0  0  0  0  0  0
   13.5476   -9.4529   22.1004 C   0  0  0  0  0  0
   12.5539  -10.2520   22.6920 C   0  0  0  0  0  0
   12.3822  -11.5581   22.1862 C   0  0  0  0  0  0
   13.2185  -12.0597   21.1930 C   0  0  0  0  0  0
   11.7722   -9.7227   23.8444 C   0  0  0  0  0  0
   12.0156   -8.5793   24.3219 N   0  0  0  0  0  0
   10.8161  -10.5767   24.3209 N   0  0  0  0  0  0
   17.2301  -12.9886   18.8497 C   0  0  0  0  0  0
   18.5029  -12.1094   18.7826 C   0  0  0  0  0  0
   19.5077  -12.2505   19.9510 C   0  0  0  0  0  0
   20.0742  -13.6785   20.1300 C   0  0  0  0  0  0
   20.0542  -14.2414   21.5621 C   0  0  0  0  0  0
   18.7042  -14.1663   22.3160 C   0  0  0  0  0  0
   14.5536  -15.0865   22.1089 H   0  0  0  0  0  0
   16.5130  -16.9596   18.7783 H   0  0  0  0  0  0
   14.3661  -17.4822   17.7957 H   0  0  0  0  0  0
   12.4030  -15.5914   21.1568 H   0  0  0  0  0  0
   10.9449  -16.2679   20.3575 H   0  0  0  0  0  0
   10.9542  -17.5314   17.0687 H   0  0  0  0  0  0
   12.6491  -17.2500   16.9268 H   0  0  0  0  0  0
   17.6732  -16.4418   21.2404 H   0  0  0  0  0  0
   15.0912  -11.4366   18.7269 H   0  0  0  0  0  0
   15.1783   -9.3282   20.7231 H   0  0  0  0  0  0
   13.7313   -8.4424   22.4325 H   0  0  0  0  0  0
   11.6311  -12.2277   22.5816 H   0  0  0  0  0  0
   13.0957  -13.0768   20.8516 H   0  0  0  0  0  0
   12.7766   -8.1162   23.8563 H   0  0  0  0  0  0
   10.1550  -10.2325   25.0117 H   0  0  0  0  0  0
   10.5240  -11.3737   23.7786 H   0  0  0  0  0  0
   17.4535  -14.0476   18.8474 H   0  0  0  0  0  0
   16.6974  -12.8472   17.9076 H   0  0  0  0  0  0
   19.0238  -12.3121   17.8447 H   0  0  0  0  0  0
   18.1855  -11.0627   18.7312 H   0  0  0  0  0  0
   20.3396  -11.5640   19.7859 H   0  0  0  0  0  0
   19.0450  -11.8901   20.8697 H   0  0  0  0  0  0
   19.5270  -14.3895   19.5208 H   0  0  0  0  0  0
   21.0940  -13.7142   19.7430 H   0  0  0  0  0  0
   20.3650  -15.2866   21.5123 H   0  0  0  0  0  0
   20.8212  -13.7437   22.1569 H   0  0  0  0  0  0
   18.6652  -13.2021   22.8289 H   0  0  0  0  0  0
   18.7231  -14.8833   23.1387 H   0  0  0  0  0  0
  1  6  1  0  0  0
  1  2  2  0  0  0
  1 31  1  0  0  0
  2  3  1  0  0  0
  2 10  1  0  0  0
  3  4  2  0  0  0
  3 32  1  0  0  0
  4  5  1  0  0  0
  4 33  1  0  0  0
  5  6  2  0  0  0
  5  7  1  0  0  0
  6 34  1  0  0  0
  7  8  2  3  0  0
  7  9  1  0  0  0
  8 35  1  0  0  0
  9 36  1  0  0  0
  9 37  1  0  0  0
 10 11  2  0  0  0
 10 38  1  0  0  0
 11 30  1  0  0  0
 11 12  1  0  0  0
 12 13  2  0  0  0
 12 14  1  0  0  0
 14 15  2  0  0  0
 14 25  1  0  0  0
 15 16  1  0  0  0
 15 39  1  0  0  0
 16 21  1  0  0  0
 16 17  2  0  0  0
 17 18  1  0  0  0
 17 40  1  0  0  0
 18 19  2  0  0  0
 18 41  1  0  0  0
 19 20  1  0  0  0
 19 22  1  0  0  0
 20 21  2  0  0  0
 20 42  1  0  0  0
 21 43  1  0  0  0
 22 23  2  3  0  0
 22 24  1  0  0  0
 23 44  1  0  0  0
 24 45  1  0  0  0
 24 46  1  0  0  0
 25 26  1  0  0  0
 25 47  1  0  0  0
 25 48  1  0  0  0
 26 27  1  0  0  0
 26 49  1  0  0  0
 26 50  1  0  0  0
 27 28  1  0  0  0
 27 51  1  0  0  0
 27 52  1  0  0  0
 28 29  1  0  0  0
 28 53  1  0  0  0
 28 54  1  0  0  0
 29 30  1  0  0  0
 29 55  1  0  0  0
 29 56  1  0  0  0
 30 57  1  0  0  0
 30 58  1  0  0  0
M  END
> <s_m_entry_id>
37853

> <s_m_entry_name>
ligand_docking-pose.200

> <s_m_Source_Path>
/home/csk/Desktop/cluster/DUD-E-result/thrb

> <s_m_Source_File>
ligand_docking-pose.sdf

> <i_m_Source_File_Index>
200

> <i_lp_mmshare_version>
53161

> <i_f3d_flags>
0

> <r_lp_tautomer_probability>
1

> <s_lp_Force_Field>
OPLS_2005

> <r_lp_Energy>
40.451667

> <b_lp_Chiralities_Consistent>
1

> <s_lp_Variant>
252034-3

> <s_i_glide_gridfile>
glide-grid_1ype

> <i_i_glide_lignum>
1408

> <i_i_glide_rotatable_bonds>
4

> <r_i_docking_score>
-7.38632679481481

> <r_i_glide_ligand_efficiency>
-0.246210893160494

> <r_i_glide_ligand_efficiency_sa>
-0.765034489680874

> <r_i_glide_ligand_efficiency_ln>
-1.67825392825833

> <r_i_glide_gscore>
-7.38632679481481

> <r_i_glide_lipo>
-2.66344642660364

> <r_i_glide_hbond>
-0.456

> <r_i_glide_metal>
0

> <r_i_glide_rewards>
-1.29654573977625

> <r_i_glide_evdw>
-41.4555511474609

> <r_i_glide_ecoul>
-6.79070281982422

> <r_i_glide_erotb>
0.244432081275623

> <r_i_glide_esite>
-0.123383729363866

> <r_i_glide_emodel>
-62.8870657682584

> <r_i_glide_energy>
-48.2462539672852

> <r_i_glide_einternal>
3.03138089179993

> <i_i_glide_confnum>
4

> <i_i_glide_posenum>
16

> <r_i_glide_eff_state_penalty>
0

> <s_user_duplicate_titles>
252034

> <s_m_subgroup_title>
dock_pv

> <s_m_subgroupid>
dock_pv1

> <b_m_subgroup_collapsed>
0

$$$$
552194
                    3D
 Schrodinger Suite 2021-1.
 70 74  0  0  1  0            999 V2000
   10.9247  -17.1456   17.5210 C   0  0  0  0  0  0
   10.4302  -16.6461   18.7193 C   0  0  0  0  0  0
   11.2149  -16.6558   19.8691 C   0  0  0  0  0  0
   12.5194  -17.2047   19.8392 C   0  0  0  0  0  0
   13.3285  -17.2632   20.9982 C   0  0  0  0  0  0
   14.6009  -17.8312   20.9435 C   0  0  0  0  0  0
   15.0994  -18.3240   19.7381 C   0  0  0  0  0  0
   14.3312  -18.2719   18.5788 C   0  0  0  0  0  0
   13.0270  -17.7224   18.6087 C   0  0  0  0  0  0
   12.2103  -17.6750   17.4527 C   0  0  0  0  0  0
   15.5940  -17.9123   22.4294 S   0  0  0  0  0  0
   16.8000  -18.6883   22.1202 O   0  0  0  0  0  0
   14.6921  -18.2960   23.5204 O   0  0  0  0  0  0
   16.0742  -16.2534   22.7185 N   0  0  1  0  0  0
   17.0079  -15.5821   21.7738 C   0  0  2  0  0  0
   18.4780  -15.5975   22.2724 C   0  0  0  0  0  0
   18.8779  -14.9388   23.5687 C   0  0  0  0  0  0
   18.1168  -14.7944   24.6800 C   0  0  0  0  0  0
   18.8745  -14.2536   25.6963 N   0  0  0  0  0  0
   20.1743  -14.0264   25.3032 C   0  0  0  0  0  0
   20.2102  -14.4619   23.9434 C   0  0  0  0  0  0
   21.4556  -14.3647   23.2757 C   0  0  0  0  0  0
   22.6017  -13.8690   23.9311 C   0  0  0  0  0  0
   22.5304  -13.4533   25.2748 C   0  0  0  0  0  0
   21.3064  -13.5200   25.9648 C   0  0  0  0  0  0
   16.4227  -14.2117   21.3352 C   0  0  0  0  0  0
   17.1777  -13.2671   21.1053 O   0  0  0  0  0  0
   15.0930  -14.1570   21.1229 N   0  0  0  0  0  0
   14.3937  -13.0633   20.4531 C   0  0  0  0  0  0
   14.1273  -11.8073   21.3259 C   0  0  1  0  0  0
   14.7400  -10.5348   20.6879 C   0  0  0  0  0  0
   14.3077   -9.2188   21.3681 C   0  0  0  0  0  0
   12.7950   -9.1806   21.6284 C   0  0  0  0  0  0
   12.4080  -10.3661   22.4064 N   0  0  0  0  0  0
   12.6180  -11.6027   21.6381 C   0  0  0  0  0  0
   11.6162  -10.2519   23.5927 C   0  0  0  0  0  0
   11.6160   -9.2286   24.3211 N   0  0  0  0  0  0
   10.8161  -11.3639   23.9210 N   0  0  0  0  0  0
   17.0015  -16.1668   20.8526 H   0  0  0  0  0  0
   18.4982  -14.0602   26.6142 H   0  0  0  0  0  0
   14.6222  -11.8879   22.2953 H   0  0  0  0  0  0
   10.3114  -17.1141   16.6317 H   0  0  0  0  0  0
    9.4307  -16.2375   18.7525 H   0  0  0  0  0  0
   10.8200  -16.2541   20.7909 H   0  0  0  0  0  0
   12.9403  -16.8698   21.9250 H   0  0  0  0  0  0
   16.0884  -18.7571   19.6923 H   0  0  0  0  0  0
   14.7216  -18.6619   17.6503 H   0  0  0  0  0  0
   12.5867  -18.0510   16.5116 H   0  0  0  0  0  0
   15.3298  -15.6479   23.0840 H   0  0  0  0  0  0
   18.7948  -16.6383   22.3543 H   0  0  0  0  0  0
   19.1140  -15.1724   21.4940 H   0  0  0  0  0  0
   17.0797  -15.0781   24.7673 H   0  0  0  0  0  0
   21.5325  -14.6814   22.2457 H   0  0  0  0  0  0
   23.5407  -13.8054   23.4018 H   0  0  0  0  0  0
   23.4128  -13.0772   25.7711 H   0  0  0  0  0  0
   21.2401  -13.2007   26.9942 H   0  0  0  0  0  0
   14.5493  -14.9857   21.3102 H   0  0  0  0  0  0
   13.4517  -13.4712   20.0818 H   0  0  0  0  0  0
   14.9433  -12.8025   19.5453 H   0  0  0  0  0  0
   14.3688  -10.4938   19.6643 H   0  0  0  0  0  0
   15.8250  -10.6163   20.5974 H   0  0  0  0  0  0
   14.6066   -8.3689   20.7496 H   0  0  0  0  0  0
   14.8160   -9.0535   22.3153 H   0  0  0  0  0  0
   12.2441   -9.1800   20.6857 H   0  0  0  0  0  0
   12.5368   -8.2530   22.1412 H   0  0  0  0  0  0
   12.2613  -12.4784   22.1823 H   0  0  0  0  0  0
   12.0306  -11.5791   20.7183 H   0  0  0  0  0  0
   12.2519   -8.5262   23.9806 H   0  0  0  0  0  0
   10.1272  -11.2995   24.6625 H   0  0  0  0  0  0
   10.6870  -12.1410   23.2928 H   0  0  0  0  0  0
  1 10  1  0  0  0
  1  2  2  0  0  0
  1 42  1  0  0  0
  2  3  1  0  0  0
  2 43  1  0  0  0
  3  4  2  0  0  0
  3 44  1  0  0  0
  4  9  1  0  0  0
  4  5  1  0  0  0
  5  6  2  0  0  0
  5 45  1  0  0  0
  6  7  1  0  0  0
  6 11  1  0  0  0
  7  8  2  0  0  0
  7 46  1  0  0  0
  8  9  1  0  0  0
  8 47  1  0  0  0
  9 10  2  0  0  0
 10 48  1  0  0  0
 11 12  2  0  0  0
 11 13  2  0  0  0
 11 14  1  0  0  0
 14 15  1  0  0  0
 14 49  1  0  0  0
 15 39  1  0  0  0
 15 16  1  0  0  0
 15 26  1  0  0  0
 16 17  1  0  0  0
 16 50  1  0  0  0
 16 51  1  0  0  0
 17 21  1  0  0  0
 17 18  2  0  0  0
 18 19  1  0  0  0
 18 52  1  0  0  0
 19 40  1  0  0  0
 19 20  1  0  0  0
 20 25  1  0  0  0
 20 21  2  0  0  0
 21 22  1  0  0  0
 22 23  2  0  0  0
 22 53  1  0  0  0
 23 24  1  0  0  0
 23 54  1  0  0  0
 24 25  2  0  0  0
 24 55  1  0  0  0
 25 56  1  0  0  0
 26 27  2  0  0  0
 26 28  1  0  0  0
 28 29  1  0  0  0
 28 57  1  0  0  0
 29 30  1  0  0  0
 29 58  1  0  0  0
 29 59  1  0  0  0
 30 41  1  0  0  0
 30 35  1  0  0  0
 30 31  1  0  0  0
 31 32  1  0  0  0
 31 60  1  0  0  0
 31 61  1  0  0  0
 32 33  1  0  0  0
 32 62  1  0  0  0
 32 63  1  0  0  0
 33 34  1  0  0  0
 33 64  1  0  0  0
 33 65  1  0  0  0
 34 35  1  0  0  0
 34 36  1  0  0  0
 35 66  1  0  0  0
 35 67  1  0  0  0
 36 37  2  3  0  0
 36 38  1  0  0  0
 37 68  1  0  0  0
 38 69  1  0  0  0
 38 70  1  0  0  0
M  END
> <s_m_entry_id>
37854

> <s_m_entry_name>
ligand_docking-pose.201

> <s_m_Source_Path>
/home/csk/Desktop/cluster/DUD-E-result/thrb

> <s_m_Source_File>
ligand_docking-pose.sdf

> <i_m_Source_File_Index>
201

> <i_lp_mmshare_version>
53161

> <i_f3d_flags>
0

> <r_lp_tautomer_probability>
1

> <s_lp_Force_Field>
OPLS_2005

> <r_lp_Energy>
10.11101

> <b_lp_Chiralities_Consistent>
1

> <s_lp_Variant>
552194-2

> <s_i_glide_gridfile>
glide-grid_1ype

> <i_i_glide_lignum>
472

> <i_i_glide_rotatable_bonds>
10

> <r_i_docking_score>
-7.37380916289299

> <r_i_glide_ligand_efficiency>
-0.194047609549816

> <r_i_glide_ligand_efficiency_sa>
-0.652383290263574

> <r_i_glide_ligand_efficiency_ln>
-1.59001017100845

> <r_i_glide_gscore>
-7.37380916289299

> <r_i_glide_lipo>
-3.66972621800601

> <r_i_glide_hbond>
-0.388318856336128

> <r_i_glide_metal>
0

> <r_i_glide_rewards>
-0.211948067988527

> <r_i_glide_evdw>
-50.8607177734375

> <r_i_glide_ecoul>
-6.23978328704834

> <r_i_glide_erotb>
0.50891651680535

> <r_i_glide_esite>
-0.133729155638552

> <r_i_glide_emodel>
-74.4798223083003

> <r_i_glide_energy>
-57.1005010604858

> <r_i_glide_einternal>
17.0743045806885

> <i_i_glide_confnum>
5

> <i_i_glide_posenum>
55

> <r_i_glide_eff_state_penalty>
0

> <s_user_duplicate_titles>
552194

> <s_m_subgroup_title>
dock_pv

> <s_m_subgroupid>
dock_pv1

> <b_m_subgroup_collapsed>
0

$$$$
32906
                    3D
 Schrodinger Suite 2021-1.
 63 66  0  0  1  0            999 V2000
   20.0525  -12.0924   17.8591 C   0  0  0  0  0  0
   18.6156  -12.3818   18.3412 C   0  0  0  0  0  0
   18.5333  -13.1509   19.6541 C   0  0  0  0  0  0
   19.5691  -13.3941   20.4237 N   0  0  0  0  0  0
   19.0649  -14.0768   21.4936 C   0  0  0  0  0  0
   19.7349  -14.5499   22.6314 C   0  0  0  0  0  0
   18.9795  -15.1625   23.6444 C   0  0  0  0  0  0
   17.6160  -15.3725   23.4590 C   0  0  0  0  0  0
   16.9280  -14.9597   22.3195 C   0  0  0  0  0  0
   17.6712  -14.2774   21.3543 C   0  0  0  0  0  0
   17.3459  -13.6615   20.1586 N   0  0  0  0  0  0
   16.0049  -13.5610   19.5718 C   0  0  0  0  0  0
   15.0144  -12.8911   20.5080 C   0  0  0  0  0  0
   14.5468  -11.6383   20.3742 C   0  0  0  0  0  0
   13.6225  -10.9871   21.3241 C   0  0  0  0  0  0
   12.6073  -11.7173   21.9619 C   0  0  0  0  0  0
   11.8032  -11.1179   22.9322 C   0  0  0  0  0  0
   12.0143   -9.7881   23.2855 C   0  0  0  0  0  0
   13.0182   -9.0531   22.6610 C   0  0  0  0  0  0
   13.8094   -9.6404   21.6746 C   0  0  0  0  0  0
   14.8160   -8.8923   21.1211 O   0  0  0  0  0  0
   10.8160  -11.8530   23.5809 N   0  0  0  0  0  0
   19.4519  -15.5884   24.8681 O   0  0  0  0  0  0
   20.7967  -15.4105   25.2990 C   0  0  0  0  0  0
   21.8000  -16.3598   24.6156 C   0  0  0  0  0  0
   23.1956  -16.2002   25.2478 C   0  0  0  0  0  0
   23.5997  -14.7914   25.1219 N   0  0  0  0  0  0
   22.7600  -13.8814   25.9211 C   0  0  0  0  0  0
   21.2991  -13.9490   25.4218 C   0  0  0  0  0  0
   24.6111  -14.3298   24.2860 C   0  0  0  0  0  0
   24.8160  -13.1414   23.9257 N   0  0  0  0  0  0
   25.5916  -15.3693   23.7601 C   0  0  0  0  0  0
   20.0546  -11.5941   16.8901 H   0  0  0  0  0  0
   20.5857  -11.4553   18.5661 H   0  0  0  0  0  0
   20.6280  -13.0142   17.7573 H   0  0  0  0  0  0
   18.0946  -12.9334   17.5590 H   0  0  0  0  0  0
   18.0722  -11.4436   18.4416 H   0  0  0  0  0  0
   20.7988  -14.4079   22.7093 H   0  0  0  0  0  0
   17.0552  -15.8562   24.2466 H   0  0  0  0  0  0
   15.8662  -15.1310   22.2279 H   0  0  0  0  0  0
   15.6592  -14.5677   19.3322 H   0  0  0  0  0  0
   16.0544  -13.0094   18.6337 H   0  0  0  0  0  0
   14.6896  -13.4803   21.3528 H   0  0  0  0  0  0
   14.8604  -11.0535   19.5214 H   0  0  0  0  0  0
   12.4472  -12.7577   21.7177 H   0  0  0  0  0  0
   11.4144   -9.3299   24.0590 H   0  0  0  0  0  0
   13.2155   -8.0399   22.9747 H   0  0  0  0  0  0
   15.3941   -9.3968   20.5453 H   0  0  0  0  0  0
   10.0673  -11.3748   24.0730 H   0  0  0  0  0  0
   10.7884  -12.8666   23.4961 H   0  0  0  0  0  0
   20.7250  -15.7754   26.3210 H   0  0  0  0  0  0
   21.4904  -17.3977   24.7404 H   0  0  0  0  0  0
   21.8789  -16.1594   23.5478 H   0  0  0  0  0  0
   23.0894  -16.3767   26.3199 H   0  0  0  0  0  0
   23.9228  -16.9356   24.9021 H   0  0  0  0  0  0
   22.8167  -14.2530   26.9420 H   0  0  0  0  0  0
   23.1410  -12.8594   25.9209 H   0  0  0  0  0  0
   21.2706  -13.4170   24.4758 H   0  0  0  0  0  0
   20.6828  -13.3954   26.1308 H   0  0  0  0  0  0
   25.6408  -13.0528   23.3342 H   0  0  0  0  0  0
   25.0945  -16.0877   23.1092 H   0  0  0  0  0  0
   26.4162  -14.9341   23.1935 H   0  0  0  0  0  0
   26.0371  -15.9210   24.5878 H   0  0  0  0  0  0
  1  2  1  0  0  0
  1 33  1  0  0  0
  1 34  1  0  0  0
  1 35  1  0  0  0
  2  3  1  0  0  0
  2 36  1  0  0  0
  2 37  1  0  0  0
  3 11  1  0  0  0
  3  4  2  0  0  0
  4  5  1  0  0  0
  5 10  2  0  0  0
  5  6  1  0  0  0
  6  7  2  0  0  0
  6 38  1  0  0  0
  7  8  1  0  0  0
  7 23  1  0  0  0
  8  9  2  0  0  0
  8 39  1  0  0  0
  9 10  1  0  0  0
  9 40  1  0  0  0
 10 11  1  0  0  0
 11 12  1  0  0  0
 12 13  1  0  0  0
 12 41  1  0  0  0
 12 42  1  0  0  0
 13 14  2  0  0  0
 13 43  1  0  0  0
 14 15  1  0  0  0
 14 44  1  0  0  0
 15 20  1  0  0  0
 15 16  2  0  0  0
 16 17  1  0  0  0
 16 45  1  0  0  0
 17 18  2  0  0  0
 17 22  1  0  0  0
 18 19  1  0  0  0
 18 46  1  0  0  0
 19 20  2  0  0  0
 19 47  1  0  0  0
 20 21  1  0  0  0
 21 48  1  0  0  0
 22 49  1  0  0  0
 22 50  1  0  0  0
 23 24  1  0  0  0
 24 29  1  0  0  0
 24 25  1  0  0  0
 24 51  1  0  0  0
 25 26  1  0  0  0
 25 52  1  0  0  0
 25 53  1  0  0  0
 26 27  1  0  0  0
 26 54  1  0  0  0
 26 55  1  0  0  0
 27 28  1  0  0  0
 27 30  1  0  0  0
 28 29  1  0  0  0
 28 56  1  0  0  0
 28 57  1  0  0  0
 29 58  1  0  0  0
 29 59  1  0  0  0
 30 31  2  3  0  0
 30 32  1  0  0  0
 31 60  1  0  0  0
 32 61  1  0  0  0
 32 62  1  0  0  0
 32 63  1  0  0  0
M  END
> <s_m_entry_id>
37855

> <s_m_entry_name>
ligand_docking-pose.202

> <s_m_Source_Path>
/home/csk/Desktop/cluster/DUD-E-result/thrb

> <s_m_Source_File>
ligand_docking-pose.sdf

> <i_m_Source_File_Index>
202

> <i_lp_mmshare_version>
53161

> <i_f3d_flags>
0

> <r_lp_tautomer_probability>
0.499900269896156

> <s_lp_Force_Field>
OPLS_2005

> <r_lp_Energy>
32.232559

> <b_lp_Chiralities_Consistent>
1

> <s_lp_Variant>
32906-1

> <s_i_glide_gridfile>
glide-grid_1ype

> <i_i_glide_lignum>
3253

> <i_i_glide_rotatable_bonds>
8

> <r_i_docking_score>
-7.37013212547271

> <r_i_glide_ligand_efficiency>
-0.230316628921022

> <r_i_glide_ligand_efficiency_sa>
-0.731209717225274

> <r_i_glide_ligand_efficiency_ln>
-1.65037348510737

> <r_i_glide_gscore>
-7.37013212547271

> <r_i_glide_lipo>
-2.71716841654008

> <r_i_glide_hbond>
-0.637343417708765

> <r_i_glide_metal>
0

> <r_i_glide_rewards>
-1.05372871754202

> <r_i_glide_evdw>
-42.0509452819824

> <r_i_glide_ecoul>
-8.74805927276611

> <r_i_glide_erotb>
0.529577037290998

> <r_i_glide_esite>
-0.0767124559588047

> <r_i_glide_emodel>
-69.2814218317237

> <r_i_glide_energy>
-50.7990045547485

> <r_i_glide_einternal>
6.82336139678955

> <i_i_glide_confnum>
6

> <i_i_glide_posenum>
147

> <r_i_glide_eff_state_penalty>
0

> <s_user_duplicate_titles>
32906

> <s_m_subgroup_title>
dock_pv

> <s_m_subgroupid>
dock_pv1

> <b_m_subgroup_collapsed>
0

$$$$
553122
                    3D
 Schrodinger Suite 2021-1.
 56 58  0  0  1  0            999 V2000
   20.5456  -13.4340   19.5102 C   0  0  0  0  0  0
   19.5773  -14.0622   20.5048 C   0  0  0  0  0  0
   19.8418  -15.3592   20.9483 C   0  0  0  0  0  0
   18.9558  -16.0133   21.7965 C   0  0  0  0  0  0
   17.7990  -15.3723   22.2360 C   0  0  0  0  0  0
   17.5454  -14.0498   21.8448 C   0  0  0  0  0  0
   18.4229  -13.3899   20.9552 C   0  0  0  0  0  0
   18.1150  -11.9617   20.4734 C   0  0  0  0  0  0
   17.0115  -11.8975   19.4058 C   0  0  0  0  0  0
   17.2377  -11.4531   18.2821 O   0  0  0  0  0  0
   15.7998  -12.2720   19.8249 N   0  0  0  0  0  0
   14.5030  -12.0046   19.2189 C   0  0  0  0  0  0
   13.6372  -11.3498   20.2842 C   0  0  0  0  0  0
   12.5213  -12.0066   20.7929 C   0  0  0  0  0  0
   11.8781  -11.5108   21.9218 C   0  0  0  0  0  0
   12.3114  -10.3261   22.5490 C   0  0  0  0  0  0
   13.3735   -9.6269   21.9517 C   0  0  0  0  0  0
   14.0357  -10.1370   20.8445 C   0  0  0  0  0  0
   11.7047   -9.8187   23.8112 C   0  0  0  0  0  0
   12.0160   -8.6865   24.2747 N   0  0  0  0  0  0
   10.8160  -10.6750   24.3995 N   0  0  0  0  0  0
   16.4181  -13.4165   22.3223 O   0  0  0  0  0  0
   16.9034  -16.0707   23.0562 N   0  0  0  0  0  0
   15.9180  -17.3803   22.3950 S   0  0  0  0  0  0
   16.7996  -18.2558   21.6154 O   0  0  0  0  0  0
   15.1450  -17.9135   23.5209 O   0  0  0  0  0  0
   14.7272  -16.6025   21.3000 C   0  0  0  0  0  0
   13.6252  -15.9637   21.8750 C   0  0  0  0  0  0
   12.5944  -15.4812   21.0740 C   0  0  0  0  0  0
   12.6684  -15.6073   19.6909 C   0  0  0  0  0  0
   13.7963  -16.1800   19.1042 C   0  0  0  0  0  0
   14.8282  -16.6782   19.9031 C   0  0  0  0  0  0
   15.9008  -17.2412   19.3034 F   0  0  0  0  0  0
   11.3557  -15.0531   18.7210 Cl  0  0  0  0  0  0
   21.2157  -14.1753   19.0743 H   0  0  0  0  0  0
   20.0026  -12.9874   18.6768 H   0  0  0  0  0  0
   21.1417  -12.6557   19.9878 H   0  0  0  0  0  0
   20.7273  -15.8794   20.6111 H   0  0  0  0  0  0
   19.1641  -17.0286   22.1025 H   0  0  0  0  0  0
   19.0037  -11.4508   20.1061 H   0  0  0  0  0  0
   17.7983  -11.3593   21.3269 H   0  0  0  0  0  0
   15.7717  -12.7449   20.7217 H   0  0  0  0  0  0
   14.0657  -12.9386   18.8617 H   0  0  0  0  0  0
   14.5869  -11.3442   18.3534 H   0  0  0  0  0  0
   12.1808  -12.9295   20.3558 H   0  0  0  0  0  0
   11.0457  -12.0820   22.3085 H   0  0  0  0  0  0
   13.7444   -8.7077   22.3844 H   0  0  0  0  0  0
   14.9074   -9.6223   20.4660 H   0  0  0  0  0  0
   11.5057   -8.4925   25.1216 H   0  0  0  0  0  0
   10.1846  -10.3340   25.1203 H   0  0  0  0  0  0
   10.4978  -11.4928   23.9041 H   0  0  0  0  0  0
   15.8933  -13.9835   22.8994 H   0  0  0  0  0  0
   16.4924  -15.5830   23.8401 H   0  0  0  0  0  0
   13.5578  -15.8532   22.9465 H   0  0  0  0  0  0
   11.7274  -15.0165   21.5209 H   0  0  0  0  0  0
   13.8623  -16.2616   18.0291 H   0  0  0  0  0  0
  1  2  1  0  0  0
  1 35  1  0  0  0
  1 36  1  0  0  0
  1 37  1  0  0  0
  2  7  1  0  0  0
  2  3  2  0  0  0
  3  4  1  0  0  0
  3 38  1  0  0  0
  4  5  2  0  0  0
  4 39  1  0  0  0
  5  6  1  0  0  0
  5 23  1  0  0  0
  6  7  2  0  0  0
  6 22  1  0  0  0
  7  8  1  0  0  0
  8  9  1  0  0  0
  8 40  1  0  0  0
  8 41  1  0  0  0
  9 10  2  0  0  0
  9 11  1  0  0  0
 11 12  1  0  0  0
 11 42  1  0  0  0
 12 13  1  0  0  0
 12 43  1  0  0  0
 12 44  1  0  0  0
 13 18  1  0  0  0
 13 14  2  0  0  0
 14 15  1  0  0  0
 14 45  1  0  0  0
 15 16  2  0  0  0
 15 46  1  0  0  0
 16 17  1  0  0  0
 16 19  1  0  0  0
 17 18  2  0  0  0
 17 47  1  0  0  0
 18 48  1  0  0  0
 19 20  2  3  0  0
 19 21  1  0  0  0
 20 49  1  0  0  0
 21 50  1  0  0  0
 21 51  1  0  0  0
 22 52  1  0  0  0
 23 24  1  0  0  0
 23 53  1  0  0  0
 24 25  2  0  0  0
 24 26  2  0  0  0
 24 27  1  0  0  0
 27 32  1  0  0  0
 27 28  2  0  0  0
 28 29  1  0  0  0
 28 54  1  0  0  0
 29 30  2  0  0  0
 29 55  1  0  0  0
 30 31  1  0  0  0
 30 34  1  0  0  0
 31 32  2  0  0  0
 31 56  1  0  0  0
 32 33  1  0  0  0
M  END
> <s_m_entry_id>
37857

> <s_m_entry_name>
ligand_docking-pose.204

> <s_m_Source_Path>
/home/csk/Desktop/cluster/DUD-E-result/thrb

> <s_m_Source_File>
ligand_docking-pose.sdf

> <i_m_Source_File_Index>
204

> <i_lp_mmshare_version>
53161

> <i_f3d_flags>
0

> <r_lp_tautomer_probability>
1

> <s_lp_Force_Field>
OPLS_2005

> <r_lp_Energy>
7.401147

> <b_lp_Chiralities_Consistent>
1

> <s_lp_Variant>
553122-1

> <s_i_glide_gridfile>
glide-grid_1ype

> <i_i_glide_lignum>
2355

> <i_i_glide_rotatable_bonds>
10

> <r_i_docking_score>
-7.36430791906441

> <r_i_glide_ligand_efficiency>
-0.216597291737189

> <r_i_glide_ligand_efficiency_sa>
-0.701691141611733

> <r_i_glide_ligand_efficiency_ln>
-1.62698218116174

> <r_i_glide_gscore>
-7.36430791906441

> <r_i_glide_lipo>
-2.89277710126629

> <r_i_glide_hbond>
-0.704257890724889

> <r_i_glide_metal>
0

> <r_i_glide_rewards>
-0.258280207984162

> <r_i_glide_evdw>
-48.109001159668

> <r_i_glide_ecoul>
-10.8864450454712

> <r_i_glide_erotb>
0.64160661322749

> <r_i_glide_esite>
-0.112182517512486

> <r_i_glide_emodel>
-78.7815605844644

> <r_i_glide_energy>
-58.9954462051392

> <r_i_glide_einternal>
16.0991306304932

> <i_i_glide_confnum>
39

> <i_i_glide_posenum>
30

> <r_i_glide_eff_state_penalty>
0

> <s_user_duplicate_titles>
553122

> <s_m_subgroup_title>
dock_pv

> <s_m_subgroupid>
dock_pv1

> <b_m_subgroup_collapsed>
0

$$$$
178993
                    3D
 Schrodinger Suite 2021-1.
 62 64  0  0  1  0            999 V2000
   12.0160  -12.3999   21.5436 C   0  0  0  0  0  0
   12.1880  -13.6980   21.0647 C   0  0  0  0  0  0
   13.1032  -13.9753   20.0368 C   0  0  0  0  0  0
   13.8637  -12.9165   19.5141 C   0  0  0  0  0  0
   13.6752  -11.6120   19.9883 C   0  0  0  0  0  0
   12.7539  -11.3539   21.0006 C   0  0  0  0  0  0
   12.5350   -9.7445   21.5823 Cl  0  0  0  0  0  0
   14.9202  -13.1678   18.4427 C   0  0  0  0  0  0
   16.2697  -13.1923   19.0108 N   0  0  0  0  0  0
   17.0818  -12.1230   19.0552 C   0  0  0  0  0  0
   16.8162  -11.0532   18.5086 O   0  0  0  0  0  0
   18.4280  -12.2374   19.8042 C   0  0  2  0  0  0
   19.5752  -12.4033   18.7948 C   0  0  0  0  0  0
   20.6193  -13.2440   19.4944 C   0  0  0  0  0  0
   19.8068  -14.1354   20.4173 C   0  0  0  0  0  0
   18.6016  -13.3696   20.7415 N   0  0  0  0  0  0
   17.7930  -13.5891   21.8103 C   0  0  0  0  0  0
   16.8621  -12.8369   22.1176 O   0  0  0  0  0  0
   18.0718  -14.8445   22.6926 C   0  0  1  0  0  0
   18.6291  -14.4697   24.1005 C   0  0  0  0  0  0
   18.8615  -15.6930   25.0183 C   0  0  0  0  0  0
   19.1347  -15.2041   26.4563 C   0  0  0  0  0  0
   20.3848  -14.2867   26.4928 C   0  0  0  0  0  0
   20.3438  -13.1578   25.4374 C   0  0  0  0  0  0
   19.9886  -13.7199   24.0479 C   0  0  0  0  0  0
   16.8161  -15.6136   22.7363 N   0  0  0  0  0  0
   13.3216  -15.2389   19.5092 O   0  0  0  0  0  0
   12.4914  -16.3613   19.8418 C   0  0  0  0  0  0
   11.2149  -16.4143   18.9748 C   0  0  0  0  0  0
   10.8196  -15.4531   18.3212 O   0  0  0  0  0  0
   10.5363  -17.5623   18.9675 N   0  0  0  0  0  0
   18.5856  -11.3230   20.3789 H   0  0  0  0  0  0
   18.7953  -15.5098   22.2272 H   0  0  0  0  0  0
   11.3020  -12.2131   22.3337 H   0  0  0  0  0  0
   11.5936  -14.4732   21.5206 H   0  0  0  0  0  0
   14.2662  -10.8017   19.5889 H   0  0  0  0  0  0
   14.7157  -14.0804   17.8814 H   0  0  0  0  0  0
   14.8254  -12.3704   17.7013 H   0  0  0  0  0  0
   16.5291  -14.0268   19.5167 H   0  0  0  0  0  0
   19.2272  -12.9519   17.9210 H   0  0  0  0  0  0
   19.9832  -11.4536   18.4506 H   0  0  0  0  0  0
   21.2219  -13.8162   18.7935 H   0  0  0  0  0  0
   21.2774  -12.6047   20.0855 H   0  0  0  0  0  0
   19.5107  -15.0585   19.9210 H   0  0  0  0  0  0
   20.4116  -14.3971   21.2842 H   0  0  0  0  0  0
   17.8682  -13.8444   24.5686 H   0  0  0  0  0  0
   17.9721  -16.3227   25.0369 H   0  0  0  0  0  0
   19.6458  -16.3445   24.6300 H   0  0  0  0  0  0
   18.2681  -14.6588   26.8353 H   0  0  0  0  0  0
   19.2672  -16.0569   27.1219 H   0  0  0  0  0  0
   20.5074  -13.8493   27.4834 H   0  0  0  0  0  0
   21.2747  -14.8943   26.3206 H   0  0  0  0  0  0
   19.6162  -12.4021   25.7310 H   0  0  0  0  0  0
   21.3094  -12.6533   25.4024 H   0  0  0  0  0  0
   20.7758  -14.3575   23.6432 H   0  0  0  0  0  0
   19.9368  -12.8810   23.3536 H   0  0  0  0  0  0
   16.9456  -16.4690   23.2549 H   0  0  0  0  0  0
   16.1208  -15.0882   23.2658 H   0  0  0  0  0  0
   13.0828  -17.2566   19.6438 H   0  0  0  0  0  0
   12.2424  -16.3941   20.9019 H   0  0  0  0  0  0
    9.6978  -17.6309   18.4051 H   0  0  0  0  0  0
   10.8514  -18.3658   19.4877 H   0  0  0  0  0  0
  1  6  1  0  0  0
  1  2  2  0  0  0
  1 34  1  0  0  0
  2  3  1  0  0  0
  2 35  1  0  0  0
  3  4  2  0  0  0
  3 27  1  0  0  0
  4  5  1  0  0  0
  4  8  1  0  0  0
  5  6  2  0  0  0
  5 36  1  0  0  0
  6  7  1  0  0  0
  8  9  1  0  0  0
  8 37  1  0  0  0
  8 38  1  0  0  0
  9 10  1  0  0  0
  9 39  1  0  0  0
 10 11  2  0  0  0
 10 12  1  0  0  0
 12 32  1  0  0  0
 12 16  1  0  0  0
 12 13  1  0  0  0
 13 14  1  0  0  0
 13 40  1  0  0  0
 13 41  1  0  0  0
 14 15  1  0  0  0
 14 42  1  0  0  0
 14 43  1  0  0  0
 15 16  1  0  0  0
 15 44  1  0  0  0
 15 45  1  0  0  0
 16 17  1  0  0  0
 17 18  2  0  0  0
 17 19  1  0  0  0
 19 33  1  0  0  0
 19 20  1  0  0  0
 19 26  1  0  0  0
 20 25  1  0  0  0
 20 21  1  0  0  0
 20 46  1  0  0  0
 21 22  1  0  0  0
 21 47  1  0  0  0
 21 48  1  0  0  0
 22 23  1  0  0  0
 22 49  1  0  0  0
 22 50  1  0  0  0
 23 24  1  0  0  0
 23 51  1  0  0  0
 23 52  1  0  0  0
 24 25  1  0  0  0
 24 53  1  0  0  0
 24 54  1  0  0  0
 25 55  1  0  0  0
 25 56  1  0  0  0
 26 57  1  0  0  0
 26 58  1  0  0  0
 27 28  1  0  0  0
 28 29  1  0  0  0
 28 59  1  0  0  0
 28 60  1  0  0  0
 29 30  2  0  0  0
 29 31  1  0  0  0
 31 61  1  0  0  0
 31 62  1  0  0  0
M  END
> <s_m_entry_id>
37858

> <s_m_entry_name>
ligand_docking-pose.205

> <s_m_Source_Path>
/home/csk/Desktop/cluster/DUD-E-result/thrb

> <s_m_Source_File>
ligand_docking-pose.sdf

> <i_m_Source_File_Index>
205

> <i_lp_mmshare_version>
53161

> <i_f3d_flags>
0

> <r_lp_tautomer_probability>
1

> <s_lp_Force_Field>
OPLS_2005

> <r_lp_Energy>
24.853377

> <b_lp_Chiralities_Consistent>
1

> <s_lp_Variant>
178993-1

> <s_i_glide_gridfile>
glide-grid_1ype

> <i_i_glide_lignum>
1269

> <i_i_glide_rotatable_bonds>
10

> <r_i_docking_score>
-7.35528737303347

> <r_i_glide_ligand_efficiency>
-0.237267334613983

> <r_i_glide_ligand_efficiency_sa>
-0.74534701354767

> <r_i_glide_ligand_efficiency_ln>
-1.65884271510601

> <r_i_glide_gscore>
-7.35528737303347

> <r_i_glide_lipo>
-3.38862095534414

> <r_i_glide_hbond>
-0.52039775203705

> <r_i_glide_metal>
0

> <r_i_glide_rewards>
-1.18965165292791

> <r_i_glide_evdw>
-44.877254486084

> <r_i_glide_ecoul>
-6.00148439407349

> <r_i_glide_erotb>
0.887468370690854

> <r_i_glide_esite>
0

> <r_i_glide_emodel>
-72.5182909694055

> <r_i_glide_energy>
-50.8787388801575

> <r_i_glide_einternal>
6.38154935836792

> <i_i_glide_confnum>
202

> <i_i_glide_posenum>
300

> <r_i_glide_eff_state_penalty>
0

> <s_user_duplicate_titles>
178993

> <s_m_subgroup_title>
dock_pv

> <s_m_subgroupid>
dock_pv1

> <b_m_subgroup_collapsed>
0

$$$$
279334
                    3D
 Schrodinger Suite 2021-1.
 56 58  0  0  1  0            999 V2000
   20.6698  -12.2584   17.8784 C   0  0  0  0  0  0
   20.0079  -12.6532   19.1836 C   0  0  0  0  0  0
   18.6170  -12.6530   19.2851 C   0  0  0  0  0  0
   17.9817  -12.9961   20.4912 C   0  0  0  0  0  0
   18.7734  -13.3613   21.5845 C   0  0  0  0  0  0
   20.1658  -13.4014   21.4780 C   0  0  0  0  0  0
   20.7783  -13.0373   20.2805 C   0  0  0  0  0  0
   20.9519  -13.7396   22.5465 O   0  0  0  0  0  0
   21.2164  -15.3591   22.8613 S   0  0  0  0  0  0
   20.8748  -16.1473   21.6689 O   0  0  0  0  0  0
   22.5199  -15.5062   23.5193 O   0  0  0  0  0  0
   19.9595  -15.6497   24.1213 C   0  0  0  0  0  0
   19.1920  -16.8106   23.9601 C   0  0  0  0  0  0
   18.2240  -17.1633   24.8928 C   0  0  0  0  0  0
   18.0141  -16.3581   26.0038 C   0  0  0  0  0  0
   18.7628  -15.1975   26.1779 C   0  0  0  0  0  0
   19.7526  -14.8223   25.2549 C   0  0  0  0  0  0
   20.5265  -13.5177   25.5191 C   0  0  0  0  0  0
   21.8297  -13.6243   25.2758 F   0  0  0  0  0  0
   20.0166  -12.5568   24.7534 F   0  0  0  0  0  0
   20.4154  -13.1182   26.7864 F   0  0  0  0  0  0
   16.6131  -12.9878   20.6869 O   0  0  0  0  0  0
   15.7275  -12.8323   19.5738 C   0  0  0  0  0  0
   14.3389  -12.3543   20.0384 C   0  0  0  0  0  0
   13.6688  -13.2860   21.0664 C   0  0  0  0  0  0
   12.2673  -12.7635   21.4548 C   0  0  0  0  0  0
   12.3539  -11.3876   21.9860 N   0  0  0  0  0  0
   12.9863  -10.4508   21.0370 C   0  0  0  0  0  0
   14.3946  -10.9479   20.6597 C   0  0  0  0  0  0
   11.6160  -10.9124   23.1215 C   0  0  0  0  0  0
   11.6632   -9.7309   23.5449 N   0  0  0  0  0  0
   10.8160  -11.8529   23.7964 N   0  0  0  0  0  0
   21.6161  -12.7778   17.7562 H   0  0  0  0  0  0
   20.0529  -12.5454   17.0274 H   0  0  0  0  0  0
   20.8488  -11.1850   17.8419 H   0  0  0  0  0  0
   18.0560  -12.3726   18.4098 H   0  0  0  0  0  0
   18.3031  -13.6201   22.5214 H   0  0  0  0  0  0
   21.8557  -13.0504   20.2145 H   0  0  0  0  0  0
   19.3467  -17.4590   23.1096 H   0  0  0  0  0  0
   17.6416  -18.0626   24.7561 H   0  0  0  0  0  0
   17.2645  -16.6367   26.7274 H   0  0  0  0  0  0
   18.5637  -14.5919   27.0505 H   0  0  0  0  0  0
   15.6484  -13.7809   19.0405 H   0  0  0  0  0  0
   16.0758  -12.0906   18.8566 H   0  0  0  0  0  0
   13.6854  -12.3042   19.1649 H   0  0  0  0  0  0
   14.2868  -13.4108   21.9579 H   0  0  0  0  0  0
   13.5926  -14.2935   20.6558 H   0  0  0  0  0  0
   11.8306  -13.4529   22.1727 H   0  0  0  0  0  0
   11.6122  -12.7588   20.5828 H   0  0  0  0  0  0
   13.0572   -9.4360   21.4292 H   0  0  0  0  0  0
   12.3570  -10.3942   20.1474 H   0  0  0  0  0  0
   14.8580  -10.2536   19.9619 H   0  0  0  0  0  0
   15.0601  -10.9281   21.5208 H   0  0  0  0  0  0
   12.2814   -9.1576   22.9963 H   0  0  0  0  0  0
   10.1948  -11.5704   24.5449 H   0  0  0  0  0  0
   10.7365  -12.8231   23.5167 H   0  0  0  0  0  0
  1  2  1  0  0  0
  1 33  1  0  0  0
  1 34  1  0  0  0
  1 35  1  0  0  0
  2  7  1  0  0  0
  2  3  2  0  0  0
  3  4  1  0  0  0
  3 36  1  0  0  0
  4  5  2  0  0  0
  4 22  1  0  0  0
  5  6  1  0  0  0
  5 37  1  0  0  0
  6  7  2  0  0  0
  6  8  1  0  0  0
  7 38  1  0  0  0
  8  9  1  0  0  0
  9 10  2  0  0  0
  9 11  2  0  0  0
  9 12  1  0  0  0
 12 17  1  0  0  0
 12 13  2  0  0  0
 13 14  1  0  0  0
 13 39  1  0  0  0
 14 15  2  0  0  0
 14 40  1  0  0  0
 15 16  1  0  0  0
 15 41  1  0  0  0
 16 17  2  0  0  0
 16 42  1  0  0  0
 17 18  1  0  0  0
 18 19  1  0  0  0
 18 20  1  0  0  0
 18 21  1  0  0  0
 22 23  1  0  0  0
 23 24  1  0  0  0
 23 43  1  0  0  0
 23 44  1  0  0  0
 24 29  1  0  0  0
 24 25  1  0  0  0
 24 45  1  0  0  0
 25 26  1  0  0  0
 25 46  1  0  0  0
 25 47  1  0  0  0
 26 27  1  0  0  0
 26 48  1  0  0  0
 26 49  1  0  0  0
 27 28  1  0  0  0
 27 30  1  0  0  0
 28 29  1  0  0  0
 28 50  1  0  0  0
 28 51  1  0  0  0
 29 52  1  0  0  0
 29 53  1  0  0  0
 30 31  2  3  0  0
 30 32  1  0  0  0
 31 54  1  0  0  0
 32 55  1  0  0  0
 32 56  1  0  0  0
M  END
> <s_m_entry_id>
37859

> <s_m_entry_name>
ligand_docking-pose.206

> <s_m_Source_Path>
/home/csk/Desktop/cluster/DUD-E-result/thrb

> <s_m_Source_File>
ligand_docking-pose.sdf

> <i_m_Source_File_Index>
206

> <i_lp_mmshare_version>
53161

> <i_f3d_flags>
0

> <r_lp_tautomer_probability>
1

> <s_lp_Force_Field>
OPLS_2005

> <r_lp_Energy>
22.836553

> <b_lp_Chiralities_Consistent>
1

> <s_lp_Variant>
279334-2

> <s_i_glide_gridfile>
glide-grid_1ype

> <i_i_glide_lignum>
2458

> <i_i_glide_rotatable_bonds>
8

> <r_i_docking_score>
-7.35044321527094

> <r_i_glide_ligand_efficiency>
-0.229701350477217

> <r_i_glide_ligand_efficiency_sa>
-0.729256329929631

> <r_i_glide_ligand_efficiency_ln>
-1.64596460141378

> <r_i_glide_gscore>
-7.35044321527094

> <r_i_glide_lipo>
-3.0280407856712

> <r_i_glide_hbond>
-0.385829148310183

> <r_i_glide_metal>
0

> <r_i_glide_rewards>
-1.72587203741007

> <r_i_glide_evdw>
-43.4042930603027

> <r_i_glide_ecoul>
-3.36607480049133

> <r_i_glide_erotb>
0.545543273055791

> <r_i_glide_esite>
-0.0811186438464458

> <r_i_glide_emodel>
-66.0838129529364

> <r_i_glide_energy>
-46.7703678607941

> <r_i_glide_einternal>
3.62187695503235

> <i_i_glide_confnum>
41

> <i_i_glide_posenum>
355

> <r_i_glide_eff_state_penalty>
0

> <s_user_duplicate_titles>
279334

> <s_m_subgroup_title>
dock_pv

> <s_m_subgroupid>
dock_pv1

> <b_m_subgroup_collapsed>
0

$$$$
167988
                    3D
 Schrodinger Suite 2021-1.
 59 60  0  0  1  0            999 V2000
   22.3687  -13.4531   25.5183 C   0  0  0  0  0  0
   22.3129  -14.5296   24.6362 C   0  0  0  0  0  0
   21.1341  -15.2585   24.5136 C   0  0  0  0  0  0
   20.0150  -14.9065   25.2730 C   0  0  0  0  0  0
   20.0767  -13.8213   26.1508 C   0  0  0  0  0  0
   21.2540  -13.0903   26.2731 C   0  0  0  0  0  0
   18.7271  -15.7113   25.1502 C   0  0  0  0  0  0
   17.6811  -15.0906   24.1985 C   0  0  0  0  0  0
   18.1085  -15.0264   22.7231 C   0  0  0  0  0  0
   18.5753  -15.9963   22.1230 O   0  0  0  0  0  0
   17.9359  -13.6012   22.0466 C   0  0  0  0  0  0
   16.9352  -12.9326   22.3202 O   0  0  0  0  0  0
   18.9191  -13.2023   21.1893 N   0  0  0  0  0  0
   20.1803  -13.8741   20.8557 C   0  0  0  0  0  0
   21.1372  -12.7479   20.5039 C   0  0  0  0  0  0
   20.2507  -11.6434   19.9458 C   0  0  0  0  0  0
   18.8044  -11.9544   20.4104 C   0  0  1  0  0  0
   17.8223  -12.1338   19.2360 C   0  0  0  0  0  0
   18.2256  -12.6531   18.1989 O   0  0  0  0  0  0
   16.5578  -11.7038   19.4237 N   0  0  0  0  0  0
   15.3749  -11.8083   18.5308 C   0  0  2  0  0  0
   14.6798  -13.1959   18.6685 C   0  0  0  0  0  0
   13.4859  -13.1968   19.6470 C   0  0  0  0  0  0
   13.8781  -12.9399   21.1107 C   0  0  0  0  0  0
   12.7118  -12.8152   21.9655 N   0  0  0  0  0  0
   11.9446  -11.6759   22.1650 C   0  0  0  0  0  0
   12.0725  -10.5990   21.5203 N   0  0  0  0  0  0
   11.0254  -11.8529   23.1800 N   0  0  0  0  0  0
   15.6899  -11.4531   17.0803 C   0  0  0  0  0  0
   14.8152  -11.1300   16.2795 O   0  0  0  0  0  0
   23.2862  -12.8915   25.6083 H   0  0  0  0  0  0
   23.1817  -14.7998   24.0542 H   0  0  0  0  0  0
   21.0913  -16.0945   23.8301 H   0  0  0  0  0  0
   19.2180  -13.5415   26.7416 H   0  0  0  0  0  0
   21.3012  -12.2492   26.9499 H   0  0  0  0  0  0
   18.9576  -16.7353   24.8491 H   0  0  0  0  0  0
   18.2893  -15.8141   26.1452 H   0  0  0  0  0  0
   16.7852  -15.7074   24.2258 H   0  0  0  0  0  0
   17.3754  -14.1119   24.5686 H   0  0  0  0  0  0
   20.5977  -14.4747   21.6643 H   0  0  0  0  0  0
   20.0132  -14.5244   19.9955 H   0  0  0  0  0  0
   21.6163  -12.4044   21.4178 H   0  0  0  0  0  0
   21.9268  -13.0503   19.8170 H   0  0  0  0  0  0
   20.5834  -10.6709   20.3091 H   0  0  0  0  0  0
   20.3500  -11.6138   18.8603 H   0  0  0  0  0  0
   18.4594  -11.1459   21.0592 H   0  0  0  0  0  0
   16.3333  -11.4053   20.3640 H   0  0  0  0  0  0
   14.6701  -11.0532   18.8781 H   0  0  0  0  0  0
   14.2917  -13.5345   17.7052 H   0  0  0  0  0  0
   15.3970  -13.9644   18.9640 H   0  0  0  0  0  0
   12.7618  -12.4460   19.3262 H   0  0  0  0  0  0
   12.9681  -14.1547   19.5793 H   0  0  0  0  0  0
   14.5029  -13.7523   21.4823 H   0  0  0  0  0  0
   14.4563  -12.0212   21.2063 H   0  0  0  0  0  0
   12.5245  -13.6006   22.5736 H   0  0  0  0  0  0
   11.4245   -9.8893   21.8303 H   0  0  0  0  0  0
   10.1561  -11.3496   23.0510 H   0  0  0  0  0  0
   10.8133  -12.8226   23.3865 H   0  0  0  0  0  0
   16.7318  -11.4865   16.7728 H   0  0  0  0  0  0
  1  6  1  0  0  0
  1  2  2  0  0  0
  1 31  1  0  0  0
  2  3  1  0  0  0
  2 32  1  0  0  0
  3  4  2  0  0  0
  3 33  1  0  0  0
  4  5  1  0  0  0
  4  7  1  0  0  0
  5  6  2  0  0  0
  5 34  1  0  0  0
  6 35  1  0  0  0
  7  8  1  0  0  0
  7 36  1  0  0  0
  7 37  1  0  0  0
  8  9  1  0  0  0
  8 38  1  0  0  0
  8 39  1  0  0  0
  9 10  2  0  0  0
  9 11  1  0  0  0
 11 12  2  0  0  0
 11 13  1  0  0  0
 13 17  1  0  0  0
 13 14  1  0  0  0
 14 15  1  0  0  0
 14 40  1  0  0  0
 14 41  1  0  0  0
 15 16  1  0  0  0
 15 42  1  0  0  0
 15 43  1  0  0  0
 16 17  1  0  0  0
 16 44  1  0  0  0
 16 45  1  0  0  0
 17 18  1  0  0  0
 17 46  1  0  0  0
 18 19  2  0  0  0
 18 20  1  0  0  0
 20 21  1  0  0  0
 20 47  1  0  0  0
 21 22  1  0  0  0
 21 29  1  0  0  0
 21 48  1  0  0  0
 22 23  1  0  0  0
 22 49  1  0  0  0
 22 50  1  0  0  0
 23 24  1  0  0  0
 23 51  1  0  0  0
 23 52  1  0  0  0
 24 25  1  0  0  0
 24 53  1  0  0  0
 24 54  1  0  0  0
 25 26  1  0  0  0
 25 55  1  0  0  0
 26 27  2  3  0  0
 26 28  1  0  0  0
 27 56  1  0  0  0
 28 57  1  0  0  0
 28 58  1  0  0  0
 29 30  2  0  0  0
 29 59  1  0  0  0
M  END
> <s_m_entry_id>
37860

> <s_m_entry_name>
ligand_docking-pose.207

> <s_m_Source_Path>
/home/csk/Desktop/cluster/DUD-E-result/thrb

> <s_m_Source_File>
ligand_docking-pose.sdf

> <i_m_Source_File_Index>
207

> <i_lp_mmshare_version>
53161

> <i_f3d_flags>
0

> <r_lp_tautomer_probability>
0.999800024997

> <s_lp_Force_Field>
OPLS_2005

> <r_lp_Energy>
25.061198

> <b_lp_Chiralities_Consistent>
1

> <s_lp_Variant>
167988-1

> <s_i_glide_gridfile>
glide-grid_1ype

> <i_i_glide_lignum>
919

> <i_i_glide_rotatable_bonds>
14

> <r_i_docking_score>
-7.34983808324207

> <r_i_glide_ligand_efficiency>
-0.244994602774736

> <r_i_glide_ligand_efficiency_sa>
-0.761255192661852

> <r_i_glide_ligand_efficiency_ln>
-1.66996329541265

> <r_i_glide_gscore>
-7.34983808324207

> <r_i_glide_lipo>
-2.88570274774602

> <r_i_glide_hbond>
-0.635214633585096

> <r_i_glide_metal>
0

> <r_i_glide_rewards>
-1.48245190825484

> <r_i_glide_evdw>
-44.2813110351562

> <r_i_glide_ecoul>
-9.75764751434326

> <r_i_glide_erotb>
1.372694671008

> <r_i_glide_esite>
-0.041450785754808

> <r_i_glide_emodel>
-75.1263145550554

> <r_i_glide_energy>
-54.0389585494995

> <r_i_glide_einternal>
7.79112434387207

> <i_i_glide_confnum>
115

> <i_i_glide_posenum>
342

> <r_i_glide_eff_state_penalty>
0

> <s_user_duplicate_titles>
167988

> <s_m_subgroup_title>
dock_pv

> <s_m_subgroupid>
dock_pv1

> <b_m_subgroup_collapsed>
0

$$$$
189402
                    3D
 Schrodinger Suite 2021-1.
 78 82  0  0  1  0            999 V2000
   18.3505  -15.7173   26.5591 C   0  0  0  0  0  0
   17.6309  -16.3157   25.5277 C   0  0  0  0  0  0
   17.7795  -15.8517   24.2248 C   0  0  0  0  0  0
   18.6496  -14.7942   23.9497 C   0  0  0  0  0  0
   19.3550  -14.1875   24.9969 C   0  0  0  0  0  0
   19.2105  -14.6533   26.3021 C   0  0  0  0  0  0
   18.7917  -14.3101   22.5070 C   0  0  0  0  0  0
   20.2358  -13.9237   22.1058 C   0  0  0  0  0  0
   20.4168  -13.7106   20.5941 C   0  0  0  0  0  0
   20.8160  -14.6619   19.9270 O   0  0  0  0  0  0
   20.2926  -12.4613   20.0707 N   0  0  0  0  0  0
   20.5487  -12.2205   18.6521 C   0  0  0  0  0  0
   19.1978  -12.3814   17.9245 C   0  0  2  0  0  0
   19.1075  -11.8550   16.4825 C   0  0  0  0  0  0
   17.6067  -11.7298   16.2271 C   0  0  0  0  0  0
   16.9201  -11.6263   17.6167 C   0  0  2  0  0  0
   18.0001  -11.8526   18.6080 N   0  0  0  0  0  0
   17.9928  -11.4619   19.9211 C   0  0  0  0  0  0
   16.9858  -11.0543   20.4907 O   0  0  0  0  0  0
   19.3625  -11.4785   20.6356 C   0  0  0  0  0  0
   15.6498  -12.5114   17.7511 C   0  0  0  0  0  0
   14.9184  -12.6825   16.7772 O   0  0  0  0  0  0
   15.3550  -13.0191   18.9583 N   0  0  0  0  0  0
   14.1476  -13.7788   19.3090 C   0  0  2  0  0  0
   12.9463  -12.8729   19.7232 C   0  0  0  0  0  0
   13.2180  -11.7281   20.7413 C   0  0  1  0  0  0
   13.7912  -10.4486   20.0981 C   0  0  0  0  0  0
   14.0604   -9.3819   21.1655 C   0  0  0  0  0  0
   12.7790   -9.0672   21.9469 C   0  0  0  0  0  0
   12.2302  -10.3000   22.5395 N   0  0  0  0  0  0
   11.9388  -11.3039   21.4996 C   0  0  0  0  0  0
   11.5653  -10.2518   23.8060 C   0  0  0  0  0  0
   11.6161   -9.2638   24.5796 N   0  0  0  0  0  0
   10.8160  -11.3875   24.1616 N   0  0  0  0  0  0
   14.5383  -14.7571   20.4228 C   0  0  0  0  0  0
   15.5309  -14.5667   21.1372 O   0  0  0  0  0  0
   13.7052  -15.9532   20.5873 C   0  0  0  0  0  0
   12.5767  -16.2068   19.9619 N   0  0  0  0  0  0
   12.0841  -17.3899   20.2677 C   0  0  0  0  0  0
   12.8250  -18.1482   21.1645 C   0  0  0  0  0  0
   14.2163  -17.2324   21.6586 S   0  0  0  0  0  0
   19.0180  -13.4529   17.9211 H   0  0  0  0  0  0
   16.5068  -10.6323   17.7815 H   0  0  0  0  0  0
   13.8466  -14.3689   18.4389 H   0  0  0  0  0  0
   18.2284  -16.0713   27.5719 H   0  0  0  0  0  0
   16.9538  -17.1284   25.7391 H   0  0  0  0  0  0
   17.2116  -16.3149   23.4312 H   0  0  0  0  0  0
   20.0141  -13.3532   24.8126 H   0  0  0  0  0  0
   19.7454  -14.1868   27.1190 H   0  0  0  0  0  0
   18.1092  -13.4696   22.3800 H   0  0  0  0  0  0
   18.4353  -15.0966   21.8369 H   0  0  0  0  0  0
   20.9112  -14.7273   22.4039 H   0  0  0  0  0  0
   20.5916  -13.0533   22.6527 H   0  0  0  0  0  0
   21.3578  -12.8337   18.2508 H   0  0  0  0  0  0
   20.8835  -11.1913   18.5277 H   0  0  0  0  0  0
   19.6159  -12.5365   15.7934 H   0  0  0  0  0  0
   19.6137  -10.9079   16.3210 H   0  0  0  0  0  0
   17.3021  -12.6380   15.7008 H   0  0  0  0  0  0
   17.3682  -10.8780   15.5893 H   0  0  0  0  0  0
   19.7748  -10.4742   20.5528 H   0  0  0  0  0  0
   19.2003  -11.6543   21.6941 H   0  0  0  0  0  0
   15.9614  -12.7936   19.7376 H   0  0  0  0  0  0
   12.1416  -13.5064   20.1011 H   0  0  0  0  0  0
   12.5270  -12.4335   18.8193 H   0  0  0  0  0  0
   13.9423  -12.0561   21.4921 H   0  0  0  0  0  0
   13.0929  -10.0739   19.3471 H   0  0  0  0  0  0
   14.7005  -10.6531   19.5493 H   0  0  0  0  0  0
   14.4741   -8.4795   20.7206 H   0  0  0  0  0  0
   14.8159   -9.7199   21.8656 H   0  0  0  0  0  0
   12.0222   -8.6537   21.2792 H   0  0  0  0  0  0
   13.0060   -8.3081   22.6969 H   0  0  0  0  0  0
   11.4821  -12.1982   21.9255 H   0  0  0  0  0  0
   11.2160  -10.8937   20.8001 H   0  0  0  0  0  0
   12.1918   -8.5228   24.2179 H   0  0  0  0  0  0
   10.1639  -11.3436   24.9370 H   0  0  0  0  0  0
   10.6213  -12.1249   23.5037 H   0  0  0  0  0  0
   11.1556  -17.7005   19.8086 H   0  0  0  0  0  0
   12.6247  -19.1359   21.5527 H   0  0  0  0  0  0
  1  6  1  0  0  0
  1  2  2  0  0  0
  1 45  1  0  0  0
  2  3  1  0  0  0
  2 46  1  0  0  0
  3  4  2  0  0  0
  3 47  1  0  0  0
  4  5  1  0  0  0
  4  7  1  0  0  0
  5  6  2  0  0  0
  5 48  1  0  0  0
  6 49  1  0  0  0
  7  8  1  0  0  0
  7 50  1  0  0  0
  7 51  1  0  0  0
  8  9  1  0  0  0
  8 52  1  0  0  0
  8 53  1  0  0  0
  9 10  2  0  0  0
  9 11  1  0  0  0
 11 20  1  0  0  0
 11 12  1  0  0  0
 12 13  1  0  0  0
 12 54  1  0  0  0
 12 55  1  0  0  0
 13 42  1  0  0  0
 13 17  1  0  0  0
 13 14  1  0  0  0
 14 15  1  0  0  0
 14 56  1  0  0  0
 14 57  1  0  0  0
 15 16  1  0  0  0
 15 58  1  0  0  0
 15 59  1  0  0  0
 16 43  1  0  0  0
 16 17  1  0  0  0
 16 21  1  0  0  0
 17 18  1  0  0  0
 18 19  2  0  0  0
 18 20  1  0  0  0
 20 60  1  0  0  0
 20 61  1  0  0  0
 21 22  2  0  0  0
 21 23  1  0  0  0
 23 24  1  0  0  0
 23 62  1  0  0  0
 24 44  1  0  0  0
 24 25  1  0  0  0
 24 35  1  0  0  0
 25 26  1  0  0  0
 25 63  1  0  0  0
 25 64  1  0  0  0
 26 31  1  0  0  0
 26 27  1  0  0  0
 26 65  1  0  0  0
 27 28  1  0  0  0
 27 66  1  0  0  0
 27 67  1  0  0  0
 28 29  1  0  0  0
 28 68  1  0  0  0
 28 69  1  0  0  0
 29 30  1  0  0  0
 29 70  1  0  0  0
 29 71  1  0  0  0
 30 31  1  0  0  0
 30 32  1  0  0  0
 31 72  1  0  0  0
 31 73  1  0  0  0
 32 33  2  3  0  0
 32 34  1  0  0  0
 33 74  1  0  0  0
 34 75  1  0  0  0
 34 76  1  0  0  0
 35 36  2  0  0  0
 35 37  1  0  0  0
 37 41  1  0  0  0
 37 38  2  0  0  0
 38 39  1  0  0  0
 39 40  2  0  0  0
 39 77  1  0  0  0
 40 41  1  0  0  0
 40 78  1  0  0  0
M  END
> <s_m_entry_id>
37861

> <s_m_entry_name>
ligand_docking-pose.208

> <s_m_Source_Path>
/home/csk/Desktop/cluster/DUD-E-result/thrb

> <s_m_Source_File>
ligand_docking-pose.sdf

> <i_m_Source_File_Index>
208

> <i_lp_mmshare_version>
53161

> <i_f3d_flags>
0

> <r_lp_tautomer_probability>
0.99990000499975

> <s_lp_Force_Field>
OPLS_2005

> <r_lp_Energy>
38.793308

> <b_lp_Chiralities_Consistent>
1

> <s_lp_Variant>
189402-4

> <s_i_glide_gridfile>
glide-grid_1ype

> <i_i_glide_lignum>
1003

> <i_i_glide_rotatable_bonds>
12

> <r_i_docking_score>
-7.34864972272899

> <r_i_glide_ligand_efficiency>
-0.179235359090951

> <r_i_glide_ligand_efficiency_sa>
-0.618042454538558

> <r_i_glide_ligand_efficiency_ln>
-1.55904049386204

> <r_i_glide_gscore>
-7.34864972272899

> <r_i_glide_lipo>
-3.43523190763102

> <r_i_glide_hbond>
-0.102909513048571

> <r_i_glide_metal>
0

> <r_i_glide_rewards>
-1.34820627327577

> <r_i_glide_evdw>
-53.5112724304199

> <r_i_glide_ecoul>
-1.1118198633194

> <r_i_glide_erotb>
0.460459972465399

> <r_i_glide_esite>
-0.0804254002201202

> <r_i_glide_emodel>
-62.205058495047

> <r_i_glide_energy>
-54.6230922937393

> <r_i_glide_einternal>
14.6350107192993

> <i_i_glide_confnum>
8

> <i_i_glide_posenum>
260

> <r_i_glide_eff_state_penalty>
0

> <s_user_duplicate_titles>
189402

> <s_m_subgroup_title>
dock_pv

> <s_m_subgroupid>
dock_pv1

> <b_m_subgroup_collapsed>
0

$$$$
305552
                    3D
 Schrodinger Suite 2021-1.
 40 43  0  0  1  0            999 V2000
   19.1743  -14.2303   24.5903 C   0  0  0  0  0  0
   18.0252  -14.6597   23.9308 C   0  0  0  0  0  0
   17.9120  -14.4823   22.5540 C   0  0  0  0  0  0
   18.9311  -13.8467   21.8373 C   0  0  0  0  0  0
   20.0940  -13.4531   22.5049 C   0  0  0  0  0  0
   20.2135  -13.6327   23.8811 C   0  0  0  0  0  0
   18.8449  -13.6173   20.3277 C   0  0  2  0  0  0
   18.8149  -12.1926   19.8206 C   0  0  0  0  0  0
   17.6490  -13.1127   19.5166 C   0  0  2  0  0  0
   16.2599  -12.8660   20.0863 C   0  0  0  0  0  0
   15.8001  -11.5728   20.3317 C   0  0  0  0  0  0
   14.5632  -11.3666   20.9892 C   0  0  0  0  0  0
   14.0971  -10.0684   21.2917 C   0  0  0  0  0  0
   12.9872   -9.8990   22.1095 C   0  0  0  0  0  0
   12.2856  -10.9910   22.6448 C   0  0  0  0  0  0
   12.6545  -12.2752   22.2171 C   0  0  0  0  0  0
   13.7960  -12.4952   21.4069 C   0  0  0  0  0  0
   14.2340  -13.7988   21.0415 C   0  0  0  0  0  0
   15.4396  -13.9558   20.3655 C   0  0  0  0  0  0
   13.2475  -15.3643   21.5155 Br  0  0  0  0  0  0
   11.2513  -10.7805   23.6910 C   0  0  0  0  0  0
   11.2134   -9.6915   24.3210 N   0  0  0  0  0  0
   10.4204  -11.8529   23.9210 N   0  0  0  0  0  0
   19.2620  -14.3674   25.6586 H   0  0  0  0  0  0
   17.2248  -15.1339   24.4812 H   0  0  0  0  0  0
   17.0295  -14.8529   22.0652 H   0  0  0  0  0  0
   20.9076  -13.0041   21.9551 H   0  0  0  0  0  0
   21.1078  -13.3112   24.3947 H   0  0  0  0  0  0
   19.5117  -14.2830   19.7790 H   0  0  0  0  0  0
   19.4922  -11.9144   19.0133 H   0  0  0  0  0  0
   18.6913  -11.3836   20.5426 H   0  0  0  0  0  0
   17.6089  -13.4667   18.4862 H   0  0  0  0  0  0
   16.4058  -10.7161   20.0731 H   0  0  0  0  0  0
   14.6602   -9.2071   20.9613 H   0  0  0  0  0  0
   12.7159   -8.8894   22.3868 H   0  0  0  0  0  0
   12.1249  -13.1409   22.5827 H   0  0  0  0  0  0
   15.7772  -14.9534   20.1242 H   0  0  0  0  0  0
   10.4504   -9.6988   24.9888 H   0  0  0  0  0  0
    9.6387  -11.7485   24.5691 H   0  0  0  0  0  0
   10.5694  -12.7715   23.5208 H   0  0  0  0  0  0
  1  6  1  0  0  0
  1  2  2  0  0  0
  1 24  1  0  0  0
  2  3  1  0  0  0
  2 25  1  0  0  0
  3  4  2  0  0  0
  3 26  1  0  0  0
  4  5  1  0  0  0
  4  7  1  0  0  0
  5  6  2  0  0  0
  5 27  1  0  0  0
  6 28  1  0  0  0
  7  9  1  0  0  0
  7  8  1  0  0  0
  7 29  1  0  0  0
  8  9  1  0  0  0
  8 30  1  0  0  0
  8 31  1  0  0  0
  9 10  1  0  0  0
  9 32  1  0  0  0
 10 19  1  0  0  0
 10 11  2  0  0  0
 11 12  1  0  0  0
 11 33  1  0  0  0
 12 17  2  0  0  0
 12 13  1  0  0  0
 13 14  2  0  0  0
 13 34  1  0  0  0
 14 15  1  0  0  0
 14 35  1  0  0  0
 15 16  2  0  0  0
 15 21  1  0  0  0
 16 17  1  0  0  0
 16 36  1  0  0  0
 17 18  1  0  0  0
 18 19  2  0  0  0
 18 20  1  0  0  0
 19 37  1  0  0  0
 21 22  2  3  0  0
 21 23  1  0  0  0
 22 38  1  0  0  0
 23 39  1  0  0  0
 23 40  1  0  0  0
M  END
> <s_m_entry_id>
37862

> <s_m_entry_name>
ligand_docking-pose.209

> <s_m_Source_Path>
/home/csk/Desktop/cluster/DUD-E-result/thrb

> <s_m_Source_File>
ligand_docking-pose.sdf

> <i_m_Source_File_Index>
209

> <i_lp_mmshare_version>
53161

> <i_f3d_flags>
0

> <r_lp_tautomer_probability>
1

> <s_lp_Force_Field>
OPLS_2005

> <r_lp_Energy>
13.967518

> <b_lp_Chiralities_Consistent>
1

> <s_lp_Variant>
305552-5

> <s_i_glide_gridfile>
glide-grid_1ype

> <i_i_glide_lignum>
533

> <i_i_glide_rotatable_bonds>
3

> <r_i_docking_score>
-7.33741502356344

> <r_i_glide_ligand_efficiency>
-0.319018044502758

> <r_i_glide_ligand_efficiency_sa>
-0.907244881789992

> <r_i_glide_ligand_efficiency_ln>
-1.77425348469866

> <r_i_glide_gscore>
-7.33741502356344

> <r_i_glide_lipo>
-3.06977178998374

> <r_i_glide_hbond>
-0.535898932904435

> <r_i_glide_metal>
0

> <r_i_glide_rewards>
-0.979721262042944

> <r_i_glide_evdw>
-34.7753677368164

> <r_i_glide_ecoul>
-7.78474712371826

> <r_i_glide_erotb>
0.288326598063362

> <r_i_glide_esite>
-0.13386918129713

> <r_i_glide_emodel>
-58.7865567194819

> <r_i_glide_energy>
-42.5601148605347

> <r_i_glide_einternal>
1.30688905715942

> <i_i_glide_confnum>
6

> <i_i_glide_posenum>
246

> <r_i_glide_eff_state_penalty>
0

> <s_user_duplicate_titles>
305552

> <s_m_subgroup_title>
dock_pv

> <s_m_subgroupid>
dock_pv1

> <b_m_subgroup_collapsed>
0

$$$$
11479
                    3D
 Schrodinger Suite 2021-1.
 77 80  0  0  1  0            999 V2000
   20.4886  -13.3787   26.4083 C   0  0  0  0  0  0
   19.4837  -14.3147   26.1786 C   0  0  0  0  0  0
   19.6753  -15.3228   25.2390 C   0  0  0  0  0  0
   20.8732  -15.3858   24.5238 C   0  0  0  0  0  0
   21.8870  -14.4541   24.7717 C   0  0  0  0  0  0
   21.6971  -13.4534   25.7202 C   0  0  0  0  0  0
   21.0480  -16.4378   23.4335 C   0  0  0  0  0  0
   20.9977  -15.8547   22.0021 C   0  0  1  0  0  0
   21.1424  -16.9275   20.9055 C   0  0  0  0  0  0
   22.4168  -17.5101   20.9225 O   0  0  0  0  0  0
   19.7770  -15.0929   21.7781 N   0  0  0  0  0  0
   19.6583  -13.9994   20.9099 C   0  0  0  0  0  0
   20.6931  -13.6208   20.0486 C   0  0  0  0  0  0
   20.5045  -12.5529   19.1791 C   0  0  0  0  0  0
   19.3484  -11.8540   19.1282 N   0  0  0  0  0  0
   18.3474  -12.2066   19.9730 C   0  0  0  0  0  0
   18.4558  -13.2747   20.8664 C   0  0  0  0  0  0
   17.0089  -13.7881   21.7770 S   0  0  0  0  0  0
   16.0794  -12.6552   21.8375 O   0  0  0  0  0  0
   17.4426  -14.4539   23.0124 O   0  0  0  0  0  0
   16.3632  -15.0137   20.6848 N   0  0  1  0  0  0
   15.2369  -14.6122   19.8021 C   0  0  1  0  0  0
   15.2150  -15.4117   18.4968 C   0  0  0  0  0  0
   14.9706  -16.7903   18.4857 C   0  0  0  0  0  0
   14.8918  -17.4795   17.2781 C   0  0  0  0  0  0
   15.0701  -16.8055   16.0675 C   0  0  0  0  0  0
   15.3745  -15.4323   16.0733 C   0  0  0  0  0  0
   15.4398  -14.7478   17.2845 C   0  0  0  0  0  0
   15.6172  -14.7123   14.8968 N   0  0  0  0  0  0
   14.9243  -17.5158   14.9038 O   0  0  0  0  0  0
   13.9567  -14.8028   20.6547 C   0  0  0  0  0  0
   13.8590  -15.7952   21.3883 O   0  0  0  0  0  0
   13.0822  -13.7742   20.7330 N   0  0  0  0  0  0
   12.7642  -12.8442   19.6351 C   0  0  0  0  0  0
   12.7907  -11.4041   20.2081 C   0  0  0  0  0  0
   12.0180  -11.2154   21.5513 C   0  0  0  0  0  0
   12.5296  -12.2816   22.5195 C   0  0  0  0  0  0
   12.2416  -13.6713   21.9210 C   0  0  0  0  0  0
   12.0496   -9.7570   22.0451 C   0  0  0  0  0  0
   13.3819   -9.2691   22.5963 C   0  0  0  0  0  0
   14.4110   -9.2785   21.7393 F   0  0  0  0  0  0
   21.8274  -15.1503   21.9285 H   0  0  0  0  0  0
   15.3790  -13.5615   19.5559 H   0  0  0  0  0  0
   20.3287  -12.5971   27.1368 H   0  0  0  0  0  0
   18.5521  -14.2548   26.7218 H   0  0  0  0  0  0
   18.8778  -16.0294   25.0509 H   0  0  0  0  0  0
   22.8105  -14.4911   24.2132 H   0  0  0  0  0  0
   22.4711  -12.7223   25.9107 H   0  0  0  0  0  0
   20.2975  -17.2222   23.5477 H   0  0  0  0  0  0
   22.0041  -16.9366   23.6038 H   0  0  0  0  0  0
   20.3868  -17.7080   20.9992 H   0  0  0  0  0  0
   21.0564  -16.4719   19.9215 H   0  0  0  0  0  0
   23.0647  -16.8188   20.7224 H   0  0  0  0  0  0
   19.0533  -15.1722   22.4882 H   0  0  0  0  0  0
   21.6164  -14.1673   20.0134 H   0  0  0  0  0  0
   21.2853  -12.2593   18.4900 H   0  0  0  0  0  0
   17.4303  -11.6416   19.8912 H   0  0  0  0  0  0
   17.1098  -15.4685   20.1579 H   0  0  0  0  0  0
   14.8027  -17.3221   19.4132 H   0  0  0  0  0  0
   14.6728  -18.5377   17.2834 H   0  0  0  0  0  0
   15.6567  -13.6893   17.2811 H   0  0  0  0  0  0
   15.2928  -15.1070   14.0216 H   0  0  0  0  0  0
   15.6778  -13.7080   14.9656 H   0  0  0  0  0  0
   14.7199  -16.9627   14.1471 H   0  0  0  0  0  0
   11.7535  -13.0780   19.2967 H   0  0  0  0  0  0
   13.4525  -12.9251   18.7938 H   0  0  0  0  0  0
   12.4181  -10.7075   19.4587 H   0  0  0  0  0  0
   13.8310  -11.1101   20.3389 H   0  0  0  0  0  0
   10.9640  -11.4672   21.5206 H   0  0  0  0  0  0
   13.5908  -12.1426   22.7183 H   0  0  0  0  0  0
   12.0160  -12.1841   23.4771 H   0  0  0  0  0  0
   11.2136  -13.7676   21.5903 H   0  0  0  0  0  0
   12.4169  -14.4504   22.6636 H   0  0  0  0  0  0
   11.2946   -9.6375   22.8223 H   0  0  0  0  0  0
   11.7400   -9.0985   21.2370 H   0  0  0  0  0  0
   13.6168   -9.8490   23.4759 H   0  0  0  0  0  0
   13.2877   -8.2507   22.9374 H   0  0  0  0  0  0
  1  6  1  0  0  0
  1  2  2  0  0  0
  1 44  1  0  0  0
  2  3  1  0  0  0
  2 45  1  0  0  0
  3  4  2  0  0  0
  3 46  1  0  0  0
  4  5  1  0  0  0
  4  7  1  0  0  0
  5  6  2  0  0  0
  5 47  1  0  0  0
  6 48  1  0  0  0
  7  8  1  0  0  0
  7 49  1  0  0  0
  7 50  1  0  0  0
  8 42  1  0  0  0
  8  9  1  0  0  0
  8 11  1  0  0  0
  9 10  1  0  0  0
  9 51  1  0  0  0
  9 52  1  0  0  0
 10 53  1  0  0  0
 11 12  1  0  0  0
 11 54  1  0  0  0
 12 17  1  0  0  0
 12 13  2  0  0  0
 13 14  1  0  0  0
 13 55  1  0  0  0
 14 15  2  0  0  0
 14 56  1  0  0  0
 15 16  1  0  0  0
 16 17  2  0  0  0
 16 57  1  0  0  0
 17 18  1  0  0  0
 18 19  2  0  0  0
 18 20  2  0  0  0
 18 21  1  0  0  0
 21 22  1  0  0  0
 21 58  1  0  0  0
 22 43  1  0  0  0
 22 23  1  0  0  0
 22 31  1  0  0  0
 23 28  1  0  0  0
 23 24  2  0  0  0
 24 25  1  0  0  0
 24 59  1  0  0  0
 25 26  2  0  0  0
 25 60  1  0  0  0
 26 27  1  0  0  0
 26 30  1  0  0  0
 27 28  2  0  0  0
 27 29  1  0  0  0
 28 61  1  0  0  0
 29 62  1  0  0  0
 29 63  1  0  0  0
 30 64  1  0  0  0
 31 32  2  0  0  0
 31 33  1  0  0  0
 33 38  1  0  0  0
 33 34  1  0  0  0
 34 35  1  0  0  0
 34 65  1  0  0  0
 34 66  1  0  0  0
 35 36  1  0  0  0
 35 67  1  0  0  0
 35 68  1  0  0  0
 36 37  1  0  0  0
 36 39  1  0  0  0
 36 69  1  0  0  0
 37 38  1  0  0  0
 37 70  1  0  0  0
 37 71  1  0  0  0
 38 72  1  0  0  0
 38 73  1  0  0  0
 39 40  1  0  0  0
 39 74  1  0  0  0
 39 75  1  0  0  0
 40 41  1  0  0  0
 40 76  1  0  0  0
 40 77  1  0  0  0
M  END
> <s_m_entry_id>
37863

> <s_m_entry_name>
ligand_docking-pose.210

> <s_m_Source_Path>
/home/csk/Desktop/cluster/DUD-E-result/thrb

> <s_m_Source_File>
ligand_docking-pose.sdf

> <i_m_Source_File_Index>
210

> <i_lp_mmshare_version>
53161

> <i_f3d_flags>
0

> <r_lp_tautomer_probability>
0.999999106000799

> <s_lp_Force_Field>
OPLS_2005

> <r_lp_Energy>
40.422069

> <b_lp_Chiralities_Consistent>
1

> <s_lp_Variant>
11479-1

> <s_i_glide_gridfile>
glide-grid_1ype

> <i_i_glide_lignum>
1138

> <i_i_glide_rotatable_bonds>
15

> <r_i_docking_score>
-7.33074437424466

> <r_i_glide_ligand_efficiency>
-0.17879864327426

> <r_i_glide_ligand_efficiency_sa>
-0.616536563532161

> <r_i_glide_ligand_efficiency_ln>
-1.55524181459482

> <r_i_glide_gscore>
-7.33074437424466

> <r_i_glide_lipo>
-3.49328402245616

> <r_i_glide_hbond>
-0.32

> <r_i_glide_metal>
0

> <r_i_glide_rewards>
-0.638445029703494

> <r_i_glide_evdw>
-44.9625625610352

> <r_i_glide_ecoul>
-7.62951421737671

> <r_i_glide_erotb>
0.566508046655431

> <r_i_glide_esite>
-0.0529681080821785

> <r_i_glide_emodel>
-54.8789599790641

> <r_i_glide_energy>
-52.5920767784119

> <r_i_glide_einternal>
31.9478874206543

> <i_i_glide_confnum>
42

> <i_i_glide_posenum>
46

> <r_i_glide_eff_state_penalty>
0

> <s_user_duplicate_titles>
11479

> <s_m_subgroup_title>
dock_pv

> <s_m_subgroupid>
dock_pv1

> <b_m_subgroup_collapsed>
0

$$$$
179000
                    3D
 Schrodinger Suite 2021-1.
 71 74  0  0  1  0            999 V2000
   25.1378  -15.1220   24.1863 C   0  0  0  0  0  0
   24.3329  -16.1303   24.7129 C   0  0  0  0  0  0
   23.1543  -15.7982   25.3774 C   0  0  0  0  0  0
   22.7858  -14.4571   25.5198 C   0  0  0  0  0  0
   23.6052  -13.4530   24.9983 C   0  0  0  0  0  0
   24.7753  -13.7848   24.3211 C   0  0  0  0  0  0
   21.4705  -14.0909   26.2125 C   0  0  0  0  0  0
   20.4002  -13.4281   25.3024 C   0  0  0  0  0  0
   20.2664  -14.0663   23.9059 C   0  0  0  0  0  0
   20.7436  -13.4471   22.9556 O   0  0  0  0  0  0
   19.8027  -15.3362   23.7751 N   0  0  0  0  0  0
   19.0330  -16.0533   24.7984 C   0  0  0  0  0  0
   17.6284  -16.3625   24.2137 C   0  0  2  0  0  0
   16.8447  -17.5038   24.8770 C   0  0  0  0  0  0
   16.0510  -18.1901   23.7519 C   0  0  0  0  0  0
   16.3312  -17.4109   22.4600 C   0  0  2  0  0  0
   17.5811  -16.7085   22.7810 N   0  0  0  0  0  0
   18.6077  -16.5566   21.9077 C   0  0  0  0  0  0
   18.4902  -16.8443   20.7210 O   0  0  0  0  0  0
   19.9331  -16.0426   22.4897 C   0  0  0  0  0  0
   15.1801  -16.4804   22.0015 C   0  0  0  0  0  0
   14.0143  -16.8600   22.1206 O   0  0  0  0  0  0
   15.4985  -15.2976   21.4396 N   0  0  0  0  0  0
   14.5730  -14.4905   20.6345 C   0  0  2  0  0  0
   14.9424  -14.7146   19.1356 C   0  0  0  0  0  0
   13.7222  -14.8400   18.2164 C   0  0  0  0  0  0
   12.9818  -16.1766   18.3985 C   0  0  0  0  0  0
   11.8326  -16.2532   17.5211 N   0  0  0  0  0  0
   10.6422  -16.9195   17.7375 C   0  0  0  0  0  0
   10.4161  -17.6713   18.7209 N   0  0  0  0  0  0
    9.7281  -16.6531   16.7320 N   0  0  0  0  0  0
   14.7573  -13.0307   21.0575 C   0  0  0  0  0  0
   15.8715  -12.4999   20.9983 O   0  0  0  0  0  0
   13.5820  -12.2733   21.5041 C   0  0  0  0  0  0
   12.4488  -12.7783   21.9315 N   0  0  0  0  0  0
   11.5993  -11.8500   22.3209 C   0  0  0  0  0  0
   12.0163  -10.5336   22.1849 C   0  0  0  0  0  0
   13.6166  -10.5265   21.5177 S   0  0  0  0  0  0
   17.0185  -15.4632   24.3244 H   0  0  0  0  0  0
   16.4708  -18.0737   21.6038 H   0  0  0  0  0  0
   26.0580  -15.3760   23.6800 H   0  0  0  0  0  0
   24.6227  -17.1657   24.6067 H   0  0  0  0  0  0
   22.5277  -16.5831   25.7753 H   0  0  0  0  0  0
   23.3366  -12.4159   25.1190 H   0  0  0  0  0  0
   25.4058  -13.0055   23.9225 H   0  0  0  0  0  0
   21.6968  -13.4235   27.0454 H   0  0  0  0  0  0
   21.0426  -14.9768   26.6823 H   0  0  0  0  0  0
   20.6703  -12.3801   25.1615 H   0  0  0  0  0  0
   19.4265  -13.3930   25.7910 H   0  0  0  0  0  0
   18.9355  -15.5142   25.7400 H   0  0  0  0  0  0
   19.5513  -16.9857   25.0240 H   0  0  0  0  0  0
   16.2306  -17.1438   25.6999 H   0  0  0  0  0  0
   17.5355  -18.2310   25.3077 H   0  0  0  0  0  0
   14.9853  -18.3355   23.9240 H   0  0  0  0  0  0
   16.4467  -19.1976   23.6226 H   0  0  0  0  0  0
   20.5994  -16.8965   22.6092 H   0  0  0  0  0  0
   20.3873  -15.4179   21.7191 H   0  0  0  0  0  0
   16.4739  -15.0401   21.3817 H   0  0  0  0  0  0
   13.5438  -14.8053   20.8176 H   0  0  0  0  0  0
   15.5435  -15.6172   19.0007 H   0  0  0  0  0  0
   15.5794  -13.9126   18.7570 H   0  0  0  0  0  0
   14.0481  -14.7452   17.1792 H   0  0  0  0  0  0
   13.0447  -14.0071   18.4065 H   0  0  0  0  0  0
   12.6420  -16.3000   19.4263 H   0  0  0  0  0  0
   13.6435  -17.0142   18.1779 H   0  0  0  0  0  0
   11.9562  -15.8636   16.5895 H   0  0  0  0  0  0
    9.4849  -18.0735   18.6799 H   0  0  0  0  0  0
    9.0139  -17.3618   16.6324 H   0  0  0  0  0  0
   10.1694  -16.5103   15.8304 H   0  0  0  0  0  0
   10.6398  -12.1580   22.7170 H   0  0  0  0  0  0
   11.4892   -9.6248   22.4355 H   0  0  0  0  0  0
  1  6  1  0  0  0
  1  2  2  0  0  0
  1 41  1  0  0  0
  2  3  1  0  0  0
  2 42  1  0  0  0
  3  4  2  0  0  0
  3 43  1  0  0  0
  4  5  1  0  0  0
  4  7  1  0  0  0
  5  6  2  0  0  0
  5 44  1  0  0  0
  6 45  1  0  0  0
  7  8  1  0  0  0
  7 46  1  0  0  0
  7 47  1  0  0  0
  8  9  1  0  0  0
  8 48  1  0  0  0
  8 49  1  0  0  0
  9 10  2  0  0  0
  9 11  1  0  0  0
 11 20  1  0  0  0
 11 12  1  0  0  0
 12 13  1  0  0  0
 12 50  1  0  0  0
 12 51  1  0  0  0
 13 39  1  0  0  0
 13 17  1  0  0  0
 13 14  1  0  0  0
 14 15  1  0  0  0
 14 52  1  0  0  0
 14 53  1  0  0  0
 15 16  1  0  0  0
 15 54  1  0  0  0
 15 55  1  0  0  0
 16 40  1  0  0  0
 16 17  1  0  0  0
 16 21  1  0  0  0
 17 18  1  0  0  0
 18 19  2  0  0  0
 18 20  1  0  0  0
 20 56  1  0  0  0
 20 57  1  0  0  0
 21 22  2  0  0  0
 21 23  1  0  0  0
 23 24  1  0  0  0
 23 58  1  0  0  0
 24 25  1  0  0  0
 24 32  1  0  0  0
 24 59  1  0  0  0
 25 26  1  0  0  0
 25 60  1  0  0  0
 25 61  1  0  0  0
 26 27  1  0  0  0
 26 62  1  0  0  0
 26 63  1  0  0  0
 27 28  1  0  0  0
 27 64  1  0  0  0
 27 65  1  0  0  0
 28 29  1  0  0  0
 28 66  1  0  0  0
 29 30  2  3  0  0
 29 31  1  0  0  0
 30 67  1  0  0  0
 31 68  1  0  0  0
 31 69  1  0  0  0
 32 33  2  0  0  0
 32 34  1  0  0  0
 34 38  1  0  0  0
 34 35  2  0  0  0
 35 36  1  0  0  0
 36 37  2  0  0  0
 36 70  1  0  0  0
 37 38  1  0  0  0
 37 71  1  0  0  0
M  END
> <s_m_entry_id>
37864

> <s_m_entry_name>
ligand_docking-pose.211

> <s_m_Source_Path>
/home/csk/Desktop/cluster/DUD-E-result/thrb

> <s_m_Source_File>
ligand_docking-pose.sdf

> <i_m_Source_File_Index>
211

> <i_lp_mmshare_version>
53161

> <i_f3d_flags>
0

> <r_lp_tautomer_probability>
0.99990000499975

> <s_lp_Force_Field>
OPLS_2005

> <r_lp_Energy>
34.122032

> <b_lp_Chiralities_Consistent>
1

> <s_lp_Variant>
179000-1

> <s_i_glide_gridfile>
glide-grid_1ype

> <i_i_glide_lignum>
980

> <i_i_glide_rotatable_bonds>
14

> <r_i_docking_score>
-7.32931257353374

> <r_i_glide_ligand_efficiency>
-0.19287664667194

> <r_i_glide_ligand_efficiency_sa>
-0.648446541870657

> <r_i_glide_ligand_efficiency_ln>
-1.58041539738556

> <r_i_glide_gscore>
-7.32931257353374

> <r_i_glide_lipo>
-2.65139655021491

> <r_i_glide_hbond>
-1.12756407303857

> <r_i_glide_metal>
0

> <r_i_glide_rewards>
-0.456688200632811

> <r_i_glide_evdw>
-47.9312400817871

> <r_i_glide_ecoul>
-9.22221565246582

> <r_i_glide_erotb>
0.85170986300661

> <r_i_glide_esite>
-0.165479260694822

> <r_i_glide_emodel>
-72.4272152310095

> <r_i_glide_energy>
-57.1534557342529

> <r_i_glide_einternal>
18.7678031921387

> <i_i_glide_confnum>
24

> <i_i_glide_posenum>
362

> <r_i_glide_eff_state_penalty>
0

> <s_user_duplicate_titles>
179000

> <s_m_subgroup_title>
dock_pv

> <s_m_subgroupid>
dock_pv1

> <b_m_subgroup_collapsed>
0

$$$$
32908
                    3D
 Schrodinger Suite 2021-1.
 62 65  0  0  1  0            999 V2000
   16.5033  -10.3680   15.1790 C   0  0  0  0  0  0
   15.7166  -11.4196   15.9863 C   0  0  0  0  0  0
   16.4808  -12.0261   17.1581 C   0  0  0  0  0  0
   17.7641  -11.8530   17.3732 N   0  0  0  0  0  0
   18.0137  -12.4759   18.5650 C   0  0  0  0  0  0
   19.2080  -12.5401   19.2940 C   0  0  0  0  0  0
   19.2288  -13.2334   20.5053 C   0  0  0  0  0  0
   18.0627  -13.8713   20.9607 C   0  0  0  0  0  0
   16.8530  -13.8211   20.2616 C   0  0  0  0  0  0
   16.8507  -13.1061   19.0601 C   0  0  0  0  0  0
   15.8762  -12.8169   18.1215 N   0  0  0  0  0  0
   14.4655  -13.2043   18.1980 C   0  0  0  0  0  0
   13.6662  -12.5406   19.3157 C   0  0  0  0  0  0
   14.0709  -11.5123   20.0908 C   0  0  0  0  0  0
   13.3313  -10.9295   21.2250 C   0  0  0  0  0  0
   13.6160   -9.6185   21.6244 C   0  0  0  0  0  0
   12.9627   -9.0540   22.7210 C   0  0  0  0  0  0
   12.0092   -9.7904   23.4216 C   0  0  0  0  0  0
   11.7219  -11.0967   23.0347 C   0  0  0  0  0  0
   12.3743  -11.6630   21.9395 C   0  0  0  0  0  0
   10.8159  -11.8530   23.7661 N   0  0  0  0  0  0
   20.4452  -13.2159   21.1626 O   0  0  0  0  0  0
   20.6829  -13.8675   22.4155 C   0  0  0  0  0  0
   19.9104  -13.3006   23.6363 C   0  0  0  0  0  0
   20.2905  -14.0454   24.9305 C   0  0  0  0  0  0
   20.0685  -15.4877   24.7271 N   0  0  0  0  0  0
   20.9929  -16.0437   23.7225 C   0  0  0  0  0  0
   20.6717  -15.4150   22.3476 C   0  0  0  0  0  0
   19.1526  -16.2746   25.4294 C   0  0  0  0  0  0
   18.9864  -17.5252   25.3377 N   0  0  0  0  0  0
   18.2317  -15.5584   26.4064 C   0  0  0  0  0  0
   15.8930   -9.9539   14.3744 H   0  0  0  0  0  0
   16.8193   -9.5384   15.8141 H   0  0  0  0  0  0
   17.3952  -10.8041   14.7270 H   0  0  0  0  0  0
   15.3880  -12.2092   15.3089 H   0  0  0  0  0  0
   14.8068  -10.9414   16.3531 H   0  0  0  0  0  0
   20.1042  -12.0596   18.9342 H   0  0  0  0  0  0
   18.0591  -14.4287   21.8809 H   0  0  0  0  0  0
   15.9648  -14.3081   20.6402 H   0  0  0  0  0  0
   14.4353  -14.2840   18.3510 H   0  0  0  0  0  0
   13.9825  -13.0248   17.2380 H   0  0  0  0  0  0
   12.6860  -12.9653   19.4796 H   0  0  0  0  0  0
   15.0434  -11.0767   19.9084 H   0  0  0  0  0  0
   14.3639   -9.0391   21.1037 H   0  0  0  0  0  0
   13.2176   -8.0591   23.0525 H   0  0  0  0  0  0
   11.5170   -9.3574   24.2804 H   0  0  0  0  0  0
   12.1508  -12.6846   21.6702 H   0  0  0  0  0  0
   10.6833  -12.8346   23.5306 H   0  0  0  0  0  0
   10.1191  -11.3900   24.3438 H   0  0  0  0  0  0
   21.7267  -13.6000   22.5906 H   0  0  0  0  0  0
   20.1458  -12.2532   23.8011 H   0  0  0  0  0  0
   18.8330  -13.3829   23.5244 H   0  0  0  0  0  0
   21.3661  -13.9294   25.0739 H   0  0  0  0  0  0
   19.8276  -13.6169   25.8199 H   0  0  0  0  0  0
   21.9908  -15.7183   24.0225 H   0  0  0  0  0  0
   21.0140  -17.1343   23.6965 H   0  0  0  0  0  0
   19.7045  -15.7991   22.0303 H   0  0  0  0  0  0
   21.4223  -15.7669   21.6390 H   0  0  0  0  0  0
   19.6185  -17.9431   24.6724 H   0  0  0  0  0  0
   17.5597  -14.8777   25.8832 H   0  0  0  0  0  0
   17.6161  -16.2561   26.9750 H   0  0  0  0  0  0
   18.7994  -14.9864   27.1366 H   0  0  0  0  0  0
  1  2  1  0  0  0
  1 32  1  0  0  0
  1 33  1  0  0  0
  1 34  1  0  0  0
  2  3  1  0  0  0
  2 35  1  0  0  0
  2 36  1  0  0  0
  3 11  1  0  0  0
  3  4  2  0  0  0
  4  5  1  0  0  0
  5 10  2  0  0  0
  5  6  1  0  0  0
  6  7  2  0  0  0
  6 37  1  0  0  0
  7  8  1  0  0  0
  7 22  1  0  0  0
  8  9  2  0  0  0
  8 38  1  0  0  0
  9 10  1  0  0  0
  9 39  1  0  0  0
 10 11  1  0  0  0
 11 12  1  0  0  0
 12 13  1  0  0  0
 12 40  1  0  0  0
 12 41  1  0  0  0
 13 14  2  0  0  0
 13 42  1  0  0  0
 14 15  1  0  0  0
 14 43  1  0  0  0
 15 20  1  0  0  0
 15 16  2  0  0  0
 16 17  1  0  0  0
 16 44  1  0  0  0
 17 18  2  0  0  0
 17 45  1  0  0  0
 18 19  1  0  0  0
 18 46  1  0  0  0
 19 20  2  0  0  0
 19 21  1  0  0  0
 20 47  1  0  0  0
 21 48  1  0  0  0
 21 49  1  0  0  0
 22 23  1  0  0  0
 23 28  1  0  0  0
 23 24  1  0  0  0
 23 50  1  0  0  0
 24 25  1  0  0  0
 24 51  1  0  0  0
 24 52  1  0  0  0
 25 26  1  0  0  0
 25 53  1  0  0  0
 25 54  1  0  0  0
 26 27  1  0  0  0
 26 29  1  0  0  0
 27 28  1  0  0  0
 27 55  1  0  0  0
 27 56  1  0  0  0
 28 57  1  0  0  0
 28 58  1  0  0  0
 29 30  2  3  0  0
 29 31  1  0  0  0
 30 59  1  0  0  0
 31 60  1  0  0  0
 31 61  1  0  0  0
 31 62  1  0  0  0
M  END
> <s_m_entry_id>
37865

> <s_m_entry_name>
ligand_docking-pose.212

> <s_m_Source_Path>
/home/csk/Desktop/cluster/DUD-E-result/thrb

> <s_m_Source_File>
ligand_docking-pose.sdf

> <i_m_Source_File_Index>
212

> <i_lp_mmshare_version>
53161

> <i_f3d_flags>
0

> <r_lp_tautomer_probability>
0.499900269896156

> <s_lp_Force_Field>
OPLS_2005

> <r_lp_Energy>
27.985447

> <b_lp_Chiralities_Consistent>
1

> <s_lp_Variant>
32908-2

> <s_i_glide_gridfile>
glide-grid_1ype

> <i_i_glide_lignum>
3248

> <i_i_glide_rotatable_bonds>
7

> <r_i_docking_score>
-7.32917845676683

> <r_i_glide_ligand_efficiency>
-0.236425111508607

> <r_i_glide_ligand_efficiency_sa>
-0.742701270182474

> <r_i_glide_ligand_efficiency_ln>
-1.6529543543457

> <r_i_glide_gscore>
-7.32917845676683

> <r_i_glide_lipo>
-3.53387782548575

> <r_i_glide_hbond>
-0.367483617733858

> <r_i_glide_metal>
0

> <r_i_glide_rewards>
-0.940461875130395

> <r_i_glide_evdw>
-43.327564239502

> <r_i_glide_ecoul>
-5.42454957962036

> <r_i_glide_erotb>
0.566867802141604

> <r_i_glide_esite>
-0.0741622916402734

> <r_i_glide_emodel>
-69.7564744553398

> <r_i_glide_energy>
-48.7521138191223

> <r_i_glide_einternal>
3.35017585754395

> <i_i_glide_confnum>
9

> <i_i_glide_posenum>
371

> <r_i_glide_eff_state_penalty>
0

> <s_user_duplicate_titles>
32908

> <s_m_subgroup_title>
dock_pv

> <s_m_subgroupid>
dock_pv1

> <b_m_subgroup_collapsed>
0

$$$$
232087
                    3D
 Schrodinger Suite 2021-1.
 69 71  0  0  1  0            999 V2000
   17.6163  -16.7758   25.8795 C   0  0  0  0  0  0
   18.7704  -17.5476   25.9941 C   0  0  0  0  0  0
   20.0184  -16.9352   25.9178 C   0  0  0  0  0  0
   20.1073  -15.5506   25.7461 C   0  0  0  0  0  0
   18.9495  -14.7817   25.6487 C   0  0  0  0  0  0
   17.7037  -15.3962   25.7053 C   0  0  0  0  0  0
   21.4642  -14.8820   25.5926 C   0  0  0  0  0  0
   22.1826  -15.1983   23.8802 S   0  0  0  0  0  0
   22.4061  -16.6399   23.7520 O   0  0  0  0  0  0
   23.2882  -14.2607   23.6574 O   0  0  0  0  0  0
   20.8571  -14.7763   22.7999 N   0  0  2  0  0  0
   20.6962  -13.3790   22.3368 C   0  0  1  0  0  0
   21.6161  -13.2118   21.1247 C   0  0  0  0  0  0
   21.2735  -12.0196   20.2440 C   0  0  0  0  0  0
   19.7959  -12.0313   19.8451 C   0  0  0  0  0  0
   18.8691  -12.3701   20.9490 N   0  0  0  0  0  0
   19.1958  -13.0915   22.0754 C   0  0  0  0  0  0
   18.3367  -13.4592   22.8822 O   0  0  0  0  0  0
   17.4467  -12.0682   20.6913 C   0  0  0  0  0  0
   16.6623  -13.2939   20.1808 C   0  0  0  0  0  0
   17.2151  -14.3615   19.9244 O   0  0  0  0  0  0
   15.3385  -13.0923   20.0924 N   0  0  0  0  0  0
   14.1978  -14.0109   19.9253 C   0  0  1  0  0  0
   12.8678  -13.2509   19.6638 C   0  0  0  0  0  0
   12.6721  -11.9033   20.4096 C   0  0  2  0  0  0
   13.3197  -10.6540   19.7641 C   0  0  0  0  0  0
   12.9321   -9.3760   20.5360 C   0  0  0  0  0  0
   13.1240   -9.5180   22.0638 C   0  0  0  0  0  0
   12.3976  -10.7018   22.5466 N   0  0  0  0  0  0
   12.9252  -11.9347   21.9357 C   0  0  0  0  0  0
   11.4768  -10.6493   23.6407 C   0  0  0  0  0  0
   11.2165   -9.6225   24.3179 N   0  0  0  0  0  0
   10.8152  -11.8530   23.9304 N   0  0  0  0  0  0
   14.4473  -15.1180   18.9060 C   0  0  0  0  0  0
   13.5542  -15.6019   18.2094 O   0  0  0  0  0  0
   20.9771  -12.6913   23.1373 H   0  0  0  0  0  0
   14.0902  -14.4968   20.8985 H   0  0  0  0  0  0
   11.6161  -11.6758   20.3216 H   0  0  0  0  0  0
   16.6456  -17.2479   25.9220 H   0  0  0  0  0  0
   18.6989  -18.6170   26.1276 H   0  0  0  0  0  0
   20.9145  -17.5355   25.9805 H   0  0  0  0  0  0
   19.0064  -13.7135   25.5015 H   0  0  0  0  0  0
   16.8156  -14.7946   25.6065 H   0  0  0  0  0  0
   22.1828  -15.2578   26.3208 H   0  0  0  0  0  0
   21.3929  -13.8022   25.7176 H   0  0  0  0  0  0
   19.9756  -15.2294   23.0535 H   0  0  0  0  0  0
   21.6160  -14.1136   20.5060 H   0  0  0  0  0  0
   22.6215  -13.0892   21.5211 H   0  0  0  0  0  0
   21.8883  -12.0368   19.3424 H   0  0  0  0  0  0
   21.5335  -11.0774   20.7208 H   0  0  0  0  0  0
   19.6901  -12.8663   19.1445 H   0  0  0  0  0  0
   19.4805  -11.1293   19.3124 H   0  0  0  0  0  0
   17.3498  -11.2334   19.9978 H   0  0  0  0  0  0
   16.9865  -11.7092   21.6129 H   0  0  0  0  0  0
   15.0307  -12.1908   20.4321 H   0  0  0  0  0  0
   12.0365  -13.9103   19.9184 H   0  0  0  0  0  0
   12.7620  -13.0484   18.5973 H   0  0  0  0  0  0
   12.9897  -10.5669   18.7274 H   0  0  0  0  0  0
   14.4031  -10.7431   19.7103 H   0  0  0  0  0  0
   11.9025   -9.0847   20.3216 H   0  0  0  0  0  0
   13.5413   -8.5515   20.1783 H   0  0  0  0  0  0
   12.7710   -8.6134   22.5594 H   0  0  0  0  0  0
   14.1813   -9.6139   22.3132 H   0  0  0  0  0  0
   13.9835  -12.0661   22.1684 H   0  0  0  0  0  0
   12.4543  -12.8278   22.3470 H   0  0  0  0  0  0
   10.4861   -9.8069   24.9976 H   0  0  0  0  0  0
   10.0585  -11.8779   24.6040 H   0  0  0  0  0  0
   10.9233  -12.7046   23.3943 H   0  0  0  0  0  0
   15.4611  -15.5064   18.8439 H   0  0  0  0  0  0
  1  6  1  0  0  0
  1  2  2  0  0  0
  1 39  1  0  0  0
  2  3  1  0  0  0
  2 40  1  0  0  0
  3  4  2  0  0  0
  3 41  1  0  0  0
  4  5  1  0  0  0
  4  7  1  0  0  0
  5  6  2  0  0  0
  5 42  1  0  0  0
  6 43  1  0  0  0
  7  8  1  0  0  0
  7 44  1  0  0  0
  7 45  1  0  0  0
  8  9  2  0  0  0
  8 10  2  0  0  0
  8 11  1  0  0  0
 11 12  1  0  0  0
 11 46  1  0  0  0
 12 36  1  0  0  0
 12 17  1  0  0  0
 12 13  1  0  0  0
 13 14  1  0  0  0
 13 47  1  0  0  0
 13 48  1  0  0  0
 14 15  1  0  0  0
 14 49  1  0  0  0
 14 50  1  0  0  0
 15 16  1  0  0  0
 15 51  1  0  0  0
 15 52  1  0  0  0
 16 17  1  0  0  0
 16 19  1  0  0  0
 17 18  2  0  0  0
 19 20  1  0  0  0
 19 53  1  0  0  0
 19 54  1  0  0  0
 20 21  2  0  0  0
 20 22  1  0  0  0
 22 23  1  0  0  0
 22 55  1  0  0  0
 23 37  1  0  0  0
 23 24  1  0  0  0
 23 34  1  0  0  0
 24 25  1  0  0  0
 24 56  1  0  0  0
 24 57  1  0  0  0
 25 38  1  0  0  0
 25 30  1  0  0  0
 25 26  1  0  0  0
 26 27  1  0  0  0
 26 58  1  0  0  0
 26 59  1  0  0  0
 27 28  1  0  0  0
 27 60  1  0  0  0
 27 61  1  0  0  0
 28 29  1  0  0  0
 28 62  1  0  0  0
 28 63  1  0  0  0
 29 30  1  0  0  0
 29 31  1  0  0  0
 30 64  1  0  0  0
 30 65  1  0  0  0
 31 32  2  3  0  0
 31 33  1  0  0  0
 32 66  1  0  0  0
 33 67  1  0  0  0
 33 68  1  0  0  0
 34 35  2  0  0  0
 34 69  1  0  0  0
M  END
> <s_m_entry_id>
37866

> <s_m_entry_name>
ligand_docking-pose.213

> <s_m_Source_Path>
/home/csk/Desktop/cluster/DUD-E-result/thrb

> <s_m_Source_File>
ligand_docking-pose.sdf

> <i_m_Source_File_Index>
213

> <i_lp_mmshare_version>
53161

> <i_f3d_flags>
0

> <r_lp_tautomer_probability>
0.99990000499975

> <s_lp_Force_Field>
OPLS_2005

> <r_lp_Energy>
19.9245

> <b_lp_Chiralities_Consistent>
1

> <s_lp_Variant>
232087-1

> <s_i_glide_gridfile>
glide-grid_1ype

> <i_i_glide_lignum>
1645

> <i_i_glide_rotatable_bonds>
12

> <r_i_docking_score>
-7.32894478683094

> <r_i_glide_ligand_efficiency>
-0.209398422480884

> <r_i_glide_ligand_efficiency_sa>
-0.684956124372104

> <r_i_glide_ligand_efficiency_ln>
-1.6088660378752

> <r_i_glide_gscore>
-7.32894478683094

> <r_i_glide_lipo>
-3.13153567643364

> <r_i_glide_hbond>
-0.4356986580268

> <r_i_glide_metal>
0

> <r_i_glide_rewards>
-1.30738797443069

> <r_i_glide_evdw>
-46.1215934753418

> <r_i_glide_ecoul>
-5.29196310043335

> <r_i_glide_erotb>
0.717481492125262

> <r_i_glide_esite>
-0.0719298312329791

> <r_i_glide_emodel>
-67.7325422437545

> <r_i_glide_energy>
-51.4135565757751

> <r_i_glide_einternal>
12.478949546814

> <i_i_glide_confnum>
69

> <i_i_glide_posenum>
290

> <r_i_glide_eff_state_penalty>
0

> <s_user_duplicate_titles>
232087

> <s_m_subgroup_title>
dock_pv

> <s_m_subgroupid>
dock_pv1

> <b_m_subgroup_collapsed>
0

$$$$
77776
                    3D
 Schrodinger Suite 2021-1.
 57 60  0  0  1  0            999 V2000
   11.9524  -16.5907   20.0861 C   0  0  0  0  0  0
   12.1965  -15.3609   19.4809 C   0  0  0  0  0  0
   13.3153  -14.6191   19.8513 C   0  0  0  0  0  0
   14.1803  -15.0987   20.8445 C   0  0  0  0  0  0
   13.9255  -16.3359   21.4435 C   0  0  0  0  0  0
   12.8164  -17.0846   21.0606 C   0  0  0  0  0  0
   15.4329  -14.3302   21.2668 C   0  0  0  0  0  0
   15.4264  -12.8301   21.0225 C   0  0  0  0  0  0
   14.4073  -11.8793   21.4258 C   0  0  0  0  0  0
   13.2189  -11.9434   22.1846 C   0  0  0  0  0  0
   12.5281  -10.7567   22.5157 C   0  0  0  0  0  0
   12.9430   -9.5561   21.9268 C   0  0  0  0  0  0
   14.0692   -9.4531   21.1211 C   0  0  0  0  0  0
   14.8060  -10.6138   20.9233 C   0  0  0  0  0  0
   16.0220  -10.7873   20.3211 N   0  0  0  0  0  0
   16.4451  -12.0831   20.4326 C   0  0  0  0  0  0
   17.8388  -12.4245   20.0222 C   0  0  0  0  0  0
   18.7178  -12.8713   21.0151 C   0  0  0  0  0  0
   20.0749  -13.0665   20.7380 C   0  0  0  0  0  0
   20.5554  -12.7800   19.4571 C   0  0  0  0  0  0
   19.6949  -12.3244   18.4603 C   0  0  0  0  0  0
   18.3273  -12.1854   18.7286 C   0  0  0  0  0  0
   17.4740  -11.7813   17.7317 O   0  0  0  0  0  0
   20.4259  -11.8566   16.7590 Br  0  0  0  0  0  0
   21.0513  -13.4996   21.8303 C   0  0  0  0  0  0
   20.8352  -14.9220   22.4017 C   0  0  0  0  0  0
   19.7293  -15.0847   23.4785 C   0  0  0  0  0  0
   19.9179  -14.2482   24.7543 C   0  0  0  0  0  0
   20.9536  -13.6614   25.0553 O   0  0  0  0  0  0
   18.7967  -14.2533   25.5210 O   0  0  0  0  0  0
   11.4355  -10.7123   23.5210 C   0  0  0  0  0  0
   11.2160   -9.6876   24.2190 N   0  0  0  0  0  0
   10.6988  -11.8530   23.6042 N   0  0  0  0  0  0
   16.6122  -10.0630   19.9422 H   0  0  0  0  0  0
   11.0871  -17.1676   19.7928 H   0  0  0  0  0  0
   11.5234  -14.9892   18.7220 H   0  0  0  0  0  0
   13.5021  -13.6747   19.3627 H   0  0  0  0  0  0
   14.5938  -16.7213   22.1996 H   0  0  0  0  0  0
   12.6237  -18.0441   21.5170 H   0  0  0  0  0  0
   16.2755  -14.8008   20.7588 H   0  0  0  0  0  0
   15.6164  -14.5218   22.3211 H   0  0  0  0  0  0
   12.9221  -12.8905   22.6138 H   0  0  0  0  0  0
   12.3976   -8.6520   22.1486 H   0  0  0  0  0  0
   14.4087   -8.5049   20.7340 H   0  0  0  0  0  0
   18.3492  -13.0100   22.0204 H   0  0  0  0  0  0
   21.6079  -12.8897   19.2342 H   0  0  0  0  0  0
   16.5553  -11.9458   17.9599 H   0  0  0  0  0  0
   21.0553  -12.7591   22.6273 H   0  0  0  0  0  0
   22.0608  -13.4525   21.4243 H   0  0  0  0  0  0
   21.7781  -15.2599   22.8366 H   0  0  0  0  0  0
   20.6490  -15.6135   21.5783 H   0  0  0  0  0  0
   19.7003  -16.1287   23.7911 H   0  0  0  0  0  0
   18.7480  -14.8841   23.0519 H   0  0  0  0  0  0
   18.9403  -13.7280   26.3115 H   0  0  0  0  0  0
   10.3946   -9.8211   24.8025 H   0  0  0  0  0  0
    9.8692  -11.8551   24.1897 H   0  0  0  0  0  0
   10.9377  -12.7092   23.1211 H   0  0  0  0  0  0
  1  6  1  0  0  0
  1  2  2  0  0  0
  1 35  1  0  0  0
  2  3  1  0  0  0
  2 36  1  0  0  0
  3  4  2  0  0  0
  3 37  1  0  0  0
  4  5  1  0  0  0
  4  7  1  0  0  0
  5  6  2  0  0  0
  5 38  1  0  0  0
  6 39  1  0  0  0
  7  8  1  0  0  0
  7 40  1  0  0  0
  7 41  1  0  0  0
  8 16  2  0  0  0
  8  9  1  0  0  0
  9 14  2  0  0  0
  9 10  1  0  0  0
 10 11  2  0  0  0
 10 42  1  0  0  0
 11 12  1  0  0  0
 11 31  1  0  0  0
 12 13  2  0  0  0
 12 43  1  0  0  0
 13 14  1  0  0  0
 13 44  1  0  0  0
 14 15  1  0  0  0
 15 34  1  0  0  0
 15 16  1  0  0  0
 16 17  1  0  0  0
 17 22  1  0  0  0
 17 18  2  0  0  0
 18 19  1  0  0  0
 18 45  1  0  0  0
 19 20  2  0  0  0
 19 25  1  0  0  0
 20 21  1  0  0  0
 20 46  1  0  0  0
 21 22  2  0  0  0
 21 24  1  0  0  0
 22 23  1  0  0  0
 23 47  1  0  0  0
 25 26  1  0  0  0
 25 48  1  0  0  0
 25 49  1  0  0  0
 26 27  1  0  0  0
 26 50  1  0  0  0
 26 51  1  0  0  0
 27 28  1  0  0  0
 27 52  1  0  0  0
 27 53  1  0  0  0
 28 29  2  0  0  0
 28 30  1  0  0  0
 30 54  1  0  0  0
 31 32  2  3  0  0
 31 33  1  0  0  0
 32 55  1  0  0  0
 33 56  1  0  0  0
 33 57  1  0  0  0
M  END
> <s_m_entry_id>
37867

> <s_m_entry_name>
ligand_docking-pose.214

> <s_m_Source_Path>
/home/csk/Desktop/cluster/DUD-E-result/thrb

> <s_m_Source_File>
ligand_docking-pose.sdf

> <i_m_Source_File_Index>
214

> <i_lp_mmshare_version>
53161

> <i_f3d_flags>
0

> <r_lp_tautomer_probability>
0.999999999997365

> <s_lp_Force_Field>
OPLS_2005

> <r_lp_Energy>
12.304146

> <b_lp_Chiralities_Consistent>
1

> <s_lp_Variant>
77776-1

> <s_i_glide_gridfile>
glide-grid_1ype

> <i_i_glide_lignum>
641

> <i_i_glide_rotatable_bonds>
10

> <r_i_docking_score>
-7.32892955125164

> <r_i_glide_ligand_efficiency>
-0.222088774280353

> <r_i_glide_ligand_efficiency_sa>
-0.712357366980671

> <r_i_glide_ligand_efficiency_ln>
-1.62991598503204

> <r_i_glide_gscore>
-7.32892955125164

> <r_i_glide_lipo>
-3.529866459041

> <r_i_glide_hbond>
-0.392988412597259

> <r_i_glide_metal>
0

> <r_i_glide_rewards>
-0.347600767139148

> <r_i_glide_evdw>
-48.8750152587891

> <r_i_glide_ecoul>
-7.19792222976685

> <r_i_glide_erotb>
0.55850273550613

> <r_i_glide_esite>
-0.0935375505758803

> <r_i_glide_emodel>
-75.3909254755997

> <r_i_glide_energy>
-56.0729374885559

> <r_i_glide_einternal>
3.61361312866211

> <i_i_glide_confnum>
54

> <i_i_glide_posenum>
82

> <r_i_glide_eff_state_penalty>
0

> <s_user_duplicate_titles>
77776

> <s_m_subgroup_title>
dock_pv

> <s_m_subgroupid>
dock_pv1

> <b_m_subgroup_collapsed>
0

$$$$
192815
                    3D
 Schrodinger Suite 2021-1.
 59 61  0  0  1  0            999 V2000
   22.2736  -13.4531   25.4278 C   0  0  0  0  0  0
   20.9279  -13.4552   25.7725 C   0  0  0  0  0  0
   20.0464  -14.3125   25.1277 C   0  0  0  0  0  0
   20.5120  -15.1627   24.0998 C   0  0  0  0  0  0
   21.8883  -15.1639   23.7834 C   0  0  0  0  0  0
   22.7540  -14.3024   24.4415 C   0  0  0  0  0  0
   19.5822  -16.1682   23.4298 C   0  0  0  0  0  0
   18.1916  -15.6744   22.9262 C   0  0  2  0  0  0
   18.0468  -14.2070   22.3751 C   0  0  0  0  0  0
   17.2117  -13.4542   22.8843 O   0  0  0  0  0  0
   18.7985  -13.8030   21.3141 N   0  0  0  0  0  0
   19.8247  -14.5754   20.6085 C   0  0  0  0  0  0
   20.6741  -13.5492   19.8717 C   0  0  0  0  0  0
   19.6897  -12.4446   19.5576 C   0  0  0  0  0  0
   18.7227  -12.4294   20.7545 C   0  0  1  0  0  0
   17.3500  -11.8840   20.3073 C   0  0  0  0  0  0
   17.1772  -10.6680   20.3209 O   0  0  0  0  0  0
   16.4255  -12.7584   19.8767 N   0  0  0  0  0  0
   15.1190  -12.3725   19.3369 C   0  0  0  0  0  0
   14.0354  -12.1370   20.3933 C   0  0  0  0  0  0
   13.9775  -10.8803   21.0153 C   0  0  0  0  0  0
   12.9668  -10.5795   21.9269 C   0  0  0  0  0  0
   11.9840  -11.5178   22.2086 C   0  0  0  0  0  0
   12.0160  -12.7561   21.5806 C   0  0  0  0  0  0
   13.0313  -13.0890   20.6779 C   0  0  0  0  0  0
   12.9882  -14.4783   20.0334 C   0  0  0  0  0  0
   14.0688  -15.4576   20.5364 C   0  0  0  0  0  0
   13.8518  -15.8410   21.9209 N   0  0  0  0  0  0
   12.9243   -9.0530   22.7207 Cl  0  0  0  0  0  0
   17.2160  -15.8916   24.0188 N   0  0  0  0  0  0
   17.8706  -16.3215   22.1085 H   0  0  0  0  0  0
   19.1168  -11.7635   21.5216 H   0  0  0  0  0  0
   22.9551  -12.7791   25.9209 H   0  0  0  0  0  0
   20.5663  -12.7919   26.5456 H   0  0  0  0  0  0
   19.0038  -14.3197   25.4120 H   0  0  0  0  0  0
   22.2757  -15.8307   23.0265 H   0  0  0  0  0  0
   23.8051  -14.2956   24.1927 H   0  0  0  0  0  0
   20.1115  -16.6478   22.6088 H   0  0  0  0  0  0
   19.4572  -16.9871   24.1406 H   0  0  0  0  0  0
   20.4906  -15.1431   21.2438 H   0  0  0  0  0  0
   19.3346  -15.2616   19.9211 H   0  0  0  0  0  0
   21.4417  -13.1659   20.5466 H   0  0  0  0  0  0
   21.1752  -13.9522   18.9909 H   0  0  0  0  0  0
   20.1828  -11.4835   19.4066 H   0  0  0  0  0  0
   19.1607  -12.6933   18.6354 H   0  0  0  0  0  0
   16.6161  -13.7454   19.9586 H   0  0  0  0  0  0
   15.2165  -11.4563   18.7486 H   0  0  0  0  0  0
   14.8104  -13.1252   18.6140 H   0  0  0  0  0  0
   14.7242  -10.1301   20.7985 H   0  0  0  0  0  0
   11.1893  -11.2886   22.9059 H   0  0  0  0  0  0
   11.2268  -13.4545   21.8078 H   0  0  0  0  0  0
   12.0033  -14.9259   20.1835 H   0  0  0  0  0  0
   13.0578  -14.3701   18.9517 H   0  0  0  0  0  0
   14.0550  -16.3620   19.9264 H   0  0  0  0  0  0
   15.0642  -15.0274   20.4347 H   0  0  0  0  0  0
   14.6162  -16.4249   22.2272 H   0  0  0  0  0  0
   13.8829  -15.0186   22.5145 H   0  0  0  0  0  0
   16.3727  -15.3261   23.9175 H   0  0  0  0  0  0
   16.9258  -16.8545   24.0935 H   0  0  0  0  0  0
  1  6  1  0  0  0
  1  2  2  0  0  0
  1 33  1  0  0  0
  2  3  1  0  0  0
  2 34  1  0  0  0
  3  4  2  0  0  0
  3 35  1  0  0  0
  4  5  1  0  0  0
  4  7  1  0  0  0
  5  6  2  0  0  0
  5 36  1  0  0  0
  6 37  1  0  0  0
  7  8  1  0  0  0
  7 38  1  0  0  0
  7 39  1  0  0  0
  8 31  1  0  0  0
  8  9  1  0  0  0
  8 30  1  0  0  0
  9 10  2  0  0  0
  9 11  1  0  0  0
 11 15  1  0  0  0
 11 12  1  0  0  0
 12 13  1  0  0  0
 12 40  1  0  0  0
 12 41  1  0  0  0
 13 14  1  0  0  0
 13 42  1  0  0  0
 13 43  1  0  0  0
 14 15  1  0  0  0
 14 44  1  0  0  0
 14 45  1  0  0  0
 15 32  1  0  0  0
 15 16  1  0  0  0
 16 17  2  0  0  0
 16 18  1  0  0  0
 18 19  1  0  0  0
 18 46  1  0  0  0
 19 20  1  0  0  0
 19 47  1  0  0  0
 19 48  1  0  0  0
 20 25  1  0  0  0
 20 21  2  0  0  0
 21 22  1  0  0  0
 21 49  1  0  0  0
 22 23  2  0  0  0
 22 29  1  0  0  0
 23 24  1  0  0  0
 23 50  1  0  0  0
 24 25  2  0  0  0
 24 51  1  0  0  0
 25 26  1  0  0  0
 26 27  1  0  0  0
 26 52  1  0  0  0
 26 53  1  0  0  0
 27 28  1  0  0  0
 27 54  1  0  0  0
 27 55  1  0  0  0
 28 56  1  0  0  0
 28 57  1  0  0  0
 30 58  1  0  0  0
 30 59  1  0  0  0
M  END
> <s_m_entry_id>
37868

> <s_m_entry_name>
ligand_docking-pose.215

> <s_m_Source_Path>
/home/csk/Desktop/cluster/DUD-E-result/thrb

> <s_m_Source_File>
ligand_docking-pose.sdf

> <i_m_Source_File_Index>
215

> <i_lp_mmshare_version>
53161

> <i_f3d_flags>
0

> <r_lp_tautomer_probability>
1

> <s_lp_Force_Field>
OPLS_2005

> <r_lp_Energy>
22.448062

> <b_lp_Chiralities_Consistent>
1

> <s_lp_Variant>
192815-1

> <s_i_glide_gridfile>
glide-grid_1ype

> <i_i_glide_lignum>
1085

> <i_i_glide_rotatable_bonds>
10

> <r_i_docking_score>
-7.32738430997448

> <r_i_glide_ligand_efficiency>
-0.244246143665816

> <r_i_glide_ligand_efficiency_sa>
-0.758929556191876

> <r_i_glide_ligand_efficiency_ln>
-1.6648615534728

> <r_i_glide_gscore>
-7.32738430997448

> <r_i_glide_lipo>
-3.67812181513492

> <r_i_glide_hbond>
-0.479391060190377

> <r_i_glide_metal>
0

> <r_i_glide_rewards>
-1.15130624011613

> <r_i_glide_evdw>
-43.9266967773438

> <r_i_glide_ecoul>
-4.57370853424072

> <r_i_glide_erotb>
0.863825924470252

> <r_i_glide_esite>
0

> <r_i_glide_emodel>
-68.4963053087571

> <r_i_glide_energy>
-48.5004053115845

> <r_i_glide_einternal>
5.29545736312866

> <i_i_glide_confnum>
39

> <i_i_glide_posenum>
372

> <r_i_glide_eff_state_penalty>
0

> <s_user_duplicate_titles>
192815

> <s_m_subgroup_title>
dock_pv

> <s_m_subgroupid>
dock_pv1

> <b_m_subgroup_collapsed>
0

$$$$
22842
                    3D
 Schrodinger Suite 2021-1.
 55 57  0  0  1  0            999 V2000
   20.3950  -12.6262   18.5889 C   0  0  0  0  0  0
   20.0149  -13.2521   19.9269 C   0  0  0  0  0  0
   20.7455  -14.2657   20.4352 C   0  0  0  0  0  0
   20.3381  -14.8546   21.6883 C   0  0  0  0  0  0
   19.2445  -14.3837   22.3230 C   0  0  0  0  0  0
   18.4191  -13.3013   21.7640 C   0  0  0  0  0  0
   17.3761  -12.9362   22.3210 O   0  0  0  0  0  0
   18.8720  -12.7609   20.5644 N   0  0  0  0  0  0
   18.0086  -11.6966   19.9864 C   0  0  0  0  0  0
   16.8086  -12.2918   19.2247 C   0  0  0  0  0  0
   16.7934  -13.4660   18.8553 O   0  0  0  0  0  0
   15.7826  -11.4530   19.0414 N   0  0  0  0  0  0
   14.4510  -11.8321   18.5703 C   0  0  0  0  0  0
   13.5086  -11.9393   19.7511 C   0  0  0  0  0  0
   12.7373  -13.0186   20.1613 C   0  0  0  0  0  0
   12.0165  -12.7975   21.3357 C   0  0  0  0  0  0
   12.1979  -11.5301   21.8872 C   0  0  0  0  0  0
   13.2655  -10.6092   20.8552 S   0  0  0  0  0  0
   11.6162  -10.9674   23.1209 C   0  0  0  0  0  0
   11.8787   -9.7792   23.4475 N   0  0  0  0  0  0
   10.8159  -11.8529   23.7970 N   0  0  0  0  0  0
   18.7906  -14.9270   23.5420 N   0  0  0  0  0  0
   19.5113  -14.4487   25.0772 S   0  0  0  0  0  0
   20.0134  -13.0752   24.9571 O   0  0  0  0  0  0
   18.5181  -14.7760   26.1035 O   0  0  0  0  0  0
   20.9448  -15.6827   25.2687 C   0  0  0  0  0  0
   22.3667  -15.2548   24.9026 C   0  0  0  0  0  0
   22.6522  -14.1821   24.0498 C   0  0  0  0  0  0
   23.9730  -13.8523   23.7619 C   0  0  0  0  0  0
   25.0095  -14.6103   24.2937 C   0  0  0  0  0  0
   24.7400  -15.6945   25.1209 C   0  0  0  0  0  0
   23.4202  -16.0101   25.4295 C   0  0  0  0  0  0
   21.2161  -13.1641   18.1153 H   0  0  0  0  0  0
   19.5565  -12.6542   17.8930 H   0  0  0  0  0  0
   20.7133  -11.5925   18.7239 H   0  0  0  0  0  0
   21.6142  -14.6492   19.9224 H   0  0  0  0  0  0
   20.9215  -15.6577   22.1169 H   0  0  0  0  0  0
   18.5842  -11.0530   19.3309 H   0  0  0  0  0  0
   17.6544  -11.0263   20.7734 H   0  0  0  0  0  0
   15.8776  -10.4968   19.3520 H   0  0  0  0  0  0
   14.4712  -12.7514   17.9798 H   0  0  0  0  0  0
   14.0949  -11.0558   17.8925 H   0  0  0  0  0  0
   12.7112  -13.9582   19.6290 H   0  0  0  0  0  0
   11.3823  -13.5527   21.7714 H   0  0  0  0  0  0
   12.4962   -9.3397   22.7827 H   0  0  0  0  0  0
   10.2145  -11.5145   24.5396 H   0  0  0  0  0  0
   10.7398  -12.8261   23.5227 H   0  0  0  0  0  0
   17.7675  -14.9075   23.6092 H   0  0  0  0  0  0
   20.9328  -15.9500   26.3208 H   0  0  0  0  0  0
   20.6675  -16.5812   24.7193 H   0  0  0  0  0  0
   21.8741  -13.5881   23.6003 H   0  0  0  0  0  0
   24.1962  -13.0154   23.1212 H   0  0  0  0  0  0
   26.0313  -14.3501   24.0638 H   0  0  0  0  0  0
   25.5526  -16.2735   25.5357 H   0  0  0  0  0  0
   23.2191  -16.8468   26.0830 H   0  0  0  0  0  0
  1  2  1  0  0  0
  1 33  1  0  0  0
  1 34  1  0  0  0
  1 35  1  0  0  0
  2  8  1  0  0  0
  2  3  2  0  0  0
  3  4  1  0  0  0
  3 36  1  0  0  0
  4  5  2  0  0  0
  4 37  1  0  0  0
  5  6  1  0  0  0
  5 22  1  0  0  0
  6  7  2  0  0  0
  6  8  1  0  0  0
  8  9  1  0  0  0
  9 10  1  0  0  0
  9 38  1  0  0  0
  9 39  1  0  0  0
 10 11  2  0  0  0
 10 12  1  0  0  0
 12 13  1  0  0  0
 12 40  1  0  0  0
 13 14  1  0  0  0
 13 41  1  0  0  0
 13 42  1  0  0  0
 14 18  1  0  0  0
 14 15  2  0  0  0
 15 16  1  0  0  0
 15 43  1  0  0  0
 16 17  2  0  0  0
 16 44  1  0  0  0
 17 18  1  0  0  0
 17 19  1  0  0  0
 19 20  2  3  0  0
 19 21  1  0  0  0
 20 45  1  0  0  0
 21 46  1  0  0  0
 21 47  1  0  0  0
 22 23  1  0  0  0
 22 48  1  0  0  0
 23 24  2  0  0  0
 23 25  2  0  0  0
 23 26  1  0  0  0
 26 27  1  0  0  0
 26 49  1  0  0  0
 26 50  1  0  0  0
 27 32  1  0  0  0
 27 28  2  0  0  0
 28 29  1  0  0  0
 28 51  1  0  0  0
 29 30  2  0  0  0
 29 52  1  0  0  0
 30 31  1  0  0  0
 30 53  1  0  0  0
 31 32  2  0  0  0
 31 54  1  0  0  0
 32 55  1  0  0  0
M  END
> <s_m_entry_id>
37869

> <s_m_entry_name>
ligand_docking-pose.216

> <s_m_Source_Path>
/home/csk/Desktop/cluster/DUD-E-result/thrb

> <s_m_Source_File>
ligand_docking-pose.sdf

> <i_m_Source_File_Index>
216

> <i_lp_mmshare_version>
53161

> <i_f3d_flags>
0

> <r_lp_tautomer_probability>
1

> <s_lp_Force_Field>
OPLS_2005

> <r_lp_Energy>
17.050158

> <b_lp_Chiralities_Consistent>
1

> <s_lp_Variant>
22842-2

> <s_i_glide_gridfile>
glide-grid_1ype

> <i_i_glide_lignum>
2771

> <i_i_glide_rotatable_bonds>
10

> <r_i_docking_score>
-7.3268096366875

> <r_i_glide_ligand_efficiency>
-0.228962801146484

> <r_i_glide_ligand_efficiency_sa>
-0.726911581963269

> <r_i_glide_ligand_efficiency_ln>
-1.64067239894192

> <r_i_glide_gscore>
-7.3268096366875

> <r_i_glide_lipo>
-2.73281489717308

> <r_i_glide_hbond>
-0.473923624848187

> <r_i_glide_metal>
0

> <r_i_glide_rewards>
-0.891157053081207

> <r_i_glide_evdw>
-54.0851402282715

> <r_i_glide_ecoul>
-7.60416507720947

> <r_i_glide_erotb>
0.721580449003112

> <r_i_glide_esite>
-0.10561273759314

> <r_i_glide_emodel>
-80.4501278027053

> <r_i_glide_energy>
-61.689305305481

> <r_i_glide_einternal>
12.5953254699707

> <i_i_glide_confnum>
8

> <i_i_glide_posenum>
353

> <r_i_glide_eff_state_penalty>
0

> <s_user_duplicate_titles>
22842

> <s_m_subgroup_title>
dock_pv

> <s_m_subgroupid>
dock_pv1

> <b_m_subgroup_collapsed>
0

$$$$
198675
                    3D
 Schrodinger Suite 2021-1.
 70 73  0  0  1  0            999 V2000
   19.8724  -12.4534   19.0908 C   0  0  0  0  0  0
   20.5190  -13.5935   19.5500 C   0  0  0  0  0  0
   20.2246  -14.1007   20.8109 C   0  0  0  0  0  0
   19.2872  -13.4517   21.6229 C   0  0  0  0  0  0
   18.6589  -12.2914   21.1616 C   0  0  0  0  0  0
   18.9332  -11.8119   19.8899 C   0  0  0  0  0  0
   18.8391  -14.0668   22.9545 C   0  0  0  0  0  0
   20.0178  -14.2896   23.9139 C   0  0  0  0  0  0
   20.8031  -15.4475   23.8507 C   0  0  0  0  0  0
   21.8913  -15.6050   24.7057 C   0  0  0  0  0  0
   22.1944  -14.6080   25.6288 C   0  0  0  0  0  0
   21.4125  -13.4591   25.7130 C   0  0  0  0  0  0
   20.3303  -13.2982   24.8526 C   0  0  0  0  0  0
   17.8681  -15.2813   22.7373 C   0  0  2  0  0  0
   16.6669  -14.9354   21.8055 C   0  0  0  0  0  0
   16.1303  -13.8292   21.9215 O   0  0  0  0  0  0
   16.2353  -15.8330   20.8819 N   0  0  0  0  0  0
   16.9073  -17.0941   20.5534 C   0  0  0  0  0  0
   16.2631  -17.5742   19.2588 C   0  0  0  0  0  0
   14.8634  -16.9943   19.3312 C   0  0  0  0  0  0
   15.0444  -15.6318   20.0251 C   0  0  1  0  0  0
   13.7566  -15.1938   20.7565 C   0  0  0  0  0  0
   13.2204  -15.9612   21.5560 O   0  0  0  0  0  0
   13.2984  -13.9684   20.4467 N   0  0  0  0  0  0
   12.0367  -13.4010   20.9244 C   0  0  0  0  0  0
   12.1485  -12.1075   21.7301 C   0  0  0  0  0  0
   11.2172  -11.8511   22.7363 C   0  0  0  0  0  0
   11.2797  -10.6768   23.4781 C   0  0  0  0  0  0
   12.2939   -9.7471   23.2041 C   0  0  0  0  0  0
   13.2198   -9.9896   22.2221 N   0  0  0  0  0  0
   13.1453  -11.1497   21.5165 C   0  0  0  0  0  0
   12.4150   -8.4862   23.9884 C   0  0  0  0  0  0
   11.4960   -8.0585   24.7211 N   0  0  0  0  0  0
   13.6138   -7.8522   23.9123 N   0  0  0  0  0  0
   17.2169  -15.7184   24.0032 N   0  0  2  0  0  0
   17.7252  -17.1792   24.8315 S   0  0  0  0  0  0
   16.5583  -17.7326   25.5211 O   0  0  0  0  0  0
   18.5222  -17.9912   23.9089 O   0  0  0  0  0  0
   18.7960  -16.5557   26.0497 N   0  0  0  0  0  0
   18.4413  -16.1064   22.3238 H   0  0  0  0  0  0
   15.3171  -14.8858   19.2755 H   0  0  0  0  0  0
   20.0865  -12.0813   18.0995 H   0  0  0  0  0  0
   21.2155  -14.1113   18.9101 H   0  0  0  0  0  0
   20.7071  -15.0110   21.1329 H   0  0  0  0  0  0
   17.9136  -11.7898   21.7630 H   0  0  0  0  0  0
   18.3965  -10.9543   19.5266 H   0  0  0  0  0  0
   18.2277  -13.3147   23.4523 H   0  0  0  0  0  0
   20.5843  -16.2265   23.1355 H   0  0  0  0  0  0
   22.4989  -16.4947   24.6501 H   0  0  0  0  0  0
   23.0403  -14.7275   26.2925 H   0  0  0  0  0  0
   21.6505  -12.6878   26.4307 H   0  0  0  0  0  0
   19.7447  -12.3912   24.9125 H   0  0  0  0  0  0
   17.9808  -16.9812   20.3927 H   0  0  0  0  0  0
   16.7384  -17.8065   21.3631 H   0  0  0  0  0  0
   16.7907  -17.1416   18.4080 H   0  0  0  0  0  0
   16.2810  -18.6581   19.1425 H   0  0  0  0  0  0
   14.3994  -16.9061   18.3478 H   0  0  0  0  0  0
   14.2353  -17.6606   19.9270 H   0  0  0  0  0  0
   13.8301  -13.4117   19.7954 H   0  0  0  0  0  0
   11.4083  -13.2046   20.0549 H   0  0  0  0  0  0
   11.4814  -14.1321   21.5164 H   0  0  0  0  0  0
   10.4168  -12.5483   22.9353 H   0  0  0  0  0  0
   10.5361  -10.5102   24.2471 H   0  0  0  0  0  0
   13.9053  -11.2927   20.7626 H   0  0  0  0  0  0
   10.6640   -8.6353   24.7138 H   0  0  0  0  0  0
   13.8043   -7.1470   24.6118 H   0  0  0  0  0  0
   14.3758   -8.2942   23.4224 H   0  0  0  0  0  0
   16.2053  -15.5317   24.0372 H   0  0  0  0  0  0
   18.3268  -15.9998   26.7636 H   0  0  0  0  0  0
   19.6391  -16.1141   25.6697 H   0  0  0  0  0  0
  1  6  1  0  0  0
  1  2  2  0  0  0
  1 42  1  0  0  0
  2  3  1  0  0  0
  2 43  1  0  0  0
  3  4  2  0  0  0
  3 44  1  0  0  0
  4  5  1  0  0  0
  4  7  1  0  0  0
  5  6  2  0  0  0
  5 45  1  0  0  0
  6 46  1  0  0  0
  7  8  1  0  0  0
  7 14  1  0  0  0
  7 47  1  0  0  0
  8 13  1  0  0  0
  8  9  2  0  0  0
  9 10  1  0  0  0
  9 48  1  0  0  0
 10 11  2  0  0  0
 10 49  1  0  0  0
 11 12  1  0  0  0
 11 50  1  0  0  0
 12 13  2  0  0  0
 12 51  1  0  0  0
 13 52  1  0  0  0
 14 40  1  0  0  0
 14 15  1  0  0  0
 14 35  1  0  0  0
 15 16  2  0  0  0
 15 17  1  0  0  0
 17 21  1  0  0  0
 17 18  1  0  0  0
 18 19  1  0  0  0
 18 53  1  0  0  0
 18 54  1  0  0  0
 19 20  1  0  0  0
 19 55  1  0  0  0
 19 56  1  0  0  0
 20 21  1  0  0  0
 20 57  1  0  0  0
 20 58  1  0  0  0
 21 41  1  0  0  0
 21 22  1  0  0  0
 22 23  2  0  0  0
 22 24  1  0  0  0
 24 25  1  0  0  0
 24 59  1  0  0  0
 25 26  1  0  0  0
 25 60  1  0  0  0
 25 61  1  0  0  0
 26 31  1  0  0  0
 26 27  2  0  0  0
 27 28  1  0  0  0
 27 62  1  0  0  0
 28 29  2  0  0  0
 28 63  1  0  0  0
 29 30  1  0  0  0
 29 32  1  0  0  0
 30 31  2  0  0  0
 31 64  1  0  0  0
 32 33  2  3  0  0
 32 34  1  0  0  0
 33 65  1  0  0  0
 34 66  1  0  0  0
 34 67  1  0  0  0
 35 36  1  0  0  0
 35 68  1  0  0  0
 36 37  2  0  0  0
 36 38  2  0  0  0
 36 39  1  0  0  0
 39 69  1  0  0  0
 39 70  1  0  0  0
M  END
> <s_m_entry_id>
37871

> <s_m_entry_name>
ligand_docking-pose.218

> <s_m_Source_Path>
/home/csk/Desktop/cluster/DUD-E-result/thrb

> <s_m_Source_File>
ligand_docking-pose.sdf

> <i_m_Source_File_Index>
218

> <i_lp_mmshare_version>
53161

> <i_f3d_flags>
0

> <r_lp_tautomer_probability>
1

> <s_lp_Force_Field>
OPLS_2005

> <r_lp_Energy>
28.726114

> <b_lp_Chiralities_Consistent>
1

> <s_lp_Variant>
198675-2

> <s_i_glide_gridfile>
glide-grid_1ype

> <i_i_glide_lignum>
726

> <i_i_glide_rotatable_bonds>
12

> <r_i_docking_score>
-7.3192606049488

> <r_i_glide_ligand_efficiency>
-0.187673348844841

> <r_i_glide_ligand_efficiency_sa>
-0.636440007374202

> <r_i_glide_ligand_efficiency_ln>
-1.56945724326881

> <r_i_glide_gscore>
-7.3192606049488

> <r_i_glide_lipo>
-3.22831381589722

> <r_i_glide_hbond>
-0.608

> <r_i_glide_metal>
0

> <r_i_glide_rewards>
-0.690091078691005

> <r_i_glide_evdw>
-45.9176406860352

> <r_i_glide_ecoul>
-7.59062576293945

> <r_i_glide_erotb>
0.686130799723504

> <r_i_glide_esite>
-0.0445106113413982

> <r_i_glide_emodel>
-63.9863581923286

> <r_i_glide_energy>
-53.5082664489746

> <r_i_glide_einternal>
13.9709806442261

> <i_i_glide_confnum>
4

> <i_i_glide_posenum>
32

> <r_i_glide_eff_state_penalty>
0

> <s_user_duplicate_titles>
198675

> <s_m_subgroup_title>
dock_pv

> <s_m_subgroupid>
dock_pv1

> <b_m_subgroup_collapsed>
0

$$$$
550813
                    3D
 Schrodinger Suite 2021-1.
 69 70  0  0  1  0            999 V2000
   11.0165  -11.8528   23.1373 C   0  0  0  0  0  0
   12.2193  -11.9339   22.3819 O   0  0  0  0  0  0
   12.4771  -11.0409   21.4016 C   0  0  0  0  0  0
   11.7506  -10.0827   21.1224 O   0  0  0  0  0  0
   13.8989  -11.2892   20.6533 C   0  0  1  0  0  0
   14.5463  -12.7128   20.9460 C   0  0  1  0  0  0
   14.1598  -13.8466   19.9476 C   0  0  0  0  0  0
   12.6575  -14.1813   19.8361 C   0  0  0  0  0  0
   12.4036  -15.3427   18.8556 C   0  0  0  0  0  0
   10.9122  -15.5812   18.5775 C   0  0  0  0  0  0
   10.7383  -16.5605   17.5210 N   0  0  0  0  0  0
   15.9988  -12.7164   21.2063 N   0  0  0  0  0  0
   16.9831  -12.3683   20.3619 C   0  0  0  0  0  0
   16.7822  -11.9921   19.2063 O   0  0  0  0  0  0
   18.4238  -12.4458   20.9303 C   0  0  2  0  0  0
   19.4248  -11.5079   20.2116 C   0  0  0  0  0  0
   20.7269  -12.2923   20.1362 C   0  0  0  0  0  0
   20.2197  -13.7058   19.9235 C   0  0  0  0  0  0
   19.0512  -13.7818   20.7993 N   0  0  0  0  0  0
   18.7453  -14.9343   21.4482 C   0  0  0  0  0  0
   19.2206  -16.0262   21.1212 O   0  0  0  0  0  0
   17.8219  -14.8867   22.6979 C   0  0  2  0  0  0
   18.4635  -15.5552   23.9420 C   0  0  0  0  0  0
   19.6962  -14.8637   24.5159 C   0  0  0  0  0  0
   19.5548  -13.8419   25.4786 C   0  0  0  0  0  0
   20.6696  -13.1573   25.9447 C   0  0  0  0  0  0
   21.9308  -13.4589   25.4480 C   0  0  0  0  0  0
   22.0842  -14.4320   24.4687 C   0  0  0  0  0  0
   20.9800  -15.1260   23.9899 C   0  0  0  0  0  0
   16.5564  -15.5458   22.3225 N   0  0  0  0  0  0
   13.7077  -11.1256   19.2995 O   0  0  0  0  0  0
   14.8247  -10.3400   21.1219 O   0  0  0  0  0  0
   14.5330   -8.9448   21.1210 C   0  0  0  0  0  0
   18.4173  -12.1547   21.9811 H   0  0  0  0  0  0
   17.6116  -13.8622   22.9939 H   0  0  0  0  0  0
   11.1126  -12.4428   24.0472 H   0  0  0  0  0  0
   10.7864  -10.8285   23.4354 H   0  0  0  0  0  0
   10.1766  -12.2526   22.5672 H   0  0  0  0  0  0
   14.1922  -13.0548   21.9170 H   0  0  0  0  0  0
   14.5503  -13.6118   18.9567 H   0  0  0  0  0  0
   14.6805  -14.7585   20.2453 H   0  0  0  0  0  0
   12.2550  -14.4331   20.8191 H   0  0  0  0  0  0
   12.1071  -13.3023   19.4973 H   0  0  0  0  0  0
   12.9224  -15.1301   17.9209 H   0  0  0  0  0  0
   12.8536  -16.2557   19.2482 H   0  0  0  0  0  0
   10.4154  -15.9382   19.4799 H   0  0  0  0  0  0
   10.4191  -14.6559   18.2783 H   0  0  0  0  0  0
   11.1482  -16.2523   16.6373 H   0  0  0  0  0  0
   11.1920  -17.4308   17.7576 H   0  0  0  0  0  0
   16.2732  -13.0956   22.0993 H   0  0  0  0  0  0
   19.5400  -10.5497   20.7199 H   0  0  0  0  0  0
   19.1084  -11.2946   19.1919 H   0  0  0  0  0  0
   21.2575  -12.2532   21.0907 H   0  0  0  0  0  0
   21.4053  -11.9500   19.3539 H   0  0  0  0  0  0
   20.9961  -14.4387   20.1523 H   0  0  0  0  0  0
   19.9049  -13.8517   18.8908 H   0  0  0  0  0  0
   18.7268  -16.5904   23.7187 H   0  0  0  0  0  0
   17.7197  -15.6155   24.7380 H   0  0  0  0  0  0
   18.5790  -13.5905   25.8635 H   0  0  0  0  0  0
   20.5545  -12.3838   26.6915 H   0  0  0  0  0  0
   22.7952  -12.9253   25.8147 H   0  0  0  0  0  0
   23.0665  -14.6478   24.0758 H   0  0  0  0  0  0
   21.1090  -15.8705   23.2172 H   0  0  0  0  0  0
   16.6978  -16.5446   22.2560 H   0  0  0  0  0  0
   15.8618  -15.4187   23.0535 H   0  0  0  0  0  0
   14.5024  -11.4615   18.8730 H   0  0  0  0  0  0
   15.4544   -8.3787   20.9941 H   0  0  0  0  0  0
   13.8524   -8.6538   20.3210 H   0  0  0  0  0  0
   14.0894   -8.6535   22.0736 H   0  0  0  0  0  0
  1  2  1  0  0  0
  1 36  1  0  0  0
  1 37  1  0  0  0
  1 38  1  0  0  0
  2  3  1  0  0  0
  3  4  2  0  0  0
  3  5  1  0  0  0
  5  6  1  0  0  0
  5 31  1  0  0  0
  5 32  1  0  0  0
  6  7  1  0  0  0
  6 12  1  0  0  0
  6 39  1  0  0  0
  7  8  1  0  0  0
  7 40  1  0  0  0
  7 41  1  0  0  0
  8  9  1  0  0  0
  8 42  1  0  0  0
  8 43  1  0  0  0
  9 10  1  0  0  0
  9 44  1  0  0  0
  9 45  1  0  0  0
 10 11  1  0  0  0
 10 46  1  0  0  0
 10 47  1  0  0  0
 11 48  1  0  0  0
 11 49  1  0  0  0
 12 13  1  0  0  0
 12 50  1  0  0  0
 13 14  2  0  0  0
 13 15  1  0  0  0
 15 34  1  0  0  0
 15 19  1  0  0  0
 15 16  1  0  0  0
 16 17  1  0  0  0
 16 51  1  0  0  0
 16 52  1  0  0  0
 17 18  1  0  0  0
 17 53  1  0  0  0
 17 54  1  0  0  0
 18 19  1  0  0  0
 18 55  1  0  0  0
 18 56  1  0  0  0
 19 20  1  0  0  0
 20 21  2  0  0  0
 20 22  1  0  0  0
 22 35  1  0  0  0
 22 23  1  0  0  0
 22 30  1  0  0  0
 23 24  1  0  0  0
 23 57  1  0  0  0
 23 58  1  0  0  0
 24 29  1  0  0  0
 24 25  2  0  0  0
 25 26  1  0  0  0
 25 59  1  0  0  0
 26 27  2  0  0  0
 26 60  1  0  0  0
 27 28  1  0  0  0
 27 61  1  0  0  0
 28 29  2  0  0  0
 28 62  1  0  0  0
 29 63  1  0  0  0
 30 64  1  0  0  0
 30 65  1  0  0  0
 31 66  1  0  0  0
 32 33  1  0  0  0
 33 67  1  0  0  0
 33 68  1  0  0  0
 33 69  1  0  0  0
M  END
> <s_m_entry_id>
37873

> <s_m_entry_name>
ligand_docking-pose.220

> <s_m_Source_Path>
/home/csk/Desktop/cluster/DUD-E-result/thrb

> <s_m_Source_File>
ligand_docking-pose.sdf

> <i_m_Source_File_Index>
220

> <i_lp_mmshare_version>
53161

> <i_f3d_flags>
0

> <r_lp_tautomer_probability>
1

> <s_lp_Force_Field>
OPLS_2005

> <r_lp_Energy>
20.368018

> <b_lp_Chiralities_Consistent>
1

> <s_lp_Variant>
550813-3

> <s_i_glide_gridfile>
glide-grid_1ype

> <i_i_glide_lignum>
4797

> <i_i_glide_rotatable_bonds>
16

> <r_i_docking_score>
-7.30843184110659

> <r_i_glide_ligand_efficiency>
-0.221467631548684

> <r_i_glide_ligand_efficiency_sa>
-0.71036503034734

> <r_i_glide_ligand_efficiency_ln>
-1.62535740042724

> <r_i_glide_gscore>
-7.30843184110659

> <r_i_glide_lipo>
-2.91584622886067

> <r_i_glide_hbond>
-0.439809446449805

> <r_i_glide_metal>
0

> <r_i_glide_rewards>
-1.50166910603324

> <r_i_glide_evdw>
-49.4928092956543

> <r_i_glide_ecoul>
-6.69363594055176

> <r_i_glide_erotb>
1.0275787961026

> <r_i_glide_esite>
0

> <r_i_glide_emodel>
-70.8674977425362

> <r_i_glide_energy>
-56.1864452362061

> <r_i_glide_einternal>
19.9998416900635

> <i_i_glide_confnum>
45

> <i_i_glide_posenum>
230

> <r_i_glide_eff_state_penalty>
0

> <s_user_duplicate_titles>
550813

> <s_m_subgroup_title>
dock_pv

> <s_m_subgroupid>
dock_pv1

> <b_m_subgroup_collapsed>
0

$$$$
37956
                    3D
 Schrodinger Suite 2021-1.
 49 51  0  0  1  0            999 V2000
   12.2560  -14.2964   20.8146 C   0  0  0  0  0  0
   12.8366  -14.3535   19.5497 C   0  0  0  0  0  0
   13.1809  -13.1605   18.9180 C   0  0  0  0  0  0
   12.9350  -11.9777   19.5209 N   0  3  0  0  0  0
   13.2432  -10.9325   18.8818 O   0  5  0  0  0  0
   12.4156  -11.8817   20.7733 C   0  0  0  0  0  0
   12.0421  -13.0621   21.4307 C   0  0  0  0  0  0
   12.4199  -10.5239   21.4942 C   0  0  0  0  0  0
   13.8352  -10.1558   22.0013 C   0  0  0  0  0  0
   14.9701  -10.4772   21.1209 N   0  0  0  0  0  0
   15.6382  -11.7028   21.0579 C   0  0  0  0  0  0
   16.6313  -11.8159   19.9486 C   0  0  0  0  0  0
   16.8160  -10.9302   19.1109 O   0  0  0  0  0  0
   17.3138  -13.0164   19.9335 N   0  0  0  0  0  0
   16.8837  -14.0658   20.7462 C   0  0  0  0  0  0
   15.9392  -13.8672   21.6980 C   0  0  0  0  0  0
   15.3567  -12.6462   21.8998 N   0  0  0  0  0  0
   17.5492  -15.6794   20.4532 Cl  0  0  0  0  0  0
   18.4924  -13.0534   19.0339 C   0  0  0  0  0  0
   19.8205  -13.2687   19.7805 C   0  0  0  0  0  0
   20.8179  -13.4527   19.0999 O   0  0  0  0  0  0
   19.8472  -13.2708   21.1227 N   0  0  0  0  0  0
   20.9738  -13.6643   21.9626 C   0  0  0  0  0  0
   20.4613  -14.2356   23.2770 C   0  0  0  0  0  0
   19.7325  -15.4297   23.2965 C   0  0  0  0  0  0
   19.1871  -15.9015   24.4913 C   0  0  0  0  0  0
   19.3771  -15.1916   25.6774 C   0  0  0  0  0  0
   20.1401  -14.0198   25.6715 C   0  0  0  0  0  0
   20.6841  -13.5555   24.4758 C   0  0  0  0  0  0
   20.4158  -13.1199   27.1193 Cl  0  0  0  0  0  0
   18.8169  -15.6489   26.8205 F   0  0  0  0  0  0
   11.6077  -10.5825   22.5494 F   0  0  0  0  0  0
   11.9405   -9.5513   20.7210 F   0  0  0  0  0  0
   11.9752  -15.2043   21.3292 H   0  0  0  0  0  0
   13.0090  -15.3044   19.0658 H   0  0  0  0  0  0
   13.6227  -13.1072   17.9335 H   0  0  0  0  0  0
   11.6235  -13.0436   22.4276 H   0  0  0  0  0  0
   13.9627  -10.6814   22.9400 H   0  0  0  0  0  0
   13.8627   -9.0937   22.2504 H   0  0  0  0  0  0
   15.0843   -9.8749   20.3121 H   0  0  0  0  0  0
   15.5989  -14.6839   22.3202 H   0  0  0  0  0  0
   18.6270  -12.1566   18.4294 H   0  0  0  0  0  0
   18.3389  -13.8527   18.3217 H   0  0  0  0  0  0
   19.0242  -12.9571   21.6155 H   0  0  0  0  0  0
   21.6137  -12.7976   22.1383 H   0  0  0  0  0  0
   21.6054  -14.4050   21.4650 H   0  0  0  0  0  0
   19.5677  -15.9789   22.3815 H   0  0  0  0  0  0
   18.6061  -16.8120   24.4974 H   0  0  0  0  0  0
   21.2662  -12.6527   24.4837 H   0  0  0  0  0  0
  1  7  1  0  0  0
  1  2  2  0  0  0
  1 34  1  0  0  0
  2  3  1  0  0  0
  2 35  1  0  0  0
  3  4  2  0  0  0
  3 36  1  0  0  0
  4  5  1  0  0  0
  4  6  1  0  0  0
  6  7  2  0  0  0
  6  8  1  0  0  0
  7 37  1  0  0  0
  8  9  1  0  0  0
  8 32  1  0  0  0
  8 33  1  0  0  0
  9 10  1  0  0  0
  9 38  1  0  0  0
  9 39  1  0  0  0
 10 11  1  0  0  0
 10 40  1  0  0  0
 11 17  2  0  0  0
 11 12  1  0  0  0
 12 13  2  0  0  0
 12 14  1  0  0  0
 14 15  1  0  0  0
 14 19  1  0  0  0
 15 16  2  0  0  0
 15 18  1  0  0  0
 16 17  1  0  0  0
 16 41  1  0  0  0
 19 20  1  0  0  0
 19 42  1  0  0  0
 19 43  1  0  0  0
 20 21  2  0  0  0
 20 22  1  0  0  0
 22 23  1  0  0  0
 22 44  1  0  0  0
 23 24  1  0  0  0
 23 45  1  0  0  0
 23 46  1  0  0  0
 24 29  1  0  0  0
 24 25  2  0  0  0
 25 26  1  0  0  0
 25 47  1  0  0  0
 26 27  2  0  0  0
 26 48  1  0  0  0
 27 28  1  0  0  0
 27 31  1  0  0  0
 28 29  2  0  0  0
 28 30  1  0  0  0
 29 49  1  0  0  0
M  CHG  2   4   1   5  -1
M  END
> <s_m_entry_id>
37875

> <s_m_entry_name>
ligand_docking-pose.222

> <s_m_Source_Path>
/home/csk/Desktop/cluster/DUD-E-result/thrb

> <s_m_Source_File>
ligand_docking-pose.sdf

> <i_m_Source_File_Index>
222

> <i_lp_mmshare_version>
53161

> <i_f3d_flags>
0

> <r_lp_tautomer_probability>
1

> <s_lp_Force_Field>
OPLS_2005

> <r_lp_Energy>
27.185361

> <b_lp_Chiralities_Consistent>
1

> <s_lp_Variant>
37956-1

> <s_i_glide_gridfile>
glide-grid_1ype

> <i_i_glide_lignum>
2054

> <i_i_glide_rotatable_bonds>
9

> <r_i_docking_score>
-7.30241787926766

> <r_i_glide_ligand_efficiency>
-0.221285390280838

> <r_i_glide_ligand_efficiency_sa>
-0.709780485225063

> <r_i_glide_ligand_efficiency_ln>
-1.62401992645289

> <r_i_glide_gscore>
-7.30241787926766

> <r_i_glide_lipo>
-3.0109940716551

> <r_i_glide_hbond>
-0.341441286679588

> <r_i_glide_metal>
0

> <r_i_glide_rewards>
-1.30731650658586

> <r_i_glide_evdw>
-34.7346115112305

> <r_i_glide_ecoul>
-9.779128074646

> <r_i_glide_erotb>
0.566931181189556

> <r_i_glide_esite>
-0.00599740877824555

> <r_i_glide_emodel>
-63.5389031081821

> <r_i_glide_energy>
-44.5137395858765

> <r_i_glide_einternal>
8.58204078674316

> <i_i_glide_confnum>
11

> <i_i_glide_posenum>
54

> <r_i_glide_eff_state_penalty>
0

> <s_user_duplicate_titles>
37956

> <s_m_subgroup_title>
dock_pv

> <s_m_subgroupid>
dock_pv1

> <b_m_subgroup_collapsed>
0

$$$$
118449
                    3D
 Schrodinger Suite 2021-1.
 37 39  0  0  1  0            999 V2000
   20.2420  -12.4632   18.6908 C   0  0  0  0  0  0
   19.0953  -12.5681   19.6879 C   0  0  0  0  0  0
   17.8930  -11.8958   19.4583 C   0  0  0  0  0  0
   16.8605  -11.9880   20.3883 C   0  0  0  0  0  0
   16.9654  -12.7276   21.5206 N   0  0  0  0  0  0
   18.1237  -13.3936   21.7714 C   0  0  0  0  0  0
   19.2393  -13.3445   20.8777 C   0  0  0  0  0  0
   20.4168  -14.0626   21.2246 C   0  0  0  0  0  0
   20.4772  -14.7865   22.4131 C   0  0  0  0  0  0
   19.3874  -14.8265   23.2771 C   0  0  0  0  0  0
   18.2141  -14.1468   22.9653 C   0  0  0  0  0  0
   19.4998  -15.8137   24.9006 Br  0  0  0  0  0  0
   15.6960  -11.2368   20.1689 N   0  0  0  0  0  0
   14.5137  -11.1831   20.9200 C   0  0  0  0  0  0
   13.9274   -9.9393   21.1301 C   0  0  0  0  0  0
   12.8371   -9.8230   21.9831 C   0  0  0  0  0  0
   12.3047  -10.9457   22.6395 C   0  0  0  0  0  0
   12.8342  -12.2079   22.3209 C   0  0  0  0  0  0
   13.9389  -12.3241   21.4821 C   0  0  0  0  0  0
   11.2813  -10.7639   23.6968 C   0  0  0  0  0  0
   11.2160   -9.6738   24.3210 N   0  0  0  0  0  0
   10.4758  -11.8530   23.9210 N   0  0  0  0  0  0
   20.5250  -13.4524   18.3285 H   0  0  0  0  0  0
   19.9765  -11.8557   17.8255 H   0  0  0  0  0  0
   21.1167  -12.0139   19.1630 H   0  0  0  0  0  0
   17.7638  -11.2993   18.5687 H   0  0  0  0  0  0
   21.2756  -14.0484   20.5695 H   0  0  0  0  0  0
   21.3808  -15.3226   22.6655 H   0  0  0  0  0  0
   17.3671  -14.1843   23.6363 H   0  0  0  0  0  0
   15.7825  -10.5138   19.4710 H   0  0  0  0  0  0
   14.3648   -9.0432   20.7184 H   0  0  0  0  0  0
   12.4493   -8.8343   22.1864 H   0  0  0  0  0  0
   12.4542  -13.1066   22.7861 H   0  0  0  0  0  0
   14.3673  -13.2994   21.3041 H   0  0  0  0  0  0
   10.4528   -9.6973   24.9881 H   0  0  0  0  0  0
    9.6846  -11.7667   24.5595 H   0  0  0  0  0  0
   10.6464  -12.7642   23.5116 H   0  0  0  0  0  0
  1  2  1  0  0  0
  1 23  1  0  0  0
  1 24  1  0  0  0
  1 25  1  0  0  0
  2  7  1  0  0  0
  2  3  2  0  0  0
  3  4  1  0  0  0
  3 26  1  0  0  0
  4  5  2  0  0  0
  4 13  1  0  0  0
  5  6  1  0  0  0
  6 11  2  0  0  0
  6  7  1  0  0  0
  7  8  2  0  0  0
  8  9  1  0  0  0
  8 27  1  0  0  0
  9 10  2  0  0  0
  9 28  1  0  0  0
 10 11  1  0  0  0
 10 12  1  0  0  0
 11 29  1  0  0  0
 13 14  1  0  0  0
 13 30  1  0  0  0
 14 19  1  0  0  0
 14 15  2  0  0  0
 15 16  1  0  0  0
 15 31  1  0  0  0
 16 17  2  0  0  0
 16 32  1  0  0  0
 17 18  1  0  0  0
 17 20  1  0  0  0
 18 19  2  0  0  0
 18 33  1  0  0  0
 19 34  1  0  0  0
 20 21  2  3  0  0
 20 22  1  0  0  0
 21 35  1  0  0  0
 22 36  1  0  0  0
 22 37  1  0  0  0
M  END
> <s_m_entry_id>
37879

> <s_m_entry_name>
ligand_docking-pose.226

> <s_m_Source_Path>
/home/csk/Desktop/cluster/DUD-E-result/thrb

> <s_m_Source_File>
ligand_docking-pose.sdf

> <i_m_Source_File_Index>
226

> <i_lp_mmshare_version>
53161

> <i_f3d_flags>
0

> <r_lp_tautomer_probability>
1

> <s_lp_Force_Field>
OPLS_2005

> <r_lp_Energy>
12.869951

> <b_lp_Chiralities_Consistent>
1

> <s_lp_Variant>
118449-1

> <s_i_glide_gridfile>
glide-grid_1ype

> <i_i_glide_lignum>
2852

> <i_i_glide_rotatable_bonds>
3

> <r_i_docking_score>
-7.2929057739908

> <r_i_glide_ligand_efficiency>
-0.331495716999582

> <r_i_glide_ligand_efficiency_sa>
-0.928864036019583

> <r_i_glide_ligand_efficiency_ln>
-1.78265218636489

> <r_i_glide_gscore>
-7.2929057739908

> <r_i_glide_lipo>
-2.89273345558885

> <r_i_glide_hbond>
-0.681205349095913

> <r_i_glide_metal>
0

> <r_i_glide_rewards>
-1.06205590909091

> <r_i_glide_evdw>
-34.7700119018555

> <r_i_glide_ecoul>
-7.28970813751221

> <r_i_glide_erotb>
0.303006295391338

> <r_i_glide_esite>
-0.127960539886857

> <r_i_glide_emodel>
-57.4296535622626

> <r_i_glide_energy>
-42.0597200393677

> <r_i_glide_einternal>
5.45712804794312

> <i_i_glide_confnum>
3

> <i_i_glide_posenum>
241

> <r_i_glide_eff_state_penalty>
0

> <s_user_duplicate_titles>
118449

> <s_m_subgroup_title>
dock_pv

> <s_m_subgroupid>
dock_pv1

> <b_m_subgroup_collapsed>
0

$$$$
178396
                    3D
 Schrodinger Suite 2021-1.
 77 81  0  0  1  0            999 V2000
   22.1852  -13.9534   25.6904 C   0  0  0  0  0  0
   22.7739  -13.8525   24.4366 C   0  0  0  0  0  0
   22.0099  -14.0020   23.2830 C   0  0  0  0  0  0
   20.6152  -14.2800   23.3583 C   0  0  0  0  0  0
   20.0187  -14.3702   24.6578 C   0  0  0  0  0  0
   20.8214  -14.1939   25.8123 C   0  0  0  0  0  0
   18.6354  -14.6480   24.7700 C   0  0  0  0  0  0
   17.8649  -14.8428   23.6310 C   0  0  0  0  0  0
   18.4302  -14.7621   22.3672 C   0  0  0  0  0  0
   19.7875  -14.4847   22.2052 C   0  0  0  0  0  0
   20.3670  -14.4127   20.7933 C   0  0  0  0  0  0
   20.7580  -12.9773   20.3598 C   0  0  0  0  0  0
   20.1671  -12.5573   19.0050 C   0  0  0  0  0  0
   20.8919  -12.6476   18.0157 O   0  0  0  0  0  0
   18.8499  -12.2540   18.8993 N   0  0  0  0  0  0
   18.2539  -12.0780   17.5742 C   0  0  0  0  0  0
   16.9345  -12.8527   17.6023 C   0  0  2  0  0  0
   16.0849  -12.6649   16.3481 C   0  0  0  0  0  0
   14.6448  -12.8371   16.8020 C   0  0  0  0  0  0
   14.6299  -12.5663   18.3153 C   0  0  2  0  0  0
   16.0452  -12.3759   18.6760 N   0  0  0  0  0  0
   16.4976  -11.8573   19.8560 C   0  0  0  0  0  0
   15.7322  -11.4373   20.7209 O   0  0  0  0  0  0
   18.0335  -11.8302   20.0567 C   0  0  0  0  0  0
   14.0129  -13.7229   19.1237 C   0  0  0  0  0  0
   14.6039  -14.8030   19.1875 O   0  0  0  0  0  0
   12.8636  -13.4460   19.7786 N   0  0  0  0  0  0
   12.3044  -14.1115   20.9791 C   0  0  2  0  0  0
   13.0097  -13.4898   22.2189 C   0  0  0  0  0  0
   12.6986  -12.0012   22.4734 C   0  0  0  0  0  0
   11.3302  -11.7075   23.1143 C   0  0  0  0  0  0
   11.2655  -10.4136   23.7922 N   0  0  0  0  0  0
   12.0703   -9.2824   23.6499 C   0  0  0  0  0  0
   12.8623   -9.0531   22.6961 N   0  0  0  0  0  0
   11.9117   -8.4000   24.7044 N   0  0  0  0  0  0
   12.4159  -15.6472   20.9291 C   0  0  0  0  0  0
   13.0473  -16.2551   21.7993 O   0  0  0  0  0  0
   11.7527  -16.3758   19.8411 C   0  0  0  0  0  0
   11.2164  -15.8541   18.7607 N   0  0  0  0  0  0
   10.7159  -16.7682   17.9556 C   0  0  0  0  0  0
   10.8167  -18.0857   18.3860 C   0  0  0  0  0  0
   11.6410  -18.1156   19.9133 S   0  0  0  0  0  0
   17.1189  -13.9171   17.7507 H   0  0  0  0  0  0
   14.0696  -11.6665   18.5710 H   0  0  0  0  0  0
   22.7933  -13.8571   26.5776 H   0  0  0  0  0  0
   23.8348  -13.6595   24.3600 H   0  0  0  0  0  0
   22.4900  -13.9170   22.3215 H   0  0  0  0  0  0
   20.3706  -14.2674   26.7908 H   0  0  0  0  0  0
   18.1808  -14.7169   25.7482 H   0  0  0  0  0  0
   16.8155  -15.0662   23.7279 H   0  0  0  0  0  0
   17.7985  -14.9202   21.5037 H   0  0  0  0  0  0
   19.6567  -14.8631   20.0964 H   0  0  0  0  0  0
   21.2267  -15.0807   20.7312 H   0  0  0  0  0  0
   21.8430  -12.9085   20.2795 H   0  0  0  0  0  0
   20.4909  -12.2531   21.1211 H   0  0  0  0  0  0
   18.8978  -12.3307   16.7329 H   0  0  0  0  0  0
   17.9955  -11.0462   17.4129 H   0  0  0  0  0  0
   16.3722  -13.3494   15.5484 H   0  0  0  0  0  0
   16.2143  -11.6572   15.9487 H   0  0  0  0  0  0
   14.3188  -13.8478   16.5400 H   0  0  0  0  0  0
   14.0160  -12.1106   16.3000 H   0  0  0  0  0  0
   18.2835  -10.7986   20.3064 H   0  0  0  0  0  0
   18.2468  -12.4232   20.9442 H   0  0  0  0  0  0
   12.5010  -12.5136   19.6453 H   0  0  0  0  0  0
   11.2344  -13.8725   21.0401 H   0  0  0  0  0  0
   14.0907  -13.5799   22.0858 H   0  0  0  0  0  0
   12.8157  -14.0600   23.1222 H   0  0  0  0  0  0
   12.7925  -11.4352   21.5467 H   0  0  0  0  0  0
   13.4735  -11.6061   23.1196 H   0  0  0  0  0  0
   11.1414  -12.4390   23.8973 H   0  0  0  0  0  0
   10.5236  -11.8143   22.3899 H   0  0  0  0  0  0
   10.6189  -10.4061   24.5713 H   0  0  0  0  0  0
   13.3867   -8.1991   22.8085 H   0  0  0  0  0  0
   12.1424   -7.4390   24.4959 H   0  0  0  0  0  0
   10.9897   -8.4221   25.1178 H   0  0  0  0  0  0
   10.2690  -16.4544   17.0230 H   0  0  0  0  0  0
   10.4691  -18.9879   17.9059 H   0  0  0  0  0  0
  1  6  1  0  0  0
  1  2  2  0  0  0
  1 45  1  0  0  0
  2  3  1  0  0  0
  2 46  1  0  0  0
  3  4  2  0  0  0
  3 47  1  0  0  0
  4 10  1  0  0  0
  4  5  1  0  0  0
  5  6  2  0  0  0
  5  7  1  0  0  0
  6 48  1  0  0  0
  7  8  2  0  0  0
  7 49  1  0  0  0
  8  9  1  0  0  0
  8 50  1  0  0  0
  9 10  2  0  0  0
  9 51  1  0  0  0
 10 11  1  0  0  0
 11 12  1  0  0  0
 11 52  1  0  0  0
 11 53  1  0  0  0
 12 13  1  0  0  0
 12 54  1  0  0  0
 12 55  1  0  0  0
 13 14  2  0  0  0
 13 15  1  0  0  0
 15 24  1  0  0  0
 15 16  1  0  0  0
 16 17  1  0  0  0
 16 56  1  0  0  0
 16 57  1  0  0  0
 17 43  1  0  0  0
 17 21  1  0  0  0
 17 18  1  0  0  0
 18 19  1  0  0  0
 18 58  1  0  0  0
 18 59  1  0  0  0
 19 20  1  0  0  0
 19 60  1  0  0  0
 19 61  1  0  0  0
 20 44  1  0  0  0
 20 21  1  0  0  0
 20 25  1  0  0  0
 21 22  1  0  0  0
 22 23  2  0  0  0
 22 24  1  0  0  0
 24 62  1  0  0  0
 24 63  1  0  0  0
 25 26  2  0  0  0
 25 27  1  0  0  0
 27 28  1  0  0  0
 27 64  1  0  0  0
 28 29  1  0  0  0
 28 36  1  0  0  0
 28 65  1  0  0  0
 29 30  1  0  0  0
 29 66  1  0  0  0
 29 67  1  0  0  0
 30 31  1  0  0  0
 30 68  1  0  0  0
 30 69  1  0  0  0
 31 32  1  0  0  0
 31 70  1  0  0  0
 31 71  1  0  0  0
 32 33  1  0  0  0
 32 72  1  0  0  0
 33 34  2  3  0  0
 33 35  1  0  0  0
 34 73  1  0  0  0
 35 74  1  0  0  0
 35 75  1  0  0  0
 36 37  2  0  0  0
 36 38  1  0  0  0
 38 42  1  0  0  0
 38 39  2  0  0  0
 39 40  1  0  0  0
 40 41  2  0  0  0
 40 76  1  0  0  0
 41 42  1  0  0  0
 41 77  1  0  0  0
M  END
> <s_m_entry_id>
37880

> <s_m_entry_name>
ligand_docking-pose.227

> <s_m_Source_Path>
/home/csk/Desktop/cluster/DUD-E-result/thrb

> <s_m_Source_File>
ligand_docking-pose.sdf

> <i_m_Source_File_Index>
227

> <i_lp_mmshare_version>
53161

> <i_f3d_flags>
0

> <r_lp_tautomer_probability>
0.99990000499975

> <s_lp_Force_Field>
OPLS_2005

> <r_lp_Energy>
38.737084

> <b_lp_Chiralities_Consistent>
1

> <s_lp_Variant>
178396-1

> <s_i_glide_gridfile>
glide-grid_1ype

> <i_i_glide_lignum>
283

> <i_i_glide_rotatable_bonds>
14

> <r_i_docking_score>
-7.2872373292098

> <r_i_glide_ligand_efficiency>
-0.173505650695471

> <r_i_glide_ligand_efficiency_sa>
-0.603110264104411

> <r_i_glide_ligand_efficiency_ln>
-1.53814805935122

> <r_i_glide_gscore>
-7.2872373292098

> <r_i_glide_lipo>
-3.27159666881977

> <r_i_glide_hbond>
-0.134982222525324

> <r_i_glide_metal>
0

> <r_i_glide_rewards>
-0.868534401534795

> <r_i_glide_evdw>
-61.9470634460449

> <r_i_glide_ecoul>
-3.47846984863281

> <r_i_glide_erotb>
0.614765451140742

> <r_i_glide_esite>
-0.00776583787348432

> <r_i_glide_emodel>
-85.5325351167137

> <r_i_glide_energy>
-65.4255332946777

> <r_i_glide_einternal>
14.2789497375488

> <i_i_glide_confnum>
4

> <i_i_glide_posenum>
120

> <r_i_glide_eff_state_penalty>
0

> <s_user_duplicate_titles>
178396

> <s_m_subgroup_title>
dock_pv

> <s_m_subgroupid>
dock_pv1

> <b_m_subgroup_collapsed>
0

$$$$
217259
                    3D
 Schrodinger Suite 2021-1.
 66 69  0  0  1  0            999 V2000
   19.0237  -14.1946   25.4723 C   0  0  0  0  0  0
   20.0973  -13.1274   25.1649 C   0  0  1  0  0  0
   21.0434  -12.8773   26.3524 C   0  0  0  0  0  0
   22.3764  -13.5226   25.9634 C   0  0  0  0  0  0
   22.0721  -14.2730   24.6764 C   0  0  1  0  0  0
   21.0076  -13.4759   24.0712 N   0  0  1  0  0  0
   20.3786  -13.9998   22.8582 C   0  0  0  0  0  0
   21.1683  -13.5806   21.6048 C   0  0  0  0  0  0
   20.3868  -13.7354   20.2915 C   0  0  0  0  0  0
   19.2733  -12.6846   20.0973 C   0  0  0  0  0  0
   18.1269  -13.2567   19.2433 C   0  0  0  0  0  0
   16.9574  -12.3787   19.0373 N   0  0  0  0  0  0
   16.7158  -11.8723   17.7346 C   0  0  0  0  0  0
   17.6659  -11.8517   16.6997 C   0  0  0  0  0  0
   17.2983  -11.4722   15.4071 C   0  0  0  0  0  0
   15.9971  -11.0664   15.1289 C   0  0  0  0  0  0
   15.0524  -11.0533   16.1479 C   0  0  0  0  0  0
   15.4157  -11.4531   17.4312 C   0  0  0  0  0  0
   14.4399  -11.4665   18.3970 O   0  0  0  0  0  0
   14.9148  -11.2786   19.7474 C   0  0  2  0  0  0
   16.1379  -12.1822   20.1133 C   0  0  0  0  0  0
   16.3104  -12.6701   21.2362 O   0  0  0  0  0  0
   13.7591  -11.5694   20.6951 C   0  0  0  0  0  0
   13.0832  -12.7879   20.6029 C   0  0  0  0  0  0
   12.0167  -13.0529   21.4454 C   0  0  0  0  0  0
   11.6153  -12.1016   22.3759 C   0  0  0  0  0  0
   12.2711  -10.8629   22.5084 C   0  0  0  0  0  0
   13.3507  -10.6203   21.6377 C   0  0  0  0  0  0
   11.8522   -9.8505   23.5188 C   0  0  0  0  0  0
   12.4161   -8.7247   23.5929 N   0  0  0  0  0  0
   10.8162  -10.2492   24.3213 N   0  0  0  0  0  0
   23.3397  -14.5542   23.8604 C   0  0  0  0  0  0
   18.4262  -13.8853   26.3253 H   0  0  0  0  0  0
   19.4645  -15.1628   25.7080 H   0  0  0  0  0  0
   18.3318  -14.3339   24.6419 H   0  0  0  0  0  0
   19.6178  -12.1913   24.8823 H   0  0  0  0  0  0
   21.1586  -11.8091   26.5303 H   0  0  0  0  0  0
   20.6519  -13.3021   27.2775 H   0  0  0  0  0  0
   23.1721  -12.7888   25.8269 H   0  0  0  0  0  0
   22.6976  -14.2304   26.7216 H   0  0  0  0  0  0
   21.7126  -15.2685   24.9467 H   0  0  0  0  0  0
   20.3033  -15.0870   22.9178 H   0  0  0  0  0  0
   19.3534  -13.6432   22.7690 H   0  0  0  0  0  0
   21.6136  -12.5969   21.7231 H   0  0  0  0  0  0
   22.0124  -14.2531   21.5176 H   0  0  0  0  0  0
   21.0746  -13.6830   19.4459 H   0  0  0  0  0  0
   19.9723  -14.7450   20.2647 H   0  0  0  0  0  0
   18.8856  -12.3624   21.0624 H   0  0  0  0  0  0
   19.6896  -11.7936   19.6251 H   0  0  0  0  0  0
   18.5470  -13.5792   18.2978 H   0  0  0  0  0  0
   17.7782  -14.1935   19.6819 H   0  0  0  0  0  0
   18.6886  -12.1523   16.8687 H   0  0  0  0  0  0
   18.0144  -11.5157   14.6061 H   0  0  0  0  0  0
   15.7173  -10.7757   14.1260 H   0  0  0  0  0  0
   14.0442  -10.7484   15.9382 H   0  0  0  0  0  0
   15.2435  -10.2558   19.9207 H   0  0  0  0  0  0
   13.3829  -13.5282   19.8758 H   0  0  0  0  0  0
   11.4952  -13.9960   21.3806 H   0  0  0  0  0  0
   10.7694  -12.3596   22.9959 H   0  0  0  0  0  0
   13.8948   -9.6885   21.6891 H   0  0  0  0  0  0
   13.1620   -8.6193   22.9262 H   0  0  0  0  0  0
   10.3452   -9.5840   24.9243 H   0  0  0  0  0  0
   10.2817  -11.0771   24.1034 H   0  0  0  0  0  0
   24.1394  -14.9359   24.4949 H   0  0  0  0  0  0
   23.1350  -15.3226   23.1201 H   0  0  0  0  0  0
   23.7058  -13.6574   23.3594 H   0  0  0  0  0  0
  1  2  1  0  0  0
  1 33  1  0  0  0
  1 34  1  0  0  0
  1 35  1  0  0  0
  2  6  1  0  0  0
  2  3  1  0  0  0
  2 36  1  0  0  0
  3  4  1  0  0  0
  3 37  1  0  0  0
  3 38  1  0  0  0
  4  5  1  0  0  0
  4 39  1  0  0  0
  4 40  1  0  0  0
  5  6  1  0  0  0
  5 32  1  0  0  0
  5 41  1  0  0  0
  6  7  1  0  0  0
  7  8  1  0  0  0
  7 42  1  0  0  0
  7 43  1  0  0  0
  8  9  1  0  0  0
  8 44  1  0  0  0
  8 45  1  0  0  0
  9 10  1  0  0  0
  9 46  1  0  0  0
  9 47  1  0  0  0
 10 11  1  0  0  0
 10 48  1  0  0  0
 10 49  1  0  0  0
 11 12  1  0  0  0
 11 50  1  0  0  0
 11 51  1  0  0  0
 12 21  1  0  0  0
 12 13  1  0  0  0
 13 18  2  0  0  0
 13 14  1  0  0  0
 14 15  2  0  0  0
 14 52  1  0  0  0
 15 16  1  0  0  0
 15 53  1  0  0  0
 16 17  2  0  0  0
 16 54  1  0  0  0
 17 18  1  0  0  0
 17 55  1  0  0  0
 18 19  1  0  0  0
 19 20  1  0  0  0
 20 21  1  0  0  0
 20 23  1  0  0  0
 20 56  1  0  0  0
 21 22  2  0  0  0
 23 28  1  0  0  0
 23 24  2  0  0  0
 24 25  1  0  0  0
 24 57  1  0  0  0
 25 26  2  0  0  0
 25 58  1  0  0  0
 26 27  1  0  0  0
 26 59  1  0  0  0
 27 28  2  0  0  0
 27 29  1  0  0  0
 28 60  1  0  0  0
 29 30  2  3  0  0
 29 31  1  0  0  0
 30 61  1  0  0  0
 31 62  1  0  0  0
 31 63  1  0  0  0
 32 64  1  0  0  0
 32 65  1  0  0  0
 32 66  1  0  0  0
M  END
> <s_m_entry_id>
37881

> <s_m_entry_name>
ligand_docking-pose.228

> <s_m_Source_Path>
/home/csk/Desktop/cluster/DUD-E-result/thrb

> <s_m_Source_File>
ligand_docking-pose.sdf

> <i_m_Source_File_Index>
228

> <i_lp_mmshare_version>
53161

> <i_f3d_flags>
0

> <r_lp_tautomer_probability>
1

> <s_lp_Force_Field>
OPLS_2005

> <r_lp_Energy>
54.078658

> <b_lp_Chiralities_Consistent>
1

> <s_lp_Variant>
217259-10

> <s_i_glide_gridfile>
glide-grid_1ype

> <i_i_glide_lignum>
2823

> <i_i_glide_rotatable_bonds>
8

> <r_i_docking_score>
-7.2860686335972

> <r_i_glide_ligand_efficiency>
-0.227689644799912

> <r_i_glide_ligand_efficiency_sa>
-0.722869562520202

> <r_i_glide_ligand_efficiency_ln>
-1.6315493777922

> <r_i_glide_gscore>
-7.2860686335972

> <r_i_glide_lipo>
-3.83940256137771

> <r_i_glide_hbond>
-0.0836192435734118

> <r_i_glide_metal>
0

> <r_i_glide_rewards>
-1.20107424275007

> <r_i_glide_evdw>
-47.5763702392578

> <r_i_glide_ecoul>
-2.9857063293457

> <r_i_glide_erotb>
0.738232205607625

> <r_i_glide_esite>
-0.0735303301388885

> <r_i_glide_emodel>
-68.150672739703

> <r_i_glide_energy>
-50.5620765686035

> <r_i_glide_einternal>
5.77444791793823

> <i_i_glide_confnum>
92

> <i_i_glide_posenum>
312

> <r_i_glide_eff_state_penalty>
0

> <s_user_duplicate_titles>
217259

> <s_m_subgroup_title>
dock_pv

> <s_m_subgroupid>
dock_pv1

> <b_m_subgroup_collapsed>
0

$$$$
96680
                    3D
 Schrodinger Suite 2021-1.
 43 46  0  0  1  0            999 V2000
   11.7367  -10.5559   22.8607 C   0  0  0  0  0  0
   11.6155  -11.8529   22.3645 C   0  0  0  0  0  0
   12.3748  -12.2473   21.2678 C   0  0  0  0  0  0
   13.2654  -11.3458   20.6682 C   0  0  0  0  0  0
   13.3770  -10.0446   21.1672 C   0  0  0  0  0  0
   12.6176   -9.6490   22.2659 C   0  0  0  0  0  0
   14.0334  -11.7103   19.5834 O   0  0  0  0  0  0
   14.7655  -12.8730   19.6818 C   0  0  0  0  0  0
   14.3428  -14.0017   18.9792 C   0  0  0  0  0  0
   15.0445  -15.2014   19.0915 C   0  0  0  0  0  0
   16.1650  -15.2839   19.9213 C   0  0  0  0  0  0
   16.5979  -14.1601   20.6304 C   0  0  0  0  0  0
   15.9125  -12.9460   20.4850 C   0  0  0  0  0  0
   16.3731  -11.8196   21.1207 O   0  0  0  0  0  0
   17.7671  -14.2614   21.5437 C   0  0  0  0  0  0
   19.1227  -14.3269   21.2747 C   0  0  0  0  0  0
   19.8236  -14.2984   22.5262 C   0  0  0  0  0  0
   21.1770  -14.3034   22.8970 C   0  0  0  0  0  0
   21.5447  -14.2378   24.2541 C   0  0  0  0  0  0
   20.5201  -14.1692   25.2178 C   0  0  0  0  0  0
   19.1633  -14.1924   24.8981 C   0  0  0  0  0  0
   18.8345  -14.2487   23.5459 C   0  0  0  0  0  0
   17.6120  -14.2501   22.9099 N   0  0  0  0  0  0
   22.9823  -14.2283   24.6473 C   0  0  0  0  0  0
   23.8793  -13.8311   23.8532 N   0  0  0  0  0  0
   23.2157  -14.6902   25.9209 N   0  0  0  0  0  0
   16.6970  -14.2438   23.3440 H   0  0  0  0  0  0
   11.1402  -10.2523   23.7099 H   0  0  0  0  0  0
   10.9192  -12.5427   22.8215 H   0  0  0  0  0  0
   12.2689  -13.2517   20.8828 H   0  0  0  0  0  0
   14.0703   -9.3488   20.7194 H   0  0  0  0  0  0
   12.7073   -8.6482   22.6602 H   0  0  0  0  0  0
   13.4614  -13.9484   18.3582 H   0  0  0  0  0  0
   14.7115  -16.0733   18.5447 H   0  0  0  0  0  0
   16.6876  -16.2256   20.0180 H   0  0  0  0  0  0
   17.2275  -11.9705   21.5297 H   0  0  0  0  0  0
   19.5526  -14.3545   20.2830 H   0  0  0  0  0  0
   21.9331  -14.3525   22.1256 H   0  0  0  0  0  0
   20.7677  -14.0825   26.2666 H   0  0  0  0  0  0
   18.4114  -14.1419   25.6705 H   0  0  0  0  0  0
   24.7968  -13.8847   24.2733 H   0  0  0  0  0  0
   24.1415  -14.6578   26.3294 H   0  0  0  0  0  0
   22.4658  -15.0930   26.4631 H   0  0  0  0  0  0
  1  6  1  0  0  0
  1  2  2  0  0  0
  1 28  1  0  0  0
  2  3  1  0  0  0
  2 29  1  0  0  0
  3  4  2  0  0  0
  3 30  1  0  0  0
  4  5  1  0  0  0
  4  7  1  0  0  0
  5  6  2  0  0  0
  5 31  1  0  0  0
  6 32  1  0  0  0
  7  8  1  0  0  0
  8 13  1  0  0  0
  8  9  2  0  0  0
  9 10  1  0  0  0
  9 33  1  0  0  0
 10 11  2  0  0  0
 10 34  1  0  0  0
 11 12  1  0  0  0
 11 35  1  0  0  0
 12 13  2  0  0  0
 12 15  1  0  0  0
 13 14  1  0  0  0
 14 36  1  0  0  0
 15 23  1  0  0  0
 15 16  2  0  0  0
 16 17  1  0  0  0
 16 37  1  0  0  0
 17 22  2  0  0  0
 17 18  1  0  0  0
 18 19  2  0  0  0
 18 38  1  0  0  0
 19 20  1  0  0  0
 19 24  1  0  0  0
 20 21  2  0  0  0
 20 39  1  0  0  0
 21 22  1  0  0  0
 21 40  1  0  0  0
 22 23  1  0  0  0
 23 27  1  0  0  0
 24 25  2  3  0  0
 24 26  1  0  0  0
 25 41  1  0  0  0
 26 42  1  0  0  0
 26 43  1  0  0  0
M  END
> <s_m_entry_id>
37882

> <s_m_entry_name>
ligand_docking-pose.229

> <s_m_Source_Path>
/home/csk/Desktop/cluster/DUD-E-result/thrb

> <s_m_Source_File>
ligand_docking-pose.sdf

> <i_m_Source_File_Index>
229

> <i_lp_mmshare_version>
53161

> <i_f3d_flags>
0

> <r_lp_tautomer_probability>
1

> <s_lp_Force_Field>
OPLS_2005

> <r_lp_Energy>
14.501636

> <b_lp_Chiralities_Consistent>
1

> <s_lp_Variant>
96680-1

> <s_i_glide_gridfile>
glide-grid_1ype

> <i_i_glide_lignum>
1757

> <i_i_glide_rotatable_bonds>
5

> <r_i_docking_score>
-7.28365559772817

> <r_i_glide_ligand_efficiency>
-0.280140599912622

> <r_i_glide_ligand_efficiency_sa>
-0.82991542494111

> <r_i_glide_ligand_efficiency_ln>
-1.7105426175031

> <r_i_glide_gscore>
-7.28365559772817

> <r_i_glide_lipo>
-2.81160509147441

> <r_i_glide_hbond>
-0.487312554610897

> <r_i_glide_metal>
0

> <r_i_glide_rewards>
-1.48443895257815

> <r_i_glide_evdw>
-40.6298637390137

> <r_i_glide_ecoul>
-6.34383249282837

> <r_i_glide_erotb>
0.482769061810227

> <r_i_glide_esite>
0

> <r_i_glide_emodel>
-64.0085810893464

> <r_i_glide_energy>
-46.973696231842

> <r_i_glide_einternal>
7.64123058319092

> <i_i_glide_confnum>
2

> <i_i_glide_posenum>
14

> <r_i_glide_eff_state_penalty>
0

> <s_user_duplicate_titles>
96680

> <s_m_subgroup_title>
dock_pv

> <s_m_subgroupid>
dock_pv1

> <b_m_subgroup_collapsed>
0

$$$$
167766
                    3D
 Schrodinger Suite 2021-1.
 59 62  0  0  1  0            999 V2000
   21.6400  -14.1408   25.2284 C   0  0  0  0  0  0
   20.4725  -13.4611   25.5500 C   0  0  0  0  0  0
   19.2389  -13.9953   25.2043 C   0  0  0  0  0  0
   19.1570  -15.2407   24.5438 C   0  0  0  0  0  0
   20.3546  -15.9034   24.1989 C   0  0  0  0  0  0
   21.5810  -15.3547   24.5524 C   0  0  0  0  0  0
   17.8066  -15.7666   24.0670 C   0  0  0  0  0  0
   17.4130  -15.4654   22.5948 C   0  0  2  0  0  0
   17.5835  -13.9620   22.2170 C   0  0  0  0  0  0
   16.7990  -13.1504   22.7197 O   0  0  0  0  0  0
   18.5884  -13.5903   21.3767 N   0  0  0  0  0  0
   19.6364  -14.5009   20.8850 C   0  0  0  0  0  0
   20.8200  -13.5691   20.6424 C   0  0  0  0  0  0
   20.1831  -12.2615   20.2246 C   0  0  0  0  0  0
   18.9368  -12.1782   21.1125 C   0  0  1  0  0  0
   17.8336  -11.2065   20.6194 C   0  0  0  0  0  0
   17.0038  -11.6958   19.4291 C   0  0  0  0  0  0
   17.5297  -11.8546   18.3275 O   0  0  0  0  0  0
   15.6987  -11.8819   19.6594 N   0  0  0  0  0  0
   14.7094  -12.3104   18.6741 C   0  0  0  0  0  0
   13.7618  -13.3643   19.2408 C   0  0  0  0  0  0
   13.8352  -14.6535   18.6946 C   0  0  0  0  0  0
   13.0080  -15.6760   19.1511 C   0  0  0  0  0  0
   12.0964  -15.4260   20.1681 C   0  0  0  0  0  0
   12.0175  -14.1553   20.7306 C   0  0  0  0  0  0
   12.8365  -13.1087   20.2860 C   0  0  0  0  0  0
   12.7006  -11.8549   20.9453 N   0  0  0  0  0  0
   12.3582  -11.6037   22.2586 C   0  0  0  0  0  0
   12.2802  -10.3196   22.4960 N   0  0  0  0  0  0
   12.5789   -9.7124   21.2819 N   0  0  0  0  0  0
   12.8223  -10.6738   20.3200 N   0  0  0  0  0  0
   13.1173  -17.2495   18.4567 Cl  0  0  0  0  0  0
   16.0160  -15.8530   22.3209 N   0  0  0  0  0  0
   18.0336  -16.0870   21.9544 H   0  0  0  0  0  0
   19.2159  -11.8021   22.0938 H   0  0  0  0  0  0
   22.5989  -13.7208   25.4968 H   0  0  0  0  0  0
   20.5237  -12.5108   26.0619 H   0  0  0  0  0  0
   18.3392  -13.4547   25.4489 H   0  0  0  0  0  0
   20.3211  -16.8383   23.6591 H   0  0  0  0  0  0
   22.4958  -15.8696   24.2927 H   0  0  0  0  0  0
   17.0409  -15.3786   24.7430 H   0  0  0  0  0  0
   17.7979  -16.8486   24.2160 H   0  0  0  0  0  0
   19.3487  -14.9217   19.9222 H   0  0  0  0  0  0
   19.9585  -15.2537   21.6036 H   0  0  0  0  0  0
   21.5166  -13.9653   19.9029 H   0  0  0  0  0  0
   21.3831  -13.4318   21.5685 H   0  0  0  0  0  0
   19.9049  -12.3149   19.1720 H   0  0  0  0  0  0
   20.8422  -11.3976   20.3215 H   0  0  0  0  0  0
   18.2844  -10.2558   20.3459 H   0  0  0  0  0  0
   17.1740  -10.9683   21.4535 H   0  0  0  0  0  0
   15.3452  -11.6590   20.5778 H   0  0  0  0  0  0
   15.1924  -12.6884   17.7679 H   0  0  0  0  0  0
   14.1432  -11.4510   18.3206 H   0  0  0  0  0  0
   14.5361  -14.8710   17.9003 H   0  0  0  0  0  0
   11.4460  -16.2116   20.5255 H   0  0  0  0  0  0
   11.2954  -13.9941   21.5197 H   0  0  0  0  0  0
   12.1758  -12.4072   22.9570 H   0  0  0  0  0  0
   15.4172  -15.4252   23.0254 H   0  0  0  0  0  0
   15.7007  -15.5033   21.4255 H   0  0  0  0  0  0
  1  6  1  0  0  0
  1  2  2  0  0  0
  1 36  1  0  0  0
  2  3  1  0  0  0
  2 37  1  0  0  0
  3  4  2  0  0  0
  3 38  1  0  0  0
  4  5  1  0  0  0
  4  7  1  0  0  0
  5  6  2  0  0  0
  5 39  1  0  0  0
  6 40  1  0  0  0
  7  8  1  0  0  0
  7 41  1  0  0  0
  7 42  1  0  0  0
  8 34  1  0  0  0
  8  9  1  0  0  0
  8 33  1  0  0  0
  9 10  2  0  0  0
  9 11  1  0  0  0
 11 15  1  0  0  0
 11 12  1  0  0  0
 12 13  1  0  0  0
 12 43  1  0  0  0
 12 44  1  0  0  0
 13 14  1  0  0  0
 13 45  1  0  0  0
 13 46  1  0  0  0
 14 15  1  0  0  0
 14 47  1  0  0  0
 14 48  1  0  0  0
 15 35  1  0  0  0
 15 16  1  0  0  0
 16 17  1  0  0  0
 16 49  1  0  0  0
 16 50  1  0  0  0
 17 18  2  0  0  0
 17 19  1  0  0  0
 19 20  1  0  0  0
 19 51  1  0  0  0
 20 21  1  0  0  0
 20 52  1  0  0  0
 20 53  1  0  0  0
 21 26  1  0  0  0
 21 22  2  0  0  0
 22 23  1  0  0  0
 22 54  1  0  0  0
 23 24  2  0  0  0
 23 32  1  0  0  0
 24 25  1  0  0  0
 24 55  1  0  0  0
 25 26  2  0  0  0
 25 56  1  0  0  0
 26 27  1  0  0  0
 27 31  1  0  0  0
 27 28  1  0  0  0
 28 29  2  0  0  0
 28 57  1  0  0  0
 29 30  1  0  0  0
 30 31  2  0  0  0
 33 58  1  0  0  0
 33 59  1  0  0  0
M  END
> <s_m_entry_id>
37883

> <s_m_entry_name>
ligand_docking-pose.230

> <s_m_Source_Path>
/home/csk/Desktop/cluster/DUD-E-result/thrb

> <s_m_Source_File>
ligand_docking-pose.sdf

> <i_m_Source_File_Index>
230

> <i_lp_mmshare_version>
53161

> <i_f3d_flags>
0

> <r_lp_tautomer_probability>
1

> <s_lp_Force_Field>
OPLS_2005

> <r_lp_Energy>
50.19696

> <b_lp_Chiralities_Consistent>
1

> <s_lp_Variant>
167766-1

> <s_i_glide_gridfile>
glide-grid_1ype

> <i_i_glide_lignum>
1075

> <i_i_glide_rotatable_bonds>
10

> <r_i_docking_score>
-7.27781488949381

> <r_i_glide_ligand_efficiency>
-0.220539845136176

> <r_i_glide_ligand_efficiency_sa>
-0.707389123581784

> <r_i_glide_ligand_efficiency_ln>
-1.61854834891465

> <r_i_glide_gscore>
-7.27781488949381

> <r_i_glide_lipo>
-2.64315194389806

> <r_i_glide_hbond>
-0.515675880828885

> <r_i_glide_metal>
0

> <r_i_glide_rewards>
-1.4122997293294

> <r_i_glide_evdw>
-46.8181571960449

> <r_i_glide_ecoul>
-7.96956205368042

> <r_i_glide_erotb>
0.829654832416841

> <r_i_glide_esite>
0

> <r_i_glide_emodel>
-76.8426372746612

> <r_i_glide_energy>
-54.7877192497253

> <r_i_glide_einternal>
4.17654705047607

> <i_i_glide_confnum>
51

> <i_i_glide_posenum>
149

> <r_i_glide_eff_state_penalty>
0

> <s_user_duplicate_titles>
167766

> <s_m_subgroup_title>
dock_pv

> <s_m_subgroupid>
dock_pv1

> <b_m_subgroup_collapsed>
0

$$$$
33585
                    3D
 Schrodinger Suite 2021-1.
 63 66  0  0  1  0            999 V2000
   15.8577  -10.8885   15.3652 C   0  0  0  0  0  0
   15.4075  -12.0125   16.3171 C   0  0  0  0  0  0
   16.3904  -12.3290   17.4392 C   0  0  0  0  0  0
   17.6342  -11.9099   17.4687 N   0  0  0  0  0  0
   18.1383  -12.3890   18.6466 C   0  0  0  0  0  0
   19.4287  -12.2530   19.1700 C   0  0  0  0  0  0
   19.6843  -12.7910   20.4299 C   0  0  0  0  0  0
   18.7053  -13.4559   21.1714 C   0  0  0  0  0  0
   17.4134  -13.6421   20.6434 C   0  0  0  0  0  0
   17.1572  -13.1041   19.3738 C   0  0  0  0  0  0
   16.0520  -13.1025   18.5382 N   0  0  0  0  0  0
   14.7535  -13.7231   18.8143 C   0  0  0  0  0  0
   13.8892  -13.0141   19.8490 C   0  0  0  0  0  0
   14.1534  -11.8222   20.4214 C   0  0  0  0  0  0
   13.3458  -11.1264   21.4497 C   0  0  0  0  0  0
   12.3407  -11.7995   22.1617 C   0  0  0  0  0  0
   11.6162  -11.1486   23.1587 C   0  0  0  0  0  0
   11.8701   -9.8158   23.4546 C   0  0  0  0  0  0
   12.8569   -9.1317   22.7522 C   0  0  0  0  0  0
   13.5904   -9.7760   21.7569 C   0  0  0  0  0  0
   14.5644   -9.0531   21.1211 O   0  0  0  0  0  0
   10.6972  -11.8530   23.9209 N   0  0  0  0  0  0
   19.1150  -13.8899   22.4185 O   0  0  0  0  0  0
   18.2118  -14.5263   23.3207 C   0  0  0  0  0  0
   18.0416  -16.0272   23.0159 C   0  0  0  0  0  0
   17.1460  -16.7169   24.0706 C   0  0  0  0  0  0
   17.6932  -16.4926   25.4253 N   0  0  0  0  0  0
   17.8145  -15.0610   25.7639 C   0  0  0  0  0  0
   18.7438  -14.3603   24.7536 C   0  0  0  0  0  0
   17.9422  -17.5447   26.3118 C   0  0  0  0  0  0
   17.7958  -18.7810   26.1000 N   0  0  0  0  0  0
   18.4163  -17.1777   27.7105 C   0  0  0  0  0  0
   15.1063  -10.6993   14.5978 H   0  0  0  0  0  0
   16.0218   -9.9551   15.9046 H   0  0  0  0  0  0
   16.7870  -11.1491   14.8584 H   0  0  0  0  0  0
   15.2153  -12.9128   15.7326 H   0  0  0  0  0  0
   14.4465  -11.7221   16.7410 H   0  0  0  0  0  0
   20.2032  -11.7371   18.6239 H   0  0  0  0  0  0
   20.6703  -12.6798   20.8585 H   0  0  0  0  0  0
   16.6414  -14.1694   21.1808 H   0  0  0  0  0  0
   14.9449  -14.7377   19.1659 H   0  0  0  0  0  0
   14.1915  -13.8268   17.8859 H   0  0  0  0  0  0
   12.9882  -13.5464   20.1152 H   0  0  0  0  0  0
   15.0593  -11.3192   20.1204 H   0  0  0  0  0  0
   12.1362  -12.8446   21.9819 H   0  0  0  0  0  0
   11.3278   -9.3192   24.2465 H   0  0  0  0  0  0
   13.0886   -8.1130   23.0201 H   0  0  0  0  0  0
   15.0827   -9.5562   20.4908 H   0  0  0  0  0  0
    9.9329  -11.3574   24.3759 H   0  0  0  0  0  0
   10.5713  -12.8445   23.7305 H   0  0  0  0  0  0
   17.2413  -14.0270   23.2874 H   0  0  0  0  0  0
   17.6124  -16.1820   22.0272 H   0  0  0  0  0  0
   19.0168  -16.5175   23.0360 H   0  0  0  0  0  0
   16.1594  -16.2530   24.0703 H   0  0  0  0  0  0
   16.9948  -17.7697   23.8277 H   0  0  0  0  0  0
   16.8160  -14.6527   25.6385 H   0  0  0  0  0  0
   18.0820  -14.8344   26.7958 H   0  0  0  0  0  0
   19.7371  -14.8028   24.8425 H   0  0  0  0  0  0
   18.8258  -13.3087   25.0238 H   0  0  0  0  0  0
   17.4771  -18.9677   25.1623 H   0  0  0  0  0  0
   17.6160  -16.7359   28.3009 H   0  0  0  0  0  0
   18.7964  -18.0387   28.2643 H   0  0  0  0  0  0
   19.2160  -16.4485   27.6670 H   0  0  0  0  0  0
  1  2  1  0  0  0
  1 33  1  0  0  0
  1 34  1  0  0  0
  1 35  1  0  0  0
  2  3  1  0  0  0
  2 36  1  0  0  0
  2 37  1  0  0  0
  3 11  1  0  0  0
  3  4  2  0  0  0
  4  5  1  0  0  0
  5 10  2  0  0  0
  5  6  1  0  0  0
  6  7  2  0  0  0
  6 38  1  0  0  0
  7  8  1  0  0  0
  7 39  1  0  0  0
  8  9  2  0  0  0
  8 23  1  0  0  0
  9 10  1  0  0  0
  9 40  1  0  0  0
 10 11  1  0  0  0
 11 12  1  0  0  0
 12 13  1  0  0  0
 12 41  1  0  0  0
 12 42  1  0  0  0
 13 14  2  0  0  0
 13 43  1  0  0  0
 14 15  1  0  0  0
 14 44  1  0  0  0
 15 20  1  0  0  0
 15 16  2  0  0  0
 16 17  1  0  0  0
 16 45  1  0  0  0
 17 18  2  0  0  0
 17 22  1  0  0  0
 18 19  1  0  0  0
 18 46  1  0  0  0
 19 20  2  0  0  0
 19 47  1  0  0  0
 20 21  1  0  0  0
 21 48  1  0  0  0
 22 49  1  0  0  0
 22 50  1  0  0  0
 23 24  1  0  0  0
 24 29  1  0  0  0
 24 25  1  0  0  0
 24 51  1  0  0  0
 25 26  1  0  0  0
 25 52  1  0  0  0
 25 53  1  0  0  0
 26 27  1  0  0  0
 26 54  1  0  0  0
 26 55  1  0  0  0
 27 28  1  0  0  0
 27 30  1  0  0  0
 28 29  1  0  0  0
 28 56  1  0  0  0
 28 57  1  0  0  0
 29 58  1  0  0  0
 29 59  1  0  0  0
 30 31  2  3  0  0
 30 32  1  0  0  0
 31 60  1  0  0  0
 32 61  1  0  0  0
 32 62  1  0  0  0
 32 63  1  0  0  0
M  END
> <s_m_entry_id>
37884

> <s_m_entry_name>
ligand_docking-pose.231

> <s_m_Source_Path>
/home/csk/Desktop/cluster/DUD-E-result/thrb

> <s_m_Source_File>
ligand_docking-pose.sdf

> <i_m_Source_File_Index>
231

> <i_lp_mmshare_version>
53161

> <i_f3d_flags>
0

> <r_lp_tautomer_probability>
0.499900269896156

> <s_lp_Force_Field>
OPLS_2005

> <r_lp_Energy>
24.064894

> <b_lp_Chiralities_Consistent>
1

> <s_lp_Variant>
33585-2

> <s_i_glide_gridfile>
glide-grid_1ype

> <i_i_glide_lignum>
3256

> <i_i_glide_rotatable_bonds>
8

> <r_i_docking_score>
-7.2729794147083

> <r_i_glide_ligand_efficiency>
-0.227280606709634

> <r_i_glide_ligand_efficiency_sa>
-0.721570947532097

> <r_i_glide_ligand_efficiency_ln>
-1.62861834488435

> <r_i_glide_gscore>
-7.2729794147083

> <r_i_glide_lipo>
-3.33750571998827

> <r_i_glide_hbond>
-0.404381718056639

> <r_i_glide_metal>
0

> <r_i_glide_rewards>
-0.940221288822199

> <r_i_glide_evdw>
-42.6129875183105

> <r_i_glide_ecoul>
-6.08211898803711

> <r_i_glide_erotb>
0.529577037290998

> <r_i_glide_esite>
-0.0774805010110957

> <r_i_glide_emodel>
-69.4405807028211

> <r_i_glide_energy>
-48.6951065063477

> <r_i_glide_einternal>
1.92943143844604

> <i_i_glide_confnum>
21

> <i_i_glide_posenum>
385

> <r_i_glide_eff_state_penalty>
0

> <s_user_duplicate_titles>
33585

> <s_m_subgroup_title>
dock_pv

> <s_m_subgroupid>
dock_pv1

> <b_m_subgroup_collapsed>
0

$$$$
129798
                    3D
 Schrodinger Suite 2021-1.
 70 72  0  0  1  0            999 V2000
   20.2529  -13.5723   26.6107 C   0  0  0  0  0  0
   20.7929  -12.4796   25.7012 C   0  0  0  0  0  0
   20.3955  -12.9036   24.2780 C   0  0  0  0  0  0
   19.9448  -14.3818   24.3347 C   0  0  0  0  0  0
   20.3316  -14.8257   25.7526 C   0  0  0  0  0  0
   18.5025  -14.5431   24.1259 N   0  0  1  0  0  0
   18.1448  -14.8228   22.7046 C   0  0  1  0  0  0
   16.8695  -15.6876   22.5240 C   0  0  0  0  0  0
   16.8429  -16.9407   23.3979 C   0  0  0  0  0  0
   17.2118  -18.0505   23.0256 O   0  0  0  0  0  0
   16.4161  -16.6557   24.6587 O   0  0  0  0  0  0
   17.9862  -13.4835   21.9145 C   0  0  0  0  0  0
   17.1749  -12.6531   22.3219 O   0  0  0  0  0  0
   18.7080  -13.2700   20.7920 N   0  0  0  0  0  0
   19.3434  -14.3659   20.0614 C   0  0  0  0  0  0
   20.8162  -14.0506   19.8345 C   0  0  0  0  0  0
   20.9673  -12.7237   19.0776 C   0  0  0  0  0  0
   20.1514  -11.6167   19.7642 C   0  0  0  0  0  0
   18.6641  -11.9709   20.0763 C   0  0  1  0  0  0
   17.7131  -11.9507   18.8460 C   0  0  0  0  0  0
   16.2228  -12.1330   19.1837 C   0  0  0  0  0  0
   15.7902  -11.0587   20.0127 O   0  0  0  0  0  0
   14.4055  -11.0458   20.3508 C   0  0  0  0  0  0
   13.9868  -12.2201   21.2607 C   0  0  0  0  0  0
   12.5014  -12.1074   21.6583 C   0  0  0  0  0  0
   12.2705  -10.8267   22.3513 N   0  0  0  0  0  0
   12.5862   -9.6673   21.4969 C   0  0  0  0  0  0
   14.0546   -9.7100   21.0322 C   0  0  0  0  0  0
   11.4535  -10.6835   23.5206 C   0  0  0  0  0  0
   11.2715   -9.6063   24.1410 N   0  0  0  0  0  0
   10.8148  -11.8530   23.9700 N   0  0  0  0  0  0
   18.9412  -15.4457   22.3014 H   0  0  0  0  0  0
   19.2161  -13.3842   26.8858 H   0  0  0  0  0  0
   20.8336  -13.6561   27.5213 H   0  0  0  0  0  0
   20.4158  -11.4920   25.9695 H   0  0  0  0  0  0
   21.8788  -12.4405   25.8031 H   0  0  0  0  0  0
   19.6162  -12.2510   23.8876 H   0  0  0  0  0  0
   21.2564  -12.7944   23.6211 H   0  0  0  0  0  0
   20.5705  -14.9484   23.6424 H   0  0  0  0  0  0
   21.3406  -15.2394   25.7546 H   0  0  0  0  0  0
   19.6877  -15.6149   26.1430 H   0  0  0  0  0  0
   18.2439  -15.3507   24.6776 H   0  0  0  0  0  0
   15.9724  -15.1029   22.7173 H   0  0  0  0  0  0
   16.7837  -16.0139   21.4847 H   0  0  0  0  0  0
   16.0752  -15.7520   24.7213 H   0  0  0  0  0  0
   19.1010  -15.3930   20.3292 H   0  0  0  0  0  0
   18.8409  -14.2543   19.1170 H   0  0  0  0  0  0
   21.3605  -14.0517   20.7804 H   0  0  0  0  0  0
   21.2177  -14.8661   19.2368 H   0  0  0  0  0  0
   22.0158  -12.4361   19.0245 H   0  0  0  0  0  0
   20.6306  -12.8449   18.0470 H   0  0  0  0  0  0
   20.6442  -11.4339   20.7134 H   0  0  0  0  0  0
   20.2573  -10.6718   19.2441 H   0  0  0  0  0  0
   18.3171  -11.1937   20.7648 H   0  0  0  0  0  0
   17.8129  -11.0277   18.3016 H   0  0  0  0  0  0
   17.9977  -12.7053   18.1162 H   0  0  0  0  0  0
   15.6418  -12.1443   18.2609 H   0  0  0  0  0  0
   16.0727  -13.0977   19.6691 H   0  0  0  0  0  0
   13.8376  -11.1066   19.4186 H   0  0  0  0  0  0
   14.1173  -13.1763   20.7537 H   0  0  0  0  0  0
   14.5849  -12.2361   22.1724 H   0  0  0  0  0  0
   11.8616  -12.1416   20.7741 H   0  0  0  0  0  0
   12.2361  -12.9705   22.2696 H   0  0  0  0  0  0
   11.9088   -9.6705   20.6414 H   0  0  0  0  0  0
   12.4064   -8.7319   22.0294 H   0  0  0  0  0  0
   14.6978   -9.5029   21.8851 H   0  0  0  0  0  0
   14.1767   -8.8922   20.3226 H   0  0  0  0  0  0
   10.6084   -9.7354   24.8988 H   0  0  0  0  0  0
   10.1184  -11.8188   24.7071 H   0  0  0  0  0  0
   10.8631  -12.7408   23.4823 H   0  0  0  0  0  0
  1  5  1  0  0  0
  1  2  1  0  0  0
  1 33  1  0  0  0
  1 34  1  0  0  0
  2  3  1  0  0  0
  2 35  1  0  0  0
  2 36  1  0  0  0
  3  4  1  0  0  0
  3 37  1  0  0  0
  3 38  1  0  0  0
  4  5  1  0  0  0
  4  6  1  0  0  0
  4 39  1  0  0  0
  5 40  1  0  0  0
  5 41  1  0  0  0
  6  7  1  0  0  0
  6 42  1  0  0  0
  7 32  1  0  0  0
  7  8  1  0  0  0
  7 12  1  0  0  0
  8  9  1  0  0  0
  8 43  1  0  0  0
  8 44  1  0  0  0
  9 10  2  0  0  0
  9 11  1  0  0  0
 11 45  1  0  0  0
 12 13  2  0  0  0
 12 14  1  0  0  0
 14 19  1  0  0  0
 14 15  1  0  0  0
 15 16  1  0  0  0
 15 46  1  0  0  0
 15 47  1  0  0  0
 16 17  1  0  0  0
 16 48  1  0  0  0
 16 49  1  0  0  0
 17 18  1  0  0  0
 17 50  1  0  0  0
 17 51  1  0  0  0
 18 19  1  0  0  0
 18 52  1  0  0  0
 18 53  1  0  0  0
 19 20  1  0  0  0
 19 54  1  0  0  0
 20 21  1  0  0  0
 20 55  1  0  0  0
 20 56  1  0  0  0
 21 22  1  0  0  0
 21 57  1  0  0  0
 21 58  1  0  0  0
 22 23  1  0  0  0
 23 28  1  0  0  0
 23 24  1  0  0  0
 23 59  1  0  0  0
 24 25  1  0  0  0
 24 60  1  0  0  0
 24 61  1  0  0  0
 25 26  1  0  0  0
 25 62  1  0  0  0
 25 63  1  0  0  0
 26 27  1  0  0  0
 26 29  1  0  0  0
 27 28  1  0  0  0
 27 64  1  0  0  0
 27 65  1  0  0  0
 28 66  1  0  0  0
 28 67  1  0  0  0
 29 30  2  3  0  0
 29 31  1  0  0  0
 30 68  1  0  0  0
 31 69  1  0  0  0
 31 70  1  0  0  0
M  END
> <s_m_entry_id>
37885

> <s_m_entry_name>
ligand_docking-pose.232

> <s_m_Source_Path>
/home/csk/Desktop/cluster/DUD-E-result/thrb

> <s_m_Source_File>
ligand_docking-pose.sdf

> <i_m_Source_File_Index>
232

> <i_lp_mmshare_version>
53161

> <i_f3d_flags>
0

> <r_lp_tautomer_probability>
1

> <s_lp_Force_Field>
OPLS_2005

> <r_lp_Energy>
53.502335

> <b_lp_Chiralities_Consistent>
1

> <s_lp_Variant>
129798-1

> <s_i_glide_gridfile>
glide-grid_1ype

> <i_i_glide_lignum>
515

> <i_i_glide_rotatable_bonds>
12

> <r_i_docking_score>
-7.2727617357403

> <r_i_glide_ligand_efficiency>
-0.234605217281945

> <r_i_glide_ligand_efficiency_sa>
-0.736984289675983

> <r_i_glide_ligand_efficiency_ln>
-1.64023065478936

> <r_i_glide_gscore>
-7.2727617357403

> <r_i_glide_lipo>
-3.08857113722735

> <r_i_glide_hbond>
-0.407440642938215

> <r_i_glide_metal>
0

> <r_i_glide_rewards>
-1.29335247483832

> <r_i_glide_evdw>
-37.9197425842285

> <r_i_glide_ecoul>
-9.62749195098877

> <r_i_glide_erotb>
0.937378396673096

> <r_i_glide_esite>
-0.0806649555497606

> <r_i_glide_emodel>
-66.7309717348801

> <r_i_glide_energy>
-47.5472345352173

> <r_i_glide_einternal>
4.56508016586304

> <i_i_glide_confnum>
143

> <i_i_glide_posenum>
1

> <r_i_glide_eff_state_penalty>
0

> <s_user_duplicate_titles>
129798

> <s_m_subgroup_title>
dock_pv

> <s_m_subgroupid>
dock_pv1

> <b_m_subgroup_collapsed>
0

$$$$
167311
                    3D
 Schrodinger Suite 2021-1.
 55 58  0  0  1  0            999 V2000
   13.2887  -14.2324   19.1264 C   0  0  0  0  0  0
   12.1771  -14.2434   19.9519 C   0  0  0  0  0  0
   12.0156  -13.2427   20.9033 C   0  0  0  0  0  0
   12.9484  -12.2103   21.0619 C   0  0  0  0  0  0
   14.1189  -12.2381   20.2649 C   0  0  0  0  0  0
   14.2483  -13.2398   19.2848 C   0  0  0  0  0  0
   15.2869  -11.2628   20.4980 C   0  0  0  0  0  0
   16.6209  -11.8557   20.3478 N   0  0  0  0  0  0
   17.3082  -11.9993   19.1988 C   0  0  0  0  0  0
   16.9773  -11.4370   18.1570 O   0  0  0  0  0  0
   18.4899  -12.9983   19.1323 C   0  0  0  0  0  0
   19.0055  -13.4540   20.4539 N   0  0  0  0  0  0
   20.2514  -13.0808   20.9533 C   0  0  0  0  0  0
   20.6483  -13.4532   22.1971 C   0  0  0  0  0  0
   19.8153  -14.1152   23.0533 N   0  0  0  0  0  0
   18.6982  -14.5562   22.5897 C   0  0  0  0  0  0
   18.2251  -14.3534   21.1777 C   0  0  0  0  0  0
   17.2081  -14.8895   20.7193 O   0  0  0  0  0  0
   17.7948  -15.1749   23.4489 N   0  0  0  0  0  0
   17.7911  -15.1166   24.9222 C   0  0  0  0  0  0
   18.8438  -15.9571   25.7009 C   0  0  0  0  0  0
   20.2104  -15.2698   25.8134 C   0  0  0  0  0  0
   21.3890  -15.8868   25.3666 C   0  0  0  0  0  0
   22.5827  -15.1644   25.4048 C   0  0  0  0  0  0
   22.5760  -13.8533   25.8794 C   0  0  0  0  0  0
   21.3700  -13.3073   26.3220 C   0  0  0  0  0  0
   20.2038  -13.9993   26.3119 N   0  0  0  0  0  0
   18.4176  -16.1452   26.9518 F   0  0  0  0  0  0
   18.9650  -17.1744   25.1630 F   0  0  0  0  0  0
   21.3235  -12.1166   19.9199 Cl  0  0  0  0  0  0
   12.5786  -11.1449   22.0672 C   0  0  0  0  0  0
   11.7059  -11.3472   23.1164 N   0  0  0  0  0  0
   11.5957  -10.1593   23.7821 C   0  0  0  0  0  0
   12.4171   -9.2970   23.0775 C   0  0  0  0  0  0
   12.9866   -9.8907   22.0394 N   0  0  0  0  0  0
   11.2280  -12.2095   23.3439 H   0  0  0  0  0  0
   13.4165  -15.0020   18.3775 H   0  0  0  0  0  0
   11.4324  -15.0190   19.8454 H   0  0  0  0  0  0
   11.1252  -13.2739   21.5129 H   0  0  0  0  0  0
   15.1045  -13.2866   18.6360 H   0  0  0  0  0  0
   15.1559  -10.3812   19.8767 H   0  0  0  0  0  0
   15.2452  -10.9126   21.5207 H   0  0  0  0  0  0
   16.9366  -12.3901   21.1419 H   0  0  0  0  0  0
   18.1508  -13.8526   18.5497 H   0  0  0  0  0  0
   19.2829  -12.5393   18.5461 H   0  0  0  0  0  0
   21.6170  -13.1625   22.5806 H   0  0  0  0  0  0
   16.9158  -15.4642   23.0371 H   0  0  0  0  0  0
   17.8339  -14.0753   25.2436 H   0  0  0  0  0  0
   16.8099  -15.4670   25.2394 H   0  0  0  0  0  0
   21.3817  -16.8929   24.9739 H   0  0  0  0  0  0
   23.5030  -15.6147   25.0639 H   0  0  0  0  0  0
   23.4910  -13.2807   25.9168 H   0  0  0  0  0  0
   21.3258  -12.2971   26.7064 H   0  0  0  0  0  0
   10.9521  -10.0479   24.6471 H   0  0  0  0  0  0
   12.5936   -8.2553   23.3057 H   0  0  0  0  0  0
  1  6  1  0  0  0
  1  2  2  0  0  0
  1 37  1  0  0  0
  2  3  1  0  0  0
  2 38  1  0  0  0
  3  4  2  0  0  0
  3 39  1  0  0  0
  4  5  1  0  0  0
  4 31  1  0  0  0
  5  6  2  0  0  0
  5  7  1  0  0  0
  6 40  1  0  0  0
  7  8  1  0  0  0
  7 41  1  0  0  0
  7 42  1  0  0  0
  8  9  1  0  0  0
  8 43  1  0  0  0
  9 10  2  0  0  0
  9 11  1  0  0  0
 11 12  1  0  0  0
 11 44  1  0  0  0
 11 45  1  0  0  0
 12 17  1  0  0  0
 12 13  1  0  0  0
 13 14  2  0  0  0
 13 30  1  0  0  0
 14 15  1  0  0  0
 14 46  1  0  0  0
 15 16  2  0  0  0
 16 17  1  0  0  0
 16 19  1  0  0  0
 17 18  2  0  0  0
 19 20  1  0  0  0
 19 47  1  0  0  0
 20 21  1  0  0  0
 20 48  1  0  0  0
 20 49  1  0  0  0
 21 22  1  0  0  0
 21 28  1  0  0  0
 21 29  1  0  0  0
 22 27  1  0  0  0
 22 23  2  0  0  0
 23 24  1  0  0  0
 23 50  1  0  0  0
 24 25  2  0  0  0
 24 51  1  0  0  0
 25 26  1  0  0  0
 25 52  1  0  0  0
 26 27  2  0  0  0
 26 53  1  0  0  0
 31 35  2  0  0  0
 31 32  1  0  0  0
 32 36  1  0  0  0
 32 33  1  0  0  0
 33 34  2  0  0  0
 33 54  1  0  0  0
 34 35  1  0  0  0
 34 55  1  0  0  0
M  END
> <s_m_entry_id>
37886

> <s_m_entry_name>
ligand_docking-pose.233

> <s_m_Source_Path>
/home/csk/Desktop/cluster/DUD-E-result/thrb

> <s_m_Source_File>
ligand_docking-pose.sdf

> <i_m_Source_File_Index>
233

> <i_lp_mmshare_version>
53161

> <i_f3d_flags>
0

> <r_lp_tautomer_probability>
0.499999999999999

> <s_lp_Force_Field>
OPLS_2005

> <r_lp_Energy>
24.56033

> <b_lp_Chiralities_Consistent>
1

> <s_lp_Variant>
167311-1

> <s_i_glide_gridfile>
glide-grid_1ype

> <i_i_glide_lignum>
1358

> <i_i_glide_rotatable_bonds>
10

> <r_i_docking_score>
-7.27210869390645

> <r_i_glide_ligand_efficiency>
-0.207774534111613

> <r_i_glide_ligand_efficiency_sa>
-0.679644277842169

> <r_i_glide_ligand_efficiency_ln>
-1.59638925406915

> <r_i_glide_gscore>
-7.27210869390645

> <r_i_glide_lipo>
-3.47587946237204

> <r_i_glide_hbond>
0

> <r_i_glide_metal>
0

> <r_i_glide_rewards>
-1.13435188984325

> <r_i_glide_evdw>
-53.5054893493652

> <r_i_glide_ecoul>
-4.62834024429321

> <r_i_glide_erotb>
0.735269288507411

> <r_i_glide_esite>
-0.0276211260863225

> <r_i_glide_emodel>
-78.5431679492563

> <r_i_glide_energy>
-58.1338295936584

> <r_i_glide_einternal>
10.5130529403687

> <i_i_glide_confnum>
21

> <i_i_glide_posenum>
262

> <r_i_glide_eff_state_penalty>
0

> <s_user_duplicate_titles>
167311

> <s_m_subgroup_title>
dock_pv

> <s_m_subgroupid>
dock_pv1

> <b_m_subgroup_collapsed>
0

$$$$
78864
                    3D
 Schrodinger Suite 2021-1.
 66 68  0  0  1  0            999 V2000
   12.2172  -15.3317   19.2863 C   0  0  0  0  0  0
   13.2718  -16.0300   20.1273 C   0  0  0  0  0  0
   13.2157  -15.9389   21.5178 C   0  0  0  0  0  0
   14.1811  -16.5735   22.2952 C   0  0  0  0  0  0
   15.1982  -17.3070   21.6878 C   0  0  0  0  0  0
   15.2490  -17.4096   20.2954 C   0  0  0  0  0  0
   14.2873  -16.7688   19.5159 C   0  0  0  0  0  0
   16.4281  -18.1321   22.7063 S   0  0  0  0  0  0
   16.9539  -19.2556   21.9240 O   0  0  0  0  0  0
   15.8211  -18.3561   24.0228 O   0  0  0  0  0  0
   17.7379  -16.9830   22.9398 N   0  0  0  0  0  0
   18.4551  -16.3724   21.8971 C   0  0  0  0  0  0
   18.2483  -16.6350   20.7199 O   0  0  0  0  0  0
   19.3019  -15.4151   22.3014 N   0  0  0  0  0  0
   19.9034  -14.3777   21.4326 C   0  0  2  0  0  0
   21.2376  -13.8602   22.0462 C   0  0  0  0  0  0
   21.3362  -13.7399   23.5613 C   0  0  0  0  0  0
   22.5473  -14.0733   24.2056 C   0  0  0  0  0  0
   22.6676  -13.9268   25.5792 C   0  0  0  0  0  0
   21.6049  -13.4296   26.3209 C   0  0  0  0  0  0
   20.4246  -13.0526   25.6980 C   0  0  0  0  0  0
   20.2883  -13.1785   24.3234 C   0  0  0  0  0  0
   18.9383  -13.2372   20.9912 C   0  0  0  0  0  0
   19.3949  -12.2695   20.3804 O   0  0  0  0  0  0
   17.6393  -13.4095   21.3045 N   0  0  0  0  0  0
   16.5359  -12.5678   21.1545 C   0  0  0  0  0  0
   16.5860  -11.2370   20.7210 C   0  0  0  0  0  0
   15.4193  -10.4757   20.7210 C   0  0  0  0  0  0
   14.2095  -11.0451   21.1191 C   0  0  0  0  0  0
   14.1590  -12.3783   21.5209 C   0  0  0  0  0  0
   15.3225  -13.1327   21.5385 C   0  0  0  0  0  0
   12.7064  -10.0824   21.1456 S   0  0  0  0  0  0
   11.6160  -11.0555   21.1210 O   0  0  0  0  0  0
   12.8167   -9.0546   20.1052 O   0  0  0  0  0  0
   12.7155   -9.2667   22.7003 N   0  0  0  0  0  0
   11.8409   -9.5792   23.8024 C   0  0  0  0  0  0
   11.2160  -10.6529   23.9629 N   0  0  0  0  0  0
   11.5902   -8.5910   24.7210 O   0  0  0  0  0  0
   12.5081   -7.5101   24.8501 C   0  0  0  0  0  0
   20.1608  -14.8491   20.4812 H   0  0  0  0  0  0
   11.2243  -15.5096   19.7014 H   0  0  0  0  0  0
   12.3841  -14.2540   19.2798 H   0  0  0  0  0  0
   12.2050  -15.6979   18.2587 H   0  0  0  0  0  0
   12.4330  -15.3666   21.9961 H   0  0  0  0  0  0
   14.1480  -16.4771   23.3687 H   0  0  0  0  0  0
   16.0346  -17.9779   19.8174 H   0  0  0  0  0  0
   14.3343  -16.8482   18.4393 H   0  0  0  0  0  0
   17.8266  -16.6363   23.8959 H   0  0  0  0  0  0
   19.4633  -15.2859   23.2892 H   0  0  0  0  0  0
   22.0159  -14.5526   21.7376 H   0  0  0  0  0  0
   21.5415  -12.9045   21.6157 H   0  0  0  0  0  0
   23.3828  -14.4569   23.6392 H   0  0  0  0  0  0
   23.5895  -14.1994   26.0738 H   0  0  0  0  0  0
   21.6974  -13.3174   27.3906 H   0  0  0  0  0  0
   19.6161  -12.6530   26.2899 H   0  0  0  0  0  0
   19.3726  -12.8582   23.8500 H   0  0  0  0  0  0
   17.4191  -14.2965   21.7299 H   0  0  0  0  0  0
   17.5125  -10.7612   20.4397 H   0  0  0  0  0  0
   15.4686   -9.4374   20.4336 H   0  0  0  0  0  0
   13.2299  -12.8273   21.8447 H   0  0  0  0  0  0
   15.2769  -14.1529   21.8868 H   0  0  0  0  0  0
   13.1293   -8.3355   22.6827 H   0  0  0  0  0  0
   10.5820  -10.6018   24.7513 H   0  0  0  0  0  0
   12.4109   -7.0871   25.8498 H   0  0  0  0  0  0
   12.2689   -6.7000   24.1693 H   0  0  0  0  0  0
   13.5506   -7.8112   24.7208 H   0  0  0  0  0  0
  1  2  1  0  0  0
  1 41  1  0  0  0
  1 42  1  0  0  0
  1 43  1  0  0  0
  2  7  1  0  0  0
  2  3  2  0  0  0
  3  4  1  0  0  0
  3 44  1  0  0  0
  4  5  2  0  0  0
  4 45  1  0  0  0
  5  6  1  0  0  0
  5  8  1  0  0  0
  6  7  2  0  0  0
  6 46  1  0  0  0
  7 47  1  0  0  0
  8  9  2  0  0  0
  8 10  2  0  0  0
  8 11  1  0  0  0
 11 12  1  0  0  0
 11 48  1  0  0  0
 12 13  2  0  0  0
 12 14  1  0  0  0
 14 15  1  0  0  0
 14 49  1  0  0  0
 15 40  1  0  0  0
 15 16  1  0  0  0
 15 23  1  0  0  0
 16 17  1  0  0  0
 16 50  1  0  0  0
 16 51  1  0  0  0
 17 22  1  0  0  0
 17 18  2  0  0  0
 18 19  1  0  0  0
 18 52  1  0  0  0
 19 20  2  0  0  0
 19 53  1  0  0  0
 20 21  1  0  0  0
 20 54  1  0  0  0
 21 22  2  0  0  0
 21 55  1  0  0  0
 22 56  1  0  0  0
 23 24  2  0  0  0
 23 25  1  0  0  0
 25 26  1  0  0  0
 25 57  1  0  0  0
 26 31  1  0  0  0
 26 27  2  0  0  0
 27 28  1  0  0  0
 27 58  1  0  0  0
 28 29  2  0  0  0
 28 59  1  0  0  0
 29 30  1  0  0  0
 29 32  1  0  0  0
 30 31  2  0  0  0
 30 60  1  0  0  0
 31 61  1  0  0  0
 32 33  2  0  0  0
 32 34  2  0  0  0
 32 35  1  0  0  0
 35 36  1  0  0  0
 35 62  1  0  0  0
 36 37  2  3  0  0
 36 38  1  0  0  0
 37 63  1  0  0  0
 38 39  1  0  0  0
 39 64  1  0  0  0
 39 65  1  0  0  0
 39 66  1  0  0  0
M  END
> <s_m_entry_id>
37887

> <s_m_entry_name>
ligand_docking-pose.234

> <s_m_Source_Path>
/home/csk/Desktop/cluster/DUD-E-result/thrb

> <s_m_Source_File>
ligand_docking-pose.sdf

> <i_m_Source_File_Index>
234

> <i_lp_mmshare_version>
53161

> <i_f3d_flags>
0

> <r_lp_tautomer_probability>
1

> <s_lp_Force_Field>
OPLS_2005

> <r_lp_Energy>
28.503486

> <b_lp_Chiralities_Consistent>
1

> <s_lp_Variant>
78864-1

> <s_i_glide_gridfile>
glide-grid_1ype

> <i_i_glide_lignum>
2567

> <i_i_glide_rotatable_bonds>
14

> <r_i_docking_score>
-7.2712323727102

> <r_i_glide_ligand_efficiency>
-0.186441855710518

> <r_i_glide_ligand_efficiency_sa>
-0.632263753770192

> <r_i_glide_ligand_efficiency_ln>
-1.55915862691441

> <r_i_glide_gscore>
-7.2712323727102

> <r_i_glide_lipo>
-3.66651483472658

> <r_i_glide_hbond>
0

> <r_i_glide_metal>
0

> <r_i_glide_rewards>
-0.756520320111153

> <r_i_glide_evdw>
-55.1568222045898

> <r_i_glide_ecoul>
-5.47294664382935

> <r_i_glide_erotb>
0.730828987067271

> <r_i_glide_esite>
-0.000243098135844191

> <r_i_glide_emodel>
-80.5522581970513

> <r_i_glide_energy>
-60.6297688484192

> <r_i_glide_einternal>
7.59107351303101

> <i_i_glide_confnum>
29

> <i_i_glide_posenum>
166

> <r_i_glide_eff_state_penalty>
0

> <s_user_duplicate_titles>
78864

> <s_m_subgroup_title>
dock_pv

> <s_m_subgroupid>
dock_pv1

> <b_m_subgroup_collapsed>
0

$$$$
197667
                    3D
 Schrodinger Suite 2021-1.
 78 81  0  0  1  0            999 V2000
   18.1287  -16.1697   21.1453 C   0  0  0  0  0  0
   17.0125  -16.6840   22.0828 C   0  0  2  0  0  0
   17.6106  -17.4458   23.2880 C   0  0  0  0  0  0
   18.3560  -16.5518   24.2716 C   0  0  0  0  0  0
   17.6593  -15.9362   25.3145 C   0  0  0  0  0  0
   18.3370  -15.1178   26.2139 C   0  0  0  0  0  0
   19.7027  -14.8936   26.0529 C   0  0  0  0  0  0
   20.4047  -15.5063   25.0177 C   0  0  0  0  0  0
   19.7321  -16.3434   24.1306 C   0  0  0  0  0  0
   15.9804  -17.5039   21.4358 N   0  0  0  0  0  0
   15.6665  -17.3244   20.0812 C   0  0  0  0  0  0
   16.4659  -17.9321   19.1081 C   0  0  0  0  0  0
   16.1293  -17.7791   17.7648 C   0  0  0  0  0  0
   15.0529  -17.0660   17.3551 N   0  0  0  0  0  0
   14.2695  -16.4961   18.3036 C   0  0  0  0  0  0
   14.5341  -16.6016   19.6731 C   0  0  0  0  0  0
   13.4385  -15.8067   20.8440 S   0  0  0  0  0  0
   13.2155  -16.7747   21.9211 O   0  0  0  0  0  0
   12.3203  -15.2394   20.0820 O   0  0  0  0  0  0
   14.3781  -14.4864   21.5198 N   0  0  2  0  0  0
   14.9720  -13.4311   20.6503 C   0  0  1  0  0  0
   13.8950  -12.3946   20.1986 C   0  0  0  0  0  0
   13.1737  -11.6303   21.3024 C   0  0  0  0  0  0
   13.5372  -10.3111   21.5856 C   0  0  0  0  0  0
   12.8669   -9.6051   22.5791 C   0  0  0  0  0  0
   11.8454  -10.2242   23.2947 C   0  0  0  0  0  0
   11.4605  -11.5283   23.0022 C   0  0  0  0  0  0
   12.1237  -12.2326   22.0022 C   0  0  0  0  0  0
   11.2158   -9.5309   24.3211 N   0  0  0  0  0  0
   16.2180  -12.8403   21.3873 C   0  0  0  0  0  0
   16.3674  -13.0530   22.5945 O   0  0  0  0  0  0
   17.1589  -12.1425   20.6923 N   0  0  0  0  0  0
   17.0758  -11.8443   19.2467 C   0  0  0  0  0  0
   18.2638  -12.5547   18.5668 C   0  0  0  0  0  0
   19.6185  -12.1336   19.1782 C   0  0  0  0  0  0
   19.5590  -12.4956   20.6664 C   0  0  0  0  0  0
   18.4144  -11.7206   21.3604 C   0  0  0  0  0  0
   20.8369  -12.7590   18.4709 C   0  0  0  0  0  0
   21.2159  -12.0426   17.1627 C   0  0  0  0  0  0
   20.2072  -11.8535   16.3210 F   0  0  0  0  0  0
   16.4919  -15.8144   22.4853 H   0  0  0  0  0  0
   15.3639  -13.9498   19.7739 H   0  0  0  0  0  0
   18.8231  -15.5271   21.6829 H   0  0  0  0  0  0
   18.7065  -16.9906   20.7229 H   0  0  0  0  0  0
   17.7265  -15.5727   20.3273 H   0  0  0  0  0  0
   16.8232  -17.9622   23.8407 H   0  0  0  0  0  0
   18.2750  -18.2402   22.9415 H   0  0  0  0  0  0
   16.5948  -16.0894   25.4310 H   0  0  0  0  0  0
   17.8015  -14.6541   27.0281 H   0  0  0  0  0  0
   20.2241  -14.2471   26.7446 H   0  0  0  0  0  0
   21.4661  -15.3323   24.9096 H   0  0  0  0  0  0
   20.2753  -16.8209   23.3279 H   0  0  0  0  0  0
   15.1420  -17.5375   22.0006 H   0  0  0  0  0  0
   17.3281  -18.5174   19.3919 H   0  0  0  0  0  0
   16.7299  -18.2318   16.9883 H   0  0  0  0  0  0
   13.4107  -15.9515   17.9333 H   0  0  0  0  0  0
   14.8366  -14.6522   22.4242 H   0  0  0  0  0  0
   14.3134  -11.6627   19.5114 H   0  0  0  0  0  0
   13.1381  -12.8966   19.5959 H   0  0  0  0  0  0
   14.3448   -9.8350   21.0486 H   0  0  0  0  0  0
   13.1658   -8.5936   22.8115 H   0  0  0  0  0  0
   10.6586  -12.0052   23.5508 H   0  0  0  0  0  0
   11.8208  -13.2469   21.7835 H   0  0  0  0  0  0
   10.3162   -9.8682   24.6618 H   0  0  0  0  0  0
   11.4606   -8.5645   24.4667 H   0  0  0  0  0  0
   17.1650  -10.7644   19.1321 H   0  0  0  0  0  0
   16.1476  -12.1388   18.7682 H   0  0  0  0  0  0
   18.2358  -12.3363   17.5023 H   0  0  0  0  0  0
   18.1387  -13.6359   18.6207 H   0  0  0  0  0  0
   19.7142  -11.0530   19.1227 H   0  0  0  0  0  0
   19.4686  -13.5712   20.8128 H   0  0  0  0  0  0
   20.5168  -12.2537   21.1213 H   0  0  0  0  0  0
   18.5302  -10.6469   21.2044 H   0  0  0  0  0  0
   18.4154  -11.8622   22.4410 H   0  0  0  0  0  0
   20.6733  -13.8246   18.3140 H   0  0  0  0  0  0
   21.7048  -12.7066   19.1284 H   0  0  0  0  0  0
   21.9889  -12.5739   16.6065 H   0  0  0  0  0  0
   21.6135  -11.0526   17.3788 H   0  0  0  0  0  0
  1  2  1  0  0  0
  1 43  1  0  0  0
  1 44  1  0  0  0
  1 45  1  0  0  0
  2 41  1  0  0  0
  2  3  1  0  0  0
  2 10  1  0  0  0
  3  4  1  0  0  0
  3 46  1  0  0  0
  3 47  1  0  0  0
  4  9  1  0  0  0
  4  5  2  0  0  0
  5  6  1  0  0  0
  5 48  1  0  0  0
  6  7  2  0  0  0
  6 49  1  0  0  0
  7  8  1  0  0  0
  7 50  1  0  0  0
  8  9  2  0  0  0
  8 51  1  0  0  0
  9 52  1  0  0  0
 10 11  1  0  0  0
 10 53  1  0  0  0
 11 16  1  0  0  0
 11 12  2  0  0  0
 12 13  1  0  0  0
 12 54  1  0  0  0
 13 14  2  0  0  0
 13 55  1  0  0  0
 14 15  1  0  0  0
 15 16  2  0  0  0
 15 56  1  0  0  0
 16 17  1  0  0  0
 17 18  2  0  0  0
 17 19  2  0  0  0
 17 20  1  0  0  0
 20 21  1  0  0  0
 20 57  1  0  0  0
 21 42  1  0  0  0
 21 22  1  0  0  0
 21 30  1  0  0  0
 22 23  1  0  0  0
 22 58  1  0  0  0
 22 59  1  0  0  0
 23 28  1  0  0  0
 23 24  2  0  0  0
 24 25  1  0  0  0
 24 60  1  0  0  0
 25 26  2  0  0  0
 25 61  1  0  0  0
 26 27  1  0  0  0
 26 29  1  0  0  0
 27 28  2  0  0  0
 27 62  1  0  0  0
 28 63  1  0  0  0
 29 64  1  0  0  0
 29 65  1  0  0  0
 30 31  2  0  0  0
 30 32  1  0  0  0
 32 37  1  0  0  0
 32 33  1  0  0  0
 33 34  1  0  0  0
 33 66  1  0  0  0
 33 67  1  0  0  0
 34 35  1  0  0  0
 34 68  1  0  0  0
 34 69  1  0  0  0
 35 36  1  0  0  0
 35 38  1  0  0  0
 35 70  1  0  0  0
 36 37  1  0  0  0
 36 71  1  0  0  0
 36 72  1  0  0  0
 37 73  1  0  0  0
 37 74  1  0  0  0
 38 39  1  0  0  0
 38 75  1  0  0  0
 38 76  1  0  0  0
 39 40  1  0  0  0
 39 77  1  0  0  0
 39 78  1  0  0  0
M  END
> <s_m_entry_id>
37889

> <s_m_entry_name>
ligand_docking-pose.236

> <s_m_Source_Path>
/home/csk/Desktop/cluster/DUD-E-result/thrb

> <s_m_Source_File>
ligand_docking-pose.sdf

> <i_m_Source_File_Index>
236

> <i_lp_mmshare_version>
53161

> <i_f3d_flags>
0

> <r_lp_tautomer_probability>
0.999999106000799

> <s_lp_Force_Field>
OPLS_2005

> <r_lp_Energy>
36.228667

> <b_lp_Chiralities_Consistent>
1

> <s_lp_Variant>
197667-1

> <s_i_glide_gridfile>
glide-grid_1ype

> <i_i_glide_lignum>
3767

> <i_i_glide_rotatable_bonds>
13

> <r_i_docking_score>
-7.26904386412683

> <r_i_glide_ligand_efficiency>
-0.181726096603171

> <r_i_glide_ligand_efficiency_sa>
-0.621494507385529

> <r_i_glide_ligand_efficiency_ln>
-1.55027313780675

> <r_i_glide_gscore>
-7.26904386412683

> <r_i_glide_lipo>
-3.16888900781511

> <r_i_glide_hbond>
-0.670042066435631

> <r_i_glide_metal>
0

> <r_i_glide_rewards>
-0.193929566558042

> <r_i_glide_evdw>
-49.1385612487793

> <r_i_glide_ecoul>
-8.27674007415771

> <r_i_glide_erotb>
0.623403848881099

> <r_i_glide_esite>
-0.16114799863652

> <r_i_glide_emodel>
-63.5662087838173

> <r_i_glide_energy>
-57.415301322937

> <r_i_glide_einternal>
27.3182830810547

> <i_i_glide_confnum>
15

> <i_i_glide_posenum>
37

> <r_i_glide_eff_state_penalty>
0

> <s_user_duplicate_titles>
197667

> <s_m_subgroup_title>
dock_pv

> <s_m_subgroupid>
dock_pv1

> <b_m_subgroup_collapsed>
0

$$$$
167414
                    3D
 Schrodinger Suite 2021-1.
 60 63  0  0  1  0            999 V2000
   21.6518  -13.1179   26.1040 C   0  0  0  0  0  0
   22.5628  -13.9095   25.4166 C   0  0  0  0  0  0
   22.1223  -15.0113   24.6923 C   0  0  0  0  0  0
   20.7492  -15.3432   24.6785 C   0  0  0  0  0  0
   19.8380  -14.5114   25.3675 C   0  0  0  0  0  0
   20.2997  -13.4173   26.0814 C   0  0  0  0  0  0
   20.2393  -16.4753   23.7944 C   0  0  0  0  0  0
   20.1100  -16.1493   22.2821 C   0  0  2  0  0  0
   19.2064  -14.9144   21.9858 C   0  0  0  0  0  0
   18.1462  -14.8285   22.6171 O   0  0  0  0  0  0
   19.5787  -13.9920   21.0569 N   0  0  0  0  0  0
   20.8650  -14.0042   20.3468 C   0  0  0  0  0  0
   21.0586  -12.5501   19.9393 C   0  0  0  0  0  0
   19.6575  -12.0132   19.7544 C   0  0  0  0  0  0
   18.7682  -12.7993   20.7325 C   0  0  1  0  0  0
   17.3464  -13.1131   20.1848 C   0  0  0  0  0  0
   16.4894  -11.8631   19.9599 C   0  0  0  0  0  0
   16.8113  -11.0530   19.0900 O   0  0  0  0  0  0
   15.3923  -11.7341   20.7217 N   0  0  0  0  0  0
   14.4322  -10.6378   20.5989 C   0  0  0  0  0  0
   13.2760  -10.6847   21.6018 C   0  0  0  0  0  0
   13.0307   -9.5461   22.3810 C   0  0  0  0  0  0
   12.0167   -9.5380   23.3385 C   0  0  0  0  0  0
   11.2168  -10.6643   23.5158 C   0  0  0  0  0  0
   11.4326  -11.7957   22.7336 C   0  0  0  0  0  0
   12.4570  -11.8209   21.7809 C   0  0  0  0  0  0
   12.6394  -13.0134   21.0511 N   0  0  0  0  0  0
   12.8161  -14.2875   21.5210 C   0  0  0  0  0  0
   12.9377  -15.1348   20.5336 N   0  0  0  0  0  0
   12.8296  -14.3375   19.4835 C   0  0  0  0  0  0
   12.6415  -13.0544   19.7123 N   0  0  0  0  0  0
   19.5496  -17.2869   21.5221 N   0  0  0  0  0  0
   21.1278  -15.9760   21.9353 H   0  0  0  0  0  0
   18.6535  -12.2502   21.6693 H   0  0  0  0  0  0
   21.9902  -12.2538   26.6545 H   0  0  0  0  0  0
   23.6159  -13.6621   25.4390 H   0  0  0  0  0  0
   22.8335  -15.6091   24.1413 H   0  0  0  0  0  0
   18.7750  -14.7166   25.3340 H   0  0  0  0  0  0
   19.6156  -12.7817   26.6167 H   0  0  0  0  0  0
   19.2791  -16.8115   24.1907 H   0  0  0  0  0  0
   20.9217  -17.3177   23.9204 H   0  0  0  0  0  0
   20.8058  -14.6374   19.4605 H   0  0  0  0  0  0
   21.7036  -14.2725   20.9844 H   0  0  0  0  0  0
   21.6823  -12.4545   19.0504 H   0  0  0  0  0  0
   21.5688  -12.0064   20.7336 H   0  0  0  0  0  0
   19.3523  -12.2070   18.7240 H   0  0  0  0  0  0
   19.5832  -10.9382   19.9208 H   0  0  0  0  0  0
   16.8057  -13.7838   20.8488 H   0  0  0  0  0  0
   17.4222  -13.6515   19.2390 H   0  0  0  0  0  0
   15.1366  -12.4903   21.3419 H   0  0  0  0  0  0
   14.0007  -10.6524   19.5963 H   0  0  0  0  0  0
   14.9718   -9.6949   20.7089 H   0  0  0  0  0  0
   13.6455   -8.6627   22.2736 H   0  0  0  0  0  0
   11.8459   -8.6614   23.9425 H   0  0  0  0  0  0
   10.4173  -10.6559   24.2431 H   0  0  0  0  0  0
   10.7843  -12.6519   22.8670 H   0  0  0  0  0  0
   12.8197  -14.4907   22.5837 H   0  0  0  0  0  0
   12.8881  -14.7306   18.4794 H   0  0  0  0  0  0
   20.1586  -18.0914   21.5833 H   0  0  0  0  0  0
   18.6741  -17.5753   21.9376 H   0  0  0  0  0  0
  1  6  1  0  0  0
  1  2  2  0  0  0
  1 35  1  0  0  0
  2  3  1  0  0  0
  2 36  1  0  0  0
  3  4  2  0  0  0
  3 37  1  0  0  0
  4  5  1  0  0  0
  4  7  1  0  0  0
  5  6  2  0  0  0
  5 38  1  0  0  0
  6 39  1  0  0  0
  7  8  1  0  0  0
  7 40  1  0  0  0
  7 41  1  0  0  0
  8 33  1  0  0  0
  8  9  1  0  0  0
  8 32  1  0  0  0
  9 10  2  0  0  0
  9 11  1  0  0  0
 11 15  1  0  0  0
 11 12  1  0  0  0
 12 13  1  0  0  0
 12 42  1  0  0  0
 12 43  1  0  0  0
 13 14  1  0  0  0
 13 44  1  0  0  0
 13 45  1  0  0  0
 14 15  1  0  0  0
 14 46  1  0  0  0
 14 47  1  0  0  0
 15 34  1  0  0  0
 15 16  1  0  0  0
 16 17  1  0  0  0
 16 48  1  0  0  0
 16 49  1  0  0  0
 17 18  2  0  0  0
 17 19  1  0  0  0
 19 20  1  0  0  0
 19 50  1  0  0  0
 20 21  1  0  0  0
 20 51  1  0  0  0
 20 52  1  0  0  0
 21 26  1  0  0  0
 21 22  2  0  0  0
 22 23  1  0  0  0
 22 53  1  0  0  0
 23 24  2  0  0  0
 23 54  1  0  0  0
 24 25  1  0  0  0
 24 55  1  0  0  0
 25 26  2  0  0  0
 25 56  1  0  0  0
 26 27  1  0  0  0
 27 31  1  0  0  0
 27 28  1  0  0  0
 28 29  2  0  0  0
 28 57  1  0  0  0
 29 30  1  0  0  0
 30 31  2  0  0  0
 30 58  1  0  0  0
 32 59  1  0  0  0
 32 60  1  0  0  0
M  END
> <s_m_entry_id>
37890

> <s_m_entry_name>
ligand_docking-pose.237

> <s_m_Source_Path>
/home/csk/Desktop/cluster/DUD-E-result/thrb

> <s_m_Source_File>
ligand_docking-pose.sdf

> <i_m_Source_File_Index>
237

> <i_lp_mmshare_version>
53161

> <i_f3d_flags>
0

> <r_lp_tautomer_probability>
1

> <s_lp_Force_Field>
OPLS_2005

> <r_lp_Energy>
46.76314

> <b_lp_Chiralities_Consistent>
1

> <s_lp_Variant>
167414-1

> <s_i_glide_gridfile>
glide-grid_1ype

> <i_i_glide_lignum>
1074

> <i_i_glide_rotatable_bonds>
10

> <r_i_docking_score>
-7.2678773156135

> <r_i_glide_ligand_efficiency>
-0.227121166112922

> <r_i_glide_ligand_efficiency_sa>
-0.721064755190786

> <r_i_glide_ligand_efficiency_ln>
-1.62747584581905

> <r_i_glide_gscore>
-7.2678773156135

> <r_i_glide_lipo>
-3.55751483729863

> <r_i_glide_hbond>
0

> <r_i_glide_metal>
0

> <r_i_glide_rewards>
-1.65985391385909

> <r_i_glide_evdw>
-50.5926856994629

> <r_i_glide_ecoul>
-3.18814945220947

> <r_i_glide_erotb>
0.957348138348794

> <r_i_glide_esite>
0

> <r_i_glide_emodel>
-75.7628421134412

> <r_i_glide_energy>
-53.7808351516724

> <r_i_glide_einternal>
5.86550998687744

> <i_i_glide_confnum>
71

> <i_i_glide_posenum>
97

> <r_i_glide_eff_state_penalty>
0

> <s_user_duplicate_titles>
167414

> <s_m_subgroup_title>
dock_pv

> <s_m_subgroupid>
dock_pv1

> <b_m_subgroup_collapsed>
0

$$$$
549315
                    3D
 Schrodinger Suite 2021-1.
 62 65  0  0  1  0            999 V2000
   20.5574  -15.2228   21.2614 C   0  0  0  0  0  0
   19.4852  -14.2525   20.7783 C   0  0  0  0  0  0
   19.7790  -13.4532   19.6706 C   0  0  0  0  0  0
   18.8179  -12.6021   19.1409 C   0  0  0  0  0  0
   17.5685  -12.4924   19.7449 C   0  0  0  0  0  0
   17.2865  -13.2242   20.9101 C   0  0  0  0  0  0
   18.2230  -14.1504   21.4062 C   0  0  0  0  0  0
   17.8840  -15.0019   22.6479 C   0  0  0  0  0  0
   18.5939  -14.5155   23.9164 C   0  0  0  0  0  0
   19.2155  -13.4528   23.9132 O   0  0  0  0  0  0
   18.5427  -15.3263   24.9902 N   0  0  0  0  0  0
   19.3219  -15.1098   26.2163 C   0  0  0  0  0  0
   20.8097  -14.9469   25.9211 C   0  0  0  0  0  0
   21.3970  -13.6876   26.0120 C   0  0  0  0  0  0
   22.6795  -13.4956   25.5181 C   0  0  0  0  0  0
   23.4180  -14.5497   24.9515 C   0  0  0  0  0  0
   22.8396  -15.8327   24.9722 C   0  0  0  0  0  0
   21.5490  -16.0309   25.4515 C   0  0  0  0  0  0
   24.7390  -14.2710   24.3209 C   0  0  0  0  0  0
   25.2159  -13.1079   24.3210 N   0  0  0  0  0  0
   25.3437  -15.3476   23.7192 N   0  0  0  0  0  0
   16.0902  -13.0355   21.5618 O   0  0  0  0  0  0
   16.6127  -11.6754   19.1317 N   0  0  0  0  0  0
   15.4374  -12.4320   18.0384 S   0  0  0  0  0  0
   14.8157  -11.3540   17.2658 O   0  0  0  0  0  0
   16.1315  -13.5336   17.3609 O   0  0  0  0  0  0
   14.1759  -13.1190   19.1255 C   0  0  0  0  0  0
   13.9402  -14.4937   19.0679 C   0  0  0  0  0  0
   13.0270  -15.1015   19.9177 C   0  0  0  0  0  0
   12.3329  -14.3521   20.8584 C   0  0  0  0  0  0
   12.5221  -12.9535   20.9509 C   0  0  0  0  0  0
   13.4415  -12.3125   20.0601 C   0  0  0  0  0  0
   13.6019  -10.9041   20.1792 C   0  0  0  0  0  0
   12.8963  -10.1712   21.1291 C   0  0  0  0  0  0
   12.0161  -10.8056   21.9936 C   0  0  0  0  0  0
   11.8240  -12.1798   21.9163 C   0  0  0  0  0  0
   21.3588  -15.3388   20.5316 H   0  0  0  0  0  0
   20.9906  -14.8828   22.2025 H   0  0  0  0  0  0
   20.1429  -16.2175   21.4201 H   0  0  0  0  0  0
   20.7420  -13.5275   19.1855 H   0  0  0  0  0  0
   19.0419  -12.0386   18.2481 H   0  0  0  0  0  0
   18.1598  -16.0389   22.4591 H   0  0  0  0  0  0
   16.8134  -15.0315   22.8471 H   0  0  0  0  0  0
   17.9555  -16.1458   24.9571 H   0  0  0  0  0  0
   19.1829  -15.9688   26.8736 H   0  0  0  0  0  0
   18.9277  -14.2509   26.7632 H   0  0  0  0  0  0
   20.8335  -12.8383   26.3725 H   0  0  0  0  0  0
   23.0769  -12.4921   25.5238 H   0  0  0  0  0  0
   23.3556  -16.6909   24.5691 H   0  0  0  0  0  0
   21.1007  -17.0117   25.3886 H   0  0  0  0  0  0
   26.0752  -13.0531   23.7829 H   0  0  0  0  0  0
   26.2890  -15.2367   23.3825 H   0  0  0  0  0  0
   25.0237  -16.2822   23.9207 H   0  0  0  0  0  0
   15.9495  -13.6524   22.2834 H   0  0  0  0  0  0
   16.1541  -11.0497   19.7752 H   0  0  0  0  0  0
   14.4767  -15.1103   18.3609 H   0  0  0  0  0  0
   12.8634  -16.1672   19.8525 H   0  0  0  0  0  0
   11.6291  -14.8347   21.5209 H   0  0  0  0  0  0
   14.2812  -10.3847   19.5296 H   0  0  0  0  0  0
   13.0339   -9.1020   21.1990 H   0  0  0  0  0  0
   11.4683  -10.2303   22.7270 H   0  0  0  0  0  0
   11.1246  -12.6529   22.5905 H   0  0  0  0  0  0
  1  2  1  0  0  0
  1 37  1  0  0  0
  1 38  1  0  0  0
  1 39  1  0  0  0
  2  7  1  0  0  0
  2  3  2  0  0  0
  3  4  1  0  0  0
  3 40  1  0  0  0
  4  5  2  0  0  0
  4 41  1  0  0  0
  5  6  1  0  0  0
  5 23  1  0  0  0
  6  7  2  0  0  0
  6 22  1  0  0  0
  7  8  1  0  0  0
  8  9  1  0  0  0
  8 42  1  0  0  0
  8 43  1  0  0  0
  9 10  2  0  0  0
  9 11  1  0  0  0
 11 12  1  0  0  0
 11 44  1  0  0  0
 12 13  1  0  0  0
 12 45  1  0  0  0
 12 46  1  0  0  0
 13 18  1  0  0  0
 13 14  2  0  0  0
 14 15  1  0  0  0
 14 47  1  0  0  0
 15 16  2  0  0  0
 15 48  1  0  0  0
 16 17  1  0  0  0
 16 19  1  0  0  0
 17 18  2  0  0  0
 17 49  1  0  0  0
 18 50  1  0  0  0
 19 20  2  3  0  0
 19 21  1  0  0  0
 20 51  1  0  0  0
 21 52  1  0  0  0
 21 53  1  0  0  0
 22 54  1  0  0  0
 23 24  1  0  0  0
 23 55  1  0  0  0
 24 25  2  0  0  0
 24 26  2  0  0  0
 24 27  1  0  0  0
 27 32  1  0  0  0
 27 28  2  0  0  0
 28 29  1  0  0  0
 28 56  1  0  0  0
 29 30  2  0  0  0
 29 57  1  0  0  0
 30 31  1  0  0  0
 30 58  1  0  0  0
 31 36  2  0  0  0
 31 32  1  0  0  0
 32 33  2  0  0  0
 33 34  1  0  0  0
 33 59  1  0  0  0
 34 35  2  0  0  0
 34 60  1  0  0  0
 35 36  1  0  0  0
 35 61  1  0  0  0
 36 62  1  0  0  0
M  END
> <s_m_entry_id>
37891

> <s_m_entry_name>
ligand_docking-pose.238

> <s_m_Source_Path>
/home/csk/Desktop/cluster/DUD-E-result/thrb

> <s_m_Source_File>
ligand_docking-pose.sdf

> <i_m_Source_File_Index>
238

> <i_lp_mmshare_version>
53161

> <i_f3d_flags>
0

> <r_lp_tautomer_probability>
1

> <s_lp_Force_Field>
OPLS_2005

> <r_lp_Energy>
12.626088

> <b_lp_Chiralities_Consistent>
1

> <s_lp_Variant>
549315-1

> <s_i_glide_gridfile>
glide-grid_1ype

> <i_i_glide_lignum>
2347

> <i_i_glide_rotatable_bonds>
10

> <r_i_docking_score>
-7.26654556048825

> <r_i_glide_ligand_efficiency>
-0.20184848779134

> <r_i_glide_ligand_efficiency_sa>
-0.666489021190276

> <r_i_glide_ligand_efficiency_ln>
-1.58536392192499

> <r_i_glide_gscore>
-7.26654556048825

> <r_i_glide_lipo>
-3.6453809044659

> <r_i_glide_hbond>
-0.32

> <r_i_glide_metal>
0

> <r_i_glide_rewards>
0.101147195187343

> <r_i_glide_evdw>
-52.1498985290527

> <r_i_glide_ecoul>
-9.34234142303467

> <r_i_glide_erotb>
0.647182938034772

> <r_i_glide_esite>
-0.0406486493366312

> <r_i_glide_emodel>
-80.907694834751

> <r_i_glide_energy>
-61.4922399520874

> <r_i_glide_einternal>
6.63660430908203

> <i_i_glide_confnum>
59

> <i_i_glide_posenum>
299

> <r_i_glide_eff_state_penalty>
0

> <s_user_duplicate_titles>
549315

> <s_m_subgroup_title>
dock_pv

> <s_m_subgroupid>
dock_pv1

> <b_m_subgroup_collapsed>
0

$$$$
292792
                    3D
 Schrodinger Suite 2021-1.
 67 71  0  0  1  0            999 V2000
   10.5276  -15.9536   18.2507 C   0  0  0  0  0  0
   11.6354  -16.9661   17.9260 C   0  0  0  0  0  0
   12.6654  -17.0830   19.0369 C   0  0  0  0  0  0
   12.5482  -17.9582   20.0056 N   0  0  0  0  0  0
   13.6418  -17.7529   20.7991 C   0  0  0  0  0  0
   14.0167  -18.4144   21.9734 C   0  0  0  0  0  0
   15.2055  -18.0255   22.5924 C   0  0  0  0  0  0
   16.0071  -16.9932   22.0968 C   0  0  0  0  0  0
   15.6192  -16.2865   20.9439 C   0  0  0  0  0  0
   14.4476  -16.7045   20.2993 C   0  0  0  0  0  0
   13.7939  -16.2853   19.1541 N   0  0  0  0  0  0
   14.1967  -15.1553   18.3101 C   0  0  0  0  0  0
   14.0977  -13.7992   19.0096 C   0  0  0  0  0  0
   15.0025  -12.7884   18.6899 C   0  0  0  0  0  0
   14.9695  -11.5626   19.3559 C   0  0  0  0  0  0
   14.0300  -11.3338   20.3892 C   0  0  0  0  0  0
   13.9933  -10.1266   21.1206 C   0  0  0  0  0  0
   13.0774   -9.9619   22.1573 C   0  0  0  0  0  0
   12.1636  -10.9691   22.5163 C   0  0  0  0  0  0
   12.1783  -12.1539   21.7607 C   0  0  0  0  0  0
   13.0993  -12.3596   20.7110 C   0  0  0  0  0  0
   13.1315  -13.5747   19.9943 C   0  0  0  0  0  0
   11.2297  -10.7792   23.6633 C   0  0  0  0  0  0
   11.2160   -9.7054   24.3209 N   0  0  0  0  0  0
   10.4175  -11.8530   23.9214 N   0  0  0  0  0  0
   17.1649  -16.7632   22.8181 O   0  0  0  0  0  0
   18.1058  -15.7282   22.5080 C   0  0  0  0  0  0
   18.8777  -15.8832   21.1700 C   0  0  0  0  0  0
   19.8741  -14.7204   20.9292 C   0  0  0  0  0  0
   19.1651  -13.4380   21.0928 N   0  0  0  0  0  0
   18.6850  -13.2596   22.4738 C   0  0  0  0  0  0
   17.5805  -14.2974   22.7543 C   0  0  0  0  0  0
   19.1097  -12.4504   20.1067 C   0  0  0  0  0  0
   19.6767  -12.4467   18.9766 N   0  0  0  0  0  0
   18.2721  -11.2171   20.4227 C   0  0  0  0  0  0
    9.8040  -15.8947   17.4372 H   0  0  0  0  0  0
    9.9883  -16.2485   19.1513 H   0  0  0  0  0  0
   10.9299  -14.9551   18.4146 H   0  0  0  0  0  0
   12.1013  -16.7199   16.9714 H   0  0  0  0  0  0
   11.1650  -17.9349   17.7552 H   0  0  0  0  0  0
   13.4116  -19.2124   22.3736 H   0  0  0  0  0  0
   15.5250  -18.5413   23.4847 H   0  0  0  0  0  0
   16.1855  -15.4636   20.5470 H   0  0  0  0  0  0
   15.2275  -15.3388   18.0008 H   0  0  0  0  0  0
   13.6091  -15.1363   17.3944 H   0  0  0  0  0  0
   15.7542  -12.9522   17.9309 H   0  0  0  0  0  0
   15.6829  -10.7932   19.1109 H   0  0  0  0  0  0
   14.6960   -9.3402   20.8899 H   0  0  0  0  0  0
   13.1028   -9.0323   22.7096 H   0  0  0  0  0  0
   11.4951  -12.9652   21.9740 H   0  0  0  0  0  0
   12.4229  -14.3472   20.2572 H   0  0  0  0  0  0
   10.4872   -9.7381   25.0257 H   0  0  0  0  0  0
    9.6535  -11.7530   24.5928 H   0  0  0  0  0  0
   10.5665  -12.7710   23.5212 H   0  0  0  0  0  0
   18.8571  -15.8897   23.2837 H   0  0  0  0  0  0
   18.2060  -15.9098   20.3199 H   0  0  0  0  0  0
   19.4504  -16.8125   21.1739 H   0  0  0  0  0  0
   20.3880  -14.8085   19.9708 H   0  0  0  0  0  0
   20.6410  -14.7418   21.7062 H   0  0  0  0  0  0
   19.5326  -13.4874   23.1233 H   0  0  0  0  0  0
   18.3971  -12.2419   22.7212 H   0  0  0  0  0  0
   17.2638  -14.1795   23.7917 H   0  0  0  0  0  0
   16.7279  -14.0619   22.1198 H   0  0  0  0  0  0
   20.2195  -13.2844   18.8242 H   0  0  0  0  0  0
   18.8052  -10.5438   21.0942 H   0  0  0  0  0  0
   17.3282  -11.4892   20.8943 H   0  0  0  0  0  0
   18.0138  -10.6531   19.5280 H   0  0  0  0  0  0
  1  2  1  0  0  0
  1 36  1  0  0  0
  1 37  1  0  0  0
  1 38  1  0  0  0
  2  3  1  0  0  0
  2 39  1  0  0  0
  2 40  1  0  0  0
  3 11  1  0  0  0
  3  4  2  0  0  0
  4  5  1  0  0  0
  5 10  2  0  0  0
  5  6  1  0  0  0
  6  7  2  0  0  0
  6 41  1  0  0  0
  7  8  1  0  0  0
  7 42  1  0  0  0
  8  9  2  0  0  0
  8 26  1  0  0  0
  9 10  1  0  0  0
  9 43  1  0  0  0
 10 11  1  0  0  0
 11 12  1  0  0  0
 12 13  1  0  0  0
 12 44  1  0  0  0
 12 45  1  0  0  0
 13 22  1  0  0  0
 13 14  2  0  0  0
 14 15  1  0  0  0
 14 46  1  0  0  0
 15 16  2  0  0  0
 15 47  1  0  0  0
 16 21  1  0  0  0
 16 17  1  0  0  0
 17 18  2  0  0  0
 17 48  1  0  0  0
 18 19  1  0  0  0
 18 49  1  0  0  0
 19 20  2  0  0  0
 19 23  1  0  0  0
 20 21  1  0  0  0
 20 50  1  0  0  0
 21 22  2  0  0  0
 22 51  1  0  0  0
 23 24  2  3  0  0
 23 25  1  0  0  0
 24 52  1  0  0  0
 25 53  1  0  0  0
 25 54  1  0  0  0
 26 27  1  0  0  0
 27 32  1  0  0  0
 27 28  1  0  0  0
 27 55  1  0  0  0
 28 29  1  0  0  0
 28 56  1  0  0  0
 28 57  1  0  0  0
 29 30  1  0  0  0
 29 58  1  0  0  0
 29 59  1  0  0  0
 30 31  1  0  0  0
 30 33  1  0  0  0
 31 32  1  0  0  0
 31 60  1  0  0  0
 31 61  1  0  0  0
 32 62  1  0  0  0
 32 63  1  0  0  0
 33 34  2  3  0  0
 33 35  1  0  0  0
 34 64  1  0  0  0
 35 65  1  0  0  0
 35 66  1  0  0  0
 35 67  1  0  0  0
M  END
> <s_m_entry_id>
37893

> <s_m_entry_name>
ligand_docking-pose.240

> <s_m_Source_Path>
/home/csk/Desktop/cluster/DUD-E-result/thrb

> <s_m_Source_File>
ligand_docking-pose.sdf

> <i_m_Source_File_Index>
240

> <i_lp_mmshare_version>
53161

> <i_f3d_flags>
0

> <r_lp_tautomer_probability>
0.499900269896156

> <s_lp_Force_Field>
OPLS_2005

> <r_lp_Energy>
21.710206

> <b_lp_Chiralities_Consistent>
1

> <s_lp_Variant>
292792-3

> <s_i_glide_gridfile>
glide-grid_1ype

> <i_i_glide_lignum>
3227

> <i_i_glide_rotatable_bonds>
7

> <r_i_docking_score>
-7.26330695619335

> <r_i_glide_ligand_efficiency>
-0.207523055891239

> <r_i_glide_ligand_efficiency_sa>
-0.678821675908732

> <r_i_glide_ligand_efficiency_ln>
-1.59445707729708

> <r_i_glide_gscore>
-7.26330695619335

> <r_i_glide_lipo>
-2.80338337590962

> <r_i_glide_hbond>
-0.206123319414315

> <r_i_glide_metal>
0

> <r_i_glide_rewards>
-0.673622147972273

> <r_i_glide_evdw>
-45.1684188842773

> <r_i_glide_ecoul>
-10.3736410140991

> <r_i_glide_erotb>
0.367814034941001

> <r_i_glide_esite>
-0.13352505150941

> <r_i_glide_emodel>
-75.1349714184703

> <r_i_glide_energy>
-55.5420598983765

> <r_i_glide_einternal>
8.01921463012695

> <i_i_glide_confnum>
1

> <i_i_glide_posenum>
169

> <r_i_glide_eff_state_penalty>
0

> <s_user_duplicate_titles>
292792

> <s_m_subgroup_title>
dock_pv

> <s_m_subgroupid>
dock_pv1

> <b_m_subgroup_collapsed>
0

$$$$
128846
                    3D
 Schrodinger Suite 2021-1.
 59 61  0  0  1  0            999 V2000
   19.2104  -12.7890   19.6032 C   0  0  0  0  0  0
   20.3259  -13.4429   20.1249 C   0  0  0  0  0  0
   20.3142  -13.8668   21.4514 C   0  0  0  0  0  0
   19.1907  -13.6353   22.2484 C   0  0  0  0  0  0
   18.0708  -12.9893   21.7142 C   0  0  0  0  0  0
   18.0819  -12.5613   20.3896 C   0  0  0  0  0  0
   19.1827  -14.0939   23.6987 C   0  0  0  0  0  0
   18.5609  -15.8645   23.9308 S   0  0  0  0  0  0
   18.3744  -16.0701   25.3692 O   0  0  0  0  0  0
   19.4141  -16.7635   23.1464 O   0  0  0  0  0  0
   16.9587  -15.8527   23.2082 N   0  0  1  0  0  0
   16.6225  -16.7917   22.1167 C   0  0  2  0  0  0
   17.2630  -16.5317   20.7627 C   0  0  0  0  0  0
   16.1544  -15.9361   19.9181 C   0  0  0  0  0  0
   14.9311  -16.3019   20.6272 N   0  0  0  0  0  0
   15.1078  -16.7641   21.8876 C   0  0  0  0  0  0
   14.2480  -17.0534   22.7210 O   0  0  0  0  0  0
   13.5978  -16.0668   20.0470 C   0  0  0  0  0  0
   13.1341  -14.5970   20.1453 C   0  0  0  0  0  0
   12.1457  -14.2712   19.4914 O   0  0  0  0  0  0
   13.8103  -13.7333   20.9314 N   0  0  0  0  0  0
   13.5559  -12.2941   21.0958 C   0  0  1  0  0  0
   13.3922  -11.4833   19.7795 C   0  0  0  0  0  0
   13.1833   -9.9849   20.0440 C   0  0  0  0  0  0
   12.1214   -9.7273   21.1141 C   0  0  0  0  0  0
   12.4308  -10.4450   22.3574 N   0  0  0  0  0  0
   12.4940  -11.9091   22.1748 C   0  0  1  0  0  0
   11.2506  -12.5354   21.9214 O   0  0  0  0  0  0
   11.9939   -9.8390   23.5788 C   0  0  0  0  0  0
   12.2563   -8.6555   23.9162 N   0  0  0  0  0  0
   11.1780  -10.6527   24.3838 N   0  0  0  0  0  0
   14.5055  -11.9431   21.5067 H   0  0  0  0  0  0
   19.2187  -12.4682   18.5732 H   0  0  0  0  0  0
   21.1937  -13.6284   19.5071 H   0  0  0  0  0  0
   21.1747  -14.3812   21.8556 H   0  0  0  0  0  0
   17.1954  -12.8199   22.3238 H   0  0  0  0  0  0
   17.2188  -12.0631   19.9743 H   0  0  0  0  0  0
   18.5470  -13.4602   24.3138 H   0  0  0  0  0  0
   20.1859  -14.0569   24.1229 H   0  0  0  0  0  0
   16.1849  -15.5970   23.8347 H   0  0  0  0  0  0
   16.8815  -17.7775   22.5101 H   0  0  0  0  0  0
   17.5929  -17.4791   20.3323 H   0  0  0  0  0  0
   18.1380  -15.8820   20.8011 H   0  0  0  0  0  0
   16.1633  -16.3314   18.9020 H   0  0  0  0  0  0
   16.2507  -14.8530   19.8551 H   0  0  0  0  0  0
   12.8426  -16.7127   20.4993 H   0  0  0  0  0  0
   13.6423  -16.3316   18.9897 H   0  0  0  0  0  0
   14.5585  -14.1222   21.4868 H   0  0  0  0  0  0
   12.5144  -11.8359   19.2380 H   0  0  0  0  0  0
   14.2499  -11.6329   19.1234 H   0  0  0  0  0  0
   12.8326   -9.5066   19.1278 H   0  0  0  0  0  0
   14.1143   -9.4896   20.3212 H   0  0  0  0  0  0
   11.1541  -10.0660   20.7526 H   0  0  0  0  0  0
   12.0332   -8.6530   21.2826 H   0  0  0  0  0  0
   12.8301  -12.3421   23.1196 H   0  0  0  0  0  0
   11.0757  -13.2246   22.5860 H   0  0  0  0  0  0
   11.8397   -8.4202   24.8037 H   0  0  0  0  0  0
   10.6245  -10.2356   25.1219 H   0  0  0  0  0  0
   10.7245  -11.4588   23.9753 H   0  0  0  0  0  0
  1  6  1  0  0  0
  1  2  2  0  0  0
  1 33  1  0  0  0
  2  3  1  0  0  0
  2 34  1  0  0  0
  3  4  2  0  0  0
  3 35  1  0  0  0
  4  5  1  0  0  0
  4  7  1  0  0  0
  5  6  2  0  0  0
  5 36  1  0  0  0
  6 37  1  0  0  0
  7  8  1  0  0  0
  7 38  1  0  0  0
  7 39  1  0  0  0
  8  9  2  0  0  0
  8 10  2  0  0  0
  8 11  1  0  0  0
 11 12  1  0  0  0
 11 40  1  0  0  0
 12 16  1  0  0  0
 12 13  1  0  0  0
 12 41  1  0  0  0
 13 14  1  0  0  0
 13 42  1  0  0  0
 13 43  1  0  0  0
 14 15  1  0  0  0
 14 44  1  0  0  0
 14 45  1  0  0  0
 15 16  1  0  0  0
 15 18  1  0  0  0
 16 17  2  0  0  0
 18 19  1  0  0  0
 18 46  1  0  0  0
 18 47  1  0  0  0
 19 20  2  0  0  0
 19 21  1  0  0  0
 21 22  1  0  0  0
 21 48  1  0  0  0
 22 32  1  0  0  0
 22 27  1  0  0  0
 22 23  1  0  0  0
 23 24  1  0  0  0
 23 49  1  0  0  0
 23 50  1  0  0  0
 24 25  1  0  0  0
 24 51  1  0  0  0
 24 52  1  0  0  0
 25 26  1  0  0  0
 25 53  1  0  0  0
 25 54  1  0  0  0
 26 27  1  0  0  0
 26 29  1  0  0  0
 27 28  1  0  0  0
 27 55  1  0  0  0
 28 56  1  0  0  0
 29 30  2  3  0  0
 29 31  1  0  0  0
 30 57  1  0  0  0
 31 58  1  0  0  0
 31 59  1  0  0  0
M  END
> <s_m_entry_id>
37894

> <s_m_entry_name>
ligand_docking-pose.241

> <s_m_Source_Path>
/home/csk/Desktop/cluster/DUD-E-result/thrb

> <s_m_Source_File>
ligand_docking-pose.sdf

> <i_m_Source_File_Index>
241

> <i_lp_mmshare_version>
53161

> <i_f3d_flags>
0

> <r_lp_tautomer_probability>
1

> <s_lp_Force_Field>
OPLS_2005

> <r_lp_Energy>
20.186608

> <b_lp_Chiralities_Consistent>
1

> <s_lp_Variant>
128846-1

> <s_i_glide_gridfile>
glide-grid_1ype

> <i_i_glide_lignum>
1559

> <i_i_glide_rotatable_bonds>
10

> <r_i_docking_score>
-7.26100245957062

> <r_i_glide_ligand_efficiency>
-0.234225885792601

> <r_i_glide_ligand_efficiency_sa>
-0.735792665075877

> <r_i_glide_ligand_efficiency_ln>
-1.63757857763456

> <r_i_glide_gscore>
-7.26100245957062

> <r_i_glide_lipo>
-2.29955737623977

> <r_i_glide_hbond>
-0.581086423291855

> <r_i_glide_metal>
0

> <r_i_glide_rewards>
-1.42271800310044

> <r_i_glide_evdw>
-42.5711441040039

> <r_i_glide_ecoul>
-9.34041213989258

> <r_i_glide_erotb>
0.685903383839779

> <r_i_glide_esite>
-0.113925014594251

> <r_i_glide_emodel>
-68.1603203401604

> <r_i_glide_energy>
-51.9115562438965

> <r_i_glide_einternal>
13.9751319885254

> <i_i_glide_confnum>
26

> <i_i_glide_posenum>
372

> <r_i_glide_eff_state_penalty>
0

> <s_user_duplicate_titles>
128846

> <s_m_subgroup_title>
dock_pv

> <s_m_subgroupid>
dock_pv1

> <b_m_subgroup_collapsed>
0

$$$$
305561
                    3D
 Schrodinger Suite 2021-1.
 49 52  0  0  1  0            999 V2000
   20.5463  -13.0531   20.7209 C   0  0  0  0  0  0
   19.1995  -13.2142   21.0332 C   0  0  0  0  0  0
   18.2282  -12.8943   20.0887 C   0  0  0  0  0  0
   18.5997  -12.4139   18.8256 C   0  0  0  0  0  0
   19.9576  -12.2531   18.5280 C   0  0  0  0  0  0
   20.9275  -12.5661   19.4747 C   0  0  0  0  0  0
   17.5704  -12.0551   17.7484 C   0  0  0  0  0  0
   16.2785  -12.9091   17.6983 C   0  0  0  0  0  0
   15.2238  -12.6803   18.7832 C   0  0  0  0  0  0
   15.1137  -11.4789   19.4786 C   0  0  0  0  0  0
   14.1321  -11.3100   20.4787 C   0  0  0  0  0  0
   14.0152  -10.0875   21.1725 C   0  0  0  0  0  0
   13.0690   -9.9379   22.1769 C   0  0  0  0  0  0
   12.2031  -10.9773   22.5485 C   0  0  0  0  0  0
   12.2976  -12.1853   21.8338 C   0  0  0  0  0  0
   13.2498  -12.3867   20.7930 C   0  0  0  0  0  0
   13.3549  -13.6131   20.0585 C   0  0  0  0  0  0
   14.3491  -13.7199   19.0794 C   0  0  0  0  0  0
   12.5051  -14.7033   20.3471 N   0  0  0  0  0  0
   12.1588  -15.8585   19.6303 C   0  0  0  0  0  0
   12.4839  -15.9553   18.3155 N   0  0  0  0  0  0
   12.0935  -17.0761   17.6572 C   0  0  0  0  0  0
   11.3903  -18.1006   18.2885 C   0  0  0  0  0  0
   11.1027  -17.9177   19.6406 C   0  0  0  0  0  0
   11.4683  -16.7989   20.3210 N   0  0  0  0  0  0
   11.2407  -10.7835   23.6707 C   0  0  0  0  0  0
   11.2160   -9.7064   24.3210 N   0  0  0  0  0  0
   10.4172  -11.8530   23.9211 N   0  0  0  0  0  0
   21.3014  -13.3050   21.4514 H   0  0  0  0  0  0
   18.9075  -13.5892   22.0029 H   0  0  0  0  0  0
   17.1949  -13.0316   20.3634 H   0  0  0  0  0  0
   20.2702  -11.8889   17.5607 H   0  0  0  0  0  0
   21.9747  -12.4453   19.2381 H   0  0  0  0  0  0
   18.0549  -12.1843   16.7796 H   0  0  0  0  0  0
   17.3343  -10.9938   17.8015 H   0  0  0  0  0  0
   16.5760  -13.9593   17.6999 H   0  0  0  0  0  0
   15.7807  -12.7470   16.7407 H   0  0  0  0  0  0
   15.7798  -10.6532   19.2754 H   0  0  0  0  0  0
   14.6810   -9.2697   20.9343 H   0  0  0  0  0  0
   13.0313   -8.9875   22.6921 H   0  0  0  0  0  0
   11.6366  -13.0038   22.0732 H   0  0  0  0  0  0
   14.4884  -14.6438   18.5450 H   0  0  0  0  0  0
   12.0664  -14.6602   21.2553 H   0  0  0  0  0  0
   12.3440  -17.1328   16.6070 H   0  0  0  0  0  0
   11.0765  -18.9858   17.7556 H   0  0  0  0  0  0
   10.5510  -18.6646   20.1937 H   0  0  0  0  0  0
   10.4763   -9.7357   25.0129 H   0  0  0  0  0  0
    9.6475  -11.7534   24.5839 H   0  0  0  0  0  0
   10.5702  -12.7720   23.5214 H   0  0  0  0  0  0
  1  6  1  0  0  0
  1  2  2  0  0  0
  1 29  1  0  0  0
  2  3  1  0  0  0
  2 30  1  0  0  0
  3  4  2  0  0  0
  3 31  1  0  0  0
  4  5  1  0  0  0
  4  7  1  0  0  0
  5  6  2  0  0  0
  5 32  1  0  0  0
  6 33  1  0  0  0
  7  8  1  0  0  0
  7 34  1  0  0  0
  7 35  1  0  0  0
  8  9  1  0  0  0
  8 36  1  0  0  0
  8 37  1  0  0  0
  9 18  1  0  0  0
  9 10  2  0  0  0
 10 11  1  0  0  0
 10 38  1  0  0  0
 11 16  2  0  0  0
 11 12  1  0  0  0
 12 13  2  0  0  0
 12 39  1  0  0  0
 13 14  1  0  0  0
 13 40  1  0  0  0
 14 15  2  0  0  0
 14 26  1  0  0  0
 15 16  1  0  0  0
 15 41  1  0  0  0
 16 17  1  0  0  0
 17 18  2  0  0  0
 17 19  1  0  0  0
 18 42  1  0  0  0
 19 20  1  0  0  0
 19 43  1  0  0  0
 20 25  1  0  0  0
 20 21  2  0  0  0
 21 22  1  0  0  0
 22 23  2  0  0  0
 22 44  1  0  0  0
 23 24  1  0  0  0
 23 45  1  0  0  0
 24 25  2  0  0  0
 24 46  1  0  0  0
 26 27  2  3  0  0
 26 28  1  0  0  0
 27 47  1  0  0  0
 28 48  1  0  0  0
 28 49  1  0  0  0
M  END
> <s_m_entry_id>
37895

> <s_m_entry_name>
ligand_docking-pose.242

> <s_m_Source_Path>
/home/csk/Desktop/cluster/DUD-E-result/thrb

> <s_m_Source_File>
ligand_docking-pose.sdf

> <i_m_Source_File_Index>
242

> <i_lp_mmshare_version>
53161

> <i_f3d_flags>
0

> <r_lp_tautomer_probability>
0.999999987636

> <s_lp_Force_Field>
OPLS_2005

> <r_lp_Energy>
7.341018

> <b_lp_Chiralities_Consistent>
1

> <s_lp_Variant>
305561-1

> <s_i_glide_gridfile>
glide-grid_1ype

> <i_i_glide_lignum>
868

> <i_i_glide_rotatable_bonds>
6

> <r_i_docking_score>
-7.26077982344566

> <r_i_glide_ligand_efficiency>
-0.259313565123059

> <r_i_glide_ligand_efficiency_sa>
-0.787428711235819

> <r_i_glide_ligand_efficiency_ln>
-1.67600116901038

> <r_i_glide_gscore>
-7.26077982344566

> <r_i_glide_lipo>
-3.02638541120986

> <r_i_glide_hbond>
-0.209428249769603

> <r_i_glide_metal>
0

> <r_i_glide_rewards>
-1.26864941844644

> <r_i_glide_evdw>
-41.6675224304199

> <r_i_glide_ecoul>
-8.34821701049805

> <r_i_glide_erotb>
0.713198463898215

> <r_i_glide_esite>
-0.133906534822273

> <r_i_glide_emodel>
-70.5175482243687

> <r_i_glide_energy>
-50.015739440918

> <r_i_glide_einternal>
4.26499032974243

> <i_i_glide_confnum>
69

> <i_i_glide_posenum>
395

> <r_i_glide_eff_state_penalty>
0

> <s_user_duplicate_titles>
305561

> <s_m_subgroup_title>
dock_pv

> <s_m_subgroupid>
dock_pv1

> <b_m_subgroup_collapsed>
0

$$$$
296995
                    3D
 Schrodinger Suite 2021-1.
 53 57  0  0  1  0            999 V2000
   18.9998  -14.9320   26.3383 C   0  0  0  0  0  0
   19.7133  -13.6029   26.0373 C   0  0  0  0  0  0
   20.9066  -13.7652   25.1089 C   0  0  0  0  0  0
   22.1500  -13.6130   25.5087 N   0  0  0  0  0  0
   22.8923  -13.8542   24.4446 C   0  0  0  0  0  0
   22.1147  -14.1853   23.3472 C   0  0  0  0  0  0
   20.8123  -14.1138   23.7713 N   0  0  0  0  0  0
   19.6555  -14.3233   23.0010 C   0  0  0  0  0  0
   18.8131  -13.2465   22.7295 C   0  0  0  0  0  0
   17.5986  -13.4502   22.0769 C   0  0  0  0  0  0
   17.2266  -14.7333   21.6703 C   0  0  0  0  0  0
   18.1203  -15.8074   21.8566 C   0  0  0  0  0  0
   19.3269  -15.5998   22.5304 C   0  0  0  0  0  0
   17.8366  -17.0441   21.3860 F   0  0  0  0  0  0
   15.9886  -14.8610   21.0223 N   0  0  0  0  0  0
   15.0207  -15.7520   21.3205 C   0  0  0  0  0  0
   15.1117  -16.6509   22.1585 O   0  0  0  0  0  0
   13.8347  -15.6210   20.5122 C   0  0  0  0  0  0
   13.1204  -16.6378   19.9002 C   0  0  0  0  0  0
   12.0430  -16.0443   19.2376 C   0  0  0  0  0  0
   12.0222  -14.7488   19.4720 N   0  0  0  0  0  0
   13.0918  -14.4821   20.2425 N   0  0  0  0  0  0
   13.2466  -13.1594   20.7132 C   0  0  0  0  0  0
   14.2219  -12.3123   20.1655 C   0  0  0  0  0  0
   14.3616  -10.9947   20.6094 C   0  0  0  0  0  0
   13.4759  -10.5603   21.6012 C   0  0  0  0  0  0
   12.4892  -11.3824   22.1636 C   0  0  0  0  0  0
   12.3712  -12.7066   21.7099 C   0  0  0  0  0  0
   11.8529  -10.5277   23.1145 C   0  0  0  0  0  0
   12.3965   -9.3290   23.1285 N   0  0  0  0  0  0
   13.4241   -9.3241   22.1722 O   0  0  0  0  0  0
   10.8173  -10.9043   23.9208 N   0  0  0  0  0  0
   10.9867  -16.7177   18.3821 C   0  0  0  0  0  0
   10.2499  -17.5410   19.1207 F   0  0  0  0  0  0
   10.1630  -15.8457   17.7979 F   0  0  0  0  0  0
   11.5533  -17.4488   17.4252 F   0  0  0  0  0  0
   18.2251  -14.7944   27.0958 H   0  0  0  0  0  0
   19.6975  -15.6815   26.7152 H   0  0  0  0  0  0
   18.5191  -15.3383   25.4476 H   0  0  0  0  0  0
   18.9978  -12.9069   25.6044 H   0  0  0  0  0  0
   20.0245  -13.1534   26.9825 H   0  0  0  0  0  0
   23.9706  -13.7918   24.4818 H   0  0  0  0  0  0
   22.3533  -14.4375   22.3252 H   0  0  0  0  0  0
   19.0766  -12.2557   23.0679 H   0  0  0  0  0  0
   16.9414  -12.6099   21.9176 H   0  0  0  0  0  0
   19.9912  -16.4370   22.7066 H   0  0  0  0  0  0
   15.7628  -14.1525   20.3458 H   0  0  0  0  0  0
   13.3575  -17.6925   19.9116 H   0  0  0  0  0  0
   14.8686  -12.6727   19.3778 H   0  0  0  0  0  0
   15.1103  -10.3312   20.2001 H   0  0  0  0  0  0
   11.6160  -13.3632   22.1176 H   0  0  0  0  0  0
   10.3720  -11.8083   23.8226 H   0  0  0  0  0  0
   10.2850  -10.2443   24.4748 H   0  0  0  0  0  0
  1  2  1  0  0  0
  1 37  1  0  0  0
  1 38  1  0  0  0
  1 39  1  0  0  0
  2  3  1  0  0  0
  2 40  1  0  0  0
  2 41  1  0  0  0
  3  7  1  0  0  0
  3  4  2  0  0  0
  4  5  1  0  0  0
  5  6  2  0  0  0
  5 42  1  0  0  0
  6  7  1  0  0  0
  6 43  1  0  0  0
  7  8  1  0  0  0
  8 13  1  0  0  0
  8  9  2  0  0  0
  9 10  1  0  0  0
  9 44  1  0  0  0
 10 11  2  0  0  0
 10 45  1  0  0  0
 11 12  1  0  0  0
 11 15  1  0  0  0
 12 13  2  0  0  0
 12 14  1  0  0  0
 13 46  1  0  0  0
 15 16  1  0  0  0
 15 47  1  0  0  0
 16 17  2  0  0  0
 16 18  1  0  0  0
 18 22  1  0  0  0
 18 19  2  0  0  0
 19 20  1  0  0  0
 19 48  1  0  0  0
 20 21  2  0  0  0
 20 33  1  0  0  0
 21 22  1  0  0  0
 22 23  1  0  0  0
 23 28  1  0  0  0
 23 24  2  0  0  0
 24 25  1  0  0  0
 24 49  1  0  0  0
 25 26  2  0  0  0
 25 50  1  0  0  0
 26 31  1  0  0  0
 26 27  1  0  0  0
 27 28  2  0  0  0
 27 29  1  0  0  0
 28 51  1  0  0  0
 29 30  2  0  0  0
 29 32  1  0  0  0
 30 31  1  0  0  0
 32 52  1  0  0  0
 32 53  1  0  0  0
 33 34  1  0  0  0
 33 35  1  0  0  0
 33 36  1  0  0  0
M  END
> <s_m_entry_id>
37897

> <s_m_entry_name>
ligand_docking-pose.244

> <s_m_Source_Path>
/home/csk/Desktop/cluster/DUD-E-result/thrb

> <s_m_Source_File>
ligand_docking-pose.sdf

> <i_m_Source_File_Index>
244

> <i_lp_mmshare_version>
53161

> <i_f3d_flags>
0

> <r_lp_tautomer_probability>
1

> <s_lp_Force_Field>
OPLS_2005

> <r_lp_Energy>
36.119789

> <b_lp_Chiralities_Consistent>
1

> <s_lp_Variant>
296995-1

> <s_i_glide_gridfile>
glide-grid_1ype

> <i_i_glide_lignum>
3257

> <i_i_glide_rotatable_bonds>
7

> <r_i_docking_score>
-7.25673127692866

> <r_i_glide_ligand_efficiency>
-0.201575868803574

> <r_i_glide_ligand_efficiency_sa>
-0.665588853127079

> <r_i_glide_ligand_efficiency_ln>
-1.58322271040359

> <r_i_glide_gscore>
-7.25673127692866

> <r_i_glide_lipo>
-3.15840559098898

> <r_i_glide_hbond>
-0.0457315030843489

> <r_i_glide_metal>
0

> <r_i_glide_rewards>
-1.13764419886206

> <r_i_glide_evdw>
-51.1623458862305

> <r_i_glide_ecoul>
-4.29709911346436

> <r_i_glide_erotb>
0.40920252430887

> <r_i_glide_esite>
-0.121470346970963

> <r_i_glide_emodel>
-74.9976540193327

> <r_i_glide_energy>
-55.4594449996948

> <r_i_glide_einternal>
10.6266469955444

> <i_i_glide_confnum>
68

> <i_i_glide_posenum>
12

> <r_i_glide_eff_state_penalty>
0

> <s_user_duplicate_titles>
296995

> <s_m_subgroup_title>
dock_pv

> <s_m_subgroupid>
dock_pv1

> <b_m_subgroup_collapsed>
0

$$$$
133413
                    3D
 Schrodinger Suite 2021-1.
 52 55  0  0  1  0            999 V2000
   21.0422  -11.9111   19.3635 C   0  0  0  0  0  0
   19.8020  -12.4766   20.0060 C   0  0  0  0  0  0
   19.6711  -13.6214   20.7773 C   0  0  0  0  0  0
   18.3495  -13.7140   21.1325 N   0  0  0  0  0  0
   17.7812  -12.6099   20.5446 C   0  0  0  0  0  0
   18.6345  -11.8655   19.8819 N   0  0  0  0  0  0
   17.7335  -14.7011   21.9213 C   0  0  0  0  0  0
   18.3458  -15.1234   23.1050 C   0  0  0  0  0  0
   17.7454  -16.1092   23.8845 C   0  0  0  0  0  0
   16.5347  -16.6714   23.4838 C   0  0  0  0  0  0
   15.8954  -16.2519   22.3143 C   0  0  0  0  0  0
   16.5160  -15.2689   21.5233 C   0  0  0  0  0  0
   14.7095  -16.8951   22.0041 O   0  0  0  0  0  0
   13.7472  -16.4537   21.1132 C   0  0  0  0  0  0
   12.9325  -17.4230   20.5271 C   0  0  0  0  0  0
   11.9922  -17.0436   19.5617 C   0  0  0  0  0  0
   11.8950  -15.6876   19.2308 C   0  0  0  0  0  0
   12.7049  -14.7649   19.8823 C   0  0  0  0  0  0
   13.6201  -15.1253   20.8275 N   0  0  0  0  0  0
   12.5572  -13.4405   19.5324 O   0  0  0  0  0  0
   12.9443  -12.4152   20.3618 C   0  0  0  0  0  0
   12.1964  -12.1296   21.5056 C   0  0  0  0  0  0
   12.4553  -10.9892   22.2919 C   0  0  0  0  0  0
   13.5330  -10.1723   21.9014 C   0  0  0  0  0  0
   14.3151  -10.4807   20.7891 C   0  0  0  0  0  0
   14.0094  -11.5894   20.0065 C   0  0  0  0  0  0
   14.7443  -11.8536   18.8812 O   0  0  0  0  0  0
   11.6162  -10.6278   23.4656 C   0  0  0  0  0  0
   11.6496   -9.4725   23.9636 N   0  0  0  0  0  0
   10.8159  -11.6419   23.9211 N   0  0  0  0  0  0
   11.0941  -18.0667   18.9150 C   0  0  0  0  0  0
   10.9750  -19.2117   19.3465 O   0  0  0  0  0  0
   10.4160  -17.6163   17.8238 O   0  0  0  0  0  0
   21.4177  -11.0535   19.9194 H   0  0  0  0  0  0
   21.8491  -12.6434   19.3358 H   0  0  0  0  0  0
   20.8678  -11.5935   18.3356 H   0  0  0  0  0  0
   20.3878  -14.3655   21.0919 H   0  0  0  0  0  0
   16.7266  -12.4166   20.6712 H   0  0  0  0  0  0
   19.2829  -14.6912   23.4273 H   0  0  0  0  0  0
   18.2163  -16.4358   24.8009 H   0  0  0  0  0  0
   16.0754  -17.4327   24.0961 H   0  0  0  0  0  0
   16.0753  -14.9585   20.5898 H   0  0  0  0  0  0
   13.0554  -18.4606   20.8033 H   0  0  0  0  0  0
   11.1871  -15.3378   18.4937 H   0  0  0  0  0  0
   11.3658  -12.7851   21.7276 H   0  0  0  0  0  0
   13.7825   -9.2875   22.4717 H   0  0  0  0  0  0
   15.1469   -9.8442   20.5247 H   0  0  0  0  0  0
   14.4339  -12.6501   18.4422 H   0  0  0  0  0  0
   10.9893   -9.3960   24.7243 H   0  0  0  0  0  0
   10.0867  -11.4514   24.6019 H   0  0  0  0  0  0
   10.8460  -12.5685   23.5206 H   0  0  0  0  0  0
    9.7542  -18.2563   17.5448 H   0  0  0  0  0  0
  1  2  1  0  0  0
  1 34  1  0  0  0
  1 35  1  0  0  0
  1 36  1  0  0  0
  2  6  1  0  0  0
  2  3  2  0  0  0
  3  4  1  0  0  0
  3 37  1  0  0  0
  4  5  1  0  0  0
  4  7  1  0  0  0
  5  6  2  0  0  0
  5 38  1  0  0  0
  7 12  1  0  0  0
  7  8  2  0  0  0
  8  9  1  0  0  0
  8 39  1  0  0  0
  9 10  2  0  0  0
  9 40  1  0  0  0
 10 11  1  0  0  0
 10 41  1  0  0  0
 11 12  2  0  0  0
 11 13  1  0  0  0
 12 42  1  0  0  0
 13 14  1  0  0  0
 14 19  1  0  0  0
 14 15  2  0  0  0
 15 16  1  0  0  0
 15 43  1  0  0  0
 16 17  2  0  0  0
 16 31  1  0  0  0
 17 18  1  0  0  0
 17 44  1  0  0  0
 18 19  2  0  0  0
 18 20  1  0  0  0
 20 21  1  0  0  0
 21 26  1  0  0  0
 21 22  2  0  0  0
 22 23  1  0  0  0
 22 45  1  0  0  0
 23 24  2  0  0  0
 23 28  1  0  0  0
 24 25  1  0  0  0
 24 46  1  0  0  0
 25 26  2  0  0  0
 25 47  1  0  0  0
 26 27  1  0  0  0
 27 48  1  0  0  0
 28 29  2  3  0  0
 28 30  1  0  0  0
 29 49  1  0  0  0
 30 50  1  0  0  0
 30 51  1  0  0  0
 31 32  2  0  0  0
 31 33  1  0  0  0
 33 52  1  0  0  0
M  END
> <s_m_entry_id>
37898

> <s_m_entry_name>
ligand_docking-pose.245

> <s_m_Source_Path>
/home/csk/Desktop/cluster/DUD-E-result/thrb

> <s_m_Source_File>
ligand_docking-pose.sdf

> <i_m_Source_File_Index>
245

> <i_lp_mmshare_version>
53161

> <i_f3d_flags>
0

> <r_lp_tautomer_probability>
1

> <s_lp_Force_Field>
OPLS_2005

> <r_lp_Energy>
19.193528

> <b_lp_Chiralities_Consistent>
1

> <s_lp_Variant>
133413-1

> <s_i_glide_gridfile>
glide-grid_1ype

> <i_i_glide_lignum>
3104

> <i_i_glide_rotatable_bonds>
9

> <r_i_docking_score>
-7.25520081245158

> <r_i_glide_ligand_efficiency>
-0.21985457007429

> <r_i_glide_ligand_efficiency_sa>
-0.705191080297857

> <r_i_glide_ligand_efficiency_ln>
-1.61351909526988

> <r_i_glide_gscore>
-7.25520081245158

> <r_i_glide_lipo>
-2.65422467126024

> <r_i_glide_hbond>
-0.387076241912597

> <r_i_glide_metal>
0

> <r_i_glide_rewards>
-0.825336739488012

> <r_i_glide_evdw>
-48.5569458007812

> <r_i_glide_ecoul>
-9.94347763061523

> <r_i_glide_erotb>
0.605066834308393

> <r_i_glide_esite>
-0.0742610594677724

> <r_i_glide_emodel>
-75.9140578923673

> <r_i_glide_energy>
-58.5004234313965

> <r_i_glide_einternal>
11.2666549682617

> <i_i_glide_confnum>
14

> <i_i_glide_posenum>
256

> <r_i_glide_eff_state_penalty>
0

> <s_user_duplicate_titles>
133413

> <s_m_subgroup_title>
dock_pv

> <s_m_subgroupid>
dock_pv1

> <b_m_subgroup_collapsed>
0

$$$$
288161
                    3D
 Schrodinger Suite 2021-1.
 52 55  0  0  1  0            999 V2000
   21.6790  -13.5302   24.5200 C   0  0  0  0  0  0
   20.6748  -13.5232   25.4842 C   0  0  0  0  0  0
   19.3721  -13.8530   25.1210 C   0  0  0  0  0  0
   19.0644  -14.1774   23.7953 C   0  0  0  0  0  0
   20.0836  -14.1768   22.8333 C   0  0  0  0  0  0
   21.3888  -13.8530   23.1963 C   0  0  0  0  0  0
   17.6160  -14.5549   23.4678 C   0  0  0  0  0  0
   17.1991  -14.6398   21.9749 C   0  0  0  0  0  0
   15.7996  -15.2816   21.8268 C   0  0  0  0  0  0
   15.4321  -15.4731   20.3482 C   0  0  0  0  0  0
   15.5239  -14.1890   19.6061 N   0  0  2  0  0  0
   16.7694  -13.3910   19.7859 C   0  0  0  0  0  0
   17.1547  -13.2560   21.2772 C   0  0  0  0  0  0
   14.0434  -13.3972   19.0287 S   0  0  0  0  0  0
   12.9906  -14.4126   18.9123 O   0  0  0  0  0  0
   14.4160  -12.5488   17.8895 O   0  0  0  0  0  0
   13.5376  -12.2749   20.3373 C   0  0  0  0  0  0
   14.1524  -11.0282   20.4081 C   0  0  0  0  0  0
   13.7805  -10.0882   21.3619 C   0  0  0  0  0  0
   12.7742  -10.4022   22.2962 C   0  0  0  0  0  0
   12.1634  -11.6925   22.2039 C   0  0  0  0  0  0
   12.5350  -12.6418   21.2427 C   0  0  0  0  0  0
   11.2160  -11.7438   23.1967 N   0  0  0  0  0  0
   11.2160  -10.5678   23.9024 C   0  0  0  0  0  0
   12.1757   -9.6871   23.4119 C   0  0  0  0  0  0
   12.5323   -8.3554   23.9210 C   0  0  0  0  0  0
   13.6160   -7.8530   23.5494 N   0  0  0  0  0  0
   11.5983   -7.7805   24.7210 N   0  0  0  0  0  0
   10.5927  -12.5122   23.4169 H   0  0  0  0  0  0
   22.6911  -13.2779   24.8012 H   0  0  0  0  0  0
   20.9045  -13.2670   26.5086 H   0  0  0  0  0  0
   18.5995  -13.8541   25.8763 H   0  0  0  0  0  0
   19.8865  -14.4302   21.8034 H   0  0  0  0  0  0
   22.1722  -13.8536   22.4526 H   0  0  0  0  0  0
   16.9548  -13.8530   23.9758 H   0  0  0  0  0  0
   17.4387  -15.5217   23.9416 H   0  0  0  0  0  0
   17.8977  -15.2869   21.4420 H   0  0  0  0  0  0
   15.0400  -14.6775   22.3210 H   0  0  0  0  0  0
   15.7687  -16.2424   22.3421 H   0  0  0  0  0  0
   14.4153  -15.8583   20.2722 H   0  0  0  0  0  0
   16.0719  -16.2044   19.8531 H   0  0  0  0  0  0
   17.5616  -13.8530   19.1967 H   0  0  0  0  0  0
   16.6152  -12.4026   19.3535 H   0  0  0  0  0  0
   18.1125  -12.7444   21.3738 H   0  0  0  0  0  0
   16.4505  -12.6004   21.7927 H   0  0  0  0  0  0
   14.9255  -10.7704   19.6979 H   0  0  0  0  0  0
   14.2711   -9.1276   21.3625 H   0  0  0  0  0  0
   12.0534  -13.6087   21.1910 H   0  0  0  0  0  0
   10.5137  -10.4608   24.7210 H   0  0  0  0  0  0
   14.1371   -8.5017   22.9834 H   0  0  0  0  0  0
   11.7726   -6.8695   25.1172 H   0  0  0  0  0  0
   10.7156   -8.2392   24.8950 H   0  0  0  0  0  0
  1  6  1  0  0  0
  1  2  2  0  0  0
  1 30  1  0  0  0
  2  3  1  0  0  0
  2 31  1  0  0  0
  3  4  2  0  0  0
  3 32  1  0  0  0
  4  5  1  0  0  0
  4  7  1  0  0  0
  5  6  2  0  0  0
  5 33  1  0  0  0
  6 34  1  0  0  0
  7  8  1  0  0  0
  7 35  1  0  0  0
  7 36  1  0  0  0
  8 13  1  0  0  0
  8  9  1  0  0  0
  8 37  1  0  0  0
  9 10  1  0  0  0
  9 38  1  0  0  0
  9 39  1  0  0  0
 10 11  1  0  0  0
 10 40  1  0  0  0
 10 41  1  0  0  0
 11 12  1  0  0  0
 11 14  1  0  0  0
 12 13  1  0  0  0
 12 42  1  0  0  0
 12 43  1  0  0  0
 13 44  1  0  0  0
 13 45  1  0  0  0
 14 15  2  0  0  0
 14 16  2  0  0  0
 14 17  1  0  0  0
 17 22  1  0  0  0
 17 18  2  0  0  0
 18 19  1  0  0  0
 18 46  1  0  0  0
 19 20  2  0  0  0
 19 47  1  0  0  0
 20 25  1  0  0  0
 20 21  1  0  0  0
 21 22  2  0  0  0
 21 23  1  0  0  0
 22 48  1  0  0  0
 23 29  1  0  0  0
 23 24  1  0  0  0
 24 25  2  0  0  0
 24 49  1  0  0  0
 25 26  1  0  0  0
 26 27  2  3  0  0
 26 28  1  0  0  0
 27 50  1  0  0  0
 28 51  1  0  0  0
 28 52  1  0  0  0
M  END
> <s_m_entry_id>
37899

> <s_m_entry_name>
ligand_docking-pose.246

> <s_m_Source_Path>
/home/csk/Desktop/cluster/DUD-E-result/thrb

> <s_m_Source_File>
ligand_docking-pose.sdf

> <i_m_Source_File_Index>
246

> <i_lp_mmshare_version>
53161

> <i_f3d_flags>
0

> <r_lp_tautomer_probability>
1

> <s_lp_Force_Field>
OPLS_2005

> <r_lp_Energy>
5.692568

> <b_lp_Chiralities_Consistent>
1

> <s_lp_Variant>
288161-2

> <s_i_glide_gridfile>
glide-grid_1ype

> <i_i_glide_lignum>
850

> <i_i_glide_rotatable_bonds>
5

> <r_i_docking_score>
-7.25383003849458

> <r_i_glide_ligand_efficiency>
-0.259065358517664

> <r_i_glide_ligand_efficiency_sa>
-0.786675009795965

> <r_i_glide_ligand_efficiency_ln>
-1.67439695458911

> <r_i_glide_gscore>
-7.25383003849458

> <r_i_glide_lipo>
-3.15577738978781

> <r_i_glide_hbond>
-0.21850058805823

> <r_i_glide_metal>
0

> <r_i_glide_rewards>
-1.23484555970557

> <r_i_glide_evdw>
-37.9159393310547

> <r_i_glide_ecoul>
-8.02469253540039

> <r_i_glide_erotb>
0.497794526361765

> <r_i_glide_esite>
-0.0430001804419512

> <r_i_glide_emodel>
-64.0416917295887

> <r_i_glide_energy>
-45.9406318664551

> <r_i_glide_einternal>
3.58425617218018

> <i_i_glide_confnum>
2

> <i_i_glide_posenum>
298

> <r_i_glide_eff_state_penalty>
0

> <s_user_duplicate_titles>
288161

> <s_m_subgroup_title>
dock_pv

> <s_m_subgroupid>
dock_pv1

> <b_m_subgroup_collapsed>
0

$$$$
11463
                    3D
 Schrodinger Suite 2021-1.
 76 79  0  0  1  0            999 V2000
   20.4172  -13.5201   26.2137 C   0  0  0  0  0  0
   19.3409  -14.3756   25.9829 C   0  0  0  0  0  0
   19.4594  -15.4099   25.0612 C   0  0  0  0  0  0
   20.6627  -15.5955   24.3781 C   0  0  0  0  0  0
   21.7438  -14.7395   24.6164 C   0  0  0  0  0  0
   21.6197  -13.6981   25.5328 C   0  0  0  0  0  0
   20.8021  -16.7381   23.3781 C   0  0  0  0  0  0
   20.8914  -16.2685   21.9086 C   0  0  1  0  0  0
   21.2655  -17.4239   20.9550 C   0  0  0  0  0  0
   22.5977  -17.8531   21.1641 O   0  0  0  0  0  0
   19.6569  -15.6082   21.4717 N   0  0  0  0  0  0
   19.6617  -14.3631   20.8231 C   0  0  0  0  0  0
   20.7672  -13.9553   20.0661 C   0  0  0  0  0  0
   20.7635  -12.7071   19.4521 C   0  0  0  0  0  0
   19.7196  -11.8527   19.5493 N   0  0  0  0  0  0
   18.6440  -12.2514   20.2718 C   0  0  0  0  0  0
   18.5559  -13.4975   20.9042 C   0  0  0  0  0  0
   17.0200  -13.8847   21.7550 S   0  0  0  0  0  0
   16.5806  -12.6531   22.4097 O   0  0  0  0  0  0
   17.1841  -15.1285   22.5141 O   0  0  0  0  0  0
   15.8665  -14.1888   20.4777 N   0  0  2  0  0  0
   15.1586  -13.0560   19.8215 C   0  0  1  0  0  0
   15.2504  -13.2429   18.3059 C   0  0  0  0  0  0
   15.9644  -12.3124   17.5415 C   0  0  0  0  0  0
   16.1445  -12.5183   16.1755 C   0  0  0  0  0  0
   15.6157  -13.6576   15.5722 C   0  0  0  0  0  0
   14.8935  -14.5821   16.3221 C   0  0  0  0  0  0
   14.7087  -14.3759   17.6860 C   0  0  0  0  0  0
   15.7652  -13.8561   14.2021 N   0  0  0  0  0  0
   13.7071  -12.9721   20.3873 C   0  0  0  0  0  0
   13.1424  -14.0128   20.7393 O   0  0  0  0  0  0
   13.1476  -11.7478   20.6088 N   0  0  0  0  0  0
   13.6174  -10.4995   19.9913 C   0  0  0  0  0  0
   13.9815   -9.5355   21.1458 C   0  0  0  0  0  0
   12.8148   -9.2687   22.1339 C   0  0  0  0  0  0
   12.2838  -10.6539   22.5989 C   0  0  0  0  0  0
   11.9312  -11.5862   21.4210 C   0  0  0  0  0  0
   13.2530   -8.3279   23.3014 C   0  0  0  0  0  0
   12.1926   -7.8535   24.3157 C   0  0  0  0  0  0
   11.3638   -8.8046   24.7210 F   0  0  0  0  0  0
   21.6996  -15.5385   21.8737 H   0  0  0  0  0  0
   15.6892  -12.1483   20.0991 H   0  0  0  0  0  0
   20.3211  -12.7166   26.9296 H   0  0  0  0  0  0
   18.4160  -14.2530   26.5227 H   0  0  0  0  0  0
   18.6176  -16.0648   24.8833 H   0  0  0  0  0  0
   22.6791  -14.8805   24.0942 H   0  0  0  0  0  0
   22.4516  -13.0337   25.7178 H   0  0  0  0  0  0
   19.9867  -17.4537   23.4983 H   0  0  0  0  0  0
   21.7018  -17.2944   23.6455 H   0  0  0  0  0  0
   20.5902  -18.2725   21.0708 H   0  0  0  0  0  0
   21.2191  -17.0852   19.9213 H   0  0  0  0  0  0
   23.1906  -17.1319   20.9224 H   0  0  0  0  0  0
   18.8413  -15.7642   22.0574 H   0  0  0  0  0  0
   21.6159  -14.6049   19.9366 H   0  0  0  0  0  0
   21.6110  -12.3812   18.8662 H   0  0  0  0  0  0
   17.8392  -11.5349   20.3415 H   0  0  0  0  0  0
   15.4061  -15.1020   20.4688 H   0  0  0  0  0  0
   16.3985  -11.4385   18.0051 H   0  0  0  0  0  0
   16.6922  -11.7946   15.5909 H   0  0  0  0  0  0
   14.4647  -15.4576   15.8537 H   0  0  0  0  0  0
   14.1598  -15.1067   18.2626 H   0  0  0  0  0  0
   15.0874  -14.4808   13.7774 H   0  0  0  0  0  0
   16.0764  -13.0736   13.6486 H   0  0  0  0  0  0
   12.7849  -10.0858   19.4207 H   0  0  0  0  0  0
   14.4251  -10.6533   19.2782 H   0  0  0  0  0  0
   14.3723   -8.6038   20.7432 H   0  0  0  0  0  0
   14.8158   -9.9587   21.6907 H   0  0  0  0  0  0
   12.0146   -8.7881   21.5673 H   0  0  0  0  0  0
   13.0186  -11.1513   23.2291 H   0  0  0  0  0  0
   11.4038  -10.5472   23.2308 H   0  0  0  0  0  0
   11.2164  -11.0669   20.7952 H   0  0  0  0  0  0
   11.4654  -12.5260   21.7253 H   0  0  0  0  0  0
   13.7825   -7.4533   22.9308 H   0  0  0  0  0  0
   14.0158   -8.8132   23.8758 H   0  0  0  0  0  0
   11.5743   -7.0524   23.9211 H   0  0  0  0  0  0
   12.6719   -7.4502   25.2077 H   0  0  0  0  0  0
  1  6  1  0  0  0
  1  2  2  0  0  0
  1 43  1  0  0  0
  2  3  1  0  0  0
  2 44  1  0  0  0
  3  4  2  0  0  0
  3 45  1  0  0  0
  4  5  1  0  0  0
  4  7  1  0  0  0
  5  6  2  0  0  0
  5 46  1  0  0  0
  6 47  1  0  0  0
  7  8  1  0  0  0
  7 48  1  0  0  0
  7 49  1  0  0  0
  8 41  1  0  0  0
  8  9  1  0  0  0
  8 11  1  0  0  0
  9 10  1  0  0  0
  9 50  1  0  0  0
  9 51  1  0  0  0
 10 52  1  0  0  0
 11 12  1  0  0  0
 11 53  1  0  0  0
 12 17  1  0  0  0
 12 13  2  0  0  0
 13 14  1  0  0  0
 13 54  1  0  0  0
 14 15  2  0  0  0
 14 55  1  0  0  0
 15 16  1  0  0  0
 16 17  2  0  0  0
 16 56  1  0  0  0
 17 18  1  0  0  0
 18 19  2  0  0  0
 18 20  2  0  0  0
 18 21  1  0  0  0
 21 22  1  0  0  0
 21 57  1  0  0  0
 22 42  1  0  0  0
 22 23  1  0  0  0
 22 30  1  0  0  0
 23 28  1  0  0  0
 23 24  2  0  0  0
 24 25  1  0  0  0
 24 58  1  0  0  0
 25 26  2  0  0  0
 25 59  1  0  0  0
 26 27  1  0  0  0
 26 29  1  0  0  0
 27 28  2  0  0  0
 27 60  1  0  0  0
 28 61  1  0  0  0
 29 62  1  0  0  0
 29 63  1  0  0  0
 30 31  2  0  0  0
 30 32  1  0  0  0
 32 37  1  0  0  0
 32 33  1  0  0  0
 33 34  1  0  0  0
 33 64  1  0  0  0
 33 65  1  0  0  0
 34 35  1  0  0  0
 34 66  1  0  0  0
 34 67  1  0  0  0
 35 36  1  0  0  0
 35 38  1  0  0  0
 35 68  1  0  0  0
 36 37  1  0  0  0
 36 69  1  0  0  0
 36 70  1  0  0  0
 37 71  1  0  0  0
 37 72  1  0  0  0
 38 39  1  0  0  0
 38 73  1  0  0  0
 38 74  1  0  0  0
 39 40  1  0  0  0
 39 75  1  0  0  0
 39 76  1  0  0  0
M  END
> <s_m_entry_id>
37901

> <s_m_entry_name>
ligand_docking-pose.248

> <s_m_Source_Path>
/home/csk/Desktop/cluster/DUD-E-result/thrb

> <s_m_Source_File>
ligand_docking-pose.sdf

> <i_m_Source_File_Index>
248

> <i_lp_mmshare_version>
53161

> <i_f3d_flags>
0

> <r_lp_tautomer_probability>
0.999999106000799

> <s_lp_Force_Field>
OPLS_2005

> <r_lp_Energy>
47.356998

> <b_lp_Chiralities_Consistent>
1

> <s_lp_Variant>
11463-1

> <s_i_glide_gridfile>
glide-grid_1ype

> <i_i_glide_lignum>
1137

> <i_i_glide_rotatable_bonds>
14

> <r_i_docking_score>
-7.25101972522464

> <r_i_glide_ligand_efficiency>
-0.181275493130616

> <r_i_glide_ligand_efficiency_sa>
-0.619953465188309

> <r_i_glide_ligand_efficiency_ln>
-1.54642911940565

> <r_i_glide_gscore>
-7.25101972522464

> <r_i_glide_lipo>
-3.94270273789347

> <r_i_glide_hbond>
-0.325628642161664

> <r_i_glide_metal>
0

> <r_i_glide_rewards>
-0.342976681919237

> <r_i_glide_evdw>
-47.7178039550781

> <r_i_glide_ecoul>
-5.15749740600586

> <r_i_glide_erotb>
0.61688114323545

> <r_i_glide_esite>
-0.0970779978309346

> <r_i_glide_emodel>
-61.9231792291165

> <r_i_glide_energy>
-52.875301361084

> <r_i_glide_einternal>
14.6684284210205

> <i_i_glide_confnum>
46

> <i_i_glide_posenum>
132

> <r_i_glide_eff_state_penalty>
0

> <s_user_duplicate_titles>
11463

> <s_m_subgroup_title>
dock_pv

> <s_m_subgroupid>
dock_pv1

> <b_m_subgroup_collapsed>
0

$$$$
297289
                    3D
 Schrodinger Suite 2021-1.
 74 77  0  0  1  0            999 V2000
   21.6981  -16.5143   22.7983 C   0  0  0  0  0  0
   20.7155  -15.5231   22.3690 N   0  0  1  0  0  0
   20.0309  -14.7052   23.3925 C   0  0  0  0  0  0
   20.9970  -13.6490   24.0307 C   0  0  0  0  0  0
   20.4514  -12.9013   25.2655 C   0  0  0  0  0  0
   20.0124  -13.8848   26.3591 C   0  0  0  0  0  0
   18.9701  -14.8854   25.8372 C   0  0  0  0  0  0
   19.4678  -15.6113   24.5604 C   0  0  0  0  0  0
   18.8329  -13.9353   22.6947 C   0  0  0  0  0  0
   17.7463  -13.8537   23.2746 O   0  0  0  0  0  0
   18.9479  -13.3577   21.4625 N   0  0  0  0  0  0
   20.1503  -13.1966   20.6401 C   0  0  0  0  0  0
   19.8535  -11.9923   19.7594 C   0  0  0  0  0  0
   18.3694  -12.1532   19.4781 C   0  0  0  0  0  0
   17.7744  -12.7975   20.7500 C   0  0  1  0  0  0
   16.7162  -13.8539   20.3730 C   0  0  0  0  0  0
   17.0530  -15.0179   20.1650 O   0  0  0  0  0  0
   15.4621  -13.4032   20.2215 N   0  0  0  0  0  0
   14.3774  -14.1424   19.5527 C   0  0  2  0  0  0
   14.6570  -14.3812   18.0350 C   0  0  0  0  0  0
   14.9571  -13.1140   17.1960 C   0  0  0  0  0  0
   15.7212  -13.4194   15.8923 C   0  0  0  0  0  0
   16.1981  -12.1760   15.2958 N   0  0  0  0  0  0
   16.0155  -11.9340   14.0615 C   0  0  0  0  0  0
   16.2270  -10.6533   13.5256 N   0  0  0  0  0  0
   15.6160  -12.8454   13.0623 N   0  0  0  0  0  0
   13.0120  -13.4747   19.7993 C   0  0  0  0  0  0
   12.0177  -13.9475   19.2467 O   0  0  0  0  0  0
   12.8183  -12.3547   20.7267 C   0  0  0  0  0  0
   11.9593  -12.3527   21.7101 N   0  0  0  0  0  0
   12.0043  -11.2022   22.4310 C   0  0  0  0  0  0
   11.2172  -10.9234   23.5579 C   0  0  0  0  0  0
   11.4482   -9.7301   24.2424 C   0  0  0  0  0  0
   12.4122   -8.8153   23.8089 C   0  0  0  0  0  0
   13.1717   -9.0528   22.6635 C   0  0  0  0  0  0
   12.9537  -10.2514   21.9742 C   0  0  0  0  0  0
   13.7136  -10.8583   20.5149 S   0  0  0  0  0  0
   17.3313  -12.0251   21.3827 H   0  0  0  0  0  0
   22.2381  -16.8853   21.9265 H   0  0  0  0  0  0
   22.4318  -16.1045   23.4929 H   0  0  0  0  0  0
   21.2188  -17.3807   23.2533 H   0  0  0  0  0  0
   21.1499  -14.9242   21.6803 H   0  0  0  0  0  0
   21.9789  -14.0835   24.2185 H   0  0  0  0  0  0
   21.2671  -12.8975   23.2930 H   0  0  0  0  0  0
   21.2170  -12.2415   25.6693 H   0  0  0  0  0  0
   19.6171  -12.2577   24.9838 H   0  0  0  0  0  0
   20.8853  -14.4278   26.7233 H   0  0  0  0  0  0
   19.6162  -13.3340   27.2135 H   0  0  0  0  0  0
   18.7462  -15.6175   26.6143 H   0  0  0  0  0  0
   18.0294  -14.3676   25.6545 H   0  0  0  0  0  0
   18.6560  -16.2222   24.1631 H   0  0  0  0  0  0
   20.1738  -16.3915   24.8386 H   0  0  0  0  0  0
   20.2688  -14.0876   20.0219 H   0  0  0  0  0  0
   21.0736  -13.0504   21.1953 H   0  0  0  0  0  0
   20.4674  -11.9572   18.8583 H   0  0  0  0  0  0
   20.0248  -11.0743   20.3212 H   0  0  0  0  0  0
   18.2441  -12.8106   18.6149 H   0  0  0  0  0  0
   17.8880  -11.2056   19.2312 H   0  0  0  0  0  0
   15.2625  -12.4418   20.4544 H   0  0  0  0  0  0
   14.3006  -15.1221   20.0306 H   0  0  0  0  0  0
   15.5151  -15.0514   17.9647 H   0  0  0  0  0  0
   13.8389  -14.9410   17.5773 H   0  0  0  0  0  0
   14.0168  -12.6171   16.9595 H   0  0  0  0  0  0
   15.5406  -12.4065   17.7879 H   0  0  0  0  0  0
   16.5957  -14.0278   16.1294 H   0  0  0  0  0  0
   15.0876  -14.0259   15.2397 H   0  0  0  0  0  0
   16.3156   -9.9062   14.1968 H   0  0  0  0  0  0
   15.6232  -10.3683   12.7679 H   0  0  0  0  0  0
   15.2531  -13.7343   13.3782 H   0  0  0  0  0  0
   15.0336  -12.4968   12.3173 H   0  0  0  0  0  0
   10.4648  -11.6210   23.9030 H   0  0  0  0  0  0
   10.8551   -9.5103   25.1198 H   0  0  0  0  0  0
   12.5652   -7.9073   24.3734 H   0  0  0  0  0  0
   13.9152   -8.3424   22.3319 H   0  0  0  0  0  0
  1  2  1  0  0  0
  1 39  1  0  0  0
  1 40  1  0  0  0
  1 41  1  0  0  0
  2  3  1  0  0  0
  2 42  1  0  0  0
  3  8  1  0  0  0
  3  4  1  0  0  0
  3  9  1  0  0  0
  4  5  1  0  0  0
  4 43  1  0  0  0
  4 44  1  0  0  0
  5  6  1  0  0  0
  5 45  1  0  0  0
  5 46  1  0  0  0
  6  7  1  0  0  0
  6 47  1  0  0  0
  6 48  1  0  0  0
  7  8  1  0  0  0
  7 49  1  0  0  0
  7 50  1  0  0  0
  8 51  1  0  0  0
  8 52  1  0  0  0
  9 10  2  0  0  0
  9 11  1  0  0  0
 11 15  1  0  0  0
 11 12  1  0  0  0
 12 13  1  0  0  0
 12 53  1  0  0  0
 12 54  1  0  0  0
 13 14  1  0  0  0
 13 55  1  0  0  0
 13 56  1  0  0  0
 14 15  1  0  0  0
 14 57  1  0  0  0
 14 58  1  0  0  0
 15 38  1  0  0  0
 15 16  1  0  0  0
 16 17  2  0  0  0
 16 18  1  0  0  0
 18 19  1  0  0  0
 18 59  1  0  0  0
 19 20  1  0  0  0
 19 27  1  0  0  0
 19 60  1  0  0  0
 20 21  1  0  0  0
 20 61  1  0  0  0
 20 62  1  0  0  0
 21 22  1  0  0  0
 21 63  1  0  0  0
 21 64  1  0  0  0
 22 23  1  0  0  0
 22 65  1  0  0  0
 22 66  1  0  0  0
 23 24  2  3  0  0
 24 25  1  0  0  0
 24 26  1  0  0  0
 25 67  1  0  0  0
 25 68  1  0  0  0
 26 69  1  0  0  0
 26 70  1  0  0  0
 27 28  2  0  0  0
 27 29  1  0  0  0
 29 37  1  0  0  0
 29 30  2  0  0  0
 30 31  1  0  0  0
 31 36  2  0  0  0
 31 32  1  0  0  0
 32 33  2  0  0  0
 32 71  1  0  0  0
 33 34  1  0  0  0
 33 72  1  0  0  0
 34 35  2  0  0  0
 34 73  1  0  0  0
 35 36  1  0  0  0
 35 74  1  0  0  0
 36 37  1  0  0  0
M  END
> <s_m_entry_id>
37902

> <s_m_entry_name>
ligand_docking-pose.249

> <s_m_Source_Path>
/home/csk/Desktop/cluster/DUD-E-result/thrb

> <s_m_Source_File>
ligand_docking-pose.sdf

> <i_m_Source_File_Index>
249

> <i_lp_mmshare_version>
53161

> <i_f3d_flags>
0

> <r_lp_tautomer_probability>
0.99990000499975

> <s_lp_Force_Field>
OPLS_2005

> <r_lp_Energy>
40.808051

> <b_lp_Chiralities_Consistent>
1

> <s_lp_Variant>
297289-1

> <s_i_glide_gridfile>
glide-grid_1ype

> <i_i_glide_lignum>
4321

> <i_i_glide_rotatable_bonds>
12

> <r_i_docking_score>
-7.24898071338743

> <r_i_glide_ligand_efficiency>
-0.19591839765912

> <r_i_glide_ligand_efficiency_sa>
-0.652843565033392

> <r_i_glide_ligand_efficiency_ln>
-1.57213397651453

> <r_i_glide_gscore>
-7.24898071338743

> <r_i_glide_lipo>
-3.62737832878442

> <r_i_glide_hbond>
0

> <r_i_glide_metal>
0

> <r_i_glide_rewards>
-0.754567903635213

> <r_i_glide_evdw>
-55.0979843139648

> <r_i_glide_ecoul>
-4.95978403091431

> <r_i_glide_erotb>
0.739694677346535

> <r_i_glide_esite>
-0.107862337978944

> <r_i_glide_emodel>
-77.6977294998079

> <r_i_glide_energy>
-60.0577683448792

> <r_i_glide_einternal>
17.4206523895264

> <i_i_glide_confnum>
134

> <i_i_glide_posenum>
179

> <r_i_glide_eff_state_penalty>
0

> <s_user_duplicate_titles>
297289

> <s_m_subgroup_title>
dock_pv

> <s_m_subgroupid>
dock_pv1

> <b_m_subgroup_collapsed>
0

$$$$
51990
                    3D
 Schrodinger Suite 2021-1.
 63 65  0  0  1  0            999 V2000
   20.7200  -12.6848   18.7868 C   0  0  0  0  0  0
   20.0994  -13.2638   20.0545 C   0  0  0  0  0  0
   20.8250  -13.3311   21.1870 C   0  0  0  0  0  0
   20.1949  -13.8537   22.3741 C   0  0  0  0  0  0
   18.9490  -14.3703   22.3094 C   0  0  0  0  0  0
   18.1759  -14.3768   21.0556 C   0  0  0  0  0  0
   17.0401  -14.8592   20.9876 O   0  0  0  0  0  0
   18.7793  -13.7224   19.9841 N   0  0  0  0  0  0
   17.8943  -13.4529   18.8134 C   0  0  0  0  0  0
   17.1456  -12.1156   18.9397 C   0  0  0  0  0  0
   16.8158  -11.5056   17.9235 O   0  0  0  0  0  0
   16.8803  -11.6822   20.1780 N   0  0  0  0  0  0
   16.1614  -10.4830   20.5408 C   0  0  0  0  0  0
   14.6323  -10.6521   20.6623 C   0  0  0  0  0  0
   14.1637  -11.9399   21.3879 C   0  0  0  0  0  0
   12.6395  -11.9703   21.6574 C   0  0  0  0  0  0
   12.2426  -10.7318   22.3489 N   0  0  0  0  0  0
   12.4908   -9.5469   21.5200 C   0  0  0  0  0  0
   14.0054   -9.4084   21.3203 C   0  0  0  0  0  0
   11.4244  -10.6554   23.5208 C   0  0  0  0  0  0
   11.2162   -9.6084   24.1827 N   0  0  0  0  0  0
   10.8159  -11.8530   23.9213 N   0  0  0  0  0  0
   18.2711  -14.7991   23.4734 N   0  0  0  0  0  0
   18.0767  -16.5130   23.8800 S   0  0  0  0  0  0
   16.9812  -16.6079   24.8505 O   0  0  0  0  0  0
   18.0345  -17.2939   22.6381 O   0  0  0  0  0  0
   19.6710  -16.9574   24.8162 C   0  0  0  0  0  0
   20.4505  -15.7507   25.3245 C   0  0  0  0  0  0
   21.7898  -15.5897   24.9564 C   0  0  0  0  0  0
   22.4800  -14.4389   25.3284 C   0  0  0  0  0  0
   21.8218  -13.4528   26.0572 C   0  0  0  0  0  0
   20.5005  -13.6213   26.4620 C   0  0  0  0  0  0
   19.8192  -14.7851   26.1168 C   0  0  0  0  0  0
   21.7271  -12.3091   18.9700 H   0  0  0  0  0  0
   20.8019  -13.4510   18.0150 H   0  0  0  0  0  0
   20.1319  -11.8516   18.4024 H   0  0  0  0  0  0
   21.8512  -12.9925   21.2206 H   0  0  0  0  0  0
   20.7157  -13.7879   23.3152 H   0  0  0  0  0  0
   17.1723  -14.2529   18.6414 H   0  0  0  0  0  0
   18.5062  -13.4320   17.9210 H   0  0  0  0  0  0
   17.1676  -12.2659   20.9507 H   0  0  0  0  0  0
   16.4161   -9.6253   19.9262 H   0  0  0  0  0  0
   16.5791  -10.2532   21.5174 H   0  0  0  0  0  0
   14.2043  -10.7112   19.6599 H   0  0  0  0  0  0
   14.6741  -12.0255   22.3429 H   0  0  0  0  0  0
   14.4816  -12.8296   20.8417 H   0  0  0  0  0  0
   12.3961  -12.8619   22.2370 H   0  0  0  0  0  0
   12.0859  -12.0412   20.7192 H   0  0  0  0  0  0
   12.0832   -8.6450   21.9724 H   0  0  0  0  0  0
   11.9858   -9.6730   20.5611 H   0  0  0  0  0  0
   14.2512   -8.5376   20.7210 H   0  0  0  0  0  0
   14.4506   -9.1987   22.2934 H   0  0  0  0  0  0
   10.5538   -9.7785   24.9310 H   0  0  0  0  0  0
   10.1188  -11.8604   24.6564 H   0  0  0  0  0  0
   10.8795  -12.7191   23.4009 H   0  0  0  0  0  0
   18.5332  -14.2743   24.3120 H   0  0  0  0  0  0
   19.3915  -17.6164   25.6392 H   0  0  0  0  0  0
   20.2727  -17.5423   24.1190 H   0  0  0  0  0  0
   22.2922  -16.3381   24.3611 H   0  0  0  0  0  0
   23.5109  -14.3026   25.0369 H   0  0  0  0  0  0
   22.3453  -12.5482   26.3207 H   0  0  0  0  0  0
   20.0120  -12.8551   27.0471 H   0  0  0  0  0  0
   18.7919  -14.9127   26.4298 H   0  0  0  0  0  0
  1  2  1  0  0  0
  1 34  1  0  0  0
  1 35  1  0  0  0
  1 36  1  0  0  0
  2  8  1  0  0  0
  2  3  2  0  0  0
  3  4  1  0  0  0
  3 37  1  0  0  0
  4  5  2  0  0  0
  4 38  1  0  0  0
  5  6  1  0  0  0
  5 23  1  0  0  0
  6  7  2  0  0  0
  6  8  1  0  0  0
  8  9  1  0  0  0
  9 10  1  0  0  0
  9 39  1  0  0  0
  9 40  1  0  0  0
 10 11  2  0  0  0
 10 12  1  0  0  0
 12 13  1  0  0  0
 12 41  1  0  0  0
 13 14  1  0  0  0
 13 42  1  0  0  0
 13 43  1  0  0  0
 14 19  1  0  0  0
 14 15  1  0  0  0
 14 44  1  0  0  0
 15 16  1  0  0  0
 15 45  1  0  0  0
 15 46  1  0  0  0
 16 17  1  0  0  0
 16 47  1  0  0  0
 16 48  1  0  0  0
 17 18  1  0  0  0
 17 20  1  0  0  0
 18 19  1  0  0  0
 18 49  1  0  0  0
 18 50  1  0  0  0
 19 51  1  0  0  0
 19 52  1  0  0  0
 20 21  2  3  0  0
 20 22  1  0  0  0
 21 53  1  0  0  0
 22 54  1  0  0  0
 22 55  1  0  0  0
 23 24  1  0  0  0
 23 56  1  0  0  0
 24 25  2  0  0  0
 24 26  2  0  0  0
 24 27  1  0  0  0
 27 28  1  0  0  0
 27 57  1  0  0  0
 27 58  1  0  0  0
 28 33  1  0  0  0
 28 29  2  0  0  0
 29 30  1  0  0  0
 29 59  1  0  0  0
 30 31  2  0  0  0
 30 60  1  0  0  0
 31 32  1  0  0  0
 31 61  1  0  0  0
 32 33  2  0  0  0
 32 62  1  0  0  0
 33 63  1  0  0  0
M  END
> <s_m_entry_id>
37903

> <s_m_entry_name>
ligand_docking-pose.250

> <s_m_Source_Path>
/home/csk/Desktop/cluster/DUD-E-result/thrb

> <s_m_Source_File>
ligand_docking-pose.sdf

> <i_m_Source_File_Index>
250

> <i_lp_mmshare_version>
53161

> <i_f3d_flags>
0

> <r_lp_tautomer_probability>
1

> <s_lp_Force_Field>
OPLS_2005

> <r_lp_Energy>
24.178997

> <b_lp_Chiralities_Consistent>
1

> <s_lp_Variant>
51990-1

> <s_i_glide_gridfile>
glide-grid_1ype

> <i_i_glide_lignum>
2780

> <i_i_glide_rotatable_bonds>
10

> <r_i_docking_score>
-7.24782845137118

> <r_i_glide_ligand_efficiency>
-0.219631165193066

> <r_i_glide_ligand_efficiency_sa>
-0.704474501472677

> <r_i_glide_ligand_efficiency_ln>
-1.61187952033764

> <r_i_glide_gscore>
-7.24782845137118

> <r_i_glide_lipo>
-3.42862007407553

> <r_i_glide_hbond>
-0.412125693247875

> <r_i_glide_metal>
0

> <r_i_glide_rewards>
-0.965726203455327

> <r_i_glide_evdw>
-44.6685447692871

> <r_i_glide_ecoul>
-5.69796133041382

> <r_i_glide_erotb>
0.718787438650278

> <r_i_glide_esite>
-0.0720224812162996

> <r_i_glide_emodel>
-64.742497788177

> <r_i_glide_energy>
-50.3665060997009

> <r_i_glide_einternal>
15.1658115386963

> <i_i_glide_confnum>
6

> <i_i_glide_posenum>
152

> <r_i_glide_eff_state_penalty>
0

> <s_user_duplicate_titles>
51990

> <s_m_subgroup_title>
dock_pv

> <s_m_subgroupid>
dock_pv1

> <b_m_subgroup_collapsed>
0

$$$$
192533
                    3D
 Schrodinger Suite 2021-1.
 54 56  0  0  1  0            999 V2000
   24.1094  -16.9132   25.9457 C   0  0  0  0  0  0
   25.2808  -16.3772   25.4144 C   0  0  0  0  0  0
   25.2161  -15.1699   24.7198 C   0  0  0  0  0  0
   24.0373  -14.5344   24.5725 N   0  3  0  0  0  0
   24.0580  -13.4483   23.9323 O   0  5  0  0  0  0
   22.8655  -15.0287   25.0599 C   0  0  0  0  0  0
   22.8995  -16.2427   25.7672 C   0  0  0  0  0  0
   21.5442  -14.2845   24.8050 C   0  0  0  0  0  0
   21.2814  -14.0710   23.2918 C   0  0  0  0  0  0
   19.8890  -13.7824   22.9400 N   0  0  0  0  0  0
   19.4600  -13.3984   21.6754 C   0  0  0  0  0  0
   17.9760  -13.2867   21.5040 C   0  0  0  0  0  0
   17.1729  -13.4954   22.4246 O   0  0  0  0  0  0
   17.5917  -12.9324   20.2170 N   0  0  0  0  0  0
   18.5563  -12.6541   19.2508 C   0  0  0  0  0  0
   19.8798  -12.7747   19.5248 C   0  0  0  0  0  0
   20.3371  -13.1745   20.7499 N   0  0  0  0  0  0
   18.0019  -12.1290   17.6520 Cl  0  0  0  0  0  0
   16.1341  -12.9043   19.9513 C   0  0  0  0  0  0
   15.5252  -11.5327   20.2864 C   0  0  0  0  0  0
   16.2112  -10.5949   20.6867 O   0  0  0  0  0  0
   14.2010  -11.4500   20.1131 N   0  0  0  0  0  0
   13.3669  -10.2921   20.4262 C   0  0  0  0  0  0
   12.6619  -10.3522   21.7839 C   0  0  0  0  0  0
   12.7320   -9.2246   22.6110 C   0  0  0  0  0  0
   12.0161   -9.1641   23.8019 C   0  0  0  0  0  0
   11.2494  -10.2529   24.2080 C   0  0  0  0  0  0
   11.2162  -11.4056   23.4273 C   0  0  0  0  0  0
   11.9141  -11.4692   22.2158 C   0  0  0  0  0  0
   11.8079  -12.7479   21.3992 C   0  0  0  0  0  0
   12.8160  -13.7068   21.8185 N   0  0  0  0  0  0
   12.0498   -7.7140   24.7351 Cl  0  0  0  0  0  0
   21.5928  -13.1242   25.4597 F   0  0  0  0  0  0
   20.5360  -14.9765   25.3486 F   0  0  0  0  0  0
   24.1398  -17.8432   26.4948 H   0  0  0  0  0  0
   26.2299  -16.8785   25.5492 H   0  0  0  0  0  0
   26.0723  -14.6806   24.2801 H   0  0  0  0  0  0
   21.9979  -16.6755   26.1767 H   0  0  0  0  0  0
   21.5894  -14.9594   22.7362 H   0  0  0  0  0  0
   21.9070  -13.2572   22.9228 H   0  0  0  0  0  0
   19.1860  -14.0584   23.6149 H   0  0  0  0  0  0
   20.6267  -12.5633   18.7721 H   0  0  0  0  0  0
   15.6117  -13.6626   20.5406 H   0  0  0  0  0  0
   15.9263  -13.1535   18.9117 H   0  0  0  0  0  0
   13.7056  -12.3007   19.8839 H   0  0  0  0  0  0
   12.5928  -10.2140   19.6622 H   0  0  0  0  0  0
   13.9492   -9.3705   20.3569 H   0  0  0  0  0  0
   13.3172   -8.3666   22.3207 H   0  0  0  0  0  0
   10.6733  -10.2123   25.1206 H   0  0  0  0  0  0
   10.6142  -12.2425   23.7552 H   0  0  0  0  0  0
   10.8167  -13.1826   21.5242 H   0  0  0  0  0  0
   11.8972  -12.5448   20.3331 H   0  0  0  0  0  0
   13.5877  -13.2120   22.2485 H   0  0  0  0  0  0
   12.3953  -14.2529   22.5651 H   0  0  0  0  0  0
  1  7  1  0  0  0
  1  2  2  0  0  0
  1 35  1  0  0  0
  2  3  1  0  0  0
  2 36  1  0  0  0
  3  4  2  0  0  0
  3 37  1  0  0  0
  4  5  1  0  0  0
  4  6  1  0  0  0
  6  7  2  0  0  0
  6  8  1  0  0  0
  7 38  1  0  0  0
  8  9  1  0  0  0
  8 33  1  0  0  0
  8 34  1  0  0  0
  9 10  1  0  0  0
  9 39  1  0  0  0
  9 40  1  0  0  0
 10 11  1  0  0  0
 10 41  1  0  0  0
 11 17  2  0  0  0
 11 12  1  0  0  0
 12 13  2  0  0  0
 12 14  1  0  0  0
 14 15  1  0  0  0
 14 19  1  0  0  0
 15 16  2  0  0  0
 15 18  1  0  0  0
 16 17  1  0  0  0
 16 42  1  0  0  0
 19 20  1  0  0  0
 19 43  1  0  0  0
 19 44  1  0  0  0
 20 21  2  0  0  0
 20 22  1  0  0  0
 22 23  1  0  0  0
 22 45  1  0  0  0
 23 24  1  0  0  0
 23 46  1  0  0  0
 23 47  1  0  0  0
 24 29  1  0  0  0
 24 25  2  0  0  0
 25 26  1  0  0  0
 25 48  1  0  0  0
 26 27  2  0  0  0
 26 32  1  0  0  0
 27 28  1  0  0  0
 27 49  1  0  0  0
 28 29  2  0  0  0
 28 50  1  0  0  0
 29 30  1  0  0  0
 30 31  1  0  0  0
 30 51  1  0  0  0
 30 52  1  0  0  0
 31 53  1  0  0  0
 31 54  1  0  0  0
M  CHG  2   4   1   5  -1
M  END
> <s_m_entry_id>
37905

> <s_m_entry_name>
ligand_docking-pose.252

> <s_m_Source_Path>
/home/csk/Desktop/cluster/DUD-E-result/thrb

> <s_m_Source_File>
ligand_docking-pose.sdf

> <i_m_Source_File_Index>
252

> <i_lp_mmshare_version>
53161

> <i_f3d_flags>
0

> <r_lp_tautomer_probability>
1

> <s_lp_Force_Field>
OPLS_2005

> <r_lp_Energy>
30.787686

> <b_lp_Chiralities_Consistent>
1

> <s_lp_Variant>
192533-1

> <s_i_glide_gridfile>
glide-grid_1ype

> <i_i_glide_lignum>
2055

> <i_i_glide_rotatable_bonds>
10

> <r_i_docking_score>
-7.23886968373448

> <r_i_glide_ligand_efficiency>
-0.212907931874544

> <r_i_glide_ligand_efficiency_sa>
-0.689739047875598

> <r_i_glide_ligand_efficiency_ln>
-1.59926935655404

> <r_i_glide_gscore>
-7.23886968373448

> <r_i_glide_lipo>
-3.0706318508366

> <r_i_glide_hbond>
-0.261661308802314

> <r_i_glide_metal>
0

> <r_i_glide_rewards>
-1.31405673934535

> <r_i_glide_evdw>
-52.7531967163086

> <r_i_glide_ecoul>
-3.84940099716187

> <r_i_glide_erotb>
0.622550200639496

> <r_i_glide_esite>
0

> <r_i_glide_emodel>
-80.0832704324064

> <r_i_glide_energy>
-56.6025977134705

> <r_i_glide_einternal>
4.45795869827271

> <i_i_glide_confnum>
9

> <i_i_glide_posenum>
241

> <r_i_glide_eff_state_penalty>
0

> <s_user_duplicate_titles>
192533

> <s_m_subgroup_title>
dock_pv

> <s_m_subgroupid>
dock_pv1

> <b_m_subgroup_collapsed>
0

$$$$
130578
                    3D
 Schrodinger Suite 2021-1.
 76 78  0  0  1  0            999 V2000
   22.3271  -13.8532   24.4967 C   0  0  0  0  0  0
   21.8963  -13.2057   25.8267 C   0  0  0  0  0  0
   20.3916  -12.9412   26.0128 C   0  0  0  0  0  0
   19.4508  -14.1395   25.7719 C   0  0  0  0  0  0
   19.3354  -14.5421   24.2852 C   0  0  0  0  0  0
   20.4389  -15.5212   23.7967 C   0  0  0  0  0  0
   21.8660  -15.3155   24.3456 C   0  0  0  0  0  0
   18.0033  -15.1111   24.0536 N   0  0  1  0  0  0
   17.5765  -15.2562   22.6318 C   0  0  1  0  0  0
   16.4008  -16.2559   22.4110 C   0  0  0  0  0  0
   16.5240  -17.6192   23.1034 C   0  0  0  0  0  0
   17.4742  -17.9649   23.8041 O   0  0  0  0  0  0
   15.4429  -18.4130   22.8529 O   0  0  0  0  0  0
   17.1872  -13.8525   22.0587 C   0  0  0  0  0  0
   16.4162  -13.1483   22.7210 O   0  0  0  0  0  0
   17.6737  -13.4383   20.8566 N   0  0  0  0  0  0
   18.7678  -14.1223   20.1386 C   0  0  0  0  0  0
   20.0847  -13.3818   20.4443 C   0  0  0  0  0  0
   19.9691  -11.9045   20.0376 C   0  0  0  0  0  0
   18.7064  -11.2671   20.6550 C   0  0  0  0  0  0
   17.3987  -12.0495   20.4077 C   0  0  1  0  0  0
   16.7725  -11.8894   18.9999 C   0  0  0  0  0  0
   15.2588  -12.1577   18.9872 C   0  0  0  0  0  0
   14.6405  -11.1546   19.7849 O   0  0  0  0  0  0
   13.2179  -11.1381   19.8014 C   0  0  0  0  0  0
   12.6331  -12.2691   20.6810 C   0  0  0  0  0  0
   12.8643  -12.0404   22.1919 C   0  0  0  0  0  0
   12.4165  -10.6896   22.5814 N   0  0  0  0  0  0
   13.1663   -9.6509   21.8658 C   0  0  0  0  0  0
   12.7976   -9.7688   20.3784 C   0  0  0  0  0  0
   11.6197  -10.3936   23.7326 C   0  0  0  0  0  0
   11.6159   -9.2820   24.3207 N   0  0  0  0  0  0
   10.8160  -11.4521   24.1830 N   0  0  0  0  0  0
   18.3970  -15.7103   22.0869 H   0  0  0  0  0  0
   16.6624  -11.5799   21.0630 H   0  0  0  0  0  0
   23.4176  -13.8316   24.4542 H   0  0  0  0  0  0
   21.9881  -13.2535   23.6499 H   0  0  0  0  0  0
   22.2584  -13.8166   26.6551 H   0  0  0  0  0  0
   22.4150  -12.2531   25.9213 H   0  0  0  0  0  0
   20.2378  -12.5782   27.0299 H   0  0  0  0  0  0
   20.0911  -12.1145   25.3664 H   0  0  0  0  0  0
   19.7534  -14.9913   26.3818 H   0  0  0  0  0  0
   18.4680  -13.8528   26.1472 H   0  0  0  0  0  0
   19.4064  -13.6272   23.6938 H   0  0  0  0  0  0
   20.5000  -15.4654   22.7103 H   0  0  0  0  0  0
   20.1469  -16.5505   24.0148 H   0  0  0  0  0  0
   21.9604  -15.8222   25.3074 H   0  0  0  0  0  0
   22.5605  -15.8380   23.6850 H   0  0  0  0  0  0
   17.9827  -16.0243   24.4942 H   0  0  0  0  0  0
   15.4532  -15.8193   22.7211 H   0  0  0  0  0  0
   16.2950  -16.4418   21.3407 H   0  0  0  0  0  0
   14.8063  -17.9979   22.2689 H   0  0  0  0  0  0
   18.7878  -15.2082   20.2099 H   0  0  0  0  0  0
   18.5474  -13.9812   19.0883 H   0  0  0  0  0  0
   20.3376  -13.4682   21.5017 H   0  0  0  0  0  0
   20.9058  -13.8519   19.9009 H   0  0  0  0  0  0
   20.8660  -11.3535   20.3212 H   0  0  0  0  0  0
   19.9098  -11.8371   18.9506 H   0  0  0  0  0  0
   18.8161  -11.1867   21.7379 H   0  0  0  0  0  0
   18.5834  -10.2521   20.3210 H   0  0  0  0  0  0
   16.9305  -10.8704   18.6459 H   0  0  0  0  0  0
   17.2651  -12.5291   18.2695 H   0  0  0  0  0  0
   14.8862  -12.1033   17.9635 H   0  0  0  0  0  0
   15.0488  -13.1578   19.3671 H   0  0  0  0  0  0
   12.8208  -11.2088   18.7878 H   0  0  0  0  0  0
   11.5628  -12.3519   20.5169 H   0  0  0  0  0  0
   13.0307  -13.2401   20.3876 H   0  0  0  0  0  0
   12.3723  -12.8280   22.7632 H   0  0  0  0  0  0
   13.9301  -12.1282   22.4089 H   0  0  0  0  0  0
   12.9573   -8.6470   22.2297 H   0  0  0  0  0  0
   14.2350   -9.8242   22.0083 H   0  0  0  0  0  0
   13.2152   -8.9462   19.8020 H   0  0  0  0  0  0
   11.7129   -9.6583   20.3205 H   0  0  0  0  0  0
   12.2543   -8.6302   23.8983 H   0  0  0  0  0  0
   10.0998  -11.2938   24.8832 H   0  0  0  0  0  0
   10.6981  -12.3009   23.6522 H   0  0  0  0  0  0
  1  7  1  0  0  0
  1  2  1  0  0  0
  1 36  1  0  0  0
  1 37  1  0  0  0
  2  3  1  0  0  0
  2 38  1  0  0  0
  2 39  1  0  0  0
  3  4  1  0  0  0
  3 40  1  0  0  0
  3 41  1  0  0  0
  4  5  1  0  0  0
  4 42  1  0  0  0
  4 43  1  0  0  0
  5  6  1  0  0  0
  5  8  1  0  0  0
  5 44  1  0  0  0
  6  7  1  0  0  0
  6 45  1  0  0  0
  6 46  1  0  0  0
  7 47  1  0  0  0
  7 48  1  0  0  0
  8  9  1  0  0  0
  8 49  1  0  0  0
  9 34  1  0  0  0
  9 10  1  0  0  0
  9 14  1  0  0  0
 10 11  1  0  0  0
 10 50  1  0  0  0
 10 51  1  0  0  0
 11 12  2  0  0  0
 11 13  1  0  0  0
 13 52  1  0  0  0
 14 15  2  0  0  0
 14 16  1  0  0  0
 16 21  1  0  0  0
 16 17  1  0  0  0
 17 18  1  0  0  0
 17 53  1  0  0  0
 17 54  1  0  0  0
 18 19  1  0  0  0
 18 55  1  0  0  0
 18 56  1  0  0  0
 19 20  1  0  0  0
 19 57  1  0  0  0
 19 58  1  0  0  0
 20 21  1  0  0  0
 20 59  1  0  0  0
 20 60  1  0  0  0
 21 35  1  0  0  0
 21 22  1  0  0  0
 22 23  1  0  0  0
 22 61  1  0  0  0
 22 62  1  0  0  0
 23 24  1  0  0  0
 23 63  1  0  0  0
 23 64  1  0  0  0
 24 25  1  0  0  0
 25 30  1  0  0  0
 25 26  1  0  0  0
 25 65  1  0  0  0
 26 27  1  0  0  0
 26 66  1  0  0  0
 26 67  1  0  0  0
 27 28  1  0  0  0
 27 68  1  0  0  0
 27 69  1  0  0  0
 28 29  1  0  0  0
 28 31  1  0  0  0
 29 30  1  0  0  0
 29 70  1  0  0  0
 29 71  1  0  0  0
 30 72  1  0  0  0
 30 73  1  0  0  0
 31 32  2  3  0  0
 31 33  1  0  0  0
 32 74  1  0  0  0
 33 75  1  0  0  0
 33 76  1  0  0  0
M  END
> <s_m_entry_id>
37909

> <s_m_entry_name>
ligand_docking-pose.256

> <s_m_Source_Path>
/home/csk/Desktop/cluster/DUD-E-result/thrb

> <s_m_Source_File>
ligand_docking-pose.sdf

> <i_m_Source_File_Index>
256

> <i_lp_mmshare_version>
53161

> <i_f3d_flags>
0

> <r_lp_tautomer_probability>
1

> <s_lp_Force_Field>
OPLS_2005

> <r_lp_Energy>
54.737962

> <b_lp_Chiralities_Consistent>
1

> <s_lp_Variant>
130578-2

> <s_i_glide_gridfile>
glide-grid_1ype

> <i_i_glide_lignum>
1915

> <i_i_glide_rotatable_bonds>
12

> <r_i_docking_score>
-7.23007570277586

> <r_i_glide_ligand_efficiency>
-0.21909320311442

> <r_i_glide_ligand_efficiency_sa>
-0.702748969639195

> <r_i_glide_ligand_efficiency_ln>
-1.60793140096886

> <r_i_glide_gscore>
-7.23007570277586

> <r_i_glide_lipo>
-3.69351431947453

> <r_i_glide_hbond>
-0.512106781022409

> <r_i_glide_metal>
0

> <r_i_glide_rewards>
-0.972666288078291

> <r_i_glide_evdw>
-44.7659301757812

> <r_i_glide_ecoul>
-3.78983592987061

> <r_i_glide_erotb>
0.837213766479198

> <r_i_glide_esite>
-0.0822301824101762

> <r_i_glide_emodel>
-67.1325848636017

> <r_i_glide_energy>
-48.5557661056519

> <r_i_glide_einternal>
2.8730947971344

> <i_i_glide_confnum>
246

> <i_i_glide_posenum>
109

> <r_i_glide_eff_state_penalty>
0

> <s_user_duplicate_titles>
130578

> <s_m_subgroup_title>
dock_pv

> <s_m_subgroupid>
dock_pv1

> <b_m_subgroup_collapsed>
0

$$$$
466757
                    3D
 Schrodinger Suite 2021-1.
 53 57  0  0  1  0            999 V2000
   13.1548   -9.2119   22.3257 C   0  0  0  0  0  0
   12.0154   -9.8773   22.7767 C   0  0  0  0  0  0
   11.6479  -11.0932   22.2030 C   0  0  0  0  0  0
   12.4232  -11.6503   21.1867 C   0  0  0  0  0  0
   13.5859  -11.0001   20.7503 C   0  0  0  0  0  0
   13.9347   -9.7657   21.3099 C   0  0  0  0  0  0
   14.5356  -11.6938   19.7682 C   0  0  0  0  0  0
   15.8335  -12.0957   20.3530 N   0  0  0  0  0  0
   15.9432  -12.7027   21.5595 C   0  0  0  0  0  0
   15.0413  -13.0322   22.3204 O   0  0  0  0  0  0
   17.4171  -12.8206   21.8946 C   0  0  1  0  0  0
   17.8259  -14.2605   22.2886 C   0  0  1  0  0  0
   18.1926  -14.8717   21.0075 N   0  0  2  0  0  0
   19.1199  -15.9915   20.9266 C   0  0  0  0  0  0
   20.4980  -15.3745   20.6615 C   0  0  0  0  0  0
   20.2136  -13.9782   20.0881 C   0  0  0  0  0  0
   18.6787  -13.8267   20.1259 C   0  0  2  0  0  0
   18.1243  -12.4742   20.6138 C   0  0  1  0  0  0
   17.0146  -11.9484   19.7053 C   0  0  0  0  0  0
   17.2068  -11.4544   18.5930 O   0  0  0  0  0  0
   18.8972  -14.4074   23.3735 C   0  0  0  0  0  0
   18.9051  -15.5253   24.2087 C   0  0  0  0  0  0
   20.0341  -15.8058   24.9750 C   0  0  0  0  0  0
   21.1589  -14.9611   24.9425 C   0  0  0  0  0  0
   21.0721  -13.7770   24.1928 C   0  0  0  0  0  0
   19.9576  -13.5081   23.4197 C   0  0  0  0  0  0
   22.4142  -15.3295   25.6374 C   0  0  0  0  0  0
   22.6750  -16.5290   25.9207 N   0  0  0  0  0  0
   23.2156  -14.2566   25.9213 N   0  0  0  0  0  0
   12.0605  -12.8379   20.6497 F   0  0  0  0  0  0
   16.9608  -14.8542   22.5953 H   0  0  0  0  0  0
   13.4450   -8.2747   22.7791 H   0  0  0  0  0  0
   11.4163   -9.4614   23.5749 H   0  0  0  0  0  0
   10.7679  -11.6134   22.5531 H   0  0  0  0  0  0
   14.8379   -9.2596   20.9978 H   0  0  0  0  0  0
   14.6858  -11.0505   18.9013 H   0  0  0  0  0  0
   14.0584  -12.5927   19.3750 H   0  0  0  0  0  0
   17.6513  -12.1124   22.6843 H   0  0  0  0  0  0
   19.1135  -16.5782   21.8443 H   0  0  0  0  0  0
   18.7918  -16.6808   20.1568 H   0  0  0  0  0  0
   21.0831  -15.9820   19.9704 H   0  0  0  0  0  0
   21.0774  -15.3107   21.5826 H   0  0  0  0  0  0
   20.5652  -13.9842   19.0551 H   0  0  0  0  0  0
   20.7465  -13.1930   20.6227 H   0  0  0  0  0  0
   18.3668  -14.0624   19.1187 H   0  0  0  0  0  0
   18.8866  -11.7109   20.7769 H   0  0  0  0  0  0
   18.0817  -16.2258   24.1939 H   0  0  0  0  0  0
   20.0352  -16.7115   25.5658 H   0  0  0  0  0  0
   21.9012  -13.0885   24.1212 H   0  0  0  0  0  0
   19.9711  -12.6516   22.7711 H   0  0  0  0  0  0
   21.9558  -17.1628   25.6089 H   0  0  0  0  0  0
   24.0524  -14.4023   26.4777 H   0  0  0  0  0  0
   22.8648  -13.3205   25.8051 H   0  0  0  0  0  0
  1  6  1  0  0  0
  1  2  2  0  0  0
  1 32  1  0  0  0
  2  3  1  0  0  0
  2 33  1  0  0  0
  3  4  2  0  0  0
  3 34  1  0  0  0
  4  5  1  0  0  0
  4 30  1  0  0  0
  5  6  2  0  0  0
  5  7  1  0  0  0
  6 35  1  0  0  0
  7  8  1  0  0  0
  7 36  1  0  0  0
  7 37  1  0  0  0
  8 19  1  0  0  0
  8  9  1  0  0  0
  9 10  2  0  0  0
  9 11  1  0  0  0
 11 18  1  0  0  0
 11 12  1  0  0  0
 11 38  1  0  0  0
 12 31  1  0  0  0
 12 13  1  0  0  0
 12 21  1  0  0  0
 13 17  1  0  0  0
 13 14  1  0  0  0
 14 15  1  0  0  0
 14 39  1  0  0  0
 14 40  1  0  0  0
 15 16  1  0  0  0
 15 41  1  0  0  0
 15 42  1  0  0  0
 16 17  1  0  0  0
 16 43  1  0  0  0
 16 44  1  0  0  0
 17 18  1  0  0  0
 17 45  1  0  0  0
 18 19  1  0  0  0
 18 46  1  0  0  0
 19 20  2  0  0  0
 21 26  1  0  0  0
 21 22  2  0  0  0
 22 23  1  0  0  0
 22 47  1  0  0  0
 23 24  2  0  0  0
 23 48  1  0  0  0
 24 25  1  0  0  0
 24 27  1  0  0  0
 25 26  2  0  0  0
 25 49  1  0  0  0
 26 50  1  0  0  0
 27 28  2  3  0  0
 27 29  1  0  0  0
 28 51  1  0  0  0
 29 52  1  0  0  0
 29 53  1  0  0  0
M  END
> <s_m_entry_id>
37912

> <s_m_entry_name>
ligand_docking-pose.259

> <s_m_Source_Path>
/home/csk/Desktop/cluster/DUD-E-result/thrb

> <s_m_Source_File>
ligand_docking-pose.sdf

> <i_m_Source_File_Index>
259

> <i_lp_mmshare_version>
53161

> <i_f3d_flags>
0

> <r_lp_tautomer_probability>
1

> <s_lp_Force_Field>
OPLS_2005

> <r_lp_Energy>
57.945372

> <b_lp_Chiralities_Consistent>
1

> <s_lp_Variant>
466757-6

> <s_i_glide_gridfile>
glide-grid_1ype

> <i_i_glide_lignum>
1315

> <i_i_glide_rotatable_bonds>
4

> <r_i_docking_score>
-7.22246481812346

> <r_i_glide_ligand_efficiency>
-0.240748827270782

> <r_i_glide_ligand_efficiency_sa>
-0.748062581017942

> <r_i_glide_ligand_efficiency_ln>
-1.64102270173482

> <r_i_glide_gscore>
-7.22246481812346

> <r_i_glide_lipo>
-3.06873457560893

> <r_i_glide_hbond>
-0.530940426184667

> <r_i_glide_metal>
0

> <r_i_glide_rewards>
-1.66808822532112

> <r_i_glide_evdw>
-36.9047317504883

> <r_i_glide_ecoul>
-3.11015129089355

> <r_i_glide_erotb>
0.357057690149697

> <r_i_glide_esite>
0

> <r_i_glide_emodel>
-49.8846251772493

> <r_i_glide_energy>
-40.0148830413818

> <r_i_glide_einternal>
9.91712379455566

> <i_i_glide_confnum>
5

> <i_i_glide_posenum>
81

> <r_i_glide_eff_state_penalty>
0

> <s_user_duplicate_titles>
466757

> <s_m_subgroup_title>
dock_pv

> <s_m_subgroupid>
dock_pv1

> <b_m_subgroup_collapsed>
0

$$$$
275582
                    3D
 Schrodinger Suite 2021-1.
 89 93  0  0  1  0            999 V2000
   17.9659  -15.0154   22.1798 B   0  0  0  0  0  0
   18.0740  -13.7483   22.6903 O   0  0  0  0  0  0
   19.1142  -13.0772   22.0027 C   0  0  2  0  0  0
   18.5156  -11.9023   21.1561 C   0  0  0  0  0  0
   18.8610  -12.0018   19.6433 C   0  0  2  0  0  0
   18.5319  -13.4058   19.1300 C   0  0  0  0  0  0
   19.9346  -13.8199   19.6466 C   0  0  2  0  0  0
   19.8299  -14.1937   21.1701 C   0  0  2  0  0  0
   18.9311  -15.2904   21.2465 O   0  0  0  0  0  0
   21.1230  -14.7608   21.8111 C   0  0  0  0  0  0
   20.3399  -12.3475   19.3007 C   0  0  0  0  0  0
   20.7039  -12.0923   17.8059 C   0  0  0  0  0  0
   21.4334  -11.6863   20.1545 C   0  0  0  0  0  0
   16.7858  -16.0028   22.5228 C   0  0  2  0  0  0
   17.2548  -17.4773   22.6083 C   0  0  0  0  0  0
   18.4112  -17.7753   23.5908 C   0  0  0  0  0  0
   18.1424  -17.4428   25.0753 C   0  0  0  0  0  0
   18.5782  -16.0262   25.4879 C   0  0  0  0  0  0
   18.4162  -15.8525   26.9174 N   0  0  0  0  0  0
   15.7365  -15.7918   21.5187 N   0  0  0  0  0  0
   14.4798  -16.2753   21.5437 C   0  0  0  0  0  0
   14.0505  -16.9886   22.4511 O   0  0  0  0  0  0
   13.5386  -15.9350   20.3750 C   0  0  0  0  0  0
   13.8961  -14.7704   19.5583 N   0  0  0  0  0  0
   13.3859  -13.4948   19.5515 C   0  0  0  0  0  0
   13.9751  -12.8058   18.6018 N   0  0  0  0  0  0
   14.8753  -13.6510   18.1255 C   0  0  0  0  0  0
   14.8667  -14.8605   18.6418 N   0  0  0  0  0  0
   15.9445  -13.2269   17.1388 C   0  0  0  0  0  0
   15.4421  -12.6030   15.9219 N   0  0  0  0  0  0
   16.1595  -11.7573   15.1593 C   0  0  0  0  0  0
   17.3288  -11.4485   15.4085 O   0  0  0  0  0  0
   15.4388  -11.1578   13.9402 C   0  0  0  0  0  0
   16.3627  -11.0126   12.7097 C   0  0  0  0  0  0
   14.7970   -9.8119   14.3208 C   0  0  0  0  0  0
   12.2823  -12.9856   20.4766 C   0  0  0  0  0  0
   12.5229  -11.6900   21.2653 C   0  0  0  0  0  0
   13.5326  -10.7697   20.9441 C   0  0  0  0  0  0
   13.6675   -9.5926   21.6726 C   0  0  0  0  0  0
   12.8084   -9.3354   22.7344 C   0  0  0  0  0  0
   11.8084  -10.2443   23.0736 C   0  0  0  0  0  0
   11.6635  -11.4153   22.3352 C   0  0  0  0  0  0
   19.7727  -12.6670   22.7696 H   0  0  0  0  0  0
   18.4030  -11.1711   19.1070 H   0  0  0  0  0  0
   20.4575  -14.6142   19.1176 H   0  0  0  0  0  0
   16.4156  -15.6787   23.4948 H   0  0  0  0  0  0
   17.4298  -11.8858   21.2589 H   0  0  0  0  0  0
   18.8162  -10.9364   21.5626 H   0  0  0  0  0  0
   17.6492  -13.9038   19.5299 H   0  0  0  0  0  0
   18.4073  -13.4538   18.0509 H   0  0  0  0  0  0
   21.9387  -14.0443   21.8593 H   0  0  0  0  0  0
   20.9439  -15.0938   22.8349 H   0  0  0  0  0  0
   21.4900  -15.6256   21.2573 H   0  0  0  0  0  0
   21.6159  -12.6208   17.5364 H   0  0  0  0  0  0
   19.9495  -12.4148   17.0925 H   0  0  0  0  0  0
   20.8544  -11.0339   17.6130 H   0  0  0  0  0  0
   22.4115  -11.7254   19.6781 H   0  0  0  0  0  0
   21.1988  -10.6449   20.3209 H   0  0  0  0  0  0
   21.5551  -12.1442   21.1210 H   0  0  0  0  0  0
   16.4098  -18.1138   22.8749 H   0  0  0  0  0  0
   17.5602  -17.8078   21.6146 H   0  0  0  0  0  0
   18.6249  -18.8425   23.5181 H   0  0  0  0  0  0
   19.3269  -17.2858   23.2560 H   0  0  0  0  0  0
   17.0899  -17.6061   25.3136 H   0  0  0  0  0  0
   18.6954  -18.1605   25.6852 H   0  0  0  0  0  0
   19.6249  -15.8594   25.2311 H   0  0  0  0  0  0
   17.9951  -15.2605   24.9809 H   0  0  0  0  0  0
   18.7206  -14.9281   27.1887 H   0  0  0  0  0  0
   17.4385  -15.9042   27.1612 H   0  0  0  0  0  0
   15.9703  -15.1557   20.7712 H   0  0  0  0  0  0
   13.5045  -16.8025   19.7146 H   0  0  0  0  0  0
   12.5270  -15.8053   20.7540 H   0  0  0  0  0  0
   16.5604  -12.4881   17.6528 H   0  0  0  0  0  0
   16.5829  -14.0668   16.8552 H   0  0  0  0  0  0
   14.5040  -12.8472   15.6460 H   0  0  0  0  0  0
   14.6408  -11.8435   13.6509 H   0  0  0  0  0  0
   16.8181  -11.9657   12.4368 H   0  0  0  0  0  0
   15.8045  -10.6575   11.8409 H   0  0  0  0  0  0
   17.1678  -10.2980   12.8891 H   0  0  0  0  0  0
   14.1695   -9.9026   15.2075 H   0  0  0  0  0  0
   15.5513   -9.0506   14.5237 H   0  0  0  0  0  0
   14.1620   -9.4532   13.5107 H   0  0  0  0  0  0
   11.3569  -12.8647   19.9176 H   0  0  0  0  0  0
   12.0299  -13.7428   21.2192 H   0  0  0  0  0  0
   14.2274  -10.9267   20.1355 H   0  0  0  0  0  0
   14.4479   -8.8857   21.4243 H   0  0  0  0  0  0
   12.9197   -8.4289   23.3109 H   0  0  0  0  0  0
   11.1402  -10.0402   23.8989 H   0  0  0  0  0  0
   10.8726  -12.1096   22.5972 H   0  0  0  0  0  0
  1  9  1  0  0  0
  1  2  1  0  0  0
  1 14  1  0  0  0
  2  3  1  0  0  0
  3 43  1  0  0  0
  3  8  1  0  0  0
  3  4  1  0  0  0
  4  5  1  0  0  0
  4 47  1  0  0  0
  4 48  1  0  0  0
  5 44  1  0  0  0
  5 11  1  0  0  0
  5  6  1  0  0  0
  6  7  1  0  0  0
  6 49  1  0  0  0
  6 50  1  0  0  0
  7 45  1  0  0  0
  7  8  1  0  0  0
  7 11  1  0  0  0
  8  9  1  0  0  0
  8 10  1  0  0  0
 10 51  1  0  0  0
 10 52  1  0  0  0
 10 53  1  0  0  0
 11 12  1  0  0  0
 11 13  1  0  0  0
 12 54  1  0  0  0
 12 55  1  0  0  0
 12 56  1  0  0  0
 13 57  1  0  0  0
 13 58  1  0  0  0
 13 59  1  0  0  0
 14 46  1  0  0  0
 14 15  1  0  0  0
 14 20  1  0  0  0
 15 16  1  0  0  0
 15 60  1  0  0  0
 15 61  1  0  0  0
 16 17  1  0  0  0
 16 62  1  0  0  0
 16 63  1  0  0  0
 17 18  1  0  0  0
 17 64  1  0  0  0
 17 65  1  0  0  0
 18 19  1  0  0  0
 18 66  1  0  0  0
 18 67  1  0  0  0
 19 68  1  0  0  0
 19 69  1  0  0  0
 20 21  1  0  0  0
 20 70  1  0  0  0
 21 22  2  0  0  0
 21 23  1  0  0  0
 23 24  1  0  0  0
 23 71  1  0  0  0
 23 72  1  0  0  0
 24 28  1  0  0  0
 24 25  1  0  0  0
 25 26  2  0  0  0
 25 36  1  0  0  0
 26 27  1  0  0  0
 27 28  2  0  0  0
 27 29  1  0  0  0
 29 30  1  0  0  0
 29 73  1  0  0  0
 29 74  1  0  0  0
 30 31  1  0  0  0
 30 75  1  0  0  0
 31 32  2  0  0  0
 31 33  1  0  0  0
 33 34  1  0  0  0
 33 35  1  0  0  0
 33 76  1  0  0  0
 34 77  1  0  0  0
 34 78  1  0  0  0
 34 79  1  0  0  0
 35 80  1  0  0  0
 35 81  1  0  0  0
 35 82  1  0  0  0
 36 37  1  0  0  0
 36 83  1  0  0  0
 36 84  1  0  0  0
 37 42  1  0  0  0
 37 38  2  0  0  0
 38 39  1  0  0  0
 38 85  1  0  0  0
 39 40  2  0  0  0
 39 86  1  0  0  0
 40 41  1  0  0  0
 40 87  1  0  0  0
 41 42  2  0  0  0
 41 88  1  0  0  0
 42 89  1  0  0  0
M  END
> <s_m_entry_id>
37913

> <s_m_entry_name>
ligand_docking-pose.260

> <s_m_Source_Path>
/home/csk/Desktop/cluster/DUD-E-result/thrb

> <s_m_Source_File>
ligand_docking-pose.sdf

> <i_m_Source_File_Index>
260

> <i_lp_mmshare_version>
53161

> <i_f3d_flags>
0

> <r_lp_tautomer_probability>
1

> <s_lp_Force_Field>
OPLS_2005

> <r_lp_Energy>
49.032793

> <b_lp_Chiralities_Consistent>
1

> <s_lp_Variant>
275582-1

> <s_i_glide_gridfile>
glide-grid_1ype

> <i_i_glide_lignum>
73

> <i_i_glide_rotatable_bonds>
15

> <r_i_docking_score>
-7.21562549464725

> <r_i_glide_ligand_efficiency>
-0.171800607015411

> <r_i_glide_ligand_efficiency_sa>
-0.597183486849209

> <r_i_glide_ligand_efficiency_ln>
-1.5230326460083

> <r_i_glide_gscore>
-7.21562549464725

> <r_i_glide_lipo>
-3.33579393541182

> <r_i_glide_hbond>
-0.32

> <r_i_glide_metal>
0

> <r_i_glide_rewards>
-0.653361652520766

> <r_i_glide_evdw>
-54.7042808532715

> <r_i_glide_ecoul>
-5.78180694580078

> <r_i_glide_erotb>
0.713253070322619

> <r_i_glide_esite>
-0.0172378925035939

> <r_i_glide_emodel>
-77.029735618611

> <r_i_glide_energy>
-60.4860877990723

> <r_i_glide_einternal>
10.8812532424927

> <i_i_glide_confnum>
34

> <i_i_glide_posenum>
352

> <r_i_glide_eff_state_penalty>
0

> <s_user_duplicate_titles>
275582

> <s_m_subgroup_title>
dock_pv

> <s_m_subgroupid>
dock_pv1

> <b_m_subgroup_collapsed>
0

$$$$
128806
                    3D
 Schrodinger Suite 2021-1.
 59 61  0  0  1  0            999 V2000
   11.8342   -9.8526   23.6014 C   0  0  0  0  0  0
   11.2170  -11.0845   23.4073 C   0  0  0  0  0  0
   11.5915  -11.8714   22.3213 C   0  0  0  0  0  0
   12.5639  -11.4248   21.4248 C   0  0  0  0  0  0
   13.1751  -10.1835   21.6273 C   0  0  0  0  0  0
   12.8159   -9.4017   22.7207 C   0  0  0  0  0  0
   12.9202  -12.2696   20.1983 C   0  0  0  0  0  0
   14.0530  -13.3418   20.3508 C   0  0  1  0  0  0
   14.2141  -14.1575   19.0495 C   0  0  0  0  0  0
   14.7959  -13.3114   17.9242 C   0  0  0  0  0  0
   16.1605  -12.7402   18.3230 C   0  0  0  0  0  0
   16.2617  -12.2762   19.7315 N   0  0  0  0  0  0
   15.3943  -12.6090   20.7464 C   0  0  0  0  0  0
   15.6357  -12.2908   21.9168 O   0  0  0  0  0  0
   17.4444  -11.4327   20.0407 C   0  0  0  0  0  0
   18.7464  -12.2521   20.0734 C   0  0  0  0  0  0
   19.7200  -11.8518   19.4377 O   0  0  0  0  0  0
   18.7707  -13.3751   20.8091 N   0  0  0  0  0  0
   19.9311  -14.2645   20.9674 C   0  0  1  0  0  0
   21.1109  -13.6242   21.7542 C   0  0  0  0  0  0
   20.7818  -13.4957   23.2555 C   0  0  0  0  0  0
   20.3383  -14.8598   23.8296 C   0  0  0  0  0  0
   19.1791  -15.3709   23.0707 N   0  0  0  0  0  0
   19.5245  -15.6060   21.6537 C   0  0  2  0  0  0
   20.4872  -16.6217   21.4257 O   0  0  0  0  0  0
   17.8168  -15.1546   23.4729 C   0  0  0  0  0  0
   16.8167  -15.2764   22.7211 N   0  0  0  0  0  0
   17.6187  -14.7955   24.8191 N   0  0  0  0  0  0
   13.7360  -14.2636   21.4372 N   0  0  0  0  0  0
   20.2673  -14.4947   19.9531 H   0  0  0  0  0  0
   11.5455   -9.2412   24.4444 H   0  0  0  0  0  0
   10.4464  -11.4226   24.0869 H   0  0  0  0  0  0
   11.1011  -12.8223   22.1671 H   0  0  0  0  0  0
   13.9317   -9.8269   20.9439 H   0  0  0  0  0  0
   13.2929   -8.4472   22.8893 H   0  0  0  0  0  0
   13.1442  -11.5745   19.3891 H   0  0  0  0  0  0
   12.0068  -12.7678   19.8684 H   0  0  0  0  0  0
   13.2525  -14.5712   18.7411 H   0  0  0  0  0  0
   14.8643  -15.0179   19.2199 H   0  0  0  0  0  0
   14.1183  -12.5024   17.6572 H   0  0  0  0  0  0
   14.8951  -13.9054   17.0142 H   0  0  0  0  0  0
   16.5740  -12.0145   17.6195 H   0  0  0  0  0  0
   16.8516  -13.5855   18.2787 H   0  0  0  0  0  0
   17.3410  -10.8689   20.9700 H   0  0  0  0  0  0
   17.5238  -10.6707   19.2655 H   0  0  0  0  0  0
   17.8803  -13.7479   21.1180 H   0  0  0  0  0  0
   21.3755  -12.6522   21.3385 H   0  0  0  0  0  0
   22.0113  -14.2285   21.6368 H   0  0  0  0  0  0
   20.0084  -12.7438   23.4280 H   0  0  0  0  0  0
   21.6599  -13.1368   23.7954 H   0  0  0  0  0  0
   20.1349  -14.7728   24.8965 H   0  0  0  0  0  0
   21.1534  -15.5788   23.7477 H   0  0  0  0  0  0
   18.6498  -16.0017   21.1336 H   0  0  0  0  0  0
   21.3561  -16.2790   21.6491 H   0  0  0  0  0  0
   15.9780  -15.0567   23.2506 H   0  0  0  0  0  0
   16.6905  -14.6528   25.1915 H   0  0  0  0  0  0
   18.3769  -14.6976   25.4761 H   0  0  0  0  0  0
   14.5439  -14.8328   21.6552 H   0  0  0  0  0  0
   13.5109  -13.7362   22.2709 H   0  0  0  0  0  0
  1  6  1  0  0  0
  1  2  2  0  0  0
  1 31  1  0  0  0
  2  3  1  0  0  0
  2 32  1  0  0  0
  3  4  2  0  0  0
  3 33  1  0  0  0
  4  5  1  0  0  0
  4  7  1  0  0  0
  5  6  2  0  0  0
  5 34  1  0  0  0
  6 35  1  0  0  0
  7  8  1  0  0  0
  7 36  1  0  0  0
  7 37  1  0  0  0
  8 13  1  0  0  0
  8  9  1  0  0  0
  8 29  1  0  0  0
  9 10  1  0  0  0
  9 38  1  0  0  0
  9 39  1  0  0  0
 10 11  1  0  0  0
 10 40  1  0  0  0
 10 41  1  0  0  0
 11 12  1  0  0  0
 11 42  1  0  0  0
 11 43  1  0  0  0
 12 13  1  0  0  0
 12 15  1  0  0  0
 13 14  2  0  0  0
 15 16  1  0  0  0
 15 44  1  0  0  0
 15 45  1  0  0  0
 16 17  2  0  0  0
 16 18  1  0  0  0
 18 19  1  0  0  0
 18 46  1  0  0  0
 19 30  1  0  0  0
 19 24  1  0  0  0
 19 20  1  0  0  0
 20 21  1  0  0  0
 20 47  1  0  0  0
 20 48  1  0  0  0
 21 22  1  0  0  0
 21 49  1  0  0  0
 21 50  1  0  0  0
 22 23  1  0  0  0
 22 51  1  0  0  0
 22 52  1  0  0  0
 23 24  1  0  0  0
 23 26  1  0  0  0
 24 25  1  0  0  0
 24 53  1  0  0  0
 25 54  1  0  0  0
 26 27  2  3  0  0
 26 28  1  0  0  0
 27 55  1  0  0  0
 28 56  1  0  0  0
 28 57  1  0  0  0
 29 58  1  0  0  0
 29 59  1  0  0  0
M  END
> <s_m_entry_id>
37916

> <s_m_entry_name>
ligand_docking-pose.263

> <s_m_Source_Path>
/home/csk/Desktop/cluster/DUD-E-result/thrb

> <s_m_Source_File>
ligand_docking-pose.sdf

> <i_m_Source_File_Index>
263

> <i_lp_mmshare_version>
53161

> <i_f3d_flags>
0

> <r_lp_tautomer_probability>
1

> <s_lp_Force_Field>
OPLS_2005

> <r_lp_Energy>
36.109674

> <b_lp_Chiralities_Consistent>
1

> <s_lp_Variant>
128806-3

> <s_i_glide_gridfile>
glide-grid_1ype

> <i_i_glide_lignum>
811

> <i_i_glide_rotatable_bonds>
8

> <r_i_docking_score>
-7.2093535078986

> <r_i_glide_ligand_efficiency>
-0.24859839682409

> <r_i_glide_ligand_efficiency_sa>
-0.763773036543894

> <r_i_glide_ligand_efficiency_ln>
-1.65075913987739

> <r_i_glide_gscore>
-7.2093535078986

> <r_i_glide_lipo>
-2.59622933334755

> <r_i_glide_hbond>
-0.649289603891427

> <r_i_glide_metal>
0

> <r_i_glide_rewards>
-1.37358332706344

> <r_i_glide_evdw>
-40.4193801879883

> <r_i_glide_ecoul>
-8.57407569885254

> <r_i_glide_erotb>
0.726831349291137

> <r_i_glide_esite>
-0.0100022286600306

> <r_i_glide_emodel>
-67.0841820060008

> <r_i_glide_energy>
-48.9934558868408

> <r_i_glide_einternal>
5.15625095367432

> <i_i_glide_confnum>
176

> <i_i_glide_posenum>
355

> <r_i_glide_eff_state_penalty>
0

> <s_user_duplicate_titles>
128806

> <s_m_subgroup_title>
dock_pv

> <s_m_subgroupid>
dock_pv1

> <b_m_subgroup_collapsed>
0

$$$$
167681
                    3D
 Schrodinger Suite 2021-1.
 53 56  0  0  1  0            999 V2000
   13.2915  -15.9160   19.1163 C   0  0  0  0  0  0
   12.7611  -15.9625   20.3993 C   0  0  0  0  0  0
   12.5958  -14.7834   21.1209 C   0  0  0  0  0  0
   12.9307  -13.5319   20.5852 C   0  0  0  0  0  0
   13.5038  -13.4997   19.2917 C   0  0  0  0  0  0
   13.6662  -14.6918   18.5733 C   0  0  0  0  0  0
   13.9762  -12.2096   18.6218 C   0  0  0  0  0  0
   15.2013  -11.6514   19.1892 N   0  0  0  0  0  0
   16.3972  -12.2551   19.1960 C   0  0  0  0  0  0
   16.6031  -13.3491   18.6674 O   0  0  0  0  0  0
   17.5141  -11.4655   19.8980 C   0  0  0  0  0  0
   18.6853  -12.3261   20.1790 N   0  0  0  0  0  0
   19.6524  -12.6482   19.2295 C   0  0  0  0  0  0
   20.6692  -13.4897   19.5261 C   0  0  0  0  0  0
   20.8157  -14.0536   20.7626 N   0  0  0  0  0  0
   19.9646  -13.7430   21.6711 C   0  0  0  0  0  0
   18.7558  -12.8681   21.4579 C   0  0  0  0  0  0
   17.8963  -12.6645   22.3209 O   0  0  0  0  0  0
   20.2487  -14.2922   22.9105 N   0  0  0  0  0  0
   20.1385  -13.5608   24.1794 C   0  0  0  0  0  0
   20.8822  -14.2317   25.3637 C   0  0  0  0  0  0
   22.3587  -14.5222   25.0435 C   0  0  0  0  0  0
   22.8863  -15.8212   25.0875 C   0  0  0  0  0  0
   24.2216  -16.0194   24.7279 C   0  0  0  0  0  0
   24.9975  -14.9297   24.3309 C   0  0  0  0  0  0
   24.4120  -13.6643   24.3215 C   0  0  0  0  0  0
   23.1162  -13.4531   24.6678 N   0  0  0  0  0  0
   20.8489  -13.4371   26.4351 F   0  0  0  0  0  0
   20.2574  -15.3614   25.7083 F   0  0  0  0  0  0
   19.5152  -11.9649   17.6034 Cl  0  0  0  0  0  0
   12.6345  -12.3175   21.4347 C   0  0  0  0  0  0
   13.2265  -11.1443   21.3770 N   0  0  0  0  0  0
   12.6026  -10.3334   22.3200 N   0  0  0  0  0  0
   11.6181  -11.0456   22.9714 N   0  0  0  0  0  0
   11.6579  -12.2527   22.4039 N   0  0  0  0  0  0
   11.0507  -13.0118   22.6975 H   0  0  0  0  0  0
   13.4244  -16.8268   18.5501 H   0  0  0  0  0  0
   12.4848  -16.9094   20.8401 H   0  0  0  0  0  0
   12.2071  -14.8590   22.1209 H   0  0  0  0  0  0
   14.1004  -14.6766   17.5832 H   0  0  0  0  0  0
   14.1046  -12.3532   17.5466 H   0  0  0  0  0  0
   13.1832  -11.4690   18.7210 H   0  0  0  0  0  0
   15.1036  -10.7854   19.6981 H   0  0  0  0  0  0
   17.8142  -10.6538   19.2435 H   0  0  0  0  0  0
   17.1156  -10.9959   20.7994 H   0  0  0  0  0  0
   21.4012  -13.7505   18.7767 H   0  0  0  0  0  0
   21.0572  -14.8975   22.8836 H   0  0  0  0  0  0
   20.5196  -12.5471   24.0515 H   0  0  0  0  0  0
   19.0868  -13.4525   24.4446 H   0  0  0  0  0  0
   22.2818  -16.6642   25.3874 H   0  0  0  0  0  0
   24.6506  -17.0097   24.7549 H   0  0  0  0  0  0
   26.0337  -15.0611   24.0537 H   0  0  0  0  0  0
   24.9860  -12.7966   24.0320 H   0  0  0  0  0  0
  1  6  1  0  0  0
  1  2  2  0  0  0
  1 37  1  0  0  0
  2  3  1  0  0  0
  2 38  1  0  0  0
  3  4  2  0  0  0
  3 39  1  0  0  0
  4  5  1  0  0  0
  4 31  1  0  0  0
  5  6  2  0  0  0
  5  7  1  0  0  0
  6 40  1  0  0  0
  7  8  1  0  0  0
  7 41  1  0  0  0
  7 42  1  0  0  0
  8  9  1  0  0  0
  8 43  1  0  0  0
  9 10  2  0  0  0
  9 11  1  0  0  0
 11 12  1  0  0  0
 11 44  1  0  0  0
 11 45  1  0  0  0
 12 17  1  0  0  0
 12 13  1  0  0  0
 13 14  2  0  0  0
 13 30  1  0  0  0
 14 15  1  0  0  0
 14 46  1  0  0  0
 15 16  2  0  0  0
 16 17  1  0  0  0
 16 19  1  0  0  0
 17 18  2  0  0  0
 19 20  1  0  0  0
 19 47  1  0  0  0
 20 21  1  0  0  0
 20 48  1  0  0  0
 20 49  1  0  0  0
 21 22  1  0  0  0
 21 28  1  0  0  0
 21 29  1  0  0  0
 22 27  1  0  0  0
 22 23  2  0  0  0
 23 24  1  0  0  0
 23 50  1  0  0  0
 24 25  2  0  0  0
 24 51  1  0  0  0
 25 26  1  0  0  0
 25 52  1  0  0  0
 26 27  2  0  0  0
 26 53  1  0  0  0
 31 32  2  0  0  0
 31 35  1  0  0  0
 32 33  1  0  0  0
 33 34  2  0  0  0
 34 35  1  0  0  0
 35 36  1  0  0  0
M  END
> <s_m_entry_id>
37917

> <s_m_entry_name>
ligand_docking-pose.264

> <s_m_Source_Path>
/home/csk/Desktop/cluster/DUD-E-result/thrb

> <s_m_Source_File>
ligand_docking-pose.sdf

> <i_m_Source_File_Index>
264

> <i_lp_mmshare_version>
53161

> <i_f3d_flags>
0

> <r_lp_tautomer_probability>
0.3

> <s_lp_Force_Field>
OPLS_2005

> <r_lp_Energy>
26.283647

> <b_lp_Chiralities_Consistent>
1

> <s_lp_Variant>
167681-1

> <s_i_glide_gridfile>
glide-grid_1ype

> <i_i_glide_lignum>
1359

> <i_i_glide_rotatable_bonds>
10

> <r_i_docking_score>
-7.20816847587491

> <r_i_glide_ligand_efficiency>
-0.205947670739283

> <r_i_glide_ligand_efficiency_sa>
-0.673668486618707

> <r_i_glide_ligand_efficiency_ln>
-1.58235295713455

> <r_i_glide_gscore>
-7.20816847587491

> <r_i_glide_lipo>
-2.60235065240635

> <r_i_glide_hbond>
-0.32

> <r_i_glide_metal>
0

> <r_i_glide_rewards>
-1.32697904635317

> <r_i_glide_evdw>
-53.0568389892578

> <r_i_glide_ecoul>
-6.69193315505981

> <r_i_glide_erotb>
0.729969611939356

> <r_i_glide_esite>
-0.0321764663328796

> <r_i_glide_emodel>
-77.8147467473256

> <r_i_glide_energy>
-59.7487721443176

> <r_i_glide_einternal>
14.1709642410278

> <i_i_glide_confnum>
21

> <i_i_glide_posenum>
138

> <r_i_glide_eff_state_penalty>
0

> <s_user_duplicate_titles>
167681

> <s_m_subgroup_title>
dock_pv

> <s_m_subgroupid>
dock_pv1

> <b_m_subgroup_collapsed>
0

$$$$
177898
                    3D
 Schrodinger Suite 2021-1.
 60 62  0  0  1  0            999 V2000
   20.0987  -14.0089   26.3808 C   0  0  0  0  0  0
   20.4353  -13.2384   25.2804 C   0  0  0  0  0  0
   19.7866  -13.4529   24.0712 C   0  0  0  0  0  0
   18.7705  -14.4182   23.9387 C   0  0  0  0  0  0
   18.4312  -15.1938   25.0710 C   0  0  0  0  0  0
   19.1073  -14.9800   26.2752 C   0  0  0  0  0  0
   17.3220  -16.2447   24.9841 C   0  0  0  0  0  0
   16.9952  -16.6441   23.5301 C   0  0  0  0  0  0
   16.8167  -15.4455   22.7189 N   0  0  2  0  0  0
   18.1009  -14.7453   22.5863 C   0  0  1  0  0  0
   17.8694  -13.4522   21.7498 C   0  0  0  0  0  0
   16.9183  -12.7110   22.0255 O   0  0  0  0  0  0
   18.7597  -13.1214   20.7783 N   0  0  0  0  0  0
   19.9482  -13.8973   20.4015 C   0  0  0  0  0  0
   20.6303  -13.1010   19.2949 C   0  0  0  0  0  0
   20.1476  -11.6848   19.5341 C   0  0  0  0  0  0
   18.6946  -11.8584   20.0201 C   0  0  1  0  0  0
   17.6458  -11.9132   18.8885 C   0  0  0  0  0  0
   18.0164  -11.8536   17.7153 O   0  0  0  0  0  0
   16.3638  -12.0375   19.2908 N   0  0  0  0  0  0
   15.0681  -12.0348   18.5696 C   0  0  2  0  0  0
   14.1479  -13.1078   19.2113 C   0  0  0  0  0  0
   13.6368  -12.7496   20.6243 C   0  0  0  0  0  0
   12.4458  -11.7817   20.5961 C   0  0  0  0  0  0
   12.0008  -11.4310   21.9346 N   0  0  0  0  0  0
   12.3501  -10.3020   22.6643 C   0  0  0  0  0  0
   13.2152   -9.4554   22.3102 N   0  0  0  0  0  0
   11.6154  -10.1894   23.8302 N   0  0  0  0  0  0
   15.2144  -12.2960   17.0789 C   0  0  0  0  0  0
   14.8162  -11.4940   16.2345 O   0  0  0  0  0  0
   18.7612  -15.4028   22.0233 H   0  0  0  0  0  0
   18.4387  -11.0202   20.6724 H   0  0  0  0  0  0
   20.6076  -13.8466   27.3190 H   0  0  0  0  0  0
   21.2038  -12.4854   25.3670 H   0  0  0  0  0  0
   20.0901  -12.8514   23.2290 H   0  0  0  0  0  0
   18.8505  -15.5660   27.1454 H   0  0  0  0  0  0
   16.4225  -15.8515   25.4603 H   0  0  0  0  0  0
   17.5926  -17.1323   25.5571 H   0  0  0  0  0  0
   16.0701  -17.2213   23.5066 H   0  0  0  0  0  0
   17.7673  -17.2967   23.1181 H   0  0  0  0  0  0
   16.1829  -14.8339   23.2322 H   0  0  0  0  0  0
   19.6999  -14.9014   20.0545 H   0  0  0  0  0  0
   20.6156  -13.9857   21.2594 H   0  0  0  0  0  0
   20.2815  -13.4491   18.3225 H   0  0  0  0  0  0
   21.7135  -13.1815   19.3106 H   0  0  0  0  0  0
   20.2740  -11.0556   18.6562 H   0  0  0  0  0  0
   20.7453  -11.2267   20.3209 H   0  0  0  0  0  0
   16.2514  -12.0815   20.2997 H   0  0  0  0  0  0
   14.6166  -11.0529   18.7023 H   0  0  0  0  0  0
   14.6911  -14.0536   19.2748 H   0  0  0  0  0  0
   13.2819  -13.3186   18.5803 H   0  0  0  0  0  0
   14.4374  -12.3198   21.2256 H   0  0  0  0  0  0
   13.3397  -13.6646   21.1390 H   0  0  0  0  0  0
   11.6155  -12.2473   20.0667 H   0  0  0  0  0  0
   12.6942  -10.8694   20.0533 H   0  0  0  0  0  0
   11.2629  -12.0080   22.3148 H   0  0  0  0  0  0
   13.3145   -8.7003   22.9742 H   0  0  0  0  0  0
   12.1643   -9.9588   24.6457 H   0  0  0  0  0  0
   11.0227  -10.9785   24.0508 H   0  0  0  0  0  0
   15.7113  -13.2291   16.8102 H   0  0  0  0  0  0
  1  6  1  0  0  0
  1  2  2  0  0  0
  1 33  1  0  0  0
  2  3  1  0  0  0
  2 34  1  0  0  0
  3  4  2  0  0  0
  3 35  1  0  0  0
  4 10  1  0  0  0
  4  5  1  0  0  0
  5  6  2  0  0  0
  5  7  1  0  0  0
  6 36  1  0  0  0
  7  8  1  0  0  0
  7 37  1  0  0  0
  7 38  1  0  0  0
  8  9  1  0  0  0
  8 39  1  0  0  0
  8 40  1  0  0  0
  9 10  1  0  0  0
  9 41  1  0  0  0
 10 31  1  0  0  0
 10 11  1  0  0  0
 11 12  2  0  0  0
 11 13  1  0  0  0
 13 17  1  0  0  0
 13 14  1  0  0  0
 14 15  1  0  0  0
 14 42  1  0  0  0
 14 43  1  0  0  0
 15 16  1  0  0  0
 15 44  1  0  0  0
 15 45  1  0  0  0
 16 17  1  0  0  0
 16 46  1  0  0  0
 16 47  1  0  0  0
 17 32  1  0  0  0
 17 18  1  0  0  0
 18 19  2  0  0  0
 18 20  1  0  0  0
 20 21  1  0  0  0
 20 48  1  0  0  0
 21 22  1  0  0  0
 21 29  1  0  0  0
 21 49  1  0  0  0
 22 23  1  0  0  0
 22 50  1  0  0  0
 22 51  1  0  0  0
 23 24  1  0  0  0
 23 52  1  0  0  0
 23 53  1  0  0  0
 24 25  1  0  0  0
 24 54  1  0  0  0
 24 55  1  0  0  0
 25 26  1  0  0  0
 25 56  1  0  0  0
 26 27  2  3  0  0
 26 28  1  0  0  0
 27 57  1  0  0  0
 28 58  1  0  0  0
 28 59  1  0  0  0
 29 30  2  0  0  0
 29 60  1  0  0  0
M  END
> <s_m_entry_id>
37919

> <s_m_entry_name>
ligand_docking-pose.266

> <s_m_Source_Path>
/home/csk/Desktop/cluster/DUD-E-result/thrb

> <s_m_Source_File>
ligand_docking-pose.sdf

> <i_m_Source_File_Index>
266

> <i_lp_mmshare_version>
53161

> <i_f3d_flags>
0

> <r_lp_tautomer_probability>
0.99990000499975

> <s_lp_Force_Field>
OPLS_2005

> <r_lp_Energy>
31.488244

> <b_lp_Chiralities_Consistent>
1

> <s_lp_Variant>
177898-1

> <s_i_glide_gridfile>
glide-grid_1ype

> <i_i_glide_lignum>
360

> <i_i_glide_rotatable_bonds>
11

> <r_i_docking_score>
-7.19329845876211

> <r_i_glide_ligand_efficiency>
-0.23977661529207

> <r_i_glide_ligand_efficiency_sa>
-0.745041692358436

> <r_i_glide_ligand_efficiency_ln>
-1.63439578709499

> <r_i_glide_gscore>
-7.19329845876211

> <r_i_glide_lipo>
-3.11066329813744

> <r_i_glide_hbond>
-0.32

> <r_i_glide_metal>
0

> <r_i_glide_rewards>
-1.35594791077987

> <r_i_glide_evdw>
-44.8079681396484

> <r_i_glide_ecoul>
-8.76742267608643

> <r_i_glide_erotb>
1.14882455855059

> <r_i_glide_esite>
0

> <r_i_glide_emodel>
-73.4220037296305

> <r_i_glide_energy>
-53.5753908157349

> <r_i_glide_einternal>
7.13740825653076

> <i_i_glide_confnum>
356

> <i_i_glide_posenum>
357

> <r_i_glide_eff_state_penalty>
0

> <s_user_duplicate_titles>
177898

> <s_m_subgroup_title>
dock_pv

> <s_m_subgroupid>
dock_pv1

> <b_m_subgroup_collapsed>
0

$$$$
176214
                    3D
 Schrodinger Suite 2021-1.
 65 68  0  0  1  0            999 V2000
   24.7489  -14.3687   24.3128 C   0  0  0  0  0  0
   24.5112  -15.7324   24.4615 C   0  0  0  0  0  0
   23.2201  -16.1820   24.7284 C   0  0  0  0  0  0
   22.1682  -15.2677   24.8401 C   0  0  0  0  0  0
   22.4112  -13.9012   24.6803 C   0  0  0  0  0  0
   23.7053  -13.4536   24.4220 C   0  0  0  0  0  0
   20.7702  -15.7665   25.1815 C   0  0  0  0  0  0
   19.8752  -16.6524   23.7617 S   0  0  0  0  0  0
   18.7027  -17.3109   24.3477 O   0  0  0  0  0  0
   20.8648  -17.4268   23.0053 O   0  0  0  0  0  0
   19.2806  -15.3531   22.7087 N   0  0  2  0  0  0
   20.2575  -14.6346   21.8828 C   0  0  0  0  0  0
   19.5175  -14.1586   20.6263 C   0  0  2  0  0  0
   20.2850  -13.1466   19.7793 C   0  0  0  0  0  0
   19.1991  -12.4461   18.9818 C   0  0  0  0  0  0
   17.9519  -12.4295   19.8940 C   0  0  2  0  0  0
   18.2578  -13.4367   20.9452 N   0  0  0  0  0  0
   17.5930  -13.5623   22.1396 C   0  0  0  0  0  0
   16.5762  -12.9116   22.3701 O   0  0  0  0  0  0
   18.1847  -14.4990   23.2330 C   0  0  0  0  0  0
   16.6087  -12.5757   19.1110 C   0  0  0  0  0  0
   16.5451  -12.2216   17.9321 O   0  0  0  0  0  0
   15.5352  -13.0374   19.7756 N   0  0  0  0  0  0
   14.1716  -13.2042   19.2591 C   0  0  0  0  0  0
   13.1151  -12.4268   20.0869 C   0  0  0  0  0  0
   12.9563  -12.9424   21.5360 C   0  0  0  0  0  0
   11.8883  -12.1531   22.3260 C   0  0  0  0  0  0
   12.2143  -10.7128   22.3204 N   0  0  0  0  0  0
   12.3062  -10.1578   20.9607 C   0  0  0  0  0  0
   13.3760  -10.9054   20.1370 C   0  0  0  0  0  0
   11.9909   -9.8495   23.4393 C   0  0  0  0  0  0
   12.4162   -8.6678   23.5211 N   0  0  0  0  0  0
   11.2160  -10.3896   24.4776 N   0  0  0  0  0  0
   19.2669  -15.0236   20.0085 H   0  0  0  0  0  0
   17.8266  -11.4535   20.3670 H   0  0  0  0  0  0
   25.7540  -14.0179   24.1236 H   0  0  0  0  0  0
   25.3285  -16.4354   24.3802 H   0  0  0  0  0  0
   23.0395  -17.2407   24.8515 H   0  0  0  0  0  0
   21.6076  -13.1850   24.7778 H   0  0  0  0  0  0
   23.9082  -12.3999   24.3213 H   0  0  0  0  0  0
   20.1250  -14.9603   25.5264 H   0  0  0  0  0  0
   20.8405  -16.4895   25.9927 H   0  0  0  0  0  0
   21.0998  -15.2831   21.6366 H   0  0  0  0  0  0
   20.6177  -13.7724   22.4454 H   0  0  0  0  0  0
   21.0470  -13.6209   19.1583 H   0  0  0  0  0  0
   20.8055  -12.4293   20.4178 H   0  0  0  0  0  0
   19.0221  -13.0489   18.0887 H   0  0  0  0  0  0
   19.4900  -11.4524   18.6502 H   0  0  0  0  0  0
   18.5365  -13.8845   24.0611 H   0  0  0  0  0  0
   17.3672  -15.1344   23.5772 H   0  0  0  0  0  0
   15.6765  -13.2724   20.7514 H   0  0  0  0  0  0
   13.9630  -14.2744   19.3006 H   0  0  0  0  0  0
   14.1156  -12.8918   18.2142 H   0  0  0  0  0  0
   12.1439  -12.5615   19.6065 H   0  0  0  0  0  0
   13.9023  -12.9112   22.0790 H   0  0  0  0  0  0
   12.6948  -14.0014   21.5241 H   0  0  0  0  0  0
   11.8594  -12.5506   23.3413 H   0  0  0  0  0  0
   10.8906  -12.3039   21.9127 H   0  0  0  0  0  0
   12.5379   -9.0919   20.9663 H   0  0  0  0  0  0
   11.3180  -10.2508   20.5087 H   0  0  0  0  0  0
   13.4109  -10.5123   19.1214 H   0  0  0  0  0  0
   14.3652  -10.6876   20.5452 H   0  0  0  0  0  0
   12.9627   -8.4192   22.7127 H   0  0  0  0  0  0
   10.8554   -9.7825   25.1973 H   0  0  0  0  0  0
   10.6357  -11.1997   24.3152 H   0  0  0  0  0  0
  1  6  1  0  0  0
  1  2  2  0  0  0
  1 36  1  0  0  0
  2  3  1  0  0  0
  2 37  1  0  0  0
  3  4  2  0  0  0
  3 38  1  0  0  0
  4  5  1  0  0  0
  4  7  1  0  0  0
  5  6  2  0  0  0
  5 39  1  0  0  0
  6 40  1  0  0  0
  7  8  1  0  0  0
  7 41  1  0  0  0
  7 42  1  0  0  0
  8  9  2  0  0  0
  8 10  2  0  0  0
  8 11  1  0  0  0
 11 20  1  0  0  0
 11 12  1  0  0  0
 12 13  1  0  0  0
 12 43  1  0  0  0
 12 44  1  0  0  0
 13 34  1  0  0  0
 13 17  1  0  0  0
 13 14  1  0  0  0
 14 15  1  0  0  0
 14 45  1  0  0  0
 14 46  1  0  0  0
 15 16  1  0  0  0
 15 47  1  0  0  0
 15 48  1  0  0  0
 16 35  1  0  0  0
 16 17  1  0  0  0
 16 21  1  0  0  0
 17 18  1  0  0  0
 18 19  2  0  0  0
 18 20  1  0  0  0
 20 49  1  0  0  0
 20 50  1  0  0  0
 21 22  2  0  0  0
 21 23  1  0  0  0
 23 24  1  0  0  0
 23 51  1  0  0  0
 24 25  1  0  0  0
 24 52  1  0  0  0
 24 53  1  0  0  0
 25 30  1  0  0  0
 25 26  1  0  0  0
 25 54  1  0  0  0
 26 27  1  0  0  0
 26 55  1  0  0  0
 26 56  1  0  0  0
 27 28  1  0  0  0
 27 57  1  0  0  0
 27 58  1  0  0  0
 28 29  1  0  0  0
 28 31  1  0  0  0
 29 30  1  0  0  0
 29 59  1  0  0  0
 29 60  1  0  0  0
 30 61  1  0  0  0
 30 62  1  0  0  0
 31 32  2  3  0  0
 31 33  1  0  0  0
 32 63  1  0  0  0
 33 64  1  0  0  0
 33 65  1  0  0  0
M  END
> <s_m_entry_id>
37923

> <s_m_entry_name>
ligand_docking-pose.270

> <s_m_Source_Path>
/home/csk/Desktop/cluster/DUD-E-result/thrb

> <s_m_Source_File>
ligand_docking-pose.sdf

> <i_m_Source_File_Index>
270

> <i_lp_mmshare_version>
53161

> <i_f3d_flags>
0

> <r_lp_tautomer_probability>
1

> <s_lp_Force_Field>
OPLS_2005

> <r_lp_Energy>
19.838523

> <b_lp_Chiralities_Consistent>
1

> <s_lp_Variant>
176214-2

> <s_i_glide_gridfile>
glide-grid_1ype

> <i_i_glide_lignum>
1515

> <i_i_glide_rotatable_bonds>
8

> <r_i_docking_score>
-7.18530672604335

> <r_i_glide_ligand_efficiency>
-0.217736567455859

> <r_i_glide_ligand_efficiency_sa>
-0.698397514196136

> <r_i_glide_ligand_efficiency_ln>
-1.5979750123449

> <r_i_glide_gscore>
-7.18530672604335

> <r_i_glide_lipo>
-3.27903314219396

> <r_i_glide_hbond>
-0.177401173009176

> <r_i_glide_metal>
0

> <r_i_glide_rewards>
-1.17552777658369

> <r_i_glide_evdw>
-47.7712898254395

> <r_i_glide_ecoul>
-4.67765712738037

> <r_i_glide_erotb>
0.624089151569497

> <r_i_glide_esite>
-0.0872207254469957

> <r_i_glide_emodel>
-71.1290547915027

> <r_i_glide_energy>
-52.4489469528198

> <r_i_glide_einternal>
9.55226993560791

> <i_i_glide_confnum>
47

> <i_i_glide_posenum>
11

> <r_i_glide_eff_state_penalty>
0

> <s_user_duplicate_titles>
176214

> <s_m_subgroup_title>
dock_pv

> <s_m_subgroupid>
dock_pv1

> <b_m_subgroup_collapsed>
0

$$$$
78641
                    3D
 Schrodinger Suite 2021-1.
 50 54  0  0  1  0            999 V2000
   12.0030  -16.2496   18.8953 C   0  0  0  0  0  0
   11.8107  -16.0708   20.2636 C   0  0  0  0  0  0
   12.8148  -15.4866   21.0326 C   0  0  0  0  0  0
   14.0086  -15.0822   20.4287 C   0  0  0  0  0  0
   14.1969  -15.2683   19.0557 C   0  0  0  0  0  0
   13.1926  -15.8538   18.2887 C   0  0  0  0  0  0
   15.1027  -14.4315   21.2627 C   0  0  0  0  0  0
   15.1930  -12.9372   21.0161 C   0  0  0  0  0  0
   14.2267  -11.9484   21.4260 C   0  0  0  0  0  0
   13.0591  -11.9772   22.2077 C   0  0  0  0  0  0
   12.4155  -10.7724   22.5525 C   0  0  0  0  0  0
   12.8433   -9.5833   21.9405 C   0  0  0  0  0  0
   13.9634   -9.5158   21.1210 C   0  0  0  0  0  0
   14.6659  -10.6979   20.9207 C   0  0  0  0  0  0
   15.8797  -10.9161   20.3250 N   0  0  0  0  0  0
   16.2560  -12.2238   20.4684 C   0  0  0  0  0  0
   17.6605  -12.6224   20.1943 C   0  0  0  0  0  0
   18.3371  -13.1884   21.2746 C   0  0  0  0  0  0
   19.6926  -13.4959   21.1904 C   0  0  0  0  0  0
   20.3853  -13.2257   20.0065 C   0  0  0  0  0  0
   19.7229  -12.6530   18.9180 C   0  0  0  0  0  0
   18.3520  -12.3686   19.0013 C   0  0  0  0  0  0
   17.6842  -11.8530   17.9189 O   0  0  0  0  0  0
   20.7228  -12.2500   17.3425 Br  0  0  0  0  0  0
   20.3571  -14.0826   22.3798 C   0  0  0  0  0  0
   20.1807  -13.7037   23.6252 N   0  0  0  0  0  0
   20.9862  -14.5431   24.3908 N   0  0  0  0  0  0
   21.6384  -15.4488   23.5764 N   0  0  0  0  0  0
   21.2204  -15.1443   22.3467 N   0  0  0  0  0  0
   11.3852  -10.7127   23.6169 C   0  0  0  0  0  0
   11.2667   -9.6758   24.3212 N   0  0  0  0  0  0
   10.6420  -11.8530   23.7707 N   0  0  0  0  0  0
   16.5048  -10.2133   19.9607 H   0  0  0  0  0  0
   21.5445  -15.6271   21.5205 H   0  0  0  0  0  0
   11.2215  -16.6956   18.2966 H   0  0  0  0  0  0
   10.8802  -16.3726   20.7216 H   0  0  0  0  0  0
   12.6567  -15.3384   22.0914 H   0  0  0  0  0  0
   15.1169  -14.9557   18.5836 H   0  0  0  0  0  0
   13.3278  -15.9935   17.2250 H   0  0  0  0  0  0
   14.9456  -14.6430   22.3180 H   0  0  0  0  0  0
   16.0440  -14.9166   21.0021 H   0  0  0  0  0  0
   12.7504  -12.9138   22.6496 H   0  0  0  0  0  0
   12.3316   -8.6547   22.1516 H   0  0  0  0  0  0
   14.3196   -8.5809   20.7210 H   0  0  0  0  0  0
   17.8099  -13.3711   22.2020 H   0  0  0  0  0  0
   21.4426  -13.4418   19.9342 H   0  0  0  0  0  0
   16.7333  -11.9604   18.0046 H   0  0  0  0  0  0
   11.9326   -8.9638   24.0699 H   0  0  0  0  0  0
    9.8569  -11.8212   24.4172 H   0  0  0  0  0  0
   10.8150  -12.7111   23.2635 H   0  0  0  0  0  0
  1  6  1  0  0  0
  1  2  2  0  0  0
  1 35  1  0  0  0
  2  3  1  0  0  0
  2 36  1  0  0  0
  3  4  2  0  0  0
  3 37  1  0  0  0
  4  5  1  0  0  0
  4  7  1  0  0  0
  5  6  2  0  0  0
  5 38  1  0  0  0
  6 39  1  0  0  0
  7  8  1  0  0  0
  7 40  1  0  0  0
  7 41  1  0  0  0
  8 16  2  0  0  0
  8  9  1  0  0  0
  9 14  2  0  0  0
  9 10  1  0  0  0
 10 11  2  0  0  0
 10 42  1  0  0  0
 11 12  1  0  0  0
 11 30  1  0  0  0
 12 13  2  0  0  0
 12 43  1  0  0  0
 13 14  1  0  0  0
 13 44  1  0  0  0
 14 15  1  0  0  0
 15 33  1  0  0  0
 15 16  1  0  0  0
 16 17  1  0  0  0
 17 22  1  0  0  0
 17 18  2  0  0  0
 18 19  1  0  0  0
 18 45  1  0  0  0
 19 20  2  0  0  0
 19 25  1  0  0  0
 20 21  1  0  0  0
 20 46  1  0  0  0
 21 22  2  0  0  0
 21 24  1  0  0  0
 22 23  1  0  0  0
 23 47  1  0  0  0
 25 26  2  0  0  0
 25 29  1  0  0  0
 26 27  1  0  0  0
 27 28  2  0  0  0
 28 29  1  0  0  0
 29 34  1  0  0  0
 30 31  2  3  0  0
 30 32  1  0  0  0
 31 48  1  0  0  0
 32 49  1  0  0  0
 32 50  1  0  0  0
M  END
> <s_m_entry_id>
37924

> <s_m_entry_name>
ligand_docking-pose.271

> <s_m_Source_Path>
/home/csk/Desktop/cluster/DUD-E-result/thrb

> <s_m_Source_File>
ligand_docking-pose.sdf

> <i_m_Source_File_Index>
271

> <i_lp_mmshare_version>
53161

> <i_f3d_flags>
0

> <r_lp_tautomer_probability>
0.299999999999842

> <s_lp_Force_Field>
OPLS_2005

> <r_lp_Energy>
16.259341

> <b_lp_Chiralities_Consistent>
1

> <s_lp_Variant>
78641-2

> <s_i_glide_gridfile>
glide-grid_1ype

> <i_i_glide_lignum>
634

> <i_i_glide_rotatable_bonds>
6

> <r_i_docking_score>
-7.18451761535102

> <r_i_glide_ligand_efficiency>
-0.224516175479719

> <r_i_glide_ligand_efficiency_sa>
-0.712794425457314

> <r_i_glide_ligand_efficiency_ln>
-1.60880933663067

> <r_i_glide_gscore>
-7.18451761535102

> <r_i_glide_lipo>
-3.12434219630707

> <r_i_glide_hbond>
-0.389247733561517

> <r_i_glide_metal>
0

> <r_i_glide_rewards>
-0.3593928967527

> <r_i_glide_evdw>
-47.6838722229004

> <r_i_glide_ecoul>
-7.76993799209595

> <r_i_glide_erotb>
0.341095906426077

> <r_i_glide_esite>
-0.102946385196395

> <r_i_glide_emodel>
-66.2303646347258

> <r_i_glide_energy>
-55.4538102149963

> <r_i_glide_einternal>
4.50131034851074

> <i_i_glide_confnum>
18

> <i_i_glide_posenum>
46

> <r_i_glide_eff_state_penalty>
0

> <s_user_duplicate_titles>
78641

> <s_m_subgroup_title>
dock_pv

> <s_m_subgroupid>
dock_pv1

> <b_m_subgroup_collapsed>
0

$$$$
57909
                    3D
 Schrodinger Suite 2021-1.
 60 62  0  0  1  0            999 V2000
   13.1081  -17.0490   21.0264 C   0  0  0  0  0  0
   14.4997  -16.8499   21.6116 C   0  0  0  0  0  0
   14.7725  -17.4453   22.7210 N   0  0  0  0  0  0
   16.0160  -17.2868   23.2571 C   0  0  0  0  0  0
   16.9924  -16.5351   22.7000 C   0  0  0  0  0  0
   16.6974  -15.8118   21.4590 C   0  0  0  0  0  0
   17.5055  -15.0409   20.9320 O   0  0  0  0  0  0
   15.4248  -16.0389   20.9605 N   0  0  0  0  0  0
   15.0838  -15.3401   19.6825 C   0  0  0  0  0  0
   14.5077  -13.9169   19.8681 C   0  0  0  0  0  0
   14.0857  -13.3405   18.8684 O   0  0  0  0  0  0
   14.4995  -13.3695   21.1004 N   0  0  0  0  0  0
   14.0361  -12.0316   21.4931 C   0  0  1  0  0  0
   14.3611  -10.8524   20.5312 C   0  0  0  0  0  0
   13.8705   -9.5034   21.0777 C   0  0  0  0  0  0
   12.4059   -9.6039   21.5109 C   0  0  0  0  0  0
   12.3036  -10.5883   22.5930 N   0  0  0  0  0  0
   12.6301  -11.9667   22.1770 C   0  0  1  0  0  0
   11.6334  -12.6231   21.4170 O   0  0  0  0  0  0
   11.5922  -10.2530   23.7844 C   0  0  0  0  0  0
   11.6160   -9.1167   24.3210 N   0  0  0  0  0  0
   10.8160  -11.2881   24.3258 N   0  0  0  0  0  0
   18.2815  -16.3815   23.2794 N   0  0  0  0  0  0
   19.7918  -16.8215   22.4587 S   0  0  0  0  0  0
   20.5579  -17.6461   23.3985 O   0  0  0  0  0  0
   19.4731  -17.3320   21.1210 O   0  0  0  0  0  0
   20.6929  -15.1724   22.2632 C   0  0  0  0  0  0
   20.9935  -14.5119   23.5999 C   0  0  0  0  0  0
   20.0693  -13.6277   24.1608 C   0  0  0  0  0  0
   20.3268  -13.0530   25.4021 C   0  0  0  0  0  0
   21.5042  -13.3612   26.0773 C   0  0  0  0  0  0
   22.4338  -14.2372   25.5210 C   0  0  0  0  0  0
   22.1760  -14.8164   24.2802 C   0  0  0  0  0  0
   14.7145  -11.8327   22.3210 H   0  0  0  0  0  0
   12.5104  -17.7410   21.6188 H   0  0  0  0  0  0
   12.5644  -16.1049   20.9781 H   0  0  0  0  0  0
   13.1578  -17.4702   20.0228 H   0  0  0  0  0  0
   16.2071  -17.8185   24.1788 H   0  0  0  0  0  0
   14.3834  -15.9320   19.0943 H   0  0  0  0  0  0
   15.9582  -15.2712   19.0325 H   0  0  0  0  0  0
   14.8313  -13.9492   21.8567 H   0  0  0  0  0  0
   13.8451  -11.0023   19.5832 H   0  0  0  0  0  0
   15.4305  -10.8034   20.3210 H   0  0  0  0  0  0
   13.9721   -8.7273   20.3210 H   0  0  0  0  0  0
   14.4865   -9.1785   21.9183 H   0  0  0  0  0  0
   11.7886   -9.9512   20.6797 H   0  0  0  0  0  0
   12.0160   -8.6261   21.7872 H   0  0  0  0  0  0
   12.7128  -12.5795   23.0773 H   0  0  0  0  0  0
   11.0893  -13.1527   22.0094 H   0  0  0  0  0  0
   12.2234   -8.4828   23.8279 H   0  0  0  0  0  0
   10.1228  -11.0658   25.0326 H   0  0  0  0  0  0
   10.5738  -12.0968   23.7774 H   0  0  0  0  0  0
   18.3526  -16.4274   24.3001 H   0  0  0  0  0  0
   21.6100  -15.3758   21.7105 H   0  0  0  0  0  0
   20.0659  -14.5379   21.6373 H   0  0  0  0  0  0
   19.1502  -13.3950   23.6422 H   0  0  0  0  0  0
   19.6160  -12.3716   25.8444 H   0  0  0  0  0  0
   21.6915  -12.9145   27.0428 H   0  0  0  0  0  0
   23.3445  -14.4721   26.0540 H   0  0  0  0  0  0
   22.8869  -15.5106   23.8560 H   0  0  0  0  0  0
  1  2  1  0  0  0
  1 35  1  0  0  0
  1 36  1  0  0  0
  1 37  1  0  0  0
  2  8  1  0  0  0
  2  3  2  0  0  0
  3  4  1  0  0  0
  4  5  2  0  0  0
  4 38  1  0  0  0
  5  6  1  0  0  0
  5 23  1  0  0  0
  6  7  2  0  0  0
  6  8  1  0  0  0
  8  9  1  0  0  0
  9 10  1  0  0  0
  9 39  1  0  0  0
  9 40  1  0  0  0
 10 11  2  0  0  0
 10 12  1  0  0  0
 12 13  1  0  0  0
 12 41  1  0  0  0
 13 34  1  0  0  0
 13 18  1  0  0  0
 13 14  1  0  0  0
 14 15  1  0  0  0
 14 42  1  0  0  0
 14 43  1  0  0  0
 15 16  1  0  0  0
 15 44  1  0  0  0
 15 45  1  0  0  0
 16 17  1  0  0  0
 16 46  1  0  0  0
 16 47  1  0  0  0
 17 18  1  0  0  0
 17 20  1  0  0  0
 18 19  1  0  0  0
 18 48  1  0  0  0
 19 49  1  0  0  0
 20 21  2  3  0  0
 20 22  1  0  0  0
 21 50  1  0  0  0
 22 51  1  0  0  0
 22 52  1  0  0  0
 23 24  1  0  0  0
 23 53  1  0  0  0
 24 25  2  0  0  0
 24 26  2  0  0  0
 24 27  1  0  0  0
 27 28  1  0  0  0
 27 54  1  0  0  0
 27 55  1  0  0  0
 28 33  1  0  0  0
 28 29  2  0  0  0
 29 30  1  0  0  0
 29 56  1  0  0  0
 30 31  2  0  0  0
 30 57  1  0  0  0
 31 32  1  0  0  0
 31 58  1  0  0  0
 32 33  2  0  0  0
 32 59  1  0  0  0
 33 60  1  0  0  0
M  END
> <s_m_entry_id>
37925

> <s_m_entry_name>
ligand_docking-pose.272

> <s_m_Source_Path>
/home/csk/Desktop/cluster/DUD-E-result/thrb

> <s_m_Source_File>
ligand_docking-pose.sdf

> <i_m_Source_File_Index>
272

> <i_lp_mmshare_version>
53161

> <i_f3d_flags>
0

> <r_lp_tautomer_probability>
1

> <s_lp_Force_Field>
OPLS_2005

> <r_lp_Energy>
29.912722

> <b_lp_Chiralities_Consistent>
1

> <s_lp_Variant>
57909-2

> <s_i_glide_gridfile>
glide-grid_1ype

> <i_i_glide_lignum>
3151

> <i_i_glide_rotatable_bonds>
10

> <r_i_docking_score>
-7.18132161959896

> <r_i_glide_ligand_efficiency>
-0.217615806654514

> <r_i_glide_ligand_efficiency_sa>
-0.698010169780555

> <r_i_glide_ligand_efficiency_ln>
-1.59708874530545

> <r_i_glide_gscore>
-7.18132161959896

> <r_i_glide_lipo>
-2.66488518617057

> <r_i_glide_hbond>
-0.363132656793285

> <r_i_glide_metal>
0

> <r_i_glide_rewards>
-1.02588292816297

> <r_i_glide_evdw>
-46.4187126159668

> <r_i_glide_ecoul>
-8.9434700012207

> <r_i_glide_erotb>
0.621834993889809

> <r_i_glide_esite>
-0.0867997113804939

> <r_i_glide_emodel>
-73.0007103201715

> <r_i_glide_energy>
-55.3621826171875

> <r_i_glide_einternal>
13.2209091186523

> <i_i_glide_confnum>
50

> <i_i_glide_posenum>
327

> <r_i_glide_eff_state_penalty>
0

> <s_user_duplicate_titles>
57909

> <s_m_subgroup_title>
dock_pv

> <s_m_subgroupid>
dock_pv1

> <b_m_subgroup_collapsed>
0

$$$$
234927
                    3D
 Schrodinger Suite 2021-1.
 62 64  0  0  1  0            999 V2000
   20.1780  -14.1395   24.4809 C   0  0  0  0  0  0
   19.6889  -13.5934   23.1284 C   0  0  1  0  0  0
   20.8255  -13.5176   22.0954 C   0  0  0  0  0  0
   20.2971  -13.0528   20.7440 C   0  0  0  0  0  0
   21.1330  -12.3686   19.8592 C   0  0  0  0  0  0
   20.6889  -11.9839   18.6008 C   0  0  0  0  0  0
   19.3801  -12.2531   18.2200 C   0  0  0  0  0  0
   18.5000  -12.8998   19.0903 C   0  0  0  0  0  0
   18.9624  -13.3060   20.3578 C   0  0  0  0  0  0
   18.0834  -13.9409   21.2549 N   0  0  0  0  0  0
   18.5222  -14.4286   22.5643 C   0  0  0  0  0  0
   16.8104  -13.1823   18.5086 S   0  0  0  0  0  0
   16.3131  -14.4129   19.1310 O   0  0  0  0  0  0
   16.8159  -13.0518   17.0483 O   0  0  0  0  0  0
   15.8703  -11.8060   19.0805 N   0  0  1  0  0  0
   15.5418  -11.5359   20.5075 C   0  0  1  0  0  0
   14.6751  -10.2526   20.5760 C   0  0  0  0  0  0
   13.8699   -9.9435   21.8577 C   0  0  0  0  0  0
   12.3553   -9.8098   21.5989 C   0  0  0  0  0  0
   11.6424   -9.8530   22.8583 N   0  0  0  0  0  0
   11.3766  -10.9727   23.3941 C   0  0  0  0  0  0
   10.8160  -11.0525   24.6715 N   0  0  0  0  0  0
   11.6157  -12.2507   22.8482 N   0  0  0  0  0  0
   14.9499  -12.7727   21.2324 C   0  0  0  0  0  0
   15.4496  -13.0492   22.3209 O   0  0  0  0  0  0
   13.9430  -13.5139   20.7046 N   0  0  0  0  0  0
   13.4191  -14.6972   21.4039 C   0  0  0  0  0  0
   12.3501  -15.2258   20.4502 C   0  0  0  0  0  0
   11.9203  -14.0039   19.6610 C   0  0  0  0  0  0
   13.2076  -13.2100   19.4707 C   0  0  0  0  0  0
   20.5620  -15.1564   24.3893 H   0  0  0  0  0  0
   20.9766  -13.5192   24.8900 H   0  0  0  0  0  0
   19.3710  -14.1538   25.2152 H   0  0  0  0  0  0
   19.3149  -12.5867   23.3224 H   0  0  0  0  0  0
   21.2796  -14.5027   21.9740 H   0  0  0  0  0  0
   21.6178  -12.8589   22.4526 H   0  0  0  0  0  0
   22.1510  -12.1536   20.1438 H   0  0  0  0  0  0
   21.3622  -11.4808   17.9221 H   0  0  0  0  0  0
   19.0511  -11.9458   17.2383 H   0  0  0  0  0  0
   17.2248  -14.3480   20.9008 H   0  0  0  0  0  0
   17.6684  -14.4054   23.2436 H   0  0  0  0  0  0
   18.7956  -15.4829   22.5053 H   0  0  0  0  0  0
   15.9883  -10.9627   18.5141 H   0  0  0  0  0  0
   16.4927  -11.3106   20.9968 H   0  0  0  0  0  0
   13.9884  -10.2528   19.7293 H   0  0  0  0  0  0
   15.3465   -9.4123   20.4020 H   0  0  0  0  0  0
   14.2365   -9.0249   22.3184 H   0  0  0  0  0  0
   14.0175  -10.7162   22.6085 H   0  0  0  0  0  0
   12.0045  -10.5872   20.9142 H   0  0  0  0  0  0
   12.1292   -8.8689   21.0954 H   0  0  0  0  0  0
   10.4373  -10.1835   25.0205 H   0  0  0  0  0  0
   10.1038  -11.7576   24.8114 H   0  0  0  0  0  0
   11.8457  -12.3062   21.8700 H   0  0  0  0  0  0
   11.0051  -13.0124   23.1211 H   0  0  0  0  0  0
   14.1937  -15.4475   21.5691 H   0  0  0  0  0  0
   12.9635  -14.4171   22.3545 H   0  0  0  0  0  0
   12.7908  -15.9607   19.7740 H   0  0  0  0  0  0
   11.5291  -15.7170   20.9737 H   0  0  0  0  0  0
   11.2159  -13.4131   20.2453 H   0  0  0  0  0  0
   11.4270  -14.2487   18.7211 H   0  0  0  0  0  0
   12.9754  -12.1535   19.3468 H   0  0  0  0  0  0
   13.7486  -13.6072   18.6103 H   0  0  0  0  0  0
  1  2  1  0  0  0
  1 31  1  0  0  0
  1 32  1  0  0  0
  1 33  1  0  0  0
  2 11  1  0  0  0
  2  3  1  0  0  0
  2 34  1  0  0  0
  3  4  1  0  0  0
  3 35  1  0  0  0
  3 36  1  0  0  0
  4  9  2  0  0  0
  4  5  1  0  0  0
  5  6  2  0  0  0
  5 37  1  0  0  0
  6  7  1  0  0  0
  6 38  1  0  0  0
  7  8  2  0  0  0
  7 39  1  0  0  0
  8  9  1  0  0  0
  8 12  1  0  0  0
  9 10  1  0  0  0
 10 11  1  0  0  0
 10 40  1  0  0  0
 11 41  1  0  0  0
 11 42  1  0  0  0
 12 13  2  0  0  0
 12 14  2  0  0  0
 12 15  1  0  0  0
 15 16  1  0  0  0
 15 43  1  0  0  0
 16 17  1  0  0  0
 16 24  1  0  0  0
 16 44  1  0  0  0
 17 18  1  0  0  0
 17 45  1  0  0  0
 17 46  1  0  0  0
 18 19  1  0  0  0
 18 47  1  0  0  0
 18 48  1  0  0  0
 19 20  1  0  0  0
 19 49  1  0  0  0
 19 50  1  0  0  0
 20 21  2  3  0  0
 21 22  1  0  0  0
 21 23  1  0  0  0
 22 51  1  0  0  0
 22 52  1  0  0  0
 23 53  1  0  0  0
 23 54  1  0  0  0
 24 25  2  0  0  0
 24 26  1  0  0  0
 26 30  1  0  0  0
 26 27  1  0  0  0
 27 28  1  0  0  0
 27 55  1  0  0  0
 27 56  1  0  0  0
 28 29  1  0  0  0
 28 57  1  0  0  0
 28 58  1  0  0  0
 29 30  1  0  0  0
 29 59  1  0  0  0
 29 60  1  0  0  0
 30 61  1  0  0  0
 30 62  1  0  0  0
M  END
> <s_m_entry_id>
37926

> <s_m_entry_name>
ligand_docking-pose.273

> <s_m_Source_Path>
/home/csk/Desktop/cluster/DUD-E-result/thrb

> <s_m_Source_File>
ligand_docking-pose.sdf

> <i_m_Source_File_Index>
273

> <i_lp_mmshare_version>
53161

> <i_f3d_flags>
0

> <r_lp_tautomer_probability>
1

> <s_lp_Force_Field>
OPLS_2005

> <r_lp_Energy>
36.847312

> <b_lp_Chiralities_Consistent>
1

> <s_lp_Variant>
234927-4

> <s_i_glide_gridfile>
glide-grid_1ype

> <i_i_glide_lignum>
2184

> <i_i_glide_rotatable_bonds>
9

> <r_i_docking_score>
-7.17502505505036

> <r_i_glide_ligand_efficiency>
-0.239167501835012

> <r_i_glide_ligand_efficiency_sa>
-0.743149035226996

> <r_i_glide_ligand_efficiency_ln>
-1.630243870667

> <r_i_glide_gscore>
-7.17502505505036

> <r_i_glide_lipo>
-3.1857344473657

> <r_i_glide_hbond>
-0.713886129222431

> <r_i_glide_metal>
0

> <r_i_glide_rewards>
-1.00678262931897

> <r_i_glide_evdw>
-38.2679481506348

> <r_i_glide_ecoul>
-7.28959608078003

> <r_i_glide_erotb>
0.83670298994086

> <r_i_glide_esite>
-0.0984880194353737

> <r_i_glide_emodel>
-58.9259159267528

> <r_i_glide_energy>
-45.5575442314148

> <r_i_glide_einternal>
13.0357713699341

> <i_i_glide_confnum>
60

> <i_i_glide_posenum>
354

> <r_i_glide_eff_state_penalty>
0

> <s_user_duplicate_titles>
234927

> <s_m_subgroup_title>
dock_pv

> <s_m_subgroupid>
dock_pv1

> <b_m_subgroup_collapsed>
0

$$$$
347375
                    3D
 Schrodinger Suite 2021-1.
 70 72  0  0  1  0            999 V2000
   12.9546  -12.4683   20.3632 C   0  0  0  0  0  0
   12.1699  -12.1891   21.4841 C   0  0  0  0  0  0
   12.3862  -10.9974   22.2049 C   0  0  0  0  0  0
   13.3475  -10.1110   21.8056 N   0  0  0  0  0  0
   14.1059  -10.4001   20.7236 C   0  0  0  0  0  0
   13.9493  -11.5671   19.9741 C   0  0  0  0  0  0
   14.8671  -11.8527   18.7939 C   0  0  0  0  0  0
   16.2666  -11.9463   19.2156 N   0  0  0  0  0  0
   16.8381  -13.0815   19.6548 C   0  0  0  0  0  0
   16.2689  -14.1681   19.5193 O   0  0  0  0  0  0
   18.3177  -13.0398   20.1936 C   0  0  0  0  0  0
   18.8169  -11.6588   20.7122 C   0  0  0  0  0  0
   20.2973  -11.6114   20.3140 C   0  0  0  0  0  0
   20.3099  -12.2012   18.9184 C   0  0  0  0  0  0
   19.2718  -13.3191   18.9932 C   0  0  0  0  0  0
   18.4723  -14.0845   21.2345 N   0  0  0  0  0  0
   17.7517  -14.2298   22.3685 C   0  0  0  0  0  0
   16.8561  -13.4557   22.7207 O   0  0  0  0  0  0
   18.0953  -15.4733   23.2307 C   0  0  1  0  0  0
   18.5846  -15.0763   24.6473 C   0  0  0  0  0  0
   19.8353  -14.1619   24.7256 C   0  0  0  0  0  0
   20.1962  -13.8634   26.1973 C   0  0  0  0  0  0
   21.3761  -12.8805   26.3026 C   0  0  0  0  0  0
   22.6134  -13.4012   25.5318 C   0  0  0  0  0  0
   22.2818  -13.8136   24.0813 C   0  0  0  0  0  0
   21.0763  -14.7696   24.0243 C   0  0  0  0  0  0
   16.8960  -16.3425   23.3391 N   0  0  1  0  0  0
   16.5873  -17.1127   22.1252 C   0  0  0  0  0  0
   15.1179  -17.5666   22.1429 C   0  0  0  0  0  0
   14.7485  -18.6309   21.6553 O   0  0  0  0  0  0
   14.2879  -16.6529   22.7208 O   0  0  0  0  0  0
   11.6160  -10.6071   23.4220 C   0  0  0  0  0  0
   11.7110   -9.4532   23.9229 N   0  0  0  0  0  0
   10.8160  -11.6015   23.9212 N   0  0  0  0  0  0
   18.9039  -16.0435   22.7700 H   0  0  0  0  0  0
   12.8026  -13.3898   19.8202 H   0  0  0  0  0  0
   11.4124  -12.9026   21.7756 H   0  0  0  0  0  0
   14.8777   -9.6822   20.4886 H   0  0  0  0  0  0
   14.7676  -11.0528   18.0632 H   0  0  0  0  0  0
   14.5435  -12.7626   18.2814 H   0  0  0  0  0  0
   16.7598  -11.0787   19.3436 H   0  0  0  0  0  0
   18.3206  -10.8196   20.2261 H   0  0  0  0  0  0
   18.6524  -11.5148   21.7812 H   0  0  0  0  0  0
   20.7179  -10.6065   20.3209 H   0  0  0  0  0  0
   20.8908  -12.2531   20.9733 H   0  0  0  0  0  0
   20.0153  -11.4548   18.1827 H   0  0  0  0  0  0
   21.2988  -12.5673   18.6357 H   0  0  0  0  0  0
   19.8135  -14.2534   19.1247 H   0  0  0  0  0  0
   18.7544  -13.3767   18.0357 H   0  0  0  0  0  0
   19.2723  -14.6877   21.1223 H   0  0  0  0  0  0
   18.7825  -15.9857   25.2166 H   0  0  0  0  0  0
   17.7594  -14.5886   25.1724 H   0  0  0  0  0  0
   19.6119  -13.2083   24.2424 H   0  0  0  0  0  0
   20.4195  -14.7937   26.7213 H   0  0  0  0  0  0
   19.3295  -13.4540   26.7184 H   0  0  0  0  0  0
   21.6172  -12.7212   27.3531 H   0  0  0  0  0  0
   21.0755  -11.9037   25.9205 H   0  0  0  0  0  0
   23.0275  -14.2596   26.0638 H   0  0  0  0  0  0
   23.4019  -12.6493   25.5222 H   0  0  0  0  0  0
   23.1512  -14.2826   23.6187 H   0  0  0  0  0  0
   22.0620  -12.9277   23.4853 H   0  0  0  0  0  0
   20.8586  -15.0039   22.9831 H   0  0  0  0  0  0
   21.3273  -15.7296   24.4784 H   0  0  0  0  0  0
   17.0642  -17.0108   24.0802 H   0  0  0  0  0  0
   16.7024  -16.4892   21.2364 H   0  0  0  0  0  0
   17.2562  -17.9682   22.0175 H   0  0  0  0  0  0
   14.8157  -15.9218   23.0747 H   0  0  0  0  0  0
   12.3642   -8.8875   23.4023 H   0  0  0  0  0  0
   10.1320  -11.3709   24.6350 H   0  0  0  0  0  0
   10.7966  -12.5291   23.5232 H   0  0  0  0  0  0
  1  6  1  0  0  0
  1  2  2  0  0  0
  1 36  1  0  0  0
  2  3  1  0  0  0
  2 37  1  0  0  0
  3  4  2  0  0  0
  3 32  1  0  0  0
  4  5  1  0  0  0
  5  6  2  0  0  0
  5 38  1  0  0  0
  6  7  1  0  0  0
  7  8  1  0  0  0
  7 39  1  0  0  0
  7 40  1  0  0  0
  8  9  1  0  0  0
  8 41  1  0  0  0
  9 10  2  0  0  0
  9 11  1  0  0  0
 11 15  1  0  0  0
 11 12  1  0  0  0
 11 16  1  0  0  0
 12 13  1  0  0  0
 12 42  1  0  0  0
 12 43  1  0  0  0
 13 14  1  0  0  0
 13 44  1  0  0  0
 13 45  1  0  0  0
 14 15  1  0  0  0
 14 46  1  0  0  0
 14 47  1  0  0  0
 15 48  1  0  0  0
 15 49  1  0  0  0
 16 17  1  0  0  0
 16 50  1  0  0  0
 17 18  2  0  0  0
 17 19  1  0  0  0
 19 35  1  0  0  0
 19 20  1  0  0  0
 19 27  1  0  0  0
 20 21  1  0  0  0
 20 51  1  0  0  0
 20 52  1  0  0  0
 21 26  1  0  0  0
 21 22  1  0  0  0
 21 53  1  0  0  0
 22 23  1  0  0  0
 22 54  1  0  0  0
 22 55  1  0  0  0
 23 24  1  0  0  0
 23 56  1  0  0  0
 23 57  1  0  0  0
 24 25  1  0  0  0
 24 58  1  0  0  0
 24 59  1  0  0  0
 25 26  1  0  0  0
 25 60  1  0  0  0
 25 61  1  0  0  0
 26 62  1  0  0  0
 26 63  1  0  0  0
 27 28  1  0  0  0
 27 64  1  0  0  0
 28 29  1  0  0  0
 28 65  1  0  0  0
 28 66  1  0  0  0
 29 30  2  0  0  0
 29 31  1  0  0  0
 31 67  1  0  0  0
 32 33  2  3  0  0
 32 34  1  0  0  0
 33 68  1  0  0  0
 34 69  1  0  0  0
 34 70  1  0  0  0
M  END
> <s_m_entry_id>
37927

> <s_m_entry_name>
ligand_docking-pose.274

> <s_m_Source_Path>
/home/csk/Desktop/cluster/DUD-E-result/thrb

> <s_m_Source_File>
ligand_docking-pose.sdf

> <i_m_Source_File_Index>
274

> <i_lp_mmshare_version>
53161

> <i_f3d_flags>
0

> <r_lp_tautomer_probability>
1

> <s_lp_Force_Field>
OPLS_2005

> <r_lp_Energy>
27.826802

> <b_lp_Chiralities_Consistent>
1

> <s_lp_Variant>
347375-2

> <s_i_glide_gridfile>
glide-grid_1ype

> <i_i_glide_lignum>
2005

> <i_i_glide_rotatable_bonds>
14

> <r_i_docking_score>
-7.16767282217887

> <r_i_glide_ligand_efficiency>
-0.210813906534673

> <r_i_glide_ligand_efficiency_sa>
-0.682955218680351

> <r_i_glide_ligand_efficiency_ln>
-1.58353997283208

> <r_i_glide_gscore>
-7.16767282217887

> <r_i_glide_lipo>
-3.42829348827397

> <r_i_glide_hbond>
-0.449800101706287

> <r_i_glide_metal>
0

> <r_i_glide_rewards>
-0.53447015382796

> <r_i_glide_evdw>
-47.746955871582

> <r_i_glide_ecoul>
-8.56045913696289

> <r_i_glide_erotb>
0.995970601292681

> <r_i_glide_esite>
-0.079663015539792

> <r_i_glide_emodel>
-75.0930290269574

> <r_i_glide_energy>
-56.3074150085449

> <r_i_glide_einternal>
12.5297756195068

> <i_i_glide_confnum>
296

> <i_i_glide_posenum>
393

> <r_i_glide_eff_state_penalty>
0

> <s_user_duplicate_titles>
347375

> <s_m_subgroup_title>
dock_pv

> <s_m_subgroupid>
dock_pv1

> <b_m_subgroup_collapsed>
0

$$$$
546238
                    3D
 Schrodinger Suite 2021-1.
 49 51  0  0  1  0            999 V2000
   14.0163   -9.4973   21.5209 C   0  0  0  0  0  0
   12.7177  -10.1197   20.9777 C   0  0  2  0  0  0
   11.8560  -10.7193   22.1133 C   0  0  0  0  0  0
   12.3042  -12.1215   22.5234 C   0  0  0  0  0  0
   12.2875  -13.0264   21.2911 C   0  0  2  0  0  0
   12.8161  -14.4525   21.4402 C   0  0  0  0  0  0
   13.1184  -14.8599   20.0066 C   0  0  0  0  0  0
   13.6487  -13.5767   19.3446 C   0  0  1  0  0  0
   13.0881  -12.4817   20.1774 N   0  0  0  0  0  0
   13.1490  -11.1524   19.8720 C   0  0  0  0  0  0
   13.6160  -10.7991   18.7886 O   0  0  0  0  0  0
   15.1970  -13.6001   19.2448 C   0  0  0  0  0  0
   15.7224  -14.1317   18.2690 O   0  0  0  0  0  0
   15.9134  -13.0546   20.2449 N   0  0  0  0  0  0
   17.3772  -13.0399   20.3385 C   0  0  0  0  0  0
   17.9405  -13.5266   21.6745 C   0  0  0  0  0  0
   19.1942  -13.0796   22.0850 C   0  0  0  0  0  0
   19.6998  -13.4436   23.3311 C   0  0  0  0  0  0
   18.9651  -14.2572   24.2160 C   0  0  0  0  0  0
   17.7233  -14.7357   23.7597 C   0  0  0  0  0  0
   17.2159  -14.3720   22.5148 C   0  0  0  0  0  0
   19.4557  -14.6032   25.5863 C   0  0  0  0  0  0
   18.8560  -15.4447   26.3072 N   0  0  0  0  0  0
   20.5843  -13.9267   25.9842 N   0  0  0  0  0  0
   12.0376   -9.0531   20.3289 O   0  0  0  0  0  0
   11.2543  -13.0904   20.9400 H   0  0  0  0  0  0
   14.6654  -10.2723   21.9176 H   0  0  0  0  0  0
   14.5800   -8.9599   20.7552 H   0  0  0  0  0  0
   13.8171   -8.7888   22.3274 H   0  0  0  0  0  0
   10.8161  -10.7839   21.7928 H   0  0  0  0  0  0
   11.8518  -10.0621   22.9850 H   0  0  0  0  0  0
   13.2933  -12.0985   22.9714 H   0  0  0  0  0  0
   11.6159  -12.5092   23.2761 H   0  0  0  0  0  0
   13.7186  -14.4655   22.0528 H   0  0  0  0  0  0
   12.0933  -15.1109   21.9209 H   0  0  0  0  0  0
   12.1915  -15.1522   19.5092 H   0  0  0  0  0  0
   13.7794  -15.7248   19.9212 H   0  0  0  0  0  0
   13.2899  -13.4559   18.3211 H   0  0  0  0  0  0
   15.4067  -12.5741   20.9718 H   0  0  0  0  0  0
   17.8495  -13.6209   19.5438 H   0  0  0  0  0  0
   17.6920  -12.0075   20.1725 H   0  0  0  0  0  0
   19.7774  -12.4391   21.4390 H   0  0  0  0  0  0
   20.6728  -13.0578   23.6003 H   0  0  0  0  0  0
   17.1047  -15.3732   24.3763 H   0  0  0  0  0  0
   16.2433  -14.7426   22.2234 H   0  0  0  0  0  0
   18.0471  -15.8409   25.8531 H   0  0  0  0  0  0
   20.9397  -14.0904   26.9139 H   0  0  0  0  0  0
   20.9519  -13.1590   25.4448 H   0  0  0  0  0  0
   11.5231   -9.4024   19.5864 H   0  0  0  0  0  0
  1  2  1  0  0  0
  1 27  1  0  0  0
  1 28  1  0  0  0
  1 29  1  0  0  0
  2 10  1  0  0  0
  2  3  1  0  0  0
  2 25  1  0  0  0
  3  4  1  0  0  0
  3 30  1  0  0  0
  3 31  1  0  0  0
  4  5  1  0  0  0
  4 32  1  0  0  0
  4 33  1  0  0  0
  5 26  1  0  0  0
  5  9  1  0  0  0
  5  6  1  0  0  0
  6  7  1  0  0  0
  6 34  1  0  0  0
  6 35  1  0  0  0
  7  8  1  0  0  0
  7 36  1  0  0  0
  7 37  1  0  0  0
  8  9  1  0  0  0
  8 12  1  0  0  0
  8 38  1  0  0  0
  9 10  1  0  0  0
 10 11  2  0  0  0
 12 13  2  0  0  0
 12 14  1  0  0  0
 14 15  1  0  0  0
 14 39  1  0  0  0
 15 16  1  0  0  0
 15 40  1  0  0  0
 15 41  1  0  0  0
 16 21  1  0  0  0
 16 17  2  0  0  0
 17 18  1  0  0  0
 17 42  1  0  0  0
 18 19  2  0  0  0
 18 43  1  0  0  0
 19 20  1  0  0  0
 19 22  1  0  0  0
 20 21  2  0  0  0
 20 44  1  0  0  0
 21 45  1  0  0  0
 22 23  2  3  0  0
 22 24  1  0  0  0
 23 46  1  0  0  0
 24 47  1  0  0  0
 24 48  1  0  0  0
 25 49  1  0  0  0
M  END
> <s_m_entry_id>
37928

> <s_m_entry_name>
ligand_docking-pose.275

> <s_m_Source_Path>
/home/csk/Desktop/cluster/DUD-E-result/thrb

> <s_m_Source_File>
ligand_docking-pose.sdf

> <i_m_Source_File_Index>
275

> <i_lp_mmshare_version>
53161

> <i_f3d_flags>
0

> <r_lp_tautomer_probability>
1

> <s_lp_Force_Field>
OPLS_2005

> <r_lp_Energy>
15.231556

> <b_lp_Chiralities_Consistent>
1

> <s_lp_Variant>
546238-2

> <s_i_glide_gridfile>
glide-grid_1ype

> <i_i_glide_lignum>
2811

> <i_i_glide_rotatable_bonds>
6

> <r_i_docking_score>
-7.16604847993811

> <r_i_glide_ligand_efficiency>
-0.286641939197524

> <r_i_glide_ligand_efficiency_sa>
-0.838146113829999

> <r_i_glide_ligand_efficiency_ln>
-1.69856823888908

> <r_i_glide_gscore>
-7.16604847993811

> <r_i_glide_lipo>
-2.32006779313407

> <r_i_glide_hbond>
-0.174070308128791

> <r_i_glide_metal>
0

> <r_i_glide_rewards>
-2.08565406147501

> <r_i_glide_evdw>
-36.2755813598633

> <r_i_glide_ecoul>
-9.41838836669922

> <r_i_glide_erotb>
0.640281005797807

> <r_i_glide_esite>
0

> <r_i_glide_emodel>
-62.1050724418915

> <r_i_glide_energy>
-45.6939697265625

> <r_i_glide_einternal>
6.38883352279663

> <i_i_glide_confnum>
13

> <i_i_glide_posenum>
268

> <r_i_glide_eff_state_penalty>
0

> <s_user_duplicate_titles>
546238

> <s_m_subgroup_title>
dock_pv

> <s_m_subgroupid>
dock_pv1

> <b_m_subgroup_collapsed>
0

$$$$
57747
                    3D
 Schrodinger Suite 2021-1.
 58 60  0  0  1  0            999 V2000
   12.4160   -9.1920   23.0965 C   0  0  0  0  0  0
   11.4873  -10.1372   23.5230 C   0  0  0  0  0  0
   11.6158  -11.4598   23.1186 C   0  0  0  0  0  0
   12.6979  -11.8465   22.3209 C   0  0  0  0  0  0
   13.6156  -10.8871   21.8827 C   0  0  0  0  0  0
   13.4618   -9.5537   22.2523 C   0  0  0  0  0  0
   12.9030  -13.3281   22.0351 C   0  0  0  0  0  0
   13.0398  -13.7832   20.2328 S   0  0  0  0  0  0
   12.1534  -12.8718   19.5210 O   0  0  0  0  0  0
   12.8828  -15.2341   20.0891 O   0  0  0  0  0  0
   14.6920  -13.3310   19.8201 N   0  0  0  0  0  0
   15.8526  -14.0300   20.2370 C   0  0  0  0  0  0
   15.8535  -15.2563   20.8246 C   0  0  0  0  0  0
   17.1031  -15.9355   21.0936 C   0  0  0  0  0  0
   18.2228  -15.2922   20.7293 C   0  0  0  0  0  0
   18.2741  -14.0261   20.1739 N   0  0  0  0  0  0
   17.1093  -13.3222   19.9088 C   0  0  0  0  0  0
   17.1072  -12.1759   19.4380 O   0  0  0  0  0  0
   19.5553  -13.3943   19.7750 C   0  0  0  0  0  0
   20.4977  -13.1255   20.9622 C   0  0  0  0  0  0
   21.6021  -12.6530   20.7201 O   0  0  0  0  0  0
   20.1097  -13.4520   22.2110 N   0  0  0  0  0  0
   20.9892  -13.4780   23.3811 C   0  0  1  0  0  0
   20.2261  -13.2278   24.6999 C   0  0  0  0  0  0
   21.1587  -13.3363   25.9205 C   0  0  0  0  0  0
   22.0090  -14.6228   25.9029 C   0  0  0  0  0  0
   22.7400  -14.7427   24.6327 N   0  0  0  0  0  0
   21.8414  -14.7759   23.4682 C   0  0  1  0  0  0
   21.0485  -15.9502   23.3790 O   0  0  0  0  0  0
   24.0958  -15.1963   24.5327 C   0  0  0  0  0  0
   24.8162  -15.0528   23.5191 N   0  0  0  0  0  0
   24.6180  -15.8535   25.6593 N   0  0  0  0  0  0
   21.6989  -12.6533   23.2784 H   0  0  0  0  0  0
   12.3192   -8.1737   23.4347 H   0  0  0  0  0  0
   10.6658   -9.8521   24.1668 H   0  0  0  0  0  0
   10.8984  -12.1900   23.4709 H   0  0  0  0  0  0
   14.4672  -11.1677   21.2849 H   0  0  0  0  0  0
   14.1818   -8.8159   21.9287 H   0  0  0  0  0  0
   12.0161  -13.8750   22.3212 H   0  0  0  0  0  0
   13.7532  -13.7409   22.5674 H   0  0  0  0  0  0
   14.8271  -12.3186   19.7472 H   0  0  0  0  0  0
   14.9400  -15.7703   21.0765 H   0  0  0  0  0  0
   17.1270  -16.9251   21.5271 H   0  0  0  0  0  0
   19.2059  -15.7291   20.8539 H   0  0  0  0  0  0
   19.4310  -12.4752   19.2016 H   0  0  0  0  0  0
   20.0825  -14.0911   19.1223 H   0  0  0  0  0  0
   19.2450  -13.9605   22.3127 H   0  0  0  0  0  0
   19.4329  -13.9704   24.8070 H   0  0  0  0  0  0
   19.7499  -12.2477   24.6870 H   0  0  0  0  0  0
   20.5611  -13.3140   26.8323 H   0  0  0  0  0  0
   21.8102  -12.4640   25.9943 H   0  0  0  0  0  0
   21.3867  -15.5059   26.0576 H   0  0  0  0  0  0
   22.7228  -14.5684   26.7217 H   0  0  0  0  0  0
   22.4218  -14.7888   22.5489 H   0  0  0  0  0  0
   21.6253  -16.6823   23.1488 H   0  0  0  0  0  0
   25.7426  -15.4269   23.6719 H   0  0  0  0  0  0
   25.5866  -16.1278   25.7103 H   0  0  0  0  0  0
   24.1245  -15.8786   26.5383 H   0  0  0  0  0  0
  1  6  1  0  0  0
  1  2  2  0  0  0
  1 34  1  0  0  0
  2  3  1  0  0  0
  2 35  1  0  0  0
  3  4  2  0  0  0
  3 36  1  0  0  0
  4  5  1  0  0  0
  4  7  1  0  0  0
  5  6  2  0  0  0
  5 37  1  0  0  0
  6 38  1  0  0  0
  7  8  1  0  0  0
  7 39  1  0  0  0
  7 40  1  0  0  0
  8  9  2  0  0  0
  8 10  2  0  0  0
  8 11  1  0  0  0
 11 12  1  0  0  0
 11 41  1  0  0  0
 12 17  1  0  0  0
 12 13  2  0  0  0
 13 14  1  0  0  0
 13 42  1  0  0  0
 14 15  2  0  0  0
 14 43  1  0  0  0
 15 16  1  0  0  0
 15 44  1  0  0  0
 16 17  1  0  0  0
 16 19  1  0  0  0
 17 18  2  0  0  0
 19 20  1  0  0  0
 19 45  1  0  0  0
 19 46  1  0  0  0
 20 21  2  0  0  0
 20 22  1  0  0  0
 22 23  1  0  0  0
 22 47  1  0  0  0
 23 33  1  0  0  0
 23 28  1  0  0  0
 23 24  1  0  0  0
 24 25  1  0  0  0
 24 48  1  0  0  0
 24 49  1  0  0  0
 25 26  1  0  0  0
 25 50  1  0  0  0
 25 51  1  0  0  0
 26 27  1  0  0  0
 26 52  1  0  0  0
 26 53  1  0  0  0
 27 28  1  0  0  0
 27 30  1  0  0  0
 28 29  1  0  0  0
 28 54  1  0  0  0
 29 55  1  0  0  0
 30 31  2  3  0  0
 30 32  1  0  0  0
 31 56  1  0  0  0
 32 57  1  0  0  0
 32 58  1  0  0  0
M  END
> <s_m_entry_id>
37929

> <s_m_entry_name>
ligand_docking-pose.276

> <s_m_Source_Path>
/home/csk/Desktop/cluster/DUD-E-result/thrb

> <s_m_Source_File>
ligand_docking-pose.sdf

> <i_m_Source_File_Index>
276

> <i_lp_mmshare_version>
53161

> <i_f3d_flags>
0

> <r_lp_tautomer_probability>
1

> <s_lp_Force_Field>
OPLS_2005

> <r_lp_Energy>
27.842959

> <b_lp_Chiralities_Consistent>
1

> <s_lp_Variant>
57747-1

> <s_i_glide_gridfile>
glide-grid_1ype

> <i_i_glide_lignum>
1541

> <i_i_glide_rotatable_bonds>
10

> <r_i_docking_score>
-7.16566101384115

> <r_i_glide_ligand_efficiency>
-0.223926906682536

> <r_i_glide_ligand_efficiency_sa>
-0.710923613642394

> <r_i_glide_ligand_efficiency_ln>
-1.60458682954107

> <r_i_glide_gscore>
-7.16566101384115

> <r_i_glide_lipo>
-2.76140875041639

> <r_i_glide_hbond>
-0.32

> <r_i_glide_metal>
0

> <r_i_glide_rewards>
-1.1983996783652

> <r_i_glide_evdw>
-40.0310325622559

> <r_i_glide_ecoul>
-10.108473777771

> <r_i_glide_erotb>
0.659157823724793

> <r_i_glide_esite>
-0.0271877140059168

> <r_i_glide_emodel>
-67.8552168860047

> <r_i_glide_energy>
-50.1395063400269

> <r_i_glide_einternal>
9.75496673583984

> <i_i_glide_confnum>
1

> <i_i_glide_posenum>
316

> <r_i_glide_eff_state_penalty>
0

> <s_user_duplicate_titles>
57747

> <s_m_subgroup_title>
dock_pv

> <s_m_subgroupid>
dock_pv1

> <b_m_subgroup_collapsed>
0

$$$$
129835
                    3D
 Schrodinger Suite 2021-1.
 79 81  0  0  1  0            999 V2000
   21.9340  -13.6153   24.1598 C   0  0  0  0  0  0
   21.3030  -13.2356   25.5199 C   0  0  0  0  0  0
   20.2884  -14.2204   26.1338 C   0  0  0  0  0  0
   18.9470  -14.4060   25.3987 C   0  0  0  0  0  0
   18.9963  -14.9476   23.9524 C   0  0  0  0  0  0
   19.9053  -16.1939   23.7585 C   0  0  0  0  0  0
   21.2825  -15.9136   23.1186 C   0  0  0  0  0  0
   22.2934  -15.1037   23.9582 C   0  0  0  0  0  0
   17.6170  -15.2733   23.5971 N   0  0  1  0  0  0
   17.2979  -15.2673   22.1441 C   0  0  1  0  0  0
   16.0209  -16.1026   21.8339 C   0  0  0  0  0  0
   16.0507  -17.5756   22.2672 C   0  0  0  0  0  0
   16.9407  -18.0874   22.9444 O   0  0  0  0  0  0
   14.9488  -18.2534   21.8341 O   0  0  0  0  0  0
   17.0511  -13.7928   21.6927 C   0  0  0  0  0  0
   16.2099  -13.1460   22.3232 O   0  0  0  0  0  0
   17.7054  -13.2538   20.6283 N   0  0  0  0  0  0
   18.8184  -13.8926   19.8947 C   0  0  0  0  0  0
   20.1172  -13.1407   20.2434 C   0  0  0  0  0  0
   19.9989  -11.6353   19.9402 C   0  0  0  0  0  0
   18.7151  -11.0516   20.5618 C   0  0  0  0  0  0
   17.4262  -11.8464   20.2571 C   0  0  1  0  0  0
   16.7792  -11.6632   18.8660 C   0  0  0  0  0  0
   15.2701  -11.9656   18.8761 C   0  0  0  0  0  0
   14.6504  -11.0530   19.7744 O   0  0  0  0  0  0
   13.2301  -11.0528   19.8017 C   0  0  0  0  0  0
   12.6895  -12.2428   20.6241 C   0  0  0  0  0  0
   12.9511  -12.0781   22.1355 C   0  0  0  0  0  0
   12.3987  -10.7942   22.6019 N   0  0  0  0  0  0
   13.0551   -9.6502   21.9570 C   0  0  0  0  0  0
   12.7650   -9.7216   20.4412 C   0  0  0  0  0  0
   11.4678  -10.6532   23.6802 C   0  0  0  0  0  0
   11.2167   -9.5850   24.2961 N   0  0  0  0  0  0
   10.7868  -11.8359   24.0249 N   0  0  0  0  0  0
   18.1042  -15.7458   21.5950 H   0  0  0  0  0  0
   22.8575  -13.0446   24.0601 H   0  0  0  0  0  0
   21.3109  -13.2540   23.3438 H   0  0  0  0  0  0
   22.1123  -13.1084   26.2420 H   0  0  0  0  0  0
   20.8329  -12.2538   25.4399 H   0  0  0  0  0  0
   20.7567  -15.1864   26.3168 H   0  0  0  0  0  0
   20.0495  -13.8387   27.1221 H   0  0  0  0  0  0
   18.3342  -15.0683   26.0141 H   0  0  0  0  0  0
   18.4200  -13.4529   25.3971 H   0  0  0  0  0  0
   19.3229  -14.1390   23.2994 H   0  0  0  0  0  0
   19.4143  -16.9311   23.1223 H   0  0  0  0  0  0
   20.0425  -16.7145   24.7073 H   0  0  0  0  0  0
   21.7430  -16.8749   22.8860 H   0  0  0  0  0  0
   21.1408  -15.4305   22.1515 H   0  0  0  0  0  0
   22.4868  -15.5956   24.9125 H   0  0  0  0  0  0
   23.2497  -15.1461   23.4340 H   0  0  0  0  0  0
   17.4586  -16.2171   23.9265 H   0  0  0  0  0  0
   15.1547  -15.6458   22.3199 H   0  0  0  0  0  0
   15.8229  -16.0761   20.7614 H   0  0  0  0  0  0
   14.3540  -17.7093   21.3137 H   0  0  0  0  0  0
   18.8734  -14.9776   19.9299 H   0  0  0  0  0  0
   18.6145  -13.7301   18.8388 H   0  0  0  0  0  0
   20.3571  -13.2945   21.2943 H   0  0  0  0  0  0
   20.9518  -13.5645   19.6831 H   0  0  0  0  0  0
   20.8751  -11.1082   20.3198 H   0  0  0  0  0  0
   19.9863  -11.4652   18.8627 H   0  0  0  0  0  0
   18.8162  -11.0552   21.6482 H   0  0  0  0  0  0
   18.5835  -10.0003   20.3272 H   0  0  0  0  0  0
   16.7005  -11.4044   20.9411 H   0  0  0  0  0  0
   16.9164  -10.6441   18.5263 H   0  0  0  0  0  0
   17.2699  -12.2775   18.1136 H   0  0  0  0  0  0
   14.8667  -11.8400   17.8702 H   0  0  0  0  0  0
   15.0926  -12.9981   19.1796 H   0  0  0  0  0  0
   12.8200  -11.0942   18.7911 H   0  0  0  0  0  0
   11.6160  -12.3309   20.4776 H   0  0  0  0  0  0
   13.0992  -13.1881   20.2706 H   0  0  0  0  0  0
   12.5751  -12.9410   22.6873 H   0  0  0  0  0  0
   14.0242  -12.0517   22.3166 H   0  0  0  0  0  0
   12.7156   -8.6968   22.3641 H   0  0  0  0  0  0
   14.1284   -9.7120   22.1425 H   0  0  0  0  0  0
   13.2066   -8.8699   19.9250 H   0  0  0  0  0  0
   11.6863   -9.6095   20.3224 H   0  0  0  0  0  0
   10.4796   -9.7269   24.9775 H   0  0  0  0  0  0
    9.9869  -11.8120   24.6524 H   0  0  0  0  0  0
   10.8777  -12.7019   23.5082 H   0  0  0  0  0  0
  1  8  1  0  0  0
  1  2  1  0  0  0
  1 36  1  0  0  0
  1 37  1  0  0  0
  2  3  1  0  0  0
  2 38  1  0  0  0
  2 39  1  0  0  0
  3  4  1  0  0  0
  3 40  1  0  0  0
  3 41  1  0  0  0
  4  5  1  0  0  0
  4 42  1  0  0  0
  4 43  1  0  0  0
  5  6  1  0  0  0
  5  9  1  0  0  0
  5 44  1  0  0  0
  6  7  1  0  0  0
  6 45  1  0  0  0
  6 46  1  0  0  0
  7  8  1  0  0  0
  7 47  1  0  0  0
  7 48  1  0  0  0
  8 49  1  0  0  0
  8 50  1  0  0  0
  9 10  1  0  0  0
  9 51  1  0  0  0
 10 35  1  0  0  0
 10 11  1  0  0  0
 10 15  1  0  0  0
 11 12  1  0  0  0
 11 52  1  0  0  0
 11 53  1  0  0  0
 12 13  2  0  0  0
 12 14  1  0  0  0
 14 54  1  0  0  0
 15 16  2  0  0  0
 15 17  1  0  0  0
 17 22  1  0  0  0
 17 18  1  0  0  0
 18 19  1  0  0  0
 18 55  1  0  0  0
 18 56  1  0  0  0
 19 20  1  0  0  0
 19 57  1  0  0  0
 19 58  1  0  0  0
 20 21  1  0  0  0
 20 59  1  0  0  0
 20 60  1  0  0  0
 21 22  1  0  0  0
 21 61  1  0  0  0
 21 62  1  0  0  0
 22 23  1  0  0  0
 22 63  1  0  0  0
 23 24  1  0  0  0
 23 64  1  0  0  0
 23 65  1  0  0  0
 24 25  1  0  0  0
 24 66  1  0  0  0
 24 67  1  0  0  0
 25 26  1  0  0  0
 26 31  1  0  0  0
 26 27  1  0  0  0
 26 68  1  0  0  0
 27 28  1  0  0  0
 27 69  1  0  0  0
 27 70  1  0  0  0
 28 29  1  0  0  0
 28 71  1  0  0  0
 28 72  1  0  0  0
 29 30  1  0  0  0
 29 32  1  0  0  0
 30 31  1  0  0  0
 30 73  1  0  0  0
 30 74  1  0  0  0
 31 75  1  0  0  0
 31 76  1  0  0  0
 32 33  2  3  0  0
 32 34  1  0  0  0
 33 77  1  0  0  0
 34 78  1  0  0  0
 34 79  1  0  0  0
M  END
> <s_m_entry_id>
37931

> <s_m_entry_name>
ligand_docking-pose.278

> <s_m_Source_Path>
/home/csk/Desktop/cluster/DUD-E-result/thrb

> <s_m_Source_File>
ligand_docking-pose.sdf

> <i_m_Source_File_Index>
278

> <i_lp_mmshare_version>
53161

> <i_f3d_flags>
0

> <r_lp_tautomer_probability>
1

> <s_lp_Force_Field>
OPLS_2005

> <r_lp_Energy>
58.54853

> <b_lp_Chiralities_Consistent>
1

> <s_lp_Variant>
129835-1

> <s_i_glide_gridfile>
glide-grid_1ype

> <i_i_glide_lignum>
1916

> <i_i_glide_rotatable_bonds>
12

> <r_i_docking_score>
-7.15916650237171

> <r_i_glide_ligand_efficiency>
-0.210563720657991

> <r_i_glide_ligand_efficiency_sa>
-0.682144713562695

> <r_i_glide_ligand_efficiency_ln>
-1.58166068819249

> <r_i_glide_gscore>
-7.15916650237171

> <r_i_glide_lipo>
-3.45177281960438

> <r_i_glide_hbond>
-0.67947873230542

> <r_i_glide_metal>
0

> <r_i_glide_rewards>
-0.802516617128142

> <r_i_glide_evdw>
-43.7069244384766

> <r_i_glide_ecoul>
-5.06573867797852

> <r_i_glide_erotb>
0.793064558990571

> <r_i_glide_esite>
-0.0732558687037342

> <r_i_glide_emodel>
-68.0015672792522

> <r_i_glide_energy>
-48.7726631164551

> <r_i_glide_einternal>
3.92558789253235

> <i_i_glide_confnum>
204

> <i_i_glide_posenum>
318

> <r_i_glide_eff_state_penalty>
0

> <s_user_duplicate_titles>
129835

> <s_m_subgroup_title>
dock_pv

> <s_m_subgroupid>
dock_pv1

> <b_m_subgroup_collapsed>
0

$$$$
37716
                    3D
 Schrodinger Suite 2021-1.
 47 49  0  0  1  0            999 V2000
   24.4776  -15.9673   24.4614 C   0  0  0  0  0  0
   25.2155  -14.8191   24.1768 C   0  0  0  0  0  0
   24.5715  -13.5843   24.2364 C   0  0  0  0  0  0
   23.2572  -13.4531   24.5430 N   0  0  0  0  0  0
   22.5403  -14.5792   24.8105 C   0  0  0  0  0  0
   23.1228  -15.8535   24.7828 C   0  0  0  0  0  0
   21.0456  -14.3725   25.0943 C   0  0  0  0  0  0
   20.3212  -13.6130   23.9543 C   0  0  0  0  0  0
   20.4674  -14.2250   22.6243 N   0  0  0  0  0  0
   20.0250  -13.6760   21.4281 C   0  0  0  0  0  0
   18.7657  -12.8463   21.3629 C   0  0  0  0  0  0
   18.0138  -12.6531   22.3209 O   0  0  0  0  0  0
   18.5084  -12.3097   20.1076 N   0  0  0  0  0  0
   19.3286  -12.6434   19.0372 C   0  0  0  0  0  0
   20.4164  -13.4399   19.2012 C   0  0  0  0  0  0
   20.7773  -13.9457   20.4193 N   0  0  0  0  0  0
   18.8823  -12.0332   17.4369 Cl  0  0  0  0  0  0
   17.3765  -11.3495   20.0266 C   0  0  0  0  0  0
   16.0135  -12.0605   19.9082 C   0  0  0  0  0  0
   15.9199  -13.2487   19.6035 O   0  0  0  0  0  0
   14.9585  -11.2836   20.1845 N   0  0  0  0  0  0
   13.5531  -11.6911   20.2496 C   0  0  0  0  0  0
   12.8270  -11.1288   21.4720 C   0  0  0  0  0  0
   13.1069   -9.8553   21.9916 C   0  0  0  0  0  0
   12.4144   -9.4227   23.1217 C   0  0  0  0  0  0
   11.4531  -10.2529   23.7010 C   0  0  0  0  0  0
   11.2164  -11.4992   23.1197 C   0  0  0  0  0  0
   11.8871  -11.9429   22.0238 N   0  0  0  0  0  0
   14.0380   -9.0535   21.4268 F   0  0  0  0  0  0
   20.9449  -13.6846   26.2327 F   0  0  0  0  0  0
   20.4482  -15.5488   25.3075 F   0  0  0  0  0  0
   24.9487  -16.9387   24.4307 H   0  0  0  0  0  0
   26.2638  -14.8832   23.9215 H   0  0  0  0  0  0
   25.1125  -12.6723   24.0284 H   0  0  0  0  0  0
   22.5459  -16.7420   24.9955 H   0  0  0  0  0  0
   20.6832  -12.5852   23.9193 H   0  0  0  0  0  0
   19.2656  -13.5459   24.2181 H   0  0  0  0  0  0
   21.3153  -14.7658   22.5242 H   0  0  0  0  0  0
   21.0383  -13.7057   18.3565 H   0  0  0  0  0  0
   17.4964  -10.6627   19.1901 H   0  0  0  0  0  0
   17.3603  -10.7163   20.9173 H   0  0  0  0  0  0
   15.1268  -10.3052   20.3668 H   0  0  0  0  0  0
   13.4635  -12.7814   20.2324 H   0  0  0  0  0  0
   13.0400  -11.3372   19.3540 H   0  0  0  0  0  0
   12.6203   -8.4526   23.5488 H   0  0  0  0  0  0
   10.8900   -9.9357   24.5682 H   0  0  0  0  0  0
   10.4667  -12.1636   23.5288 H   0  0  0  0  0  0
  1  6  1  0  0  0
  1  2  2  0  0  0
  1 32  1  0  0  0
  2  3  1  0  0  0
  2 33  1  0  0  0
  3  4  2  0  0  0
  3 34  1  0  0  0
  4  5  1  0  0  0
  5  6  2  0  0  0
  5  7  1  0  0  0
  6 35  1  0  0  0
  7  8  1  0  0  0
  7 30  1  0  0  0
  7 31  1  0  0  0
  8  9  1  0  0  0
  8 36  1  0  0  0
  8 37  1  0  0  0
  9 10  1  0  0  0
  9 38  1  0  0  0
 10 16  2  0  0  0
 10 11  1  0  0  0
 11 12  2  0  0  0
 11 13  1  0  0  0
 13 14  1  0  0  0
 13 18  1  0  0  0
 14 15  2  0  0  0
 14 17  1  0  0  0
 15 16  1  0  0  0
 15 39  1  0  0  0
 18 19  1  0  0  0
 18 40  1  0  0  0
 18 41  1  0  0  0
 19 20  2  0  0  0
 19 21  1  0  0  0
 21 22  1  0  0  0
 21 42  1  0  0  0
 22 23  1  0  0  0
 22 43  1  0  0  0
 22 44  1  0  0  0
 23 28  1  0  0  0
 23 24  2  0  0  0
 24 25  1  0  0  0
 24 29  1  0  0  0
 25 26  2  0  0  0
 25 45  1  0  0  0
 26 27  1  0  0  0
 26 46  1  0  0  0
 27 28  2  0  0  0
 27 47  1  0  0  0
M  END
> <s_m_entry_id>
37932

> <s_m_entry_name>
ligand_docking-pose.279

> <s_m_Source_Path>
/home/csk/Desktop/cluster/DUD-E-result/thrb

> <s_m_Source_File>
ligand_docking-pose.sdf

> <i_m_Source_File_Index>
279

> <i_lp_mmshare_version>
53161

> <i_f3d_flags>
0

> <r_lp_tautomer_probability>
1

> <s_lp_Force_Field>
OPLS_2005

> <r_lp_Energy>
16.356369

> <b_lp_Chiralities_Consistent>
1

> <s_lp_Variant>
37716-1

> <s_i_glide_gridfile>
glide-grid_1ype

> <i_i_glide_lignum>
1992

> <i_i_glide_rotatable_bonds>
9

> <r_i_docking_score>
-7.15814325841362

> <r_i_glide_ligand_efficiency>
-0.230907847045601

> <r_i_glide_ligand_efficiency_sa>
-0.725369442364098

> <r_i_glide_ligand_efficiency_ln>
-1.61438067551771

> <r_i_glide_gscore>
-7.15814325841362

> <r_i_glide_lipo>
-2.94791435351643

> <r_i_glide_hbond>
0

> <r_i_glide_metal>
0

> <r_i_glide_rewards>
-1.84691979237114

> <r_i_glide_evdw>
-49.5202713012695

> <r_i_glide_ecoul>
-3.81602931022644

> <r_i_glide_erotb>
0.685108849071387

> <r_i_glide_esite>
0

> <r_i_glide_emodel>
-67.2196486531231

> <r_i_glide_energy>
-53.336300611496

> <r_i_glide_einternal>
17.9751091003418

> <i_i_glide_confnum>
26

> <i_i_glide_posenum>
228

> <r_i_glide_eff_state_penalty>
0

> <s_user_duplicate_titles>
37716

> <s_m_subgroup_title>
dock_pv

> <s_m_subgroupid>
dock_pv1

> <b_m_subgroup_collapsed>
0

$$$$
553339
                    3D
 Schrodinger Suite 2021-1.
 61 63  0  0  1  0            999 V2000
   24.9957  -13.7271   24.3192 C   0  0  0  0  0  0
   23.8248  -14.6385   24.6334 C   0  0  0  0  0  0
   24.0146  -16.0022   24.8541 C   0  0  0  0  0  0
   22.9216  -16.8211   25.1362 C   0  0  0  0  0  0
   21.6268  -16.2927   25.2087 C   0  0  0  0  0  0
   21.4340  -14.9140   24.9933 C   0  0  0  0  0  0
   22.5396  -14.1054   24.7054 C   0  0  0  0  0  0
   19.8163  -14.1195   25.0849 S   0  0  0  0  0  0
   20.0158  -12.6846   24.8510 O   0  0  0  0  0  0
   19.1786  -14.5932   26.3166 O   0  0  0  0  0  0
   18.8791  -14.7708   23.7367 N   0  0  1  0  0  0
   19.2838  -14.3071   22.4912 N   0  0  0  0  0  0
   20.2683  -15.0545   21.9009 C   0  0  0  0  0  0
   20.8122  -14.7304   20.7176 C   0  0  0  0  0  0
   20.3464  -13.5243   20.0434 C   0  0  0  0  0  0
   19.3159  -12.8203   20.6067 C   0  0  0  0  0  0
   18.6792  -13.2355   21.8784 C   0  0  0  0  0  0
   17.6768  -12.6683   22.3211 O   0  0  0  0  0  0
   18.7757  -11.5149   19.9989 C   0  0  0  0  0  0
   17.5016  -11.7555   19.1783 C   0  0  0  0  0  0
   17.5717  -12.1860   18.0272 O   0  0  0  0  0  0
   16.3545  -11.4524   19.7963 N   0  0  0  0  0  0
   15.0154  -11.7008   19.2783 C   0  0  0  0  0  0
   13.9692  -11.4395   20.3512 C   0  0  0  0  0  0
   13.0829  -12.4482   20.7202 C   0  0  0  0  0  0
   12.1877  -12.2378   21.7627 C   0  0  0  0  0  0
   12.1490  -11.0184   22.4668 C   0  0  0  0  0  0
   13.0248  -10.0016   22.0466 C   0  0  0  0  0  0
   13.9245  -10.2070   21.0060 C   0  0  0  0  0  0
   11.2309  -10.7931   23.6218 C   0  0  0  0  0  0
   11.2159   -9.7041   24.2537 N   0  0  0  0  0  0
   10.4161  -11.8528   23.9208 N   0  0  0  0  0  0
   20.9634  -13.1566   18.7054 C   0  0  0  0  0  0
   20.4735  -17.2414   25.5086 C   0  0  0  0  0  0
   25.0945  -12.9711   25.0976 H   0  0  0  0  0  0
   25.9377  -14.2702   24.2381 H   0  0  0  0  0  0
   24.8158  -13.2025   23.3804 H   0  0  0  0  0  0
   25.0062  -16.4295   24.8084 H   0  0  0  0  0  0
   23.0897  -17.8750   25.3034 H   0  0  0  0  0  0
   22.4075  -13.0503   24.5332 H   0  0  0  0  0  0
   18.8236  -15.7913   23.7404 H   0  0  0  0  0  0
   20.5815  -15.9260   22.4610 H   0  0  0  0  0  0
   21.5809  -15.3486   20.2780 H   0  0  0  0  0  0
   19.5272  -11.0552   19.3646 H   0  0  0  0  0  0
   18.5965  -10.7711   20.7800 H   0  0  0  0  0  0
   16.4088  -11.1003   20.7431 H   0  0  0  0  0  0
   14.9441  -12.7286   18.9139 H   0  0  0  0  0  0
   14.8201  -11.0549   18.4227 H   0  0  0  0  0  0
   13.0992  -13.4083   20.2242 H   0  0  0  0  0  0
   11.5311  -13.0546   22.0201 H   0  0  0  0  0  0
   13.0342   -9.0438   22.5473 H   0  0  0  0  0  0
   14.6053   -9.4146   20.7280 H   0  0  0  0  0  0
   10.4966   -9.7279   24.9673 H   0  0  0  0  0  0
    9.6597  -11.7352   24.5961 H   0  0  0  0  0  0
   10.5456  -12.7761   23.5224 H   0  0  0  0  0  0
   21.2153  -14.0670   18.1633 H   0  0  0  0  0  0
   20.2785  -12.6283   18.0452 H   0  0  0  0  0  0
   21.8757  -12.5790   18.8499 H   0  0  0  0  0  0
   20.7982  -18.2819   25.5519 H   0  0  0  0  0  0
   20.0059  -16.9949   26.4609 H   0  0  0  0  0  0
   19.7069  -17.1749   24.7384 H   0  0  0  0  0  0
  1  2  1  0  0  0
  1 35  1  0  0  0
  1 36  1  0  0  0
  1 37  1  0  0  0
  2  7  1  0  0  0
  2  3  2  0  0  0
  3  4  1  0  0  0
  3 38  1  0  0  0
  4  5  2  0  0  0
  4 39  1  0  0  0
  5  6  1  0  0  0
  5 34  1  0  0  0
  6  7  2  0  0  0
  6  8  1  0  0  0
  7 40  1  0  0  0
  8  9  2  0  0  0
  8 10  2  0  0  0
  8 11  1  0  0  0
 11 12  1  0  0  0
 11 41  1  0  0  0
 12 17  1  0  0  0
 12 13  1  0  0  0
 13 14  2  0  0  0
 13 42  1  0  0  0
 14 15  1  0  0  0
 14 43  1  0  0  0
 15 16  2  0  0  0
 15 33  1  0  0  0
 16 17  1  0  0  0
 16 19  1  0  0  0
 17 18  2  0  0  0
 19 20  1  0  0  0
 19 44  1  0  0  0
 19 45  1  0  0  0
 20 21  2  0  0  0
 20 22  1  0  0  0
 22 23  1  0  0  0
 22 46  1  0  0  0
 23 24  1  0  0  0
 23 47  1  0  0  0
 23 48  1  0  0  0
 24 29  1  0  0  0
 24 25  2  0  0  0
 25 26  1  0  0  0
 25 49  1  0  0  0
 26 27  2  0  0  0
 26 50  1  0  0  0
 27 28  1  0  0  0
 27 30  1  0  0  0
 28 29  2  0  0  0
 28 51  1  0  0  0
 29 52  1  0  0  0
 30 31  2  3  0  0
 30 32  1  0  0  0
 31 53  1  0  0  0
 32 54  1  0  0  0
 32 55  1  0  0  0
 33 56  1  0  0  0
 33 57  1  0  0  0
 33 58  1  0  0  0
 34 59  1  0  0  0
 34 60  1  0  0  0
 34 61  1  0  0  0
M  END
> <s_m_entry_id>
37934

> <s_m_entry_name>
ligand_docking-pose.281

> <s_m_Source_Path>
/home/csk/Desktop/cluster/DUD-E-result/thrb

> <s_m_Source_File>
ligand_docking-pose.sdf

> <i_m_Source_File_Index>
281

> <i_lp_mmshare_version>
53161

> <i_f3d_flags>
0

> <r_lp_tautomer_probability>
1

> <s_lp_Force_Field>
OPLS_2005

> <r_lp_Energy>
19.610654

> <b_lp_Chiralities_Consistent>
1

> <s_lp_Variant>
553339-1

> <s_i_glide_gridfile>
glide-grid_1ype

> <i_i_glide_lignum>
2570

> <i_i_glide_rotatable_bonds>
9

> <r_i_docking_score>
-7.15582133012262

> <r_i_glide_ligand_efficiency>
-0.2104653332389

> <r_i_glide_ligand_efficiency_sa>
-0.681825976519085

> <r_i_glide_ligand_efficiency_ln>
-1.58092164581376

> <r_i_glide_gscore>
-7.15582133012262

> <r_i_glide_lipo>
-3.22662804398547

> <r_i_glide_hbond>
-0.200309099429757

> <r_i_glide_metal>
0

> <r_i_glide_rewards>
-0.294300918577431

> <r_i_glide_evdw>
-51.9540328979492

> <r_i_glide_ecoul>
-9.35675048828125

> <r_i_glide_erotb>
0.699837946769361

> <r_i_glide_esite>
-0.133206996759667

> <r_i_glide_emodel>
-83.3037571434877

> <r_i_glide_energy>
-61.3107833862305

> <r_i_glide_einternal>
2.57895803451538

> <i_i_glide_confnum>
8

> <i_i_glide_posenum>
340

> <r_i_glide_eff_state_penalty>
0

> <s_user_duplicate_titles>
553339

> <s_m_subgroup_title>
dock_pv

> <s_m_subgroupid>
dock_pv1

> <b_m_subgroup_collapsed>
0

$$$$
167570
                    3D
 Schrodinger Suite 2021-1.
 59 62  0  0  1  0            999 V2000
   12.0167   -9.5440   23.3339 C   0  0  0  0  0  0
   11.2177  -10.6681   23.5183 C   0  0  0  0  0  0
   11.4309  -11.8013   22.7373 C   0  0  0  0  0  0
   12.4537  -11.8301   21.7816 C   0  0  0  0  0  0
   13.2759  -10.6948   21.5964 C   0  0  0  0  0  0
   13.0319   -9.5557   22.3768 C   0  0  0  0  0  0
   14.4220  -10.6450   20.5806 C   0  0  0  0  0  0
   15.3617  -11.7662   20.6368 N   0  0  0  0  0  0
   16.4151  -11.8958   19.8142 C   0  0  0  0  0  0
   16.7215  -11.0530   18.9721 O   0  0  0  0  0  0
   17.2466  -13.1759   19.9357 C   0  0  0  0  0  0
   18.7132  -12.9010   20.3609 C   0  0  2  0  0  0
   19.5535  -12.1228   19.3335 C   0  0  0  0  0  0
   20.9533  -12.6886   19.4499 C   0  0  0  0  0  0
   20.7000  -14.1642   19.7204 C   0  0  0  0  0  0
   19.5259  -14.1067   20.6117 N   0  0  0  0  0  0
   19.2971  -14.9178   21.6787 C   0  0  0  0  0  0
   18.2862  -14.8151   22.3825 O   0  0  0  0  0  0
   20.4131  -15.9188   22.1009 C   0  0  1  0  0  0
   21.6492  -15.1869   22.7025 C   0  0  0  0  0  0
   21.5055  -14.5266   24.0706 C   0  0  0  0  0  0
   20.5280  -13.5652   24.3642 C   0  0  0  0  0  0
   20.5250  -12.9785   25.6281 C   0  0  0  0  0  0
   21.5192  -13.3153   26.5414 C   0  0  0  0  0  0
   22.4786  -14.2532   26.1626 C   0  0  0  0  0  0
   22.4760  -14.8669   24.9567 N   0  0  0  0  0  0
   19.8636  -16.9395   23.0173 N   0  0  0  0  0  0
   12.6263  -13.0212   21.0502 N   0  0  0  0  0  0
   12.8186  -14.2907   21.5210 C   0  0  0  0  0  0
   12.9292  -15.1401   20.5346 N   0  0  0  0  0  0
   12.7965  -14.3454   19.4849 C   0  0  0  0  0  0
   12.6041  -13.0637   19.7138 N   0  0  0  0  0  0
   18.6857  -12.3452   21.3012 H   0  0  0  0  0  0
   20.7348  -16.4358   21.1960 H   0  0  0  0  0  0
   11.8522   -8.6640   23.9371 H   0  0  0  0  0  0
   10.4181  -10.6576   24.2477 H   0  0  0  0  0  0
   10.7786  -12.6526   22.8687 H   0  0  0  0  0  0
   13.6444   -8.6725   22.2644 H   0  0  0  0  0  0
   13.9703  -10.6123   19.5876 H   0  0  0  0  0  0
   14.9848   -9.7164   20.7044 H   0  0  0  0  0  0
   15.1181  -12.5332   21.2470 H   0  0  0  0  0  0
   16.7583  -13.8515   20.6385 H   0  0  0  0  0  0
   17.2232  -13.6906   18.9763 H   0  0  0  0  0  0
   19.1826  -12.3010   18.3220 H   0  0  0  0  0  0
   19.5064  -11.0530   19.5142 H   0  0  0  0  0  0
   21.5625  -12.5277   18.5600 H   0  0  0  0  0  0
   21.4865  -12.2357   20.2884 H   0  0  0  0  0  0
   20.4166  -14.6299   18.7803 H   0  0  0  0  0  0
   21.5891  -14.6555   20.1040 H   0  0  0  0  0  0
   22.4669  -15.9088   22.7242 H   0  0  0  0  0  0
   22.0154  -14.4001   22.0491 H   0  0  0  0  0  0
   19.7877  -13.2505   23.6470 H   0  0  0  0  0  0
   19.7728  -12.2525   25.8927 H   0  0  0  0  0  0
   21.5493  -12.8565   27.5182 H   0  0  0  0  0  0
   23.2693  -14.5388   26.8389 H   0  0  0  0  0  0
   20.5616  -17.2294   23.6939 H   0  0  0  0  0  0
   19.1235  -16.5052   23.5615 H   0  0  0  0  0  0
   12.8478  -14.4902   22.5827 H   0  0  0  0  0  0
   12.8365  -14.7380   18.4793 H   0  0  0  0  0  0
  1  6  1  0  0  0
  1  2  2  0  0  0
  1 35  1  0  0  0
  2  3  1  0  0  0
  2 36  1  0  0  0
  3  4  2  0  0  0
  3 37  1  0  0  0
  4  5  1  0  0  0
  4 28  1  0  0  0
  5  6  2  0  0  0
  5  7  1  0  0  0
  6 38  1  0  0  0
  7  8  1  0  0  0
  7 39  1  0  0  0
  7 40  1  0  0  0
  8  9  1  0  0  0
  8 41  1  0  0  0
  9 10  2  0  0  0
  9 11  1  0  0  0
 11 12  1  0  0  0
 11 42  1  0  0  0
 11 43  1  0  0  0
 12 33  1  0  0  0
 12 16  1  0  0  0
 12 13  1  0  0  0
 13 14  1  0  0  0
 13 44  1  0  0  0
 13 45  1  0  0  0
 14 15  1  0  0  0
 14 46  1  0  0  0
 14 47  1  0  0  0
 15 16  1  0  0  0
 15 48  1  0  0  0
 15 49  1  0  0  0
 16 17  1  0  0  0
 17 18  2  0  0  0
 17 19  1  0  0  0
 19 34  1  0  0  0
 19 20  1  0  0  0
 19 27  1  0  0  0
 20 21  1  0  0  0
 20 50  1  0  0  0
 20 51  1  0  0  0
 21 26  1  0  0  0
 21 22  2  0  0  0
 22 23  1  0  0  0
 22 52  1  0  0  0
 23 24  2  0  0  0
 23 53  1  0  0  0
 24 25  1  0  0  0
 24 54  1  0  0  0
 25 26  2  0  0  0
 25 55  1  0  0  0
 27 56  1  0  0  0
 27 57  1  0  0  0
 28 32  1  0  0  0
 28 29  1  0  0  0
 29 30  2  0  0  0
 29 58  1  0  0  0
 30 31  1  0  0  0
 31 32  2  0  0  0
 31 59  1  0  0  0
M  END
> <s_m_entry_id>
37935

> <s_m_entry_name>
ligand_docking-pose.282

> <s_m_Source_Path>
/home/csk/Desktop/cluster/DUD-E-result/thrb

> <s_m_Source_File>
ligand_docking-pose.sdf

> <i_m_Source_File_Index>
282

> <i_lp_mmshare_version>
53161

> <i_f3d_flags>
0

> <r_lp_tautomer_probability>
1

> <s_lp_Force_Field>
OPLS_2005

> <r_lp_Energy>
44.134732

> <b_lp_Chiralities_Consistent>
1

> <s_lp_Variant>
167570-1

> <s_i_glide_gridfile>
glide-grid_1ype

> <i_i_glide_lignum>
1336

> <i_i_glide_rotatable_bonds>
10

> <r_i_docking_score>
-7.15570065233577

> <r_i_glide_ligand_efficiency>
-0.223615645385493

> <r_i_glide_ligand_efficiency_sa>
-0.709935420622809

> <r_i_glide_ligand_efficiency_ln>
-1.60235643309082

> <r_i_glide_gscore>
-7.15570065233577

> <r_i_glide_lipo>
-3.37180404493273

> <r_i_glide_hbond>
0

> <r_i_glide_metal>
0

> <r_i_glide_rewards>
-1.67193616068082

> <r_i_glide_evdw>
-48.0160865783691

> <r_i_glide_ecoul>
-4.43035507202148

> <r_i_glide_erotb>
0.95339714299946

> <r_i_glide_esite>
0

> <r_i_glide_emodel>
-73.3528942048897

> <r_i_glide_energy>
-52.4464416503906

> <r_i_glide_einternal>
7.98028135299683

> <i_i_glide_confnum>
83

> <i_i_glide_posenum>
294

> <r_i_glide_eff_state_penalty>
0

> <s_user_duplicate_titles>
167570

> <s_m_subgroup_title>
dock_pv

> <s_m_subgroupid>
dock_pv1

> <b_m_subgroup_collapsed>
0

$$$$
171809
                    3D
 Schrodinger Suite 2021-1.
 60 63  0  0  1  0            999 V2000
   19.3781  -14.4025   23.5695 C   0  0  0  0  0  0
   18.8514  -15.5521   22.9914 C   0  0  0  0  0  0
   18.1500  -15.4828   21.7898 C   0  0  0  0  0  0
   17.9647  -14.2377   21.1394 C   0  0  0  0  0  0
   17.2516  -14.1340   19.9211 C   0  0  0  0  0  0
   17.0713  -12.8989   19.2955 C   0  0  0  0  0  0
   17.6091  -11.7521   19.8801 C   0  0  0  0  0  0
   18.3095  -11.8143   21.0813 C   0  0  0  0  0  0
   18.5053  -13.0566   21.7318 C   0  0  0  0  0  0
   19.2160  -13.1647   22.9540 C   0  0  0  0  0  0
   16.1451  -12.7742   17.7470 S   0  0  0  0  0  0
   16.4161  -13.9660   16.9440 O   0  0  0  0  0  0
   16.4566  -11.4507   17.1931 O   0  0  0  0  0  0
   14.4159  -12.7350   18.1507 N   0  0  1  0  0  0
   13.6135  -13.7020   18.9814 C   0  0  2  0  0  0
   13.8683  -13.5053   20.4991 C   0  0  0  0  0  0
   13.5676  -12.1130   21.0453 C   0  0  0  0  0  0
   14.2972  -10.9899   20.6477 C   0  0  0  0  0  0
   14.0302   -9.7420   21.1936 C   0  0  0  0  0  0
   13.0534   -9.6143   22.1721 C   0  0  0  0  0  0
   12.3125  -10.7237   22.6180 C   0  0  0  0  0  0
   12.5774  -11.9668   22.0146 C   0  0  0  0  0  0
   11.3135  -10.5705   23.7007 C   0  0  0  0  0  0
   11.2160   -9.4825   24.3229 N   0  0  0  0  0  0
   10.5404  -11.6815   23.9283 N   0  0  0  0  0  0
   13.7607  -15.2068   18.5879 C   0  0  0  0  0  0
   14.8659  -15.6456   18.2776 O   0  0  0  0  0  0
   12.6540  -16.0016   18.5181 N   0  0  0  0  0  0
   12.8404  -17.3857   18.0131 C   0  0  0  0  0  0
   11.5076  -17.9401   17.4639 C   0  0  0  0  0  0
   10.4161  -17.7733   18.4109 N   0  0  0  0  0  0
   10.2190  -16.3642   18.7107 C   0  0  0  0  0  0
   11.4645  -15.7227   19.3580 C   0  0  0  0  0  0
   19.9145  -14.4694   24.5050 H   0  0  0  0  0  0
   18.9842  -16.5057   23.4816 H   0  0  0  0  0  0
   17.7414  -16.3811   21.3492 H   0  0  0  0  0  0
   16.8306  -15.0308   19.4958 H   0  0  0  0  0  0
   17.4716  -10.7907   19.4108 H   0  0  0  0  0  0
   18.7044  -10.9085   21.5217 H   0  0  0  0  0  0
   19.6160  -12.2755   23.4210 H   0  0  0  0  0  0
   14.0599  -11.7805   18.2256 H   0  0  0  0  0  0
   12.5887  -13.4031   18.7737 H   0  0  0  0  0  0
   13.2776  -14.2335   21.0586 H   0  0  0  0  0  0
   14.8903  -13.7495   20.7698 H   0  0  0  0  0  0
   15.0846  -11.0612   19.9205 H   0  0  0  0  0  0
   14.6033   -8.8795   20.8850 H   0  0  0  0  0  0
   12.8927   -8.6362   22.6012 H   0  0  0  0  0  0
   12.0431  -12.8531   22.3274 H   0  0  0  0  0  0
   10.4615   -9.5289   24.9993 H   0  0  0  0  0  0
    9.7454  -11.6117   24.5633 H   0  0  0  0  0  0
   10.6539  -12.5429   23.4194 H   0  0  0  0  0  0
   13.1292  -18.0384   18.8373 H   0  0  0  0  0  0
   13.5603  -17.4399   17.1930 H   0  0  0  0  0  0
   11.2285  -17.4082   16.5521 H   0  0  0  0  0  0
   11.5972  -18.9920   17.1954 H   0  0  0  0  0  0
    9.5460  -18.1528   18.0323 H   0  0  0  0  0  0
    9.9813  -15.8582   17.7720 H   0  0  0  0  0  0
    9.3420  -16.2579   19.3462 H   0  0  0  0  0  0
   11.2177  -14.6713   19.4782 H   0  0  0  0  0  0
   11.5773  -16.2059   20.3294 H   0  0  0  0  0  0
  1 10  1  0  0  0
  1  2  2  0  0  0
  1 34  1  0  0  0
  2  3  1  0  0  0
  2 35  1  0  0  0
  3  4  2  0  0  0
  3 36  1  0  0  0
  4  9  1  0  0  0
  4  5  1  0  0  0
  5  6  2  0  0  0
  5 37  1  0  0  0
  6  7  1  0  0  0
  6 11  1  0  0  0
  7  8  2  0  0  0
  7 38  1  0  0  0
  8  9  1  0  0  0
  8 39  1  0  0  0
  9 10  2  0  0  0
 10 40  1  0  0  0
 11 12  2  0  0  0
 11 13  2  0  0  0
 11 14  1  0  0  0
 14 15  1  0  0  0
 14 41  1  0  0  0
 15 16  1  0  0  0
 15 26  1  0  0  0
 15 42  1  0  0  0
 16 17  1  0  0  0
 16 43  1  0  0  0
 16 44  1  0  0  0
 17 22  1  0  0  0
 17 18  2  0  0  0
 18 19  1  0  0  0
 18 45  1  0  0  0
 19 20  2  0  0  0
 19 46  1  0  0  0
 20 21  1  0  0  0
 20 47  1  0  0  0
 21 22  2  0  0  0
 21 23  1  0  0  0
 22 48  1  0  0  0
 23 24  2  3  0  0
 23 25  1  0  0  0
 24 49  1  0  0  0
 25 50  1  0  0  0
 25 51  1  0  0  0
 26 27  2  0  0  0
 26 28  1  0  0  0
 28 33  1  0  0  0
 28 29  1  0  0  0
 29 30  1  0  0  0
 29 52  1  0  0  0
 29 53  1  0  0  0
 30 31  1  0  0  0
 30 54  1  0  0  0
 30 55  1  0  0  0
 31 32  1  0  0  0
 31 56  1  0  0  0
 32 33  1  0  0  0
 32 57  1  0  0  0
 32 58  1  0  0  0
 33 59  1  0  0  0
 33 60  1  0  0  0
M  END
> <s_m_entry_id>
37937

> <s_m_entry_name>
ligand_docking-pose.284

> <s_m_Source_Path>
/home/csk/Desktop/cluster/DUD-E-result/thrb

> <s_m_Source_File>
ligand_docking-pose.sdf

> <i_m_Source_File_Index>
284

> <i_lp_mmshare_version>
53161

> <i_f3d_flags>
0

> <r_lp_tautomer_probability>
1

> <s_lp_Force_Field>
OPLS_2005

> <r_lp_Energy>
39.402967

> <b_lp_Chiralities_Consistent>
1

> <s_lp_Variant>
171809-1

> <s_i_glide_gridfile>
glide-grid_1ype

> <i_i_glide_lignum>
398

> <i_i_glide_rotatable_bonds>
8

> <r_i_docking_score>
-7.15134179456383

> <r_i_glide_ligand_efficiency>
-0.216707327107995

> <r_i_glide_ligand_efficiency_sa>
-0.695096190450392

> <r_i_glide_ligand_efficiency_ln>
-1.59042138744486

> <r_i_glide_gscore>
-7.15134179456383

> <r_i_glide_lipo>
-3.28417338364184

> <r_i_glide_hbond>
-0.481361889200867

> <r_i_glide_metal>
0

> <r_i_glide_rewards>
-0.0283880040510746

> <r_i_glide_evdw>
-42.7657508850098

> <r_i_glide_ecoul>
-10.5531740188599

> <r_i_glide_erotb>
0.465228852485589

> <r_i_glide_esite>
-0.101383723076164

> <r_i_glide_emodel>
-72.8934566098036

> <r_i_glide_energy>
-53.3189249038696

> <r_i_glide_einternal>
5.55878210067749

> <i_i_glide_confnum>
13

> <i_i_glide_posenum>
266

> <r_i_glide_eff_state_penalty>
0

> <s_user_duplicate_titles>
171809

> <s_m_subgroup_title>
dock_pv

> <s_m_subgroupid>
dock_pv1

> <b_m_subgroup_collapsed>
0

$$$$
178974
                    3D
 Schrodinger Suite 2021-1.
 74 77  0  0  1  0            999 V2000
   25.4190  -14.5390   24.7162 C   0  0  0  0  0  0
   23.9536  -14.8640   24.9260 C   0  0  0  0  0  0
   23.0187  -13.8402   25.0914 C   0  0  0  0  0  0
   21.6698  -14.1526   25.2422 C   0  0  0  0  0  0
   21.2556  -15.4882   25.2217 C   0  0  0  0  0  0
   22.2016  -16.5093   25.1063 C   0  0  0  0  0  0
   23.5483  -16.1978   24.9531 C   0  0  0  0  0  0
   19.7654  -15.8346   25.2462 C   0  0  0  0  0  0
   19.2415  -16.6160   24.0003 C   0  0  0  0  0  0
   19.9018  -16.2528   22.6497 C   0  0  0  0  0  0
   20.5346  -17.1373   22.0705 O   0  0  0  0  0  0
   19.9195  -14.9583   22.2418 N   0  0  0  0  0  0
   20.8997  -14.4904   21.2632 C   0  0  0  0  0  0
   20.1250  -13.8804   20.0834 C   0  0  2  0  0  0
   20.9904  -13.0552   19.1372 C   0  0  0  0  0  0
   20.0326  -12.1302   18.4219 C   0  0  0  0  0  0
   18.8533  -11.9222   19.3967 C   0  0  2  0  0  0
   19.0344  -12.9557   20.4474 N   0  0  0  0  0  0
   18.4146  -12.9786   21.6626 C   0  0  0  0  0  0
   17.4807  -12.2269   21.9253 O   0  0  0  0  0  0
   18.9555  -13.9594   22.7252 C   0  0  0  0  0  0
   17.4703  -11.8564   18.6870 C   0  0  0  0  0  0
   17.3921  -11.6464   17.4759 O   0  0  0  0  0  0
   16.3824  -11.9342   19.4649 N   0  0  0  0  0  0
   14.9991  -11.6728   19.0777 C   0  0  2  0  0  0
   14.2923  -10.8501   20.1901 C   0  0  0  0  0  0
   12.8402  -10.4550   19.8695 C   0  0  0  0  0  0
   12.1654   -9.6105   20.9647 C   0  0  0  0  0  0
   11.8733  -10.4553   22.1066 N   0  0  0  0  0  0
   11.8486   -9.9764   23.2796 C   0  0  0  0  0  0
   11.2009  -10.6526   24.3205 N   0  0  0  0  0  0
   12.4160   -8.7666   23.7276 N   0  0  0  0  0  0
   14.3834  -13.0215   18.6921 C   0  0  0  0  0  0
   14.4355  -13.3532   17.5059 O   0  0  0  0  0  0
   13.7309  -13.8954   19.6775 C   0  0  0  0  0  0
   13.7650  -13.7839   20.9840 N   0  0  0  0  0  0
   13.0571  -14.7153   21.5877 C   0  0  0  0  0  0
   12.4306  -15.6450   20.7694 C   0  0  0  0  0  0
   12.8009  -15.2655   19.1208 S   0  0  0  0  0  0
   19.6848  -14.7010   19.5210 H   0  0  0  0  0  0
   18.9105  -10.9485   19.8851 H   0  0  0  0  0  0
   25.7631  -14.9423   23.7644 H   0  0  0  0  0  0
   25.6134  -13.4658   24.7199 H   0  0  0  0  0  0
   26.0142  -15.0119   25.4982 H   0  0  0  0  0  0
   23.3320  -12.8062   25.0897 H   0  0  0  0  0  0
   20.9507  -13.3536   25.3431 H   0  0  0  0  0  0
   21.8914  -17.5441   25.0886 H   0  0  0  0  0  0
   24.2709  -16.9920   24.8349 H   0  0  0  0  0  0
   19.1798  -14.9241   25.3798 H   0  0  0  0  0  0
   19.5692  -16.4187   26.1464 H   0  0  0  0  0  0
   18.1593  -16.5235   23.9084 H   0  0  0  0  0  0
   19.4129  -17.6795   24.1724 H   0  0  0  0  0  0
   21.5815  -15.2686   20.9134 H   0  0  0  0  0  0
   21.5244  -13.7280   21.7310 H   0  0  0  0  0  0
   21.5457  -13.6844   18.4483 H   0  0  0  0  0  0
   21.7220  -12.4703   19.6979 H   0  0  0  0  0  0
   19.7204  -12.6497   17.5148 H   0  0  0  0  0  0
   20.5121  -11.1998   18.1207 H   0  0  0  0  0  0
   19.4255  -13.3550   23.5001 H   0  0  0  0  0  0
   18.0859  -14.4277   23.1862 H   0  0  0  0  0  0
   16.5420  -12.0822   20.4593 H   0  0  0  0  0  0
   14.9731  -11.0525   18.1800 H   0  0  0  0  0  0
   14.8676   -9.9365   20.3508 H   0  0  0  0  0  0
   14.3435  -11.3527   21.1556 H   0  0  0  0  0  0
   12.2470  -11.3548   19.6995 H   0  0  0  0  0  0
   12.8167   -9.8992   18.9323 H   0  0  0  0  0  0
   11.2195   -9.2341   20.5731 H   0  0  0  0  0  0
   12.7737   -8.7330   21.1936 H   0  0  0  0  0  0
   10.6352  -11.4359   24.0254 H   0  0  0  0  0  0
   10.6420  -10.0801   24.9390 H   0  0  0  0  0  0
   13.0764   -8.3352   23.1020 H   0  0  0  0  0  0
   12.7994   -8.7807   24.6621 H   0  0  0  0  0  0
   12.9856  -14.6922   22.6670 H   0  0  0  0  0  0
   11.7949  -16.4763   21.0335 H   0  0  0  0  0  0
  1  2  1  0  0  0
  1 42  1  0  0  0
  1 43  1  0  0  0
  1 44  1  0  0  0
  2  7  1  0  0  0
  2  3  2  0  0  0
  3  4  1  0  0  0
  3 45  1  0  0  0
  4  5  2  0  0  0
  4 46  1  0  0  0
  5  6  1  0  0  0
  5  8  1  0  0  0
  6  7  2  0  0  0
  6 47  1  0  0  0
  7 48  1  0  0  0
  8  9  1  0  0  0
  8 49  1  0  0  0
  8 50  1  0  0  0
  9 10  1  0  0  0
  9 51  1  0  0  0
  9 52  1  0  0  0
 10 11  2  0  0  0
 10 12  1  0  0  0
 12 21  1  0  0  0
 12 13  1  0  0  0
 13 14  1  0  0  0
 13 53  1  0  0  0
 13 54  1  0  0  0
 14 40  1  0  0  0
 14 18  1  0  0  0
 14 15  1  0  0  0
 15 16  1  0  0  0
 15 55  1  0  0  0
 15 56  1  0  0  0
 16 17  1  0  0  0
 16 57  1  0  0  0
 16 58  1  0  0  0
 17 41  1  0  0  0
 17 18  1  0  0  0
 17 22  1  0  0  0
 18 19  1  0  0  0
 19 20  2  0  0  0
 19 21  1  0  0  0
 21 59  1  0  0  0
 21 60  1  0  0  0
 22 23  2  0  0  0
 22 24  1  0  0  0
 24 25  1  0  0  0
 24 61  1  0  0  0
 25 26  1  0  0  0
 25 33  1  0  0  0
 25 62  1  0  0  0
 26 27  1  0  0  0
 26 63  1  0  0  0
 26 64  1  0  0  0
 27 28  1  0  0  0
 27 65  1  0  0  0
 27 66  1  0  0  0
 28 29  1  0  0  0
 28 67  1  0  0  0
 28 68  1  0  0  0
 29 30  2  3  0  0
 30 31  1  0  0  0
 30 32  1  0  0  0
 31 69  1  0  0  0
 31 70  1  0  0  0
 32 71  1  0  0  0
 32 72  1  0  0  0
 33 34  2  0  0  0
 33 35  1  0  0  0
 35 39  1  0  0  0
 35 36  2  0  0  0
 36 37  1  0  0  0
 37 38  2  0  0  0
 37 73  1  0  0  0
 38 39  1  0  0  0
 38 74  1  0  0  0
M  END
> <s_m_entry_id>
37939

> <s_m_entry_name>
ligand_docking-pose.286

> <s_m_Source_Path>
/home/csk/Desktop/cluster/DUD-E-result/thrb

> <s_m_Source_File>
ligand_docking-pose.sdf

> <i_m_Source_File_Index>
286

> <i_lp_mmshare_version>
53161

> <i_f3d_flags>
0

> <r_lp_tautomer_probability>
0.99990000499975

> <s_lp_Force_Field>
OPLS_2005

> <r_lp_Energy>
32.680676

> <b_lp_Chiralities_Consistent>
1

> <s_lp_Variant>
178974-1

> <s_i_glide_gridfile>
glide-grid_1ype

> <i_i_glide_lignum>
2328

> <i_i_glide_rotatable_bonds>
13

> <r_i_docking_score>
-7.14991747898266

> <r_i_glide_ligand_efficiency>
-0.183331217409812

> <r_i_glide_ligand_efficiency_sa>
-0.621714921582641

> <r_i_glide_ligand_efficiency_ln>
-1.53314526997118

> <r_i_glide_gscore>
-7.14991747898266

> <r_i_glide_lipo>
-3.08174555500891

> <r_i_glide_hbond>
-0.174050140993662

> <r_i_glide_metal>
0

> <r_i_glide_rewards>
-0.923645965106784

> <r_i_glide_evdw>
-58.0399780273438

> <r_i_glide_ecoul>
-4.87979793548584

> <r_i_glide_erotb>
0.739648198867398

> <r_i_glide_esite>
-0.0761554250506318

> <r_i_glide_emodel>
-81.2669274053147

> <r_i_glide_energy>
-62.9197759628296

> <r_i_glide_einternal>
16.2166690826416

> <i_i_glide_confnum>
59

> <i_i_glide_posenum>
65

> <r_i_glide_eff_state_penalty>
0

> <s_user_duplicate_titles>
178974

> <s_m_subgroup_title>
dock_pv

> <s_m_subgroupid>
dock_pv1

> <b_m_subgroup_collapsed>
0

$$$$
228558
                    3D
 Schrodinger Suite 2021-1.
 74 77  0  0  1  0            999 V2000
   24.9589  -14.3137   24.2373 C   0  0  0  0  0  0
   24.7734  -15.6581   23.9339 C   0  0  0  0  0  0
   23.5418  -16.2700   24.1582 C   0  0  0  0  0  0
   22.4694  -15.5319   24.7189 C   0  0  0  0  0  0
   21.2047  -16.1215   24.9514 C   0  0  0  0  0  0
   20.1642  -15.3662   25.4957 C   0  0  0  0  0  0
   20.3700  -14.0348   25.8507 C   0  0  0  0  0  0
   21.6052  -13.4306   25.6438 C   0  0  0  0  0  0
   22.6683  -14.1578   25.0514 C   0  0  0  0  0  0
   23.9237  -13.5612   24.7823 C   0  0  0  0  0  0
   18.5294  -16.0624   25.6469 S   0  0  0  0  0  0
   18.0255  -15.6880   26.9698 O   0  0  0  0  0  0
   18.5806  -17.4658   25.2180 O   0  0  0  0  0  0
   17.6157  -15.1579   24.4554 N   0  0  1  0  0  0
   17.8102  -15.4361   23.0054 C   0  0  1  0  0  0
   16.6423  -16.2299   22.3558 C   0  0  0  0  0  0
   15.5282  -15.4466   21.9671 O   0  0  0  0  0  0
   18.1562  -14.0985   22.2941 C   0  0  0  0  0  0
   17.6303  -13.0585   22.6970 O   0  0  0  0  0  0
   19.0406  -14.1140   21.2691 N   0  0  0  0  0  0
   19.5860  -15.3416   20.6811 C   0  0  0  0  0  0
   20.8633  -14.8399   20.0424 C   0  0  0  0  0  0
   20.5825  -13.4302   19.6005 C   0  0  0  0  0  0
   19.6751  -12.9003   20.7052 C   0  0  1  0  0  0
   18.7674  -11.7414   20.2413 C   0  0  0  0  0  0
   17.7463  -12.1586   19.2740 N   0  0  0  0  0  0
   16.4414  -11.8510   19.2781 C   0  0  0  0  0  0
   15.7127  -12.2678   18.3807 O   0  0  0  0  0  0
   15.8881  -10.9408   20.3866 C   0  0  0  0  0  0
   14.3519  -10.8174   20.4714 C   0  0  0  0  0  0
   13.6795  -12.0742   21.0848 C   0  0  0  0  0  0
   12.1718  -11.8835   21.3573 C   0  0  0  0  0  0
   12.0110  -10.6815   22.1877 N   0  0  0  0  0  0
   12.4164   -9.4686   21.4682 C   0  0  0  0  0  0
   13.9343   -9.5394   21.2367 C   0  0  0  0  0  0
   11.4971  -10.6533   23.5213 C   0  0  0  0  0  0
   11.6159   -9.6797   24.3102 N   0  0  0  0  0  0
   10.8129  -11.8146   23.9216 N   0  0  0  0  0  0
   18.6759  -16.0936   22.9787 H   0  0  0  0  0  0
   20.2993  -12.5186   21.5106 H   0  0  0  0  0  0
   25.9217  -13.8532   24.0595 H   0  0  0  0  0  0
   25.5908  -16.2311   23.5222 H   0  0  0  0  0  0
   23.4036  -17.3117   23.9087 H   0  0  0  0  0  0
   21.0463  -17.1529   24.6770 H   0  0  0  0  0  0
   19.5582  -13.4555   26.2700 H   0  0  0  0  0  0
   21.7519  -12.3962   25.9207 H   0  0  0  0  0  0
   24.0833  -12.5211   25.0255 H   0  0  0  0  0  0
   16.6486  -14.9385   24.7232 H   0  0  0  0  0  0
   17.0070  -16.7154   21.4509 H   0  0  0  0  0  0
   16.3271  -17.0464   23.0061 H   0  0  0  0  0  0
   15.1688  -15.0442   22.7732 H   0  0  0  0  0  0
   18.8991  -15.7214   19.9233 H   0  0  0  0  0  0
   19.8718  -16.1186   21.3849 H   0  0  0  0  0  0
   21.2166  -15.4534   19.2266 H   0  0  0  0  0  0
   21.6161  -14.8333   20.8232 H   0  0  0  0  0  0
   20.0650  -13.4497   18.6408 H   0  0  0  0  0  0
   21.4810  -12.8270   19.4685 H   0  0  0  0  0  0
   19.4001  -11.0018   19.7568 H   0  0  0  0  0  0
   18.3687  -11.2255   21.1154 H   0  0  0  0  0  0
   18.0625  -12.7481   18.5205 H   0  0  0  0  0  0
   16.3335   -9.9567   20.2374 H   0  0  0  0  0  0
   16.2459  -11.2948   21.3513 H   0  0  0  0  0  0
   13.9223  -10.7008   19.4749 H   0  0  0  0  0  0
   14.1505  -12.3185   22.0388 H   0  0  0  0  0  0
   13.8631  -12.9520   20.4649 H   0  0  0  0  0  0
   11.7637  -12.7827   21.8210 H   0  0  0  0  0  0
   11.6255  -11.7457   20.4229 H   0  0  0  0  0  0
   12.1438   -8.5664   22.0127 H   0  0  0  0  0  0
   11.8849   -9.4295   20.5146 H   0  0  0  0  0  0
   14.3018   -8.6531   20.7222 H   0  0  0  0  0  0
   14.4157   -9.5035   22.2140 H   0  0  0  0  0  0
   12.1379   -8.9214   23.9035 H   0  0  0  0  0  0
   10.2299  -11.7911   24.7478 H   0  0  0  0  0  0
   10.5839  -12.5489   23.2717 H   0  0  0  0  0  0
  1 10  1  0  0  0
  1  2  2  0  0  0
  1 41  1  0  0  0
  2  3  1  0  0  0
  2 42  1  0  0  0
  3  4  2  0  0  0
  3 43  1  0  0  0
  4  9  1  0  0  0
  4  5  1  0  0  0
  5  6  2  0  0  0
  5 44  1  0  0  0
  6  7  1  0  0  0
  6 11  1  0  0  0
  7  8  2  0  0  0
  7 45  1  0  0  0
  8  9  1  0  0  0
  8 46  1  0  0  0
  9 10  2  0  0  0
 10 47  1  0  0  0
 11 12  2  0  0  0
 11 13  2  0  0  0
 11 14  1  0  0  0
 14 15  1  0  0  0
 14 48  1  0  0  0
 15 39  1  0  0  0
 15 16  1  0  0  0
 15 18  1  0  0  0
 16 17  1  0  0  0
 16 49  1  0  0  0
 16 50  1  0  0  0
 17 51  1  0  0  0
 18 19  2  0  0  0
 18 20  1  0  0  0
 20 24  1  0  0  0
 20 21  1  0  0  0
 21 22  1  0  0  0
 21 52  1  0  0  0
 21 53  1  0  0  0
 22 23  1  0  0  0
 22 54  1  0  0  0
 22 55  1  0  0  0
 23 24  1  0  0  0
 23 56  1  0  0  0
 23 57  1  0  0  0
 24 40  1  0  0  0
 24 25  1  0  0  0
 25 26  1  0  0  0
 25 58  1  0  0  0
 25 59  1  0  0  0
 26 27  1  0  0  0
 26 60  1  0  0  0
 27 28  2  0  0  0
 27 29  1  0  0  0
 29 30  1  0  0  0
 29 61  1  0  0  0
 29 62  1  0  0  0
 30 35  1  0  0  0
 30 31  1  0  0  0
 30 63  1  0  0  0
 31 32  1  0  0  0
 31 64  1  0  0  0
 31 65  1  0  0  0
 32 33  1  0  0  0
 32 66  1  0  0  0
 32 67  1  0  0  0
 33 34  1  0  0  0
 33 36  1  0  0  0
 34 35  1  0  0  0
 34 68  1  0  0  0
 34 69  1  0  0  0
 35 70  1  0  0  0
 35 71  1  0  0  0
 36 37  2  3  0  0
 36 38  1  0  0  0
 37 72  1  0  0  0
 38 73  1  0  0  0
 38 74  1  0  0  0
M  END
> <s_m_entry_id>
37940

> <s_m_entry_name>
ligand_docking-pose.287

> <s_m_Source_Path>
/home/csk/Desktop/cluster/DUD-E-result/thrb

> <s_m_Source_File>
ligand_docking-pose.sdf

> <i_m_Source_File_Index>
287

> <i_lp_mmshare_version>
53161

> <i_f3d_flags>
0

> <r_lp_tautomer_probability>
1

> <s_lp_Force_Field>
OPLS_2005

> <r_lp_Energy>
38.324202

> <b_lp_Chiralities_Consistent>
1

> <s_lp_Variant>
228558-2

> <s_i_glide_gridfile>
glide-grid_1ype

> <i_i_glide_lignum>
492

> <i_i_glide_rotatable_bonds>
13

> <r_i_docking_score>
-7.1496973347735

> <r_i_glide_ligand_efficiency>
-0.188149929862461

> <r_i_glide_ligand_efficiency_sa>
-0.632555436221551

> <r_i_glide_ligand_efficiency_ln>
-1.54168506816385

> <r_i_glide_gscore>
-7.1496973347735

> <r_i_glide_lipo>
-3.74612088393514

> <r_i_glide_hbond>
-0.503990844214142

> <r_i_glide_metal>
0

> <r_i_glide_rewards>
0.883321759488655

> <r_i_glide_evdw>
-53.7710952758789

> <r_i_glide_ecoul>
-11.308403968811

> <r_i_glide_erotb>
0.697749009207197

> <r_i_glide_esite>
-0.0958410162044679

> <r_i_glide_emodel>
-75.6862451477123

> <r_i_glide_energy>
-65.0794992446899

> <r_i_glide_einternal>
20.1175899505615

> <i_i_glide_confnum>
24

> <i_i_glide_posenum>
47

> <r_i_glide_eff_state_penalty>
0

> <s_user_duplicate_titles>
228558

> <s_m_subgroup_title>
dock_pv

> <s_m_subgroupid>
dock_pv1

> <b_m_subgroup_collapsed>
0

$$$$
152304
                    3D
 Schrodinger Suite 2021-1.
 62 66  0  0  1  0            999 V2000
   21.2903  -13.5535   25.6725 C   0  0  0  0  0  0
   22.3737  -14.4147   25.5206 C   0  0  0  0  0  0
   22.3078  -15.4613   24.6012 C   0  0  0  0  0  0
   21.1608  -15.6539   23.8182 C   0  0  0  0  0  0
   20.0531  -14.7941   23.9799 C   0  0  0  0  0  0
   20.1419  -13.7450   24.9060 C   0  0  0  0  0  0
   18.7937  -14.9474   23.2021 C   0  0  0  0  0  0
   18.4028  -13.9415   22.3140 C   0  0  0  0  0  0
   17.2302  -14.0713   21.5774 C   0  0  0  0  0  0
   16.4227  -15.1994   21.7331 C   0  0  0  0  0  0
   16.8126  -16.2185   22.6109 C   0  0  0  0  0  0
   17.9888  -16.0838   23.3458 C   0  0  0  0  0  0
   15.2332  -15.2010   20.9907 N   0  0  0  0  0  0
   14.0488  -15.7911   21.2625 C   0  0  0  0  0  0
   13.8718  -16.6280   22.1512 O   0  0  0  0  0  0
   12.8253  -15.2287   20.4596 C   0  0  1  0  0  0
   12.3037  -13.9836   21.1938 C   0  0  0  0  0  0
   12.9443  -12.8640   20.4188 C   0  0  0  0  0  0
   13.3951  -13.2770   19.3092 N   0  0  0  0  0  0
   13.2519  -14.6816   19.2079 O   0  0  0  0  0  0
   13.0968  -11.5164   20.9769 C   0  0  0  0  0  0
   14.1027  -10.6715   20.4995 C   0  0  0  0  0  0
   14.3492   -9.4542   21.1211 C   0  0  0  0  0  0
   13.5929   -9.0703   22.2224 C   0  0  0  0  0  0
   12.5534   -9.8767   22.7207 C   0  0  0  0  0  0
   12.3191  -11.1023   22.0644 C   0  0  0  0  0  0
   11.7797   -9.4532   23.9211 C   0  0  0  0  0  0
   12.0156   -8.3544   24.4977 N   0  0  0  0  0  0
   10.8162  -10.3385   24.3231 N   0  0  0  0  0  0
   11.7069  -16.2728   20.1859 C   0  0  0  0  0  0
   12.1345  -17.3419   19.2918 N   0  0  0  0  0  0
   12.1151  -17.3839   17.9182 C   0  0  0  0  0  0
   12.6347  -18.5053   17.4891 N   0  0  0  0  0  0
   13.0069  -19.1964   18.6411 N   0  0  0  0  0  0
   12.6924  -18.4596   19.7682 N   0  0  0  0  0  0
   21.1415  -16.9962   22.6107 S   0  0  0  0  0  0
   20.4959  -18.1368   23.2659 O   0  0  0  0  0  0
   20.6359  -16.4622   21.3425 O   0  0  0  0  0  0
   22.7998  -17.4529   22.3266 N   0  0  0  0  0  0
   21.3365  -12.7417   26.3846 H   0  0  0  0  0  0
   23.2637  -14.2735   26.1187 H   0  0  0  0  0  0
   23.1588  -16.1198   24.5042 H   0  0  0  0  0  0
   19.3053  -13.0742   25.0428 H   0  0  0  0  0  0
   19.0141  -13.0593   22.1882 H   0  0  0  0  0  0
   16.9433  -13.2766   20.9032 H   0  0  0  0  0  0
   16.2126  -17.1059   22.7409 H   0  0  0  0  0  0
   18.2752  -16.8690   24.0313 H   0  0  0  0  0  0
   15.1984  -14.5163   20.2495 H   0  0  0  0  0  0
   12.6060  -13.9554   22.2445 H   0  0  0  0  0  0
   11.2175  -13.8917   21.1709 H   0  0  0  0  0  0
   14.7333  -10.9686   19.6723 H   0  0  0  0  0  0
   15.1518   -8.8215   20.7698 H   0  0  0  0  0  0
   13.8530   -8.1388   22.7052 H   0  0  0  0  0  0
   11.5473  -11.7679   22.4243 H   0  0  0  0  0  0
   12.7704   -7.8372   24.0803 H   0  0  0  0  0  0
   10.1542  -10.0376   25.0368 H   0  0  0  0  0  0
   10.4881  -11.0686   23.7100 H   0  0  0  0  0  0
   11.3479  -16.7024   21.1197 H   0  0  0  0  0  0
   10.8418  -15.7971   19.7224 H   0  0  0  0  0  0
   11.7228  -16.5671   17.3258 H   0  0  0  0  0  0
   22.9227  -18.4640   22.2395 H   0  0  0  0  0  0
   23.2120  -16.9394   21.5378 H   0  0  0  0  0  0
  1  6  1  0  0  0
  1  2  2  0  0  0
  1 40  1  0  0  0
  2  3  1  0  0  0
  2 41  1  0  0  0
  3  4  2  0  0  0
  3 42  1  0  0  0
  4  5  1  0  0  0
  4 36  1  0  0  0
  5  6  2  0  0  0
  5  7  1  0  0  0
  6 43  1  0  0  0
  7 12  1  0  0  0
  7  8  2  0  0  0
  8  9  1  0  0  0
  8 44  1  0  0  0
  9 10  2  0  0  0
  9 45  1  0  0  0
 10 11  1  0  0  0
 10 13  1  0  0  0
 11 12  2  0  0  0
 11 46  1  0  0  0
 12 47  1  0  0  0
 13 14  1  0  0  0
 13 48  1  0  0  0
 14 15  2  0  0  0
 14 16  1  0  0  0
 16 20  1  0  0  0
 16 17  1  0  0  0
 16 30  1  0  0  0
 17 18  1  0  0  0
 17 49  1  0  0  0
 17 50  1  0  0  0
 18 19  2  0  0  0
 18 21  1  0  0  0
 19 20  1  0  0  0
 21 26  1  0  0  0
 21 22  2  0  0  0
 22 23  1  0  0  0
 22 51  1  0  0  0
 23 24  2  0  0  0
 23 52  1  0  0  0
 24 25  1  0  0  0
 24 53  1  0  0  0
 25 26  2  0  0  0
 25 27  1  0  0  0
 26 54  1  0  0  0
 27 28  2  3  0  0
 27 29  1  0  0  0
 28 55  1  0  0  0
 29 56  1  0  0  0
 29 57  1  0  0  0
 30 31  1  0  0  0
 30 58  1  0  0  0
 30 59  1  0  0  0
 31 35  1  0  0  0
 31 32  1  0  0  0
 32 33  2  0  0  0
 32 60  1  0  0  0
 33 34  1  0  0  0
 34 35  2  0  0  0
 36 37  2  0  0  0
 36 38  2  0  0  0
 36 39  1  0  0  0
 39 61  1  0  0  0
 39 62  1  0  0  0
M  END
> <s_m_entry_id>
37942

> <s_m_entry_name>
ligand_docking-pose.289

> <s_m_Source_Path>
/home/csk/Desktop/cluster/DUD-E-result/thrb

> <s_m_Source_File>
ligand_docking-pose.sdf

> <i_m_Source_File_Index>
289

> <i_lp_mmshare_version>
53161

> <i_f3d_flags>
0

> <r_lp_tautomer_probability>
1

> <s_lp_Force_Field>
OPLS_2005

> <r_lp_Energy>
49.12211

> <b_lp_Chiralities_Consistent>
1

> <s_lp_Variant>
152304-4

> <s_i_glide_gridfile>
glide-grid_1ype

> <i_i_glide_lignum>
593

> <i_i_glide_rotatable_bonds>
9

> <r_i_docking_score>
-7.14478055296018

> <r_i_glide_ligand_efficiency>
-0.183199501357953

> <r_i_glide_ligand_efficiency_sa>
-0.621268244600896

> <r_i_glide_ligand_efficiency_ln>
-1.53204376721164

> <r_i_glide_gscore>
-7.14478055296018

> <r_i_glide_lipo>
-3.23811844839756

> <r_i_glide_hbond>
-0.700128821342607

> <r_i_glide_metal>
0

> <r_i_glide_rewards>
0.508341718974239

> <r_i_glide_evdw>
-49.992992401123

> <r_i_glide_ecoul>
-10.5047931671143

> <r_i_glide_erotb>
0.486927607417566

> <r_i_glide_esite>
-0.126434014488534

> <r_i_glide_emodel>
-77.6148698291525

> <r_i_glide_energy>
-60.4977855682373

> <r_i_glide_einternal>
13.6492853164673

> <i_i_glide_confnum>
2

> <i_i_glide_posenum>
185

> <r_i_glide_eff_state_penalty>
0

> <s_user_duplicate_titles>
152304

> <s_m_subgroup_title>
dock_pv

> <s_m_subgroupid>
dock_pv1

> <b_m_subgroup_collapsed>
0

$$$$
186001
                    3D
 Schrodinger Suite 2021-1.
 64 67  0  0  1  0            999 V2000
   12.5502   -9.7026   22.7216 C   0  0  0  0  0  0
   11.6717  -10.7450   23.0118 C   0  0  0  0  0  0
   11.6160  -11.8507   22.1686 C   0  0  0  0  0  0
   12.4213  -11.9017   21.0287 C   0  0  0  0  0  0
   13.3111  -10.8609   20.7532 C   0  0  0  0  0  0
   13.3788   -9.7608   21.6025 C   0  0  0  0  0  0
   12.3079  -13.0744   20.0674 C   0  0  0  0  0  0
   13.2690  -14.6061   20.5919 S   0  0  0  0  0  0
   13.2283  -15.5544   19.4742 O   0  0  0  0  0  0
   12.8163  -15.0192   21.9206 O   0  0  0  0  0  0
   14.9195  -14.0345   20.7822 N   0  0  2  0  0  0
   15.9137  -14.3116   19.7145 C   0  0  1  0  0  0
   16.1085  -13.0577   18.8399 C   0  0  0  0  0  0
   16.8090  -11.9444   19.6140 C   0  0  0  0  0  0
   18.1214  -12.4049   20.2804 C   0  0  1  0  0  0
   18.1614  -13.8330   20.6521 N   0  0  0  0  0  0
   17.2072  -14.7823   20.4107 C   0  0  0  0  0  0
   17.3619  -15.9651   20.7222 O   0  0  0  0  0  0
   19.4839  -14.1814   21.2076 C   0  0  1  0  0  0
   20.5308  -13.2987   20.4667 C   0  0  0  0  0  0
   19.6201  -12.2532   19.3011 S   0  0  0  0  0  0
   19.5583  -14.1150   22.7475 C   0  0  0  0  0  0
   18.5546  -13.8529   23.4111 O   0  0  0  0  0  0
   20.7515  -14.3600   23.3097 N   0  0  0  0  0  0
   21.0229  -14.2688   24.7512 C   0  0  1  0  0  0
   20.2801  -15.3178   25.6202 C   0  0  0  0  0  0
   20.8501  -16.7238   25.3724 C   0  0  0  0  0  0
   22.3782  -16.7583   25.5895 C   0  0  0  0  0  0
   23.0588  -15.7247   24.7826 N   0  0  0  0  0  0
   22.5467  -14.3623   25.0346 C   0  0  2  0  0  0
   22.8160  -13.8651   26.3207 O   0  0  0  0  0  0
   24.2721  -15.9503   24.0501 C   0  0  0  0  0  0
   24.9617  -15.0418   23.5210 N   0  0  0  0  0  0
   24.6799  -17.2902   23.9142 N   0  0  0  0  0  0
   15.6020  -15.1479   19.0885 H   0  0  0  0  0  0
   18.2857  -11.7774   21.1604 H   0  0  0  0  0  0
   20.6865  -13.2727   25.0541 H   0  0  0  0  0  0
   12.5958   -8.8481   23.3804 H   0  0  0  0  0  0
   11.0288  -10.6956   23.8797 H   0  0  0  0  0  0
   10.9253  -12.6531   22.3885 H   0  0  0  0  0  0
   13.9376  -10.8957   19.8755 H   0  0  0  0  0  0
   14.0657   -8.9537   21.3943 H   0  0  0  0  0  0
   12.6653  -12.8053   19.0743 H   0  0  0  0  0  0
   11.2696  -13.3869   19.9658 H   0  0  0  0  0  0
   15.2652  -14.2286   21.7272 H   0  0  0  0  0  0
   16.7058  -13.3176   17.9645 H   0  0  0  0  0  0
   15.1499  -12.7092   18.4531 H   0  0  0  0  0  0
   16.1371  -11.5925   20.3986 H   0  0  0  0  0  0
   16.9861  -11.0775   18.9759 H   0  0  0  0  0  0
   19.6627  -15.2380   20.9997 H   0  0  0  0  0  0
   21.1115  -12.6449   21.1183 H   0  0  0  0  0  0
   21.2121  -13.9127   19.8750 H   0  0  0  0  0  0
   21.5577  -14.3688   22.7026 H   0  0  0  0  0  0
   19.2076  -15.3047   25.4267 H   0  0  0  0  0  0
   20.3858  -15.0565   26.6768 H   0  0  0  0  0  0
   20.6105  -17.0702   24.3646 H   0  0  0  0  0  0
   20.3721  -17.4382   26.0427 H   0  0  0  0  0  0
   22.7366  -17.7645   25.3770 H   0  0  0  0  0  0
   22.6080  -16.5697   26.6403 H   0  0  0  0  0  0
   23.0319  -13.6461   24.3700 H   0  0  0  0  0  0
   23.7599  -13.9476   26.4962 H   0  0  0  0  0  0
   24.6055  -14.1177   23.7100 H   0  0  0  0  0  0
   25.5253  -17.5311   23.4208 H   0  0  0  0  0  0
   24.1723  -18.0579   24.3225 H   0  0  0  0  0  0
  1  6  1  0  0  0
  1  2  2  0  0  0
  1 38  1  0  0  0
  2  3  1  0  0  0
  2 39  1  0  0  0
  3  4  2  0  0  0
  3 40  1  0  0  0
  4  5  1  0  0  0
  4  7  1  0  0  0
  5  6  2  0  0  0
  5 41  1  0  0  0
  6 42  1  0  0  0
  7  8  1  0  0  0
  7 43  1  0  0  0
  7 44  1  0  0  0
  8  9  2  0  0  0
  8 10  2  0  0  0
  8 11  1  0  0  0
 11 12  1  0  0  0
 11 45  1  0  0  0
 12 35  1  0  0  0
 12 17  1  0  0  0
 12 13  1  0  0  0
 13 14  1  0  0  0
 13 46  1  0  0  0
 13 47  1  0  0  0
 14 15  1  0  0  0
 14 48  1  0  0  0
 14 49  1  0  0  0
 15 36  1  0  0  0
 15 21  1  0  0  0
 15 16  1  0  0  0
 16 17  1  0  0  0
 16 19  1  0  0  0
 17 18  2  0  0  0
 19 20  1  0  0  0
 19 22  1  0  0  0
 19 50  1  0  0  0
 20 21  1  0  0  0
 20 51  1  0  0  0
 20 52  1  0  0  0
 22 23  2  0  0  0
 22 24  1  0  0  0
 24 25  1  0  0  0
 24 53  1  0  0  0
 25 37  1  0  0  0
 25 30  1  0  0  0
 25 26  1  0  0  0
 26 27  1  0  0  0
 26 54  1  0  0  0
 26 55  1  0  0  0
 27 28  1  0  0  0
 27 56  1  0  0  0
 27 57  1  0  0  0
 28 29  1  0  0  0
 28 58  1  0  0  0
 28 59  1  0  0  0
 29 30  1  0  0  0
 29 32  1  0  0  0
 30 31  1  0  0  0
 30 60  1  0  0  0
 31 61  1  0  0  0
 32 33  2  3  0  0
 32 34  1  0  0  0
 33 62  1  0  0  0
 34 63  1  0  0  0
 34 64  1  0  0  0
M  END
> <s_m_entry_id>
37943

> <s_m_entry_name>
ligand_docking-pose.290

> <s_m_Source_Path>
/home/csk/Desktop/cluster/DUD-E-result/thrb

> <s_m_Source_File>
ligand_docking-pose.sdf

> <i_m_Source_File_Index>
290

> <i_lp_mmshare_version>
53161

> <i_f3d_flags>
0

> <r_lp_tautomer_probability>
1

> <s_lp_Force_Field>
OPLS_2005

> <r_lp_Energy>
34.424014

> <b_lp_Chiralities_Consistent>
1

> <s_lp_Variant>
186001-6

> <s_i_glide_gridfile>
glide-grid_1ype

> <i_i_glide_lignum>
1614

> <i_i_glide_rotatable_bonds>
9

> <r_i_docking_score>
-7.14448436795362

> <r_i_glide_ligand_efficiency>
-0.210131893175107

> <r_i_glide_ligand_efficiency_sa>
-0.68074576015467

> <r_i_glide_ligand_efficiency_ln>
-1.57841699287961

> <r_i_glide_gscore>
-7.14448436795362

> <r_i_glide_lipo>
-2.75132644087935

> <r_i_glide_hbond>
-0.583313064797681

> <r_i_glide_metal>
0

> <r_i_glide_rewards>
-0.949770486897294

> <r_i_glide_evdw>
-51.6137580871582

> <r_i_glide_ecoul>
-4.98076963424683

> <r_i_glide_erotb>
0.471443433984591

> <r_i_glide_esite>
-0.00371445986895813

> <r_i_glide_emodel>
-76.8141110179063

> <r_i_glide_energy>
-56.594527721405

> <r_i_glide_einternal>
6.17773056030273

> <i_i_glide_confnum>
120

> <i_i_glide_posenum>
362

> <r_i_glide_eff_state_penalty>
0

> <s_user_duplicate_titles>
186001

> <s_m_subgroup_title>
dock_pv

> <s_m_subgroupid>
dock_pv1

> <b_m_subgroup_collapsed>
0

$$$$
434320
                    3D
 Schrodinger Suite 2021-1.
 62 64  0  0  1  0            999 V2000
   21.3038  -13.0527   25.9266 C   0  0  0  0  0  0
   20.0130  -13.5715   25.9222 C   0  0  0  0  0  0
   19.7438  -14.7442   25.2213 C   0  0  0  0  0  0
   20.7627  -15.3670   24.4958 C   0  0  0  0  0  0
   22.0559  -14.8368   24.4984 C   0  0  0  0  0  0
   22.3297  -13.6830   25.2266 C   0  0  0  0  0  0
   20.3973  -16.8189   23.5089 S   0  0  0  0  0  0
   19.3151  -17.5441   24.1857 O   0  0  0  0  0  0
   21.6822  -17.4656   23.2166 O   0  0  0  0  0  0
   19.7651  -16.1747   21.9779 N   0  0  1  0  0  0
   18.3268  -15.9878   21.7798 C   0  0  0  0  0  0
   17.9597  -14.5606   22.1777 C   0  0  0  0  0  0
   18.8408  -13.5817   21.4919 N   0  0  0  0  0  0
   20.1043  -13.8599   21.0122 C   0  0  0  0  0  0
   20.8105  -13.0035   20.4786 O   0  0  0  0  0  0
   20.6322  -15.3211   21.1313 C   0  0  0  0  0  0
   18.3794  -12.1811   21.5023 C   0  0  0  0  0  0
   17.4968  -11.9266   20.2819 C   0  0  0  0  0  0
   17.9959  -11.4533   19.2634 O   0  0  0  0  0  0
   16.1939  -12.2532   20.3714 N   0  0  0  0  0  0
   15.2380  -12.1216   19.2596 C   0  0  1  0  0  0
   15.5946  -13.1344   18.1172 C   0  0  0  0  0  0
   15.0812  -12.7725   16.7137 C   0  0  0  0  0  0
   15.3776  -11.3236   16.2856 C   0  0  0  0  0  0
   15.3615  -11.1633   14.8429 N   0  0  0  0  0  0
   16.4161  -11.3995   13.9740 C   0  0  0  0  0  0
   17.5429  -11.8531   14.3211 N   0  0  0  0  0  0
   16.0960  -11.0529   12.6761 N   0  0  0  0  0  0
   13.8474  -12.3259   19.8731 C   0  0  0  0  0  0
   13.1242  -13.2484   19.4883 O   0  0  0  0  0  0
   13.3763  -11.3966   20.9093 C   0  0  0  0  0  0
   13.8724  -10.2089   21.1768 N   0  0  0  0  0  0
   13.2166   -9.5990   22.1438 C   0  0  0  0  0  0
   12.1480  -10.2932   22.7027 C   0  0  0  0  0  0
   12.0165  -11.8347   21.9173 S   0  0  0  0  0  0
   15.2981  -11.0919   18.9050 H   0  0  0  0  0  0
   21.5083  -12.1470   26.4789 H   0  0  0  0  0  0
   19.2167  -13.0610   26.4513 H   0  0  0  0  0  0
   18.7446  -15.1544   25.2315 H   0  0  0  0  0  0
   22.8487  -15.3135   23.9401 H   0  0  0  0  0  0
   23.3281  -13.2704   25.2392 H   0  0  0  0  0  0
   17.7834  -16.7424   22.3500 H   0  0  0  0  0  0
   18.1101  -16.1691   20.7257 H   0  0  0  0  0  0
   18.0625  -14.4007   23.2483 H   0  0  0  0  0  0
   16.9215  -14.3870   21.8934 H   0  0  0  0  0  0
   20.7939  -15.7830   20.1575 H   0  0  0  0  0  0
   21.6159  -15.2594   21.5913 H   0  0  0  0  0  0
   19.1937  -11.4563   21.5211 H   0  0  0  0  0  0
   17.8231  -11.9814   22.4153 H   0  0  0  0  0  0
   15.8378  -12.6561   21.2252 H   0  0  0  0  0  0
   15.2687  -14.1437   18.3736 H   0  0  0  0  0  0
   16.6757  -13.2277   18.0160 H   0  0  0  0  0  0
   14.0148  -12.9626   16.6702 H   0  0  0  0  0  0
   15.5341  -13.4657   16.0018 H   0  0  0  0  0  0
   16.3612  -11.0177   16.6425 H   0  0  0  0  0  0
   14.6510  -10.6399   16.7233 H   0  0  0  0  0  0
   14.4973  -10.8417   14.4320 H   0  0  0  0  0  0
   17.5424  -12.0869   15.3056 H   0  0  0  0  0  0
   16.8642  -11.1246   12.0258 H   0  0  0  0  0  0
   15.6888  -10.1307   12.5846 H   0  0  0  0  0  0
   13.5401   -8.6164   22.4538 H   0  0  0  0  0  0
   11.4691  -10.0068   23.4950 H   0  0  0  0  0  0
  1  6  1  0  0  0
  1  2  2  0  0  0
  1 37  1  0  0  0
  2  3  1  0  0  0
  2 38  1  0  0  0
  3  4  2  0  0  0
  3 39  1  0  0  0
  4  5  1  0  0  0
  4  7  1  0  0  0
  5  6  2  0  0  0
  5 40  1  0  0  0
  6 41  1  0  0  0
  7  8  2  0  0  0
  7  9  2  0  0  0
  7 10  1  0  0  0
 10 16  1  0  0  0
 10 11  1  0  0  0
 11 12  1  0  0  0
 11 42  1  0  0  0
 11 43  1  0  0  0
 12 13  1  0  0  0
 12 44  1  0  0  0
 12 45  1  0  0  0
 13 14  1  0  0  0
 13 17  1  0  0  0
 14 15  2  0  0  0
 14 16  1  0  0  0
 16 46  1  0  0  0
 16 47  1  0  0  0
 17 18  1  0  0  0
 17 48  1  0  0  0
 17 49  1  0  0  0
 18 19  2  0  0  0
 18 20  1  0  0  0
 20 21  1  0  0  0
 20 50  1  0  0  0
 21 36  1  0  0  0
 21 22  1  0  0  0
 21 29  1  0  0  0
 22 23  1  0  0  0
 22 51  1  0  0  0
 22 52  1  0  0  0
 23 24  1  0  0  0
 23 53  1  0  0  0
 23 54  1  0  0  0
 24 25  1  0  0  0
 24 55  1  0  0  0
 24 56  1  0  0  0
 25 26  1  0  0  0
 25 57  1  0  0  0
 26 27  2  3  0  0
 26 28  1  0  0  0
 27 58  1  0  0  0
 28 59  1  0  0  0
 28 60  1  0  0  0
 29 30  2  0  0  0
 29 31  1  0  0  0
 31 35  1  0  0  0
 31 32  2  0  0  0
 32 33  1  0  0  0
 33 34  2  0  0  0
 33 61  1  0  0  0
 34 35  1  0  0  0
 34 62  1  0  0  0
M  END
> <s_m_entry_id>
37944

> <s_m_entry_name>
ligand_docking-pose.291

> <s_m_Source_Path>
/home/csk/Desktop/cluster/DUD-E-result/thrb

> <s_m_Source_File>
ligand_docking-pose.sdf

> <i_m_Source_File_Index>
291

> <i_lp_mmshare_version>
53161

> <i_f3d_flags>
0

> <r_lp_tautomer_probability>
0.99990000499975

> <s_lp_Force_Field>
OPLS_2005

> <r_lp_Energy>
7.968006

> <b_lp_Chiralities_Consistent>
1

> <s_lp_Variant>
434320-2

> <s_i_glide_gridfile>
glide-grid_1ype

> <i_i_glide_lignum>
1848

> <i_i_glide_rotatable_bonds>
13

> <r_i_docking_score>
-7.14161857141316

> <r_i_glide_ligand_efficiency>
-0.204046244897519

> <r_i_glide_ligand_efficiency_sa>
-0.66744879661376

> <r_i_glide_ligand_efficiency_ln>
-1.56774377610964

> <r_i_glide_gscore>
-7.14161857141316

> <r_i_glide_lipo>
-3.10018319274497

> <r_i_glide_hbond>
-0.370930013820818

> <r_i_glide_metal>
0

> <r_i_glide_rewards>
-0.902673144615973

> <r_i_glide_evdw>
-50.9682388305664

> <r_i_glide_ecoul>
-7.34651231765747

> <r_i_glide_erotb>
0.906725445318129

> <r_i_glide_esite>
-0.0241688763725871

> <r_i_glide_emodel>
-79.2227201583506

> <r_i_glide_energy>
-58.3147511482239

> <r_i_glide_einternal>
11.0379800796509

> <i_i_glide_confnum>
114

> <i_i_glide_posenum>
384

> <r_i_glide_eff_state_penalty>
0

> <s_user_duplicate_titles>
434320

> <s_m_subgroup_title>
dock_pv

> <s_m_subgroupid>
dock_pv1

> <b_m_subgroup_collapsed>
0

$$$$
140037
                    3D
 Schrodinger Suite 2021-1.
 73 76  0  0  1  0            999 V2000
   12.5067   -9.7923   23.0771 C   0  0  0  0  0  0
   13.6161  -10.0887   22.2297 O   0  0  0  0  0  0
   13.5232  -11.1074   21.2971 C   0  0  0  0  0  0
   12.3850  -11.9136   21.1778 C   0  0  0  0  0  0
   12.3202  -12.9048   20.2133 C   0  0  0  0  0  0
   13.3678  -13.0685   19.3202 C   0  0  0  0  0  0
   14.5329  -12.2994   19.4032 C   0  0  0  0  0  0
   14.6288  -11.3398   20.4502 C   0  0  0  0  0  0
   15.9769  -10.6621   20.7149 C   0  0  0  0  0  0
   17.0875  -11.6505   21.1694 C   0  0  0  0  0  0
   17.1357  -12.9563   20.3392 C   0  0  1  0  0  0
   16.9252  -12.6996   18.8309 C   0  0  0  0  0  0
   17.8731  -12.6527   18.0372 O   0  0  0  0  0  0
   15.6065  -12.5344   18.4920 N   0  0  0  0  0  0
   15.3501  -12.2891   17.0480 C   0  0  0  0  0  0
   15.3335  -13.6080   16.2434 C   0  0  0  0  0  0
   15.6418  -13.5871   15.0547 O   0  0  0  0  0  0
   14.9375  -14.7183   16.8842 N   0  0  0  0  0  0
   14.8098  -16.0729   16.3491 C   0  0  1  0  0  0
   16.0135  -16.9733   16.6906 C   0  0  0  0  0  0
   16.0898  -17.2315   18.2066 C   0  0  0  0  0  0
   14.7528  -17.7772   18.7623 C   0  0  0  0  0  0
   13.6029  -16.9353   18.3743 N   0  0  0  0  0  0
   13.5151  -16.7211   16.9141 C   0  0  2  0  0  0
   13.1184  -17.8532   16.1663 O   0  0  0  0  0  0
   12.5469  -16.6193   19.2981 C   0  0  0  0  0  0
   12.6142  -16.7908   20.5411 N   0  0  0  0  0  0
   11.3730  -16.0699   18.7399 N   0  0  0  0  0  0
   18.4076  -13.7039   20.4842 N   0  0  3  0  0  0
   18.9179  -14.4243   21.9942 S   0  0  0  0  0  0
   17.7359  -14.5973   22.8412 O   0  0  0  0  0  0
   19.7880  -15.5547   21.6532 O   0  0  0  0  0  0
   19.9719  -13.0529   22.7054 C   0  0  0  0  0  0
   20.8682  -13.4820   23.8483 C   0  0  0  0  0  0
   20.4648  -13.2723   25.1675 C   0  0  0  0  0  0
   21.3169  -13.6247   26.2089 C   0  0  0  0  0  0
   22.5552  -14.1977   25.9201 C   0  0  0  0  0  0
   22.9568  -14.4190   24.6067 C   0  0  0  0  0  0
   22.1077  -14.0592   23.5660 C   0  0  0  0  0  0
   16.3512  -13.6365   20.6834 H   0  0  0  0  0  0
   14.6854  -15.9982   15.2633 H   0  0  0  0  0  0
   12.7620   -8.9494   23.7183 H   0  0  0  0  0  0
   11.6218   -9.5136   22.5026 H   0  0  0  0  0  0
   12.2620  -10.6329   23.7262 H   0  0  0  0  0  0
   11.5353  -11.7925   21.8342 H   0  0  0  0  0  0
   11.4437  -13.5318   20.1396 H   0  0  0  0  0  0
   13.2660  -13.8290   18.5652 H   0  0  0  0  0  0
   16.2951  -10.1633   19.8045 H   0  0  0  0  0  0
   15.8675   -9.8442   21.4200 H   0  0  0  0  0  0
   16.9347  -11.9158   22.2156 H   0  0  0  0  0  0
   18.0477  -11.1350   21.1277 H   0  0  0  0  0  0
   16.1356  -11.6523   16.6370 H   0  0  0  0  0  0
   14.4161  -11.7540   16.8902 H   0  0  0  0  0  0
   14.8957  -14.6588   17.8920 H   0  0  0  0  0  0
   16.9346  -16.5232   16.3202 H   0  0  0  0  0  0
   15.9203  -17.9223   16.1599 H   0  0  0  0  0  0
   16.3914  -16.3358   18.7533 H   0  0  0  0  0  0
   16.8824  -17.9539   18.4096 H   0  0  0  0  0  0
   14.8292  -17.8626   19.8466 H   0  0  0  0  0  0
   14.5791  -18.7872   18.3834 H   0  0  0  0  0  0
   12.7280  -15.9943   16.7211 H   0  0  0  0  0  0
   12.5544  -17.5365   15.4491 H   0  0  0  0  0  0
   11.7717  -16.4852   21.0031 H   0  0  0  0  0  0
   10.5528  -15.8881   19.2977 H   0  0  0  0  0  0
   11.2234  -16.0345   17.7421 H   0  0  0  0  0  0
   18.8776  -14.0125   19.6277 H   0  0  0  0  0  0
   20.5684  -12.6559   21.8821 H   0  0  0  0  0  0
   19.2823  -12.2687   23.0196 H   0  0  0  0  0  0
   19.5063  -12.8277   25.3935 H   0  0  0  0  0  0
   21.0177  -13.4548   27.2333 H   0  0  0  0  0  0
   23.2159  -14.4762   26.7267 H   0  0  0  0  0  0
   23.9192  -14.8649   24.4052 H   0  0  0  0  0  0
   22.4138  -14.2221   22.5426 H   0  0  0  0  0  0
  1  2  1  0  0  0
  1 42  1  0  0  0
  1 43  1  0  0  0
  1 44  1  0  0  0
  2  3  1  0  0  0
  3  8  1  0  0  0
  3  4  2  0  0  0
  4  5  1  0  0  0
  4 45  1  0  0  0
  5  6  2  0  0  0
  5 46  1  0  0  0
  6  7  1  0  0  0
  6 47  1  0  0  0
  7 14  1  0  0  0
  7  8  2  0  0  0
  8  9  1  0  0  0
  9 10  1  0  0  0
  9 48  1  0  0  0
  9 49  1  0  0  0
 10 11  1  0  0  0
 10 50  1  0  0  0
 10 51  1  0  0  0
 11 40  1  0  0  0
 11 12  1  0  0  0
 11 29  1  0  0  0
 12 13  2  0  0  0
 12 14  1  0  0  0
 14 15  1  0  0  0
 15 16  1  0  0  0
 15 52  1  0  0  0
 15 53  1  0  0  0
 16 17  2  0  0  0
 16 18  1  0  0  0
 18 19  1  0  0  0
 18 54  1  0  0  0
 19 41  1  0  0  0
 19 24  1  0  0  0
 19 20  1  0  0  0
 20 21  1  0  0  0
 20 55  1  0  0  0
 20 56  1  0  0  0
 21 22  1  0  0  0
 21 57  1  0  0  0
 21 58  1  0  0  0
 22 23  1  0  0  0
 22 59  1  0  0  0
 22 60  1  0  0  0
 23 24  1  0  0  0
 23 26  1  0  0  0
 24 25  1  0  0  0
 24 61  1  0  0  0
 25 62  1  0  0  0
 26 27  2  3  0  0
 26 28  1  0  0  0
 27 63  1  0  0  0
 28 64  1  0  0  0
 28 65  1  0  0  0
 29 30  1  0  0  0
 29 66  1  0  0  0
 30 31  2  0  0  0
 30 32  2  0  0  0
 30 33  1  0  0  0
 33 34  1  0  0  0
 33 67  1  0  0  0
 33 68  1  0  0  0
 34 39  1  0  0  0
 34 35  2  0  0  0
 35 36  1  0  0  0
 35 69  1  0  0  0
 36 37  2  0  0  0
 36 70  1  0  0  0
 37 38  1  0  0  0
 37 71  1  0  0  0
 38 39  2  0  0  0
 38 72  1  0  0  0
 39 73  1  0  0  0
M  END
> <s_m_entry_id>
37945

> <s_m_entry_name>
ligand_docking-pose.292

> <s_m_Source_Path>
/home/csk/Desktop/cluster/DUD-E-result/thrb

> <s_m_Source_File>
ligand_docking-pose.sdf

> <i_m_Source_File_Index>
292

> <i_lp_mmshare_version>
53161

> <i_f3d_flags>
0

> <r_lp_tautomer_probability>
1

> <s_lp_Force_Field>
OPLS_2005

> <r_lp_Energy>
38.097562

> <b_lp_Chiralities_Consistent>
1

> <s_lp_Variant>
140037-3

> <s_i_glide_gridfile>
glide-grid_1ype

> <i_i_glide_lignum>
4570

> <i_i_glide_rotatable_bonds>
11

> <r_i_docking_score>
-7.13792029188697

> <r_i_glide_ligand_efficiency>
-0.183023597227871

> <r_i_glide_ligand_efficiency_sa>
-0.620671716502816

> <r_i_glide_ligand_efficiency_ln>
-1.53057273249745

> <r_i_glide_gscore>
-7.13792029188697

> <r_i_glide_lipo>
-3.6798407351381

> <r_i_glide_hbond>
-0.116731453059541

> <r_i_glide_metal>
0

> <r_i_glide_rewards>
-0.390772031962219

> <r_i_glide_evdw>
-48.4021263122559

> <r_i_glide_ecoul>
-5.4773063659668

> <r_i_glide_erotb>
0.387984502246033

> <r_i_glide_esite>
-0.0968583034653299

> <r_i_glide_emodel>
-70.5718404391011

> <r_i_glide_energy>
-53.8794326782227

> <r_i_glide_einternal>
8.92786407470703

> <i_i_glide_confnum>
43

> <i_i_glide_posenum>
25

> <r_i_glide_eff_state_penalty>
0

> <s_user_duplicate_titles>
140037

> <s_m_subgroup_title>
dock_pv

> <s_m_subgroupid>
dock_pv1

> <b_m_subgroup_collapsed>
0

$$$$
58525
                    3D
 Schrodinger Suite 2021-1.
 63 66  0  0  1  0            999 V2000
   10.2487  -17.0529   18.7105 C   0  0  0  0  0  0
   10.9831  -17.0680   17.5312 C   0  0  0  0  0  0
   12.3124  -16.6525   17.5261 C   0  0  0  0  0  0
   12.9186  -16.1933   18.7203 C   0  0  0  0  0  0
   14.2387  -15.6896   18.7477 C   0  0  0  0  0  0
   14.7964  -15.2826   19.9565 C   0  0  0  0  0  0
   14.0952  -15.4153   21.1538 C   0  0  0  0  0  0
   12.7776  -15.8374   21.1437 C   0  0  0  0  0  0
   12.1687  -16.2282   19.9340 C   0  0  0  0  0  0
   10.8310  -16.6560   19.9040 C   0  0  0  0  0  0
   16.4400  -14.6377   20.0036 S   0  0  0  0  0  0
   16.6858  -13.9260   18.7435 O   0  0  0  0  0  0
   17.2678  -15.7750   20.4097 O   0  0  0  0  0  0
   16.4532  -13.4538   21.3137 N   0  0  1  0  0  0
   16.9074  -12.1606   21.0440 N   0  0  0  0  0  0
   15.9651  -11.2455   20.3286 C   0  0  0  0  0  0
   14.6035  -11.0302   20.9920 C   0  0  0  0  0  0
   14.2686   -9.7855   21.5208 C   0  0  0  0  0  0
   13.1384   -9.6590   22.3224 C   0  0  0  0  0  0
   12.3251  -10.7716   22.6174 C   0  0  0  0  0  0
   12.5664  -11.9522   21.8975 C   0  0  0  0  0  0
   13.6802  -12.0663   21.0749 C   0  0  0  0  0  0
   11.2841  -10.6876   23.6842 C   0  0  0  0  0  0
   11.1123   -9.6167   24.3211 N   0  0  0  0  0  0
   10.5788  -11.8472   23.9210 N   0  0  0  0  0  0
   18.2657  -11.9746   20.9669 C   0  0  0  0  0  0
   18.7398  -11.0529   20.3089 O   0  0  0  0  0  0
   19.1188  -12.8112   21.6344 N   0  0  0  0  0  0
   18.9386  -13.1255   23.0656 C   0  0  0  0  0  0
   19.7269  -14.3271   23.6287 C   0  0  0  0  0  0
   19.6333  -15.6334   22.8204 C   0  0  0  0  0  0
   20.5918  -15.7118   21.6131 C   0  0  0  0  0  0
   20.4024  -14.6584   20.5075 C   0  0  0  0  0  0
   20.3891  -13.2009   20.9927 C   0  0  0  0  0  0
    9.2165  -17.3656   18.7212 H   0  0  0  0  0  0
   10.5219  -17.3890   16.6081 H   0  0  0  0  0  0
   12.8750  -16.6489   16.6028 H   0  0  0  0  0  0
   14.8047  -15.6265   17.8274 H   0  0  0  0  0  0
   14.5449  -15.1400   22.0973 H   0  0  0  0  0  0
   12.2125  -15.8593   22.0614 H   0  0  0  0  0  0
   10.2659  -16.6525   20.8208 H   0  0  0  0  0  0
   15.7153  -13.5094   22.0208 H   0  0  0  0  0  0
   15.7824  -11.6389   19.3280 H   0  0  0  0  0  0
   16.4128  -10.2645   20.1613 H   0  0  0  0  0  0
   14.9371   -8.9421   21.4137 H   0  0  0  0  0  0
   12.9643   -8.7050   22.8038 H   0  0  0  0  0  0
   11.9306  -12.8188   22.0057 H   0  0  0  0  0  0
   13.8555  -12.9816   20.5475 H   0  0  0  0  0  0
   10.3357   -9.7120   24.9703 H   0  0  0  0  0  0
    9.7699  -11.8128   24.5441 H   0  0  0  0  0  0
   10.8161  -12.7474   23.5204 H   0  0  0  0  0  0
   19.2719  -12.2534   23.6257 H   0  0  0  0  0  0
   17.8829  -13.2820   23.2833 H   0  0  0  0  0  0
   20.7757  -14.0504   23.7593 H   0  0  0  0  0  0
   19.3664  -14.5094   24.6420 H   0  0  0  0  0  0
   19.8667  -16.4664   23.4844 H   0  0  0  0  0  0
   18.6035  -15.7989   22.5100 H   0  0  0  0  0  0
   20.5083  -16.7026   21.1653 H   0  0  0  0  0  0
   21.6163  -15.6504   21.9803 H   0  0  0  0  0  0
   19.5074  -14.8576   19.9218 H   0  0  0  0  0  0
   21.2216  -14.7766   19.8004 H   0  0  0  0  0  0
   20.6000  -12.5663   20.1305 H   0  0  0  0  0  0
   21.2195  -12.9864   21.6676 H   0  0  0  0  0  0
  1 10  1  0  0  0
  1  2  2  0  0  0
  1 35  1  0  0  0
  2  3  1  0  0  0
  2 36  1  0  0  0
  3  4  2  0  0  0
  3 37  1  0  0  0
  4  9  1  0  0  0
  4  5  1  0  0  0
  5  6  2  0  0  0
  5 38  1  0  0  0
  6  7  1  0  0  0
  6 11  1  0  0  0
  7  8  2  0  0  0
  7 39  1  0  0  0
  8  9  1  0  0  0
  8 40  1  0  0  0
  9 10  2  0  0  0
 10 41  1  0  0  0
 11 12  2  0  0  0
 11 13  2  0  0  0
 11 14  1  0  0  0
 14 15  1  0  0  0
 14 42  1  0  0  0
 15 16  1  0  0  0
 15 26  1  0  0  0
 16 17  1  0  0  0
 16 43  1  0  0  0
 16 44  1  0  0  0
 17 22  1  0  0  0
 17 18  2  0  0  0
 18 19  1  0  0  0
 18 45  1  0  0  0
 19 20  2  0  0  0
 19 46  1  0  0  0
 20 21  1  0  0  0
 20 23  1  0  0  0
 21 22  2  0  0  0
 21 47  1  0  0  0
 22 48  1  0  0  0
 23 24  2  3  0  0
 23 25  1  0  0  0
 24 49  1  0  0  0
 25 50  1  0  0  0
 25 51  1  0  0  0
 26 27  2  0  0  0
 26 28  1  0  0  0
 28 34  1  0  0  0
 28 29  1  0  0  0
 29 30  1  0  0  0
 29 52  1  0  0  0
 29 53  1  0  0  0
 30 31  1  0  0  0
 30 54  1  0  0  0
 30 55  1  0  0  0
 31 32  1  0  0  0
 31 56  1  0  0  0
 31 57  1  0  0  0
 32 33  1  0  0  0
 32 58  1  0  0  0
 32 59  1  0  0  0
 33 34  1  0  0  0
 33 60  1  0  0  0
 33 61  1  0  0  0
 34 62  1  0  0  0
 34 63  1  0  0  0
M  END
> <s_m_entry_id>
37947

> <s_m_entry_name>
ligand_docking-pose.294

> <s_m_Source_Path>
/home/csk/Desktop/cluster/DUD-E-result/thrb

> <s_m_Source_File>
ligand_docking-pose.sdf

> <i_m_Source_File_Index>
294

> <i_lp_mmshare_version>
53161

> <i_f3d_flags>
0

> <r_lp_tautomer_probability>
1

> <s_lp_Force_Field>
OPLS_2005

> <r_lp_Energy>
51.710225

> <b_lp_Chiralities_Consistent>
1

> <s_lp_Variant>
58525-1

> <s_i_glide_gridfile>
glide-grid_1ype

> <i_i_glide_lignum>
507

> <i_i_glide_rotatable_bonds>
8

> <r_i_docking_score>
-7.13419305213313

> <r_i_glide_ligand_efficiency>
-0.20982920741568

> <r_i_glide_ligand_efficiency_sa>
-0.679765175797507

> <r_i_glide_ligand_efficiency_ln>
-1.57614335255323

> <r_i_glide_gscore>
-7.13419305213313

> <r_i_glide_lipo>
-3.16161969461164

> <r_i_glide_hbond>
-0.55001030380651

> <r_i_glide_metal>
0

> <r_i_glide_rewards>
-0.309692487534409

> <r_i_glide_evdw>
-39.3732719421387

> <r_i_glide_ecoul>
-9.81481170654297

> <r_i_glide_erotb>
0.440692896760702

> <r_i_glide_esite>
-0.112678109852898

> <r_i_glide_emodel>
-66.7864323165905

> <r_i_glide_energy>
-49.1880836486816

> <r_i_glide_einternal>
9.35478687286377

> <i_i_glide_confnum>
3

> <i_i_glide_posenum>
327

> <r_i_glide_eff_state_penalty>
0

> <s_user_duplicate_titles>
58525

> <s_m_subgroup_title>
dock_pv

> <s_m_subgroupid>
dock_pv1

> <b_m_subgroup_collapsed>
0

$$$$
289705
                    3D
 Schrodinger Suite 2021-1.
 57 61  0  0  1  0            999 V2000
   14.4768  -12.0037   19.2113 C   0  0  0  0  0  0
   14.2033  -13.2960   18.7757 C   0  0  0  0  0  0
   13.2673  -14.0923   19.4354 C   0  0  0  0  0  0
   12.5564  -13.5712   20.5225 C   0  0  0  0  0  0
   12.8149  -12.2593   20.9943 C   0  0  0  0  0  0
   13.7981  -11.4708   20.3326 C   0  0  0  0  0  0
   14.0756  -10.1803   20.8223 C   0  0  0  0  0  0
   13.3909   -9.6776   21.9209 C   0  0  0  0  0  0
   12.4159  -10.4227   22.6033 C   0  0  0  0  0  0
   12.1378  -11.7179   22.1159 C   0  0  0  0  0  0
   11.7378   -9.8530   23.8071 C   0  0  0  0  0  0
   12.0160   -8.7028   24.2473 N   0  0  0  0  0  0
   10.8160  -10.6832   24.3796 N   0  0  0  0  0  0
   13.0622  -15.5317   18.9605 C   0  0  0  0  0  0
   12.9012  -16.4934   20.0526 N   0  0  0  0  0  0
   13.9138  -16.8034   20.9773 C   0  0  0  0  0  0
   13.6162  -17.7834   21.9207 C   0  0  0  0  0  0
   14.5099  -18.1236   22.9323 C   0  0  0  0  0  0
   15.7375  -17.4533   23.0071 C   0  0  0  0  0  0
   16.8361  -17.5264   23.9128 C   0  0  0  0  0  0
   17.7739  -16.6294   23.4627 C   0  0  0  0  0  0
   17.3463  -15.9998   22.3089 N   0  0  0  0  0  0
   16.0614  -16.4704   22.0168 C   0  0  0  0  0  0
   15.1602  -16.1608   20.9823 C   0  0  0  0  0  0
   18.1192  -15.0387   21.6063 C   0  0  0  0  0  0
   19.4938  -15.2527   21.4555 C   0  0  0  0  0  0
   20.2694  -14.3615   20.7212 C   0  0  0  0  0  0
   19.6852  -13.2477   20.1029 C   0  0  0  0  0  0
   18.3067  -13.0353   20.2624 C   0  0  0  0  0  0
   17.5284  -13.9193   21.0099 C   0  0  0  0  0  0
   20.4995  -12.3492   19.2698 C   0  0  0  0  0  0
   20.1590  -12.1133   18.0814 N   0  0  0  0  0  0
   21.5992  -11.8530   19.9210 N   0  0  0  0  0  0
   15.2209  -11.4070   18.7030 H   0  0  0  0  0  0
   14.7463  -13.6908   17.9284 H   0  0  0  0  0  0
   11.8249  -14.1797   21.0373 H   0  0  0  0  0  0
   14.8415   -9.5845   20.3491 H   0  0  0  0  0  0
   13.6615   -8.6849   22.2499 H   0  0  0  0  0  0
   11.4058  -12.3532   22.5959 H   0  0  0  0  0  0
   12.7342   -8.2439   23.7123 H   0  0  0  0  0  0
   10.1876  -10.3004   25.0803 H   0  0  0  0  0  0
   10.4750  -11.4891   23.8798 H   0  0  0  0  0  0
   12.1778  -15.5690   18.3225 H   0  0  0  0  0  0
   13.9013  -15.8471   18.3386 H   0  0  0  0  0  0
   12.1232  -17.1340   19.9838 H   0  0  0  0  0  0
   12.6608  -18.2870   21.8855 H   0  0  0  0  0  0
   14.2541  -18.8805   23.6583 H   0  0  0  0  0  0
   16.9347  -18.1509   24.7884 H   0  0  0  0  0  0
   18.7404  -16.3839   23.8796 H   0  0  0  0  0  0
   15.4083  -15.4384   20.2256 H   0  0  0  0  0  0
   19.9701  -16.1233   21.8826 H   0  0  0  0  0  0
   21.3247  -14.5671   20.6038 H   0  0  0  0  0  0
   17.8265  -12.1803   19.8072 H   0  0  0  0  0  0
   16.4734  -13.7202   21.1280 H   0  0  0  0  0  0
   19.3263  -12.6319   17.8412 H   0  0  0  0  0  0
   22.2915  -11.3334   19.4052 H   0  0  0  0  0  0
   21.7942  -12.1310   20.8705 H   0  0  0  0  0  0
  1  6  1  0  0  0
  1  2  2  0  0  0
  1 34  1  0  0  0
  2  3  1  0  0  0
  2 35  1  0  0  0
  3  4  2  0  0  0
  3 14  1  0  0  0
  4  5  1  0  0  0
  4 36  1  0  0  0
  5 10  2  0  0  0
  5  6  1  0  0  0
  6  7  2  0  0  0
  7  8  1  0  0  0
  7 37  1  0  0  0
  8  9  2  0  0  0
  8 38  1  0  0  0
  9 10  1  0  0  0
  9 11  1  0  0  0
 10 39  1  0  0  0
 11 12  2  3  0  0
 11 13  1  0  0  0
 12 40  1  0  0  0
 13 41  1  0  0  0
 13 42  1  0  0  0
 14 15  1  0  0  0
 14 43  1  0  0  0
 14 44  1  0  0  0
 15 16  1  0  0  0
 15 45  1  0  0  0
 16 24  1  0  0  0
 16 17  2  0  0  0
 17 18  1  0  0  0
 17 46  1  0  0  0
 18 19  2  0  0  0
 18 47  1  0  0  0
 19 23  1  0  0  0
 19 20  1  0  0  0
 20 21  2  0  0  0
 20 48  1  0  0  0
 21 22  1  0  0  0
 21 49  1  0  0  0
 22 23  1  0  0  0
 22 25  1  0  0  0
 23 24  2  0  0  0
 24 50  1  0  0  0
 25 30  1  0  0  0
 25 26  2  0  0  0
 26 27  1  0  0  0
 26 51  1  0  0  0
 27 28  2  0  0  0
 27 52  1  0  0  0
 28 29  1  0  0  0
 28 31  1  0  0  0
 29 30  2  0  0  0
 29 53  1  0  0  0
 30 54  1  0  0  0
 31 32  2  3  0  0
 31 33  1  0  0  0
 32 55  1  0  0  0
 33 56  1  0  0  0
 33 57  1  0  0  0
M  END
> <s_m_entry_id>
37948

> <s_m_entry_name>
ligand_docking-pose.295

> <s_m_Source_Path>
/home/csk/Desktop/cluster/DUD-E-result/thrb

> <s_m_Source_File>
ligand_docking-pose.sdf

> <i_m_Source_File_Index>
295

> <i_lp_mmshare_version>
53161

> <i_f3d_flags>
0

> <r_lp_tautomer_probability>
1

> <s_lp_Force_Field>
OPLS_2005

> <r_lp_Energy>
21.59516

> <b_lp_Chiralities_Consistent>
1

> <s_lp_Variant>
289705-4

> <s_i_glide_gridfile>
glide-grid_1ype

> <i_i_glide_lignum>
522

> <i_i_glide_rotatable_bonds>
6

> <r_i_docking_score>
-7.12809450494348

> <r_i_glide_ligand_efficiency>
-0.216002863786166

> <r_i_glide_ligand_efficiency_sa>
-0.692836600164037

> <r_i_glide_ligand_efficiency_ln>
-1.58525131060132

> <r_i_glide_gscore>
-7.12809450494348

> <r_i_glide_lipo>
-2.83574918558256

> <r_i_glide_hbond>
-0.155230574034483

> <r_i_glide_metal>
0

> <r_i_glide_rewards>
-1.09659851640021

> <r_i_glide_evdw>
-48.478630065918

> <r_i_glide_ecoul>
-6.35492849349976

> <r_i_glide_erotb>
0.425485316054929

> <r_i_glide_esite>
-0.0888307676602902

> <r_i_glide_emodel>
-77.1220853152236

> <r_i_glide_energy>
-54.8335585594177

> <r_i_glide_einternal>
1.9351886510849

> <i_i_glide_confnum>
11

> <i_i_glide_posenum>
395

> <r_i_glide_eff_state_penalty>
0

> <s_user_duplicate_titles>
289705

> <s_m_subgroup_title>
dock_pv

> <s_m_subgroupid>
dock_pv1

> <b_m_subgroup_collapsed>
0

$$$$
580652
                    3D
 Schrodinger Suite 2021-1.
 60 62  0  0  1  0            999 V2000
   22.0006  -17.3168   23.2976 C   0  0  0  0  0  0
   22.5917  -16.0629   23.9241 C   0  0  0  0  0  0
   23.9869  -15.9641   23.9426 C   0  0  0  0  0  0
   24.6174  -14.8586   24.5005 C   0  0  0  0  0  0
   23.8537  -13.8542   25.0791 C   0  0  0  0  0  0
   22.4643  -13.9407   25.1062 C   0  0  0  0  0  0
   21.8075  -15.0296   24.4937 C   0  0  0  0  0  0
   19.9937  -15.0093   24.4270 S   0  0  0  0  0  0
   19.5321  -14.9755   25.8191 O   0  0  0  0  0  0
   19.5050  -16.0520   23.5186 O   0  0  0  0  0  0
   19.5974  -13.4530   23.6948 N   0  0  2  0  0  0
   19.6955  -13.4054   22.3064 N   0  0  0  0  0  0
   21.0396  -13.4511   21.6865 C   0  0  0  0  0  0
   21.0973  -12.5384   20.4396 C   0  0  0  0  0  0
   19.8872  -12.7875   19.5607 C   0  0  0  0  0  0
   18.7086  -13.1791   20.1185 C   0  0  0  0  0  0
   18.5443  -13.3612   21.5660 C   0  0  0  0  0  0
   17.4231  -13.4299   22.0837 O   0  0  0  0  0  0
   17.4624  -13.5333   19.2822 C   0  0  0  0  0  0
   16.4378  -12.4013   19.1499 C   0  0  0  0  0  0
   16.7999  -11.2277   19.0603 O   0  0  0  0  0  0
   15.1580  -12.7996   19.0907 N   0  0  0  0  0  0
   13.9963  -11.9301   18.9501 C   0  0  0  0  0  0
   13.4540  -11.4285   20.2795 C   0  0  0  0  0  0
   13.8995  -10.2209   20.8064 C   0  0  0  0  0  0
   13.3340   -9.7125   21.9706 C   0  0  0  0  0  0
   12.3171  -10.4036   22.6549 C   0  0  0  0  0  0
   11.8995  -11.6377   22.1118 C   0  0  0  0  0  0
   12.4484  -12.1360   20.9362 C   0  0  0  0  0  0
   11.7133   -9.8324   23.8975 C   0  0  0  0  0  0
   12.0160   -8.6801   24.3171 N   0  0  0  0  0  0
   10.8160  -10.6557   24.5142 N   0  0  0  0  0  0
   20.0927  -12.4374   18.0929 C   0  0  0  0  0  0
   21.6164  -12.6654   25.9213 Cl  0  0  0  0  0  0
   22.7566  -18.0775   23.1009 H   0  0  0  0  0  0
   21.2719  -17.7690   23.9716 H   0  0  0  0  0  0
   21.5033  -17.0786   22.3568 H   0  0  0  0  0  0
   24.5969  -16.7477   23.5165 H   0  0  0  0  0  0
   25.6968  -14.7883   24.5020 H   0  0  0  0  0  0
   24.3509  -13.0074   25.5206 H   0  0  0  0  0  0
   20.0896  -12.6646   24.1251 H   0  0  0  0  0  0
   21.2625  -14.4855   21.4164 H   0  0  0  0  0  0
   21.8082  -13.1333   22.3923 H   0  0  0  0  0  0
   22.0158  -12.7041   19.8786 H   0  0  0  0  0  0
   21.1139  -11.4863   20.7157 H   0  0  0  0  0  0
   16.9836  -14.4198   19.7050 H   0  0  0  0  0  0
   17.7284  -13.8383   18.2749 H   0  0  0  0  0  0
   14.9586  -13.7753   19.2575 H   0  0  0  0  0  0
   13.2160  -12.4913   18.4347 H   0  0  0  0  0  0
   14.2235  -11.0793   18.3048 H   0  0  0  0  0  0
   14.6929   -9.6729   20.3218 H   0  0  0  0  0  0
   13.7165   -8.7707   22.3394 H   0  0  0  0  0  0
   11.1225  -12.2285   22.5766 H   0  0  0  0  0  0
   12.0842  -13.0733   20.5398 H   0  0  0  0  0  0
   12.7038   -8.2259   23.7409 H   0  0  0  0  0  0
   10.1790  -10.2453   25.1890 H   0  0  0  0  0  0
   10.4824  -11.4861   24.0534 H   0  0  0  0  0  0
   20.7755  -13.1504   17.6296 H   0  0  0  0  0  0
   19.1667  -12.3998   17.5212 H   0  0  0  0  0  0
   20.5551  -11.4535   18.0132 H   0  0  0  0  0  0
  1  2  1  0  0  0
  1 35  1  0  0  0
  1 36  1  0  0  0
  1 37  1  0  0  0
  2  7  1  0  0  0
  2  3  2  0  0  0
  3  4  1  0  0  0
  3 38  1  0  0  0
  4  5  2  0  0  0
  4 39  1  0  0  0
  5  6  1  0  0  0
  5 40  1  0  0  0
  6  7  2  0  0  0
  6 34  1  0  0  0
  7  8  1  0  0  0
  8  9  2  0  0  0
  8 10  2  0  0  0
  8 11  1  0  0  0
 11 12  1  0  0  0
 11 41  1  0  0  0
 12 17  1  0  0  0
 12 13  1  0  0  0
 13 14  1  0  0  0
 13 42  1  0  0  0
 13 43  1  0  0  0
 14 15  1  0  0  0
 14 44  1  0  0  0
 14 45  1  0  0  0
 15 16  2  0  0  0
 15 33  1  0  0  0
 16 17  1  0  0  0
 16 19  1  0  0  0
 17 18  2  0  0  0
 19 20  1  0  0  0
 19 46  1  0  0  0
 19 47  1  0  0  0
 20 21  2  0  0  0
 20 22  1  0  0  0
 22 23  1  0  0  0
 22 48  1  0  0  0
 23 24  1  0  0  0
 23 49  1  0  0  0
 23 50  1  0  0  0
 24 29  1  0  0  0
 24 25  2  0  0  0
 25 26  1  0  0  0
 25 51  1  0  0  0
 26 27  2  0  0  0
 26 52  1  0  0  0
 27 28  1  0  0  0
 27 30  1  0  0  0
 28 29  2  0  0  0
 28 53  1  0  0  0
 29 54  1  0  0  0
 30 31  2  3  0  0
 30 32  1  0  0  0
 31 55  1  0  0  0
 32 56  1  0  0  0
 32 57  1  0  0  0
 33 58  1  0  0  0
 33 59  1  0  0  0
 33 60  1  0  0  0
M  END
> <s_m_entry_id>
37949

> <s_m_entry_name>
ligand_docking-pose.296

> <s_m_Source_Path>
/home/csk/Desktop/cluster/DUD-E-result/thrb

> <s_m_Source_File>
ligand_docking-pose.sdf

> <i_m_Source_File_Index>
296

> <i_lp_mmshare_version>
53161

> <i_f3d_flags>
0

> <r_lp_tautomer_probability>
1

> <s_lp_Force_Field>
OPLS_2005

> <r_lp_Energy>
24.856499

> <b_lp_Chiralities_Consistent>
1

> <s_lp_Variant>
580652-2

> <s_i_glide_gridfile>
glide-grid_1ype

> <i_i_glide_lignum>
2575

> <i_i_glide_rotatable_bonds>
9

> <r_i_docking_score>
-7.12216287111494

> <r_i_glide_ligand_efficiency>
-0.209475378562204

> <r_i_glide_ligand_efficiency_sa>
-0.6786189076695

> <r_i_glide_ligand_efficiency_ln>
-1.57348554813117

> <r_i_glide_gscore>
-7.12216287111494

> <r_i_glide_lipo>
-3.4048315740605

> <r_i_glide_hbond>
-0.152086107334947

> <r_i_glide_metal>
0

> <r_i_glide_rewards>
-0.978106055161514

> <r_i_glide_evdw>
-53.4063034057617

> <r_i_glide_ecoul>
-3.08649086952209

> <r_i_glide_erotb>
0.643850292602701

> <r_i_glide_esite>
-0.0977006264442841

> <r_i_glide_emodel>
-78.7453574933941

> <r_i_glide_energy>
-56.4927942752838

> <r_i_glide_einternal>
2.631671667099

> <i_i_glide_confnum>
70

> <i_i_glide_posenum>
354

> <r_i_glide_eff_state_penalty>
0

> <s_user_duplicate_titles>
580652

> <s_m_subgroup_title>
dock_pv

> <s_m_subgroupid>
dock_pv1

> <b_m_subgroup_collapsed>
0

$$$$
286919
                    3D
 Schrodinger Suite 2021-1.
 74 77  0  0  1  0            999 V2000
   20.5961  -14.7432   20.0135 C   0  0  0  0  0  0
   20.6661  -13.3694   20.6985 C   0  0  2  0  0  0
   21.3673  -13.5066   22.0415 C   0  0  0  0  0  0
   20.4897  -14.2897   22.9723 C   0  0  0  0  0  0
   19.0448  -13.7630   23.1084 C   0  0  1  0  0  0
   18.5268  -12.8880   21.9175 C   0  0  0  0  0  0
   17.4419  -12.3070   21.9833 O   0  0  0  0  0  0
   19.3225  -12.7546   20.8059 N   0  0  0  0  0  0
   18.9628  -11.9239   19.5998 C   0  0  1  0  0  0
   20.1937  -11.9652   18.6534 C   0  0  0  0  0  0
   21.5674  -12.1636   19.7373 S   0  0  0  0  0  0
   17.6773  -12.2531   18.7877 C   0  0  0  0  0  0
   17.6170  -11.9632   17.5914 O   0  0  0  0  0  0
   16.6421  -12.7858   19.4601 N   0  0  0  0  0  0
   15.2327  -12.9630   19.0816 C   0  0  1  0  0  0
   14.4380  -11.6306   19.1587 C   0  0  0  0  0  0
   12.9391  -11.8120   19.4883 C   0  0  0  0  0  0
   12.6368  -12.1659   20.9608 C   0  0  0  0  0  0
   12.9674  -11.0259   21.7986 N   0  0  0  0  0  0
   12.1791  -10.6624   22.7215 C   0  0  0  0  0  0
   12.2381   -9.3767   23.2741 N   0  0  0  0  0  0
   11.2154  -11.4531   23.3764 N   0  0  0  0  0  0
   15.0938  -13.6987   17.7406 C   0  0  0  0  0  0
   14.8152  -13.0630   16.7212 O   0  0  0  0  0  0
   15.2877  -15.1533   17.6558 C   0  0  0  0  0  0
   15.2275  -15.8577   16.5479 N   0  0  0  0  0  0
   15.4352  -17.1432   16.7510 C   0  0  0  0  0  0
   15.6726  -17.5285   18.0645 C   0  0  0  0  0  0
   15.6149  -16.1195   19.0781 S   0  0  0  0  0  0
   18.0127  -14.8750   23.4884 C   0  0  0  0  0  0
   17.7646  -15.0852   25.0065 C   0  0  0  0  0  0
   18.7796  -15.9465   25.7979 C   0  0  0  0  0  0
   20.1822  -15.3666   25.9080 C   0  0  0  0  0  0
   20.3653  -14.0453   26.3329 C   0  0  0  0  0  0
   21.6390  -13.4822   26.3211 C   0  0  0  0  0  0
   22.7321  -14.2524   25.9213 C   0  0  0  0  0  0
   22.5645  -15.5831   25.5413 C   0  0  0  0  0  0
   21.2869  -16.1409   25.5269 C   0  0  0  0  0  0
   19.0712  -13.0340   23.9160 H   0  0  0  0  0  0
   18.8130  -10.9163   19.9901 H   0  0  0  0  0  0
   20.0748  -15.4919   20.6057 H   0  0  0  0  0  0
   20.0168  -14.6525   19.1205 H   0  0  0  0  0  0
   21.5788  -15.1432   19.7705 H   0  0  0  0  0  0
   22.3275  -14.0038   21.9255 H   0  0  0  0  0  0
   21.6159  -12.5621   22.5020 H   0  0  0  0  0  0
   21.0037  -14.1819   23.9020 H   0  0  0  0  0  0
   20.5177  -15.3532   22.7376 H   0  0  0  0  0  0
   20.1680  -12.7646   17.9096 H   0  0  0  0  0  0
   20.4154  -11.0530   18.1151 H   0  0  0  0  0  0
   16.7825  -12.7785   20.4693 H   0  0  0  0  0  0
   14.8324  -13.6008   19.8676 H   0  0  0  0  0  0
   14.5595  -11.0564   18.2383 H   0  0  0  0  0  0
   14.8802  -10.9855   19.9223 H   0  0  0  0  0  0
   12.5126  -12.5763   18.8370 H   0  0  0  0  0  0
   12.4161  -10.8889   19.2423 H   0  0  0  0  0  0
   13.2194  -13.0313   21.2779 H   0  0  0  0  0  0
   11.5894  -12.4720   21.0349 H   0  0  0  0  0  0
   13.0580   -8.8464   23.0254 H   0  0  0  0  0  0
   12.0821   -9.3131   24.2680 H   0  0  0  0  0  0
   11.0519  -12.3836   23.0178 H   0  0  0  0  0  0
   10.3369  -11.0124   23.6189 H   0  0  0  0  0  0
   15.4033  -17.8121   15.9022 H   0  0  0  0  0  0
   15.8656  -18.5136   18.4654 H   0  0  0  0  0  0
   17.0349  -14.6449   23.0588 H   0  0  0  0  0  0
   18.2836  -15.8221   23.0206 H   0  0  0  0  0  0
   17.6168  -14.1211   25.4898 H   0  0  0  0  0  0
   16.8082  -15.5932   25.1101 H   0  0  0  0  0  0
   18.4107  -16.0938   26.8145 H   0  0  0  0  0  0
   18.8203  -16.9409   25.3518 H   0  0  0  0  0  0
   19.5235  -13.4415   26.6389 H   0  0  0  0  0  0
   21.7718  -12.4542   26.6251 H   0  0  0  0  0  0
   23.7223  -13.8192   25.9209 H   0  0  0  0  0  0
   23.4200  -16.1734   25.2461 H   0  0  0  0  0  0
   21.1566  -17.1630   25.2021 H   0  0  0  0  0  0
  1  2  1  0  0  0
  1 41  1  0  0  0
  1 42  1  0  0  0
  1 43  1  0  0  0
  2  8  1  0  0  0
  2 11  1  0  0  0
  2  3  1  0  0  0
  3  4  1  0  0  0
  3 44  1  0  0  0
  3 45  1  0  0  0
  4  5  1  0  0  0
  4 46  1  0  0  0
  4 47  1  0  0  0
  5 39  1  0  0  0
  5  6  1  0  0  0
  5 30  1  0  0  0
  6  7  2  0  0  0
  6  8  1  0  0  0
  8  9  1  0  0  0
  9 40  1  0  0  0
  9 10  1  0  0  0
  9 12  1  0  0  0
 10 11  1  0  0  0
 10 48  1  0  0  0
 10 49  1  0  0  0
 12 13  2  0  0  0
 12 14  1  0  0  0
 14 15  1  0  0  0
 14 50  1  0  0  0
 15 16  1  0  0  0
 15 23  1  0  0  0
 15 51  1  0  0  0
 16 17  1  0  0  0
 16 52  1  0  0  0
 16 53  1  0  0  0
 17 18  1  0  0  0
 17 54  1  0  0  0
 17 55  1  0  0  0
 18 19  1  0  0  0
 18 56  1  0  0  0
 18 57  1  0  0  0
 19 20  2  3  0  0
 20 21  1  0  0  0
 20 22  1  0  0  0
 21 58  1  0  0  0
 21 59  1  0  0  0
 22 60  1  0  0  0
 22 61  1  0  0  0
 23 24  2  0  0  0
 23 25  1  0  0  0
 25 29  1  0  0  0
 25 26  2  0  0  0
 26 27  1  0  0  0
 27 28  2  0  0  0
 27 62  1  0  0  0
 28 29  1  0  0  0
 28 63  1  0  0  0
 30 31  1  0  0  0
 30 64  1  0  0  0
 30 65  1  0  0  0
 31 32  1  0  0  0
 31 66  1  0  0  0
 31 67  1  0  0  0
 32 33  1  0  0  0
 32 68  1  0  0  0
 32 69  1  0  0  0
 33 38  1  0  0  0
 33 34  2  0  0  0
 34 35  1  0  0  0
 34 70  1  0  0  0
 35 36  2  0  0  0
 35 71  1  0  0  0
 36 37  1  0  0  0
 36 72  1  0  0  0
 37 38  2  0  0  0
 37 73  1  0  0  0
 38 74  1  0  0  0
M  END
> <s_m_entry_id>
37950

> <s_m_entry_name>
ligand_docking-pose.297

> <s_m_Source_Path>
/home/csk/Desktop/cluster/DUD-E-result/thrb

> <s_m_Source_File>
ligand_docking-pose.sdf

> <i_m_Source_File_Index>
297

> <i_lp_mmshare_version>
53161

> <i_f3d_flags>
0

> <r_lp_tautomer_probability>
0.99990000499975

> <s_lp_Force_Field>
OPLS_2005

> <r_lp_Energy>
35.294875

> <b_lp_Chiralities_Consistent>
1

> <s_lp_Variant>
286919-2

> <s_i_glide_gridfile>
glide-grid_1ype

> <i_i_glide_lignum>
2130

> <i_i_glide_rotatable_bonds>
13

> <r_i_docking_score>
-7.12182013250061

> <r_i_glide_ligand_efficiency>
-0.187416319276332

> <r_i_glide_ligand_efficiency_sa>
-0.63008905547581

> <r_i_glide_ligand_efficiency_ln>
-1.53567392328961

> <r_i_glide_gscore>
-7.12182013250061

> <r_i_glide_lipo>
-3.24354576186061

> <r_i_glide_hbond>
-0.151750273372897

> <r_i_glide_metal>
0

> <r_i_glide_rewards>
-0.983307298447325

> <r_i_glide_evdw>
-45.8704986572266

> <r_i_glide_ecoul>
-6.94490480422974

> <r_i_glide_erotb>
0.66101931653695

> <r_i_glide_esite>
-0.0689754618609403

> <r_i_glide_emodel>
-62.8045655838154

> <r_i_glide_energy>
-52.8154034614563

> <r_i_glide_einternal>
18.6476039886475

> <i_i_glide_confnum>
66

> <i_i_glide_posenum>
310

> <r_i_glide_eff_state_penalty>
0

> <s_user_duplicate_titles>
286919

> <s_m_subgroup_title>
dock_pv

> <s_m_subgroupid>
dock_pv1

> <b_m_subgroup_collapsed>
0

$$$$
163606
                    3D
 Schrodinger Suite 2021-1.
 78 80  0  0  1  0            999 V2000
   21.4014  -13.0632   26.3364 C   0  0  0  0  0  0
   20.1189  -13.5934   26.3682 C   0  0  0  0  0  0
   19.8513  -14.8307   25.7984 C   0  0  0  0  0  0
   20.8876  -15.5417   25.1564 C   0  0  0  0  0  0
   22.1893  -14.9951   25.1266 C   0  0  0  0  0  0
   22.4375  -13.7644   25.7268 C   0  0  0  0  0  0
   20.5397  -16.7381   24.2858 C   0  0  0  0  0  0
   19.9160  -16.3557   22.9137 C   0  0  1  0  0  0
   18.3678  -16.2251   23.0009 C   0  0  0  0  0  0
   17.8894  -15.1458   23.3527 O   0  0  0  0  0  0
   17.6288  -17.3218   22.7267 N   0  0  0  0  0  0
   18.1628  -18.6420   22.3829 C   0  0  0  0  0  0
   16.9404  -19.5058   22.1591 C   0  0  0  0  0  0
   15.8654  -18.8493   23.0079 C   0  0  0  0  0  0
   16.1598  -17.3572   22.8734 C   0  0  2  0  0  0
   15.4514  -16.7474   21.6564 C   0  0  0  0  0  0
   15.5302  -17.2556   20.5433 O   0  0  0  0  0  0
   14.7690  -15.6120   21.9222 N   0  0  0  0  0  0
   14.2173  -14.6159   21.0118 C   0  0  1  0  0  0
   15.3503  -14.1116   20.1264 C   0  0  0  0  0  0
   15.5049  -14.3945   18.9340 O   0  0  0  0  0  0
   16.1887  -12.9736   20.8186 C   0  0  0  0  0  0
   16.4023  -12.9710   22.0271 O   0  0  0  0  0  0
   16.5635  -12.0472   19.9275 N   0  0  0  0  0  0
   17.3348  -10.8691   20.2709 C   0  0  0  0  0  0
   18.8113  -11.1743   20.5809 C   0  0  0  0  0  0
   19.5235  -12.0061   19.4899 C   0  0  0  0  0  0
   20.9752  -12.3937   19.8120 C   0  0  0  0  0  0
   21.2139  -13.2522   21.0855 C   0  0  0  0  0  0
   20.4516  -14.5709   21.2293 C   0  0  0  0  0  0
   19.7920  -15.0565   20.3223 O   0  0  0  0  0  0
   20.5842  -15.1414   22.4265 N   0  0  0  0  0  0
   12.9492  -15.0870   20.2484 C   0  0  0  0  0  0
   12.3162  -14.0329   19.3093 C   0  0  0  0  0  0
   12.5445  -12.5604   19.6976 C   0  0  0  0  0  0
   12.0160  -12.2055   21.0017 N   0  0  0  0  0  0
   12.2293  -11.0123   21.6725 C   0  0  0  0  0  0
   12.9162  -10.0518   21.2134 N   0  0  0  0  0  0
   11.6163  -11.0004   22.9085 N   0  0  0  0  0  0
   20.1841  -17.1242   22.1989 H   0  0  0  0  0  0
   15.8515  -16.8397   23.7858 H   0  0  0  0  0  0
   13.8900  -13.8148   21.6835 H   0  0  0  0  0  0
   21.5894  -12.1065   26.7946 H   0  0  0  0  0  0
   19.3259  -13.0532   26.8419 H   0  0  0  0  0  0
   18.8426  -15.2066   25.7932 H   0  0  0  0  0  0
   22.9907  -15.5156   24.6167 H   0  0  0  0  0  0
   23.4327  -13.3512   25.7096 H   0  0  0  0  0  0
   21.4393  -17.3370   24.1319 H   0  0  0  0  0  0
   19.8525  -17.3791   24.8446 H   0  0  0  0  0  0
   18.7762  -18.6155   21.4788 H   0  0  0  0  0  0
   18.7657  -19.0195   23.2081 H   0  0  0  0  0  0
   16.6527  -19.4649   21.1112 H   0  0  0  0  0  0
   17.1180  -20.5376   22.4283 H   0  0  0  0  0  0
   14.8551  -19.1194   22.6898 H   0  0  0  0  0  0
   15.9736  -19.1473   24.0531 H   0  0  0  0  0  0
   14.7784  -15.3024   22.8922 H   0  0  0  0  0  0
   16.3206  -12.1805   18.9591 H   0  0  0  0  0  0
   17.2336  -10.2559   19.3877 H   0  0  0  0  0  0
   16.8607  -10.3367   21.0932 H   0  0  0  0  0  0
   19.3450  -10.2367   20.7386 H   0  0  0  0  0  0
   18.8559  -11.7071   21.5334 H   0  0  0  0  0  0
   18.9625  -12.9161   19.2907 H   0  0  0  0  0  0
   19.5119  -11.4533   18.5541 H   0  0  0  0  0  0
   21.4000  -12.9338   18.9536 H   0  0  0  0  0  0
   21.5812  -11.4828   19.8921 H   0  0  0  0  0  0
   22.2814  -13.4542   21.1349 H   0  0  0  0  0  0
   20.9907  -12.6978   21.9859 H   0  0  0  0  0  0
   21.1237  -14.6747   23.1368 H   0  0  0  0  0  0
   13.1662  -15.9984   19.6907 H   0  0  0  0  0  0
   12.2007  -15.3670   20.9931 H   0  0  0  0  0  0
   12.7653  -14.1698   18.3279 H   0  0  0  0  0  0
   11.2530  -14.2307   19.1866 H   0  0  0  0  0  0
   13.6001  -12.2944   19.6777 H   0  0  0  0  0  0
   12.1160  -11.9094   18.9417 H   0  0  0  0  0  0
   11.4566  -12.9094   21.4789 H   0  0  0  0  0  0
   12.9829   -9.2804   21.8544 H   0  0  0  0  0  0
   11.4218  -10.0744   23.2716 H   0  0  0  0  0  0
   10.7494  -11.5230   22.9468 H   0  0  0  0  0  0
  1  6  1  0  0  0
  1  2  2  0  0  0
  1 43  1  0  0  0
  2  3  1  0  0  0
  2 44  1  0  0  0
  3  4  2  0  0  0
  3 45  1  0  0  0
  4  5  1  0  0  0
  4  7  1  0  0  0
  5  6  2  0  0  0
  5 46  1  0  0  0
  6 47  1  0  0  0
  7  8  1  0  0  0
  7 48  1  0  0  0
  7 49  1  0  0  0
  8 40  1  0  0  0
  8 32  1  0  0  0
  8  9  1  0  0  0
  9 10  2  0  0  0
  9 11  1  0  0  0
 11 15  1  0  0  0
 11 12  1  0  0  0
 12 13  1  0  0  0
 12 50  1  0  0  0
 12 51  1  0  0  0
 13 14  1  0  0  0
 13 52  1  0  0  0
 13 53  1  0  0  0
 14 15  1  0  0  0
 14 54  1  0  0  0
 14 55  1  0  0  0
 15 41  1  0  0  0
 15 16  1  0  0  0
 16 17  2  0  0  0
 16 18  1  0  0  0
 18 19  1  0  0  0
 18 56  1  0  0  0
 19 42  1  0  0  0
 19 20  1  0  0  0
 19 33  1  0  0  0
 20 21  2  0  0  0
 20 22  1  0  0  0
 22 23  2  0  0  0
 22 24  1  0  0  0
 24 25  1  0  0  0
 24 57  1  0  0  0
 25 26  1  0  0  0
 25 58  1  0  0  0
 25 59  1  0  0  0
 26 27  1  0  0  0
 26 60  1  0  0  0
 26 61  1  0  0  0
 27 28  1  0  0  0
 27 62  1  0  0  0
 27 63  1  0  0  0
 28 29  1  0  0  0
 28 64  1  0  0  0
 28 65  1  0  0  0
 29 30  1  0  0  0
 29 66  1  0  0  0
 29 67  1  0  0  0
 30 31  2  0  0  0
 30 32  1  0  0  0
 32 68  1  0  0  0
 33 34  1  0  0  0
 33 69  1  0  0  0
 33 70  1  0  0  0
 34 35  1  0  0  0
 34 71  1  0  0  0
 34 72  1  0  0  0
 35 36  1  0  0  0
 35 73  1  0  0  0
 35 74  1  0  0  0
 36 37  1  0  0  0
 36 75  1  0  0  0
 37 38  2  3  0  0
 37 39  1  0  0  0
 38 76  1  0  0  0
 39 77  1  0  0  0
 39 78  1  0  0  0
M  END
> <s_m_entry_id>
37951

> <s_m_entry_name>
ligand_docking-pose.298

> <s_m_Source_Path>
/home/csk/Desktop/cluster/DUD-E-result/thrb

> <s_m_Source_File>
ligand_docking-pose.sdf

> <i_m_Source_File_Index>
298

> <i_lp_mmshare_version>
53161

> <i_f3d_flags>
0

> <r_lp_tautomer_probability>
0.99995

> <s_lp_Force_Field>
OPLS_2005

> <r_lp_Energy>
24.122641

> <b_lp_Chiralities_Consistent>
1

> <s_lp_Variant>
163606-1

> <s_i_glide_gridfile>
glide-grid_1ype

> <i_i_glide_lignum>
1045

> <i_i_glide_rotatable_bonds>
7

> <r_i_docking_score>
-7.12141062980952

> <r_i_glide_ligand_efficiency>
-0.182600272559218

> <r_i_glide_ligand_efficiency_sa>
-0.619236133044124

> <r_i_glide_ligand_efficiency_ln>
-1.52703259229342

> <r_i_glide_gscore>
-7.12141062980952

> <r_i_glide_lipo>
-3.23127934096004

> <r_i_glide_hbond>
-0.325424148030976

> <r_i_glide_metal>
0

> <r_i_glide_rewards>
-0.477577229133139

> <r_i_glide_evdw>
-41.5184669494629

> <r_i_glide_ecoul>
-9.69574165344238

> <r_i_glide_erotb>
0.493467241157517

> <r_i_glide_esite>
-0.0503125573533808

> <r_i_glide_emodel>
-50.4478541388905

> <r_i_glide_energy>
-51.2142086029053

> <r_i_glide_einternal>
11.8190050125122

> <i_i_glide_confnum>
24

> <i_i_glide_posenum>
286

> <r_i_glide_eff_state_penalty>
0

> <s_user_duplicate_titles>
163606

> <s_m_subgroup_title>
dock_pv

> <s_m_subgroupid>
dock_pv1

> <b_m_subgroup_collapsed>
0

$$$$
203125
                    3D
 Schrodinger Suite 2021-1.
 66 69  0  0  1  0            999 V2000
   20.0953  -14.1688   26.1315 C   0  0  0  0  0  0
   20.1287  -13.4732   24.9249 C   0  0  0  0  0  0
   19.2697  -13.8453   23.8944 C   0  0  0  0  0  0
   18.3788  -14.9055   24.0761 C   0  0  0  0  0  0
   18.3605  -15.6093   25.2820 C   0  0  0  0  0  0
   19.2197  -15.2386   26.3122 C   0  0  0  0  0  0
   17.3968  -15.2631   22.9749 C   0  0  0  0  0  0
   18.2029  -16.0515   21.4556 S   0  0  0  0  0  0
   19.0420  -15.0338   20.8129 O   0  0  0  0  0  0
   18.7568  -17.3509   21.8466 O   0  0  0  0  0  0
   16.8567  -16.3768   20.3602 N   0  0  2  0  0  0
   16.0421  -15.2437   19.8522 C   0  0  2  0  0  0
   14.8539  -14.9616   20.8232 C   0  0  0  0  0  0
   13.4926  -15.4857   20.4011 C   0  0  0  0  0  0
   12.6535  -14.6681   19.6452 C   0  0  0  0  0  0
   11.4789  -15.1835   19.1216 C   0  0  0  0  0  0
   11.1069  -16.4982   19.3806 C   0  0  0  0  0  0
   11.9229  -17.3146   20.1737 C   0  0  0  0  0  0
   13.1189  -16.8032   20.6804 C   0  0  0  0  0  0
   11.4875  -18.9489   20.5377 Cl  0  0  0  0  0  0
    9.6163  -17.0520   18.7213 Cl  0  0  0  0  0  0
   15.6158  -15.5512   18.3859 C   0  0  0  0  0  0
   15.2547  -16.6977   18.1053 O   0  0  0  0  0  0
   15.6438  -14.5749   17.4392 N   0  0  0  0  0  0
   15.3107  -14.8721   16.0437 C   0  0  0  0  0  0
   16.1072  -13.8644   15.2266 C   0  0  0  0  0  0
   16.0805  -12.6371   16.1182 C   0  0  0  0  0  0
   16.1564  -13.1867   17.5600 C   0  0  1  0  0  0
   15.4278  -12.2567   18.5570 C   0  0  0  0  0  0
   14.2871  -11.8694   18.3229 O   0  0  0  0  0  0
   16.1448  -11.9020   19.6340 N   0  0  0  0  0  0
   15.8183  -10.9361   20.6877 C   0  0  0  0  0  0
   14.3559  -10.7683   21.1163 C   0  0  0  0  0  0
   13.5768  -11.6596   21.8908 C   0  0  0  0  0  0
   12.2813  -11.2194   22.1364 C   0  0  0  0  0  0
   12.0160   -9.6399   21.5098 S   0  0  0  0  0  0
   13.6160   -9.6183   20.8600 C   0  0  0  0  0  0
   11.2695  -11.8523   22.7989 N   0  0  0  0  0  0
   16.7207  -14.3968   19.8449 H   0  0  0  0  0  0
   17.2102  -13.2689   17.8342 H   0  0  0  0  0  0
   20.7548  -13.8746   26.9357 H   0  0  0  0  0  0
   20.8125  -12.6472   24.7937 H   0  0  0  0  0  0
   19.2901  -13.3003   22.9612 H   0  0  0  0  0  0
   17.6735  -16.4295   25.4304 H   0  0  0  0  0  0
   19.2032  -15.7774   27.2484 H   0  0  0  0  0  0
   16.6414  -15.9608   23.3373 H   0  0  0  0  0  0
   16.8923  -14.3566   22.6469 H   0  0  0  0  0  0
   16.3318  -17.2339   20.5518 H   0  0  0  0  0  0
   15.0321  -15.3232   21.8328 H   0  0  0  0  0  0
   14.7783  -13.8875   20.9272 H   0  0  0  0  0  0
   12.9214  -13.6461   19.4310 H   0  0  0  0  0  0
   10.8306  -14.5512   18.5369 H   0  0  0  0  0  0
   13.7699  -17.4404   21.2594 H   0  0  0  0  0  0
   15.5487  -15.8917   15.7350 H   0  0  0  0  0  0
   14.2372  -14.7269   15.9182 H   0  0  0  0  0  0
   17.1377  -14.2097   15.1013 H   0  0  0  0  0  0
   15.6865  -13.6948   14.2342 H   0  0  0  0  0  0
   16.8910  -11.9455   15.8892 H   0  0  0  0  0  0
   15.1420  -12.1058   15.9458 H   0  0  0  0  0  0
   17.0943  -12.2432   19.6670 H   0  0  0  0  0  0
   16.4295  -11.2626   21.5210 H   0  0  0  0  0  0
   16.2570   -9.9774   20.4020 H   0  0  0  0  0  0
   13.9332  -12.5973   22.2823 H   0  0  0  0  0  0
   13.9482   -8.7434   20.3255 H   0  0  0  0  0  0
   11.3298  -12.8124   23.1212 H   0  0  0  0  0  0
   10.3568  -11.4196   22.9003 H   0  0  0  0  0  0
  1  6  1  0  0  0
  1  2  2  0  0  0
  1 41  1  0  0  0
  2  3  1  0  0  0
  2 42  1  0  0  0
  3  4  2  0  0  0
  3 43  1  0  0  0
  4  5  1  0  0  0
  4  7  1  0  0  0
  5  6  2  0  0  0
  5 44  1  0  0  0
  6 45  1  0  0  0
  7  8  1  0  0  0
  7 46  1  0  0  0
  7 47  1  0  0  0
  8  9  2  0  0  0
  8 10  2  0  0  0
  8 11  1  0  0  0
 11 12  1  0  0  0
 11 48  1  0  0  0
 12 39  1  0  0  0
 12 13  1  0  0  0
 12 22  1  0  0  0
 13 14  1  0  0  0
 13 49  1  0  0  0
 13 50  1  0  0  0
 14 19  1  0  0  0
 14 15  2  0  0  0
 15 16  1  0  0  0
 15 51  1  0  0  0
 16 17  2  0  0  0
 16 52  1  0  0  0
 17 18  1  0  0  0
 17 21  1  0  0  0
 18 19  2  0  0  0
 18 20  1  0  0  0
 19 53  1  0  0  0
 22 23  2  0  0  0
 22 24  1  0  0  0
 24 28  1  0  0  0
 24 25  1  0  0  0
 25 26  1  0  0  0
 25 54  1  0  0  0
 25 55  1  0  0  0
 26 27  1  0  0  0
 26 56  1  0  0  0
 26 57  1  0  0  0
 27 28  1  0  0  0
 27 58  1  0  0  0
 27 59  1  0  0  0
 28 40  1  0  0  0
 28 29  1  0  0  0
 29 30  2  0  0  0
 29 31  1  0  0  0
 31 32  1  0  0  0
 31 60  1  0  0  0
 32 33  1  0  0  0
 32 61  1  0  0  0
 32 62  1  0  0  0
 33 37  2  0  0  0
 33 34  1  0  0  0
 34 35  2  0  0  0
 34 63  1  0  0  0
 35 36  1  0  0  0
 35 38  1  0  0  0
 36 37  1  0  0  0
 37 64  1  0  0  0
 38 65  1  0  0  0
 38 66  1  0  0  0
M  END
> <s_m_entry_id>
37952

> <s_m_entry_name>
ligand_docking-pose.299

> <s_m_Source_Path>
/home/csk/Desktop/cluster/DUD-E-result/thrb

> <s_m_Source_File>
ligand_docking-pose.sdf

> <i_m_Source_File_Index>
299

> <i_lp_mmshare_version>
53161

> <i_f3d_flags>
0

> <r_lp_tautomer_probability>
1

> <s_lp_Force_Field>
OPLS_2005

> <r_lp_Energy>
16.644707

> <b_lp_Chiralities_Consistent>
1

> <s_lp_Variant>
203125-1

> <s_i_glide_gridfile>
glide-grid_1ype

> <i_i_glide_lignum>
1672

> <i_i_glide_rotatable_bonds>
12

> <r_i_docking_score>
-7.12090499567376

> <r_i_glide_ligand_efficiency>
-0.187392236728257

> <r_i_glide_ligand_efficiency_sa>
-0.630008090541546

> <r_i_glide_ligand_efficiency_ln>
-1.53547659286914

> <r_i_glide_gscore>
-7.12090499567376

> <r_i_glide_lipo>
-3.79558167253524

> <r_i_glide_hbond>
-0.574606756185605

> <r_i_glide_metal>
0

> <r_i_glide_rewards>
-0.190206310450733

> <r_i_glide_evdw>
-48.6471405029297

> <r_i_glide_ecoul>
-4.04363870620728

> <r_i_glide_erotb>
0.47839257457539

> <r_i_glide_esite>
0

> <r_i_glide_emodel>
-64.8513018070878

> <r_i_glide_energy>
-52.690779209137

> <r_i_glide_einternal>
14.1275644302368

> <i_i_glide_confnum>
53

> <i_i_glide_posenum>
74

> <r_i_glide_eff_state_penalty>
0

> <s_user_duplicate_titles>
203125

> <s_m_subgroup_title>
dock_pv

> <s_m_subgroupid>
dock_pv1

> <b_m_subgroup_collapsed>
0

$$$$
118625
                    3D
 Schrodinger Suite 2021-1.
 49 52  0  0  1  0            999 V2000
   22.2284  -14.6435   25.9384 C   0  0  0  0  0  0
   21.4705  -14.3053   24.6693 C   0  0  0  0  0  0
   20.0939  -14.5098   24.6027 C   0  0  0  0  0  0
   19.3963  -14.1773   23.4435 C   0  0  0  0  0  0
   20.0529  -13.6181   22.3340 C   0  0  0  0  0  0
   21.4453  -13.4530   22.4168 C   0  0  0  0  0  0
   22.1492  -13.7947   23.5671 C   0  0  0  0  0  0
   19.2928  -13.1962   21.1053 C   0  0  0  0  0  0
   19.9335  -13.0531   19.8671 C   0  0  0  0  0  0
   19.2519  -12.6530   18.7210 C   0  0  0  0  0  0
   17.8521  -12.4199   18.7533 C   0  0  0  0  0  0
   17.0567  -12.0528   17.6187 C   0  0  0  0  0  0
   15.6732  -11.9586   17.7630 C   0  0  0  0  0  0
   15.0990  -12.1514   19.0129 C   0  0  0  0  0  0
   15.8336  -12.4203   20.1270 N   0  0  0  0  0  0
   17.1794  -12.5788   20.0030 C   0  0  0  0  0  0
   17.9163  -12.9310   21.1592 C   0  0  0  0  0  0
   13.7285  -12.0246   19.1391 O   0  0  0  0  0  0
   13.1949  -11.5300   20.3053 C   0  0  0  0  0  0
   13.4377  -10.2066   20.6465 C   0  0  0  0  0  0
   12.9430   -9.6816   21.8247 C   0  0  0  0  0  0
   12.1671  -10.4591   22.6958 C   0  0  0  0  0  0
   11.9081  -11.7960   22.3210 C   0  0  0  0  0  0
   12.4160  -12.3277   21.1365 C   0  0  0  0  0  0
   11.6624   -9.8530   23.9567 C   0  0  0  0  0  0
   12.0160   -8.6951   24.3210 N   0  0  0  0  0  0
   10.8160  -10.6599   24.6600 N   0  0  0  0  0  0
   17.6726  -11.7713   16.2553 C   0  0  0  0  0  0
   21.9994  -13.9152   26.7176 H   0  0  0  0  0  0
   21.9331  -15.6272   26.3043 H   0  0  0  0  0  0
   23.3079  -14.6662   25.7818 H   0  0  0  0  0  0
   19.5612  -14.9190   25.4491 H   0  0  0  0  0  0
   18.3324  -14.3576   23.4310 H   0  0  0  0  0  0
   22.0085  -13.0326   21.5989 H   0  0  0  0  0  0
   23.2170  -13.6355   23.6063 H   0  0  0  0  0  0
   20.9864  -13.2678   19.7644 H   0  0  0  0  0  0
   19.7996  -12.5752   17.7953 H   0  0  0  0  0  0
   15.0437  -11.7169   16.9194 H   0  0  0  0  0  0
   17.3723  -13.0117   22.0879 H   0  0  0  0  0  0
   14.0195   -9.5825   19.9987 H   0  0  0  0  0  0
   13.1794   -8.6530   22.0421 H   0  0  0  0  0  0
   11.3192  -12.4535   22.9440 H   0  0  0  0  0  0
   12.2152  -13.3560   20.8739 H   0  0  0  0  0  0
   12.6666   -8.2641   23.6865 H   0  0  0  0  0  0
   10.2402  -10.2200   25.3710 H   0  0  0  0  0  0
   10.3817  -11.4425   24.1944 H   0  0  0  0  0  0
   18.7066  -11.4396   16.3210 H   0  0  0  0  0  0
   17.6160  -12.6530   15.6201 H   0  0  0  0  0  0
   17.1199  -10.9759   15.7532 H   0  0  0  0  0  0
  1  2  1  0  0  0
  1 29  1  0  0  0
  1 30  1  0  0  0
  1 31  1  0  0  0
  2  7  1  0  0  0
  2  3  2  0  0  0
  3  4  1  0  0  0
  3 32  1  0  0  0
  4  5  2  0  0  0
  4 33  1  0  0  0
  5  6  1  0  0  0
  5  8  1  0  0  0
  6  7  2  0  0  0
  6 34  1  0  0  0
  7 35  1  0  0  0
  8 17  1  0  0  0
  8  9  2  0  0  0
  9 10  1  0  0  0
  9 36  1  0  0  0
 10 11  2  0  0  0
 10 37  1  0  0  0
 11 16  1  0  0  0
 11 12  1  0  0  0
 12 13  2  0  0  0
 12 28  1  0  0  0
 13 14  1  0  0  0
 13 38  1  0  0  0
 14 15  2  0  0  0
 14 18  1  0  0  0
 15 16  1  0  0  0
 16 17  2  0  0  0
 17 39  1  0  0  0
 18 19  1  0  0  0
 19 24  1  0  0  0
 19 20  2  0  0  0
 20 21  1  0  0  0
 20 40  1  0  0  0
 21 22  2  0  0  0
 21 41  1  0  0  0
 22 23  1  0  0  0
 22 25  1  0  0  0
 23 24  2  0  0  0
 23 42  1  0  0  0
 24 43  1  0  0  0
 25 26  2  3  0  0
 25 27  1  0  0  0
 26 44  1  0  0  0
 27 45  1  0  0  0
 27 46  1  0  0  0
 28 47  1  0  0  0
 28 48  1  0  0  0
 28 49  1  0  0  0
M  END
> <s_m_entry_id>
37953

> <s_m_entry_name>
ligand_docking-pose.300

> <s_m_Source_Path>
/home/csk/Desktop/cluster/DUD-E-result/thrb

> <s_m_Source_File>
ligand_docking-pose.sdf

> <i_m_Source_File_Index>
300

> <i_lp_mmshare_version>
53161

> <i_f3d_flags>
0

> <r_lp_tautomer_probability>
1

> <s_lp_Force_Field>
OPLS_2005

> <r_lp_Energy>
26.48959

> <b_lp_Chiralities_Consistent>
1

> <s_lp_Variant>
118625-2

> <s_i_glide_gridfile>
glide-grid_1ype

> <i_i_glide_lignum>
2317

> <i_i_glide_rotatable_bonds>
4

> <r_i_docking_score>
-7.11862752687679

> <r_i_glide_ligand_efficiency>
-0.254236697388457

> <r_i_glide_ligand_efficiency_sa>
-0.772012350678376

> <r_i_glide_ligand_efficiency_ln>
-1.64318824518949

> <r_i_glide_gscore>
-7.11862752687679

> <r_i_glide_lipo>
-3.57951972980105

> <r_i_glide_hbond>
-0.122543243449297

> <r_i_glide_metal>
0

> <r_i_glide_rewards>
-1.14495102140437

> <r_i_glide_evdw>
-44.6930732727051

> <r_i_glide_ecoul>
-2.49103689193726

> <r_i_glide_erotb>
0.427925942473715

> <r_i_glide_esite>
-0.091230277269942

> <r_i_glide_emodel>
-63.2502323388328

> <r_i_glide_energy>
-47.1841101646423

> <r_i_glide_einternal>
6.6118483543396

> <i_i_glide_confnum>
3

> <i_i_glide_posenum>
163

> <r_i_glide_eff_state_penalty>
0

> <s_user_duplicate_titles>
118625

> <s_m_subgroup_title>
dock_pv

> <s_m_subgroupid>
dock_pv1

> <b_m_subgroup_collapsed>
0

$$$$
434896
                    3D
 Schrodinger Suite 2021-1.
 72 74  0  0  1  0            999 V2000
   16.1033  -16.2330   21.3264 C   0  0  0  0  0  0
   16.4198  -15.9484   22.7207 N   0  0  1  0  0  0
   17.7449  -15.3286   22.9836 C   0  0  2  0  0  0
   18.0699  -15.4192   24.4986 C   0  0  0  0  0  0
   19.4541  -14.9630   24.9433 C   0  0  0  0  0  0
   20.5763  -15.8003   24.7665 C   0  0  0  0  0  0
   21.8444  -15.3417   25.1037 C   0  0  0  0  0  0
   22.0199  -14.0519   25.5904 C   0  0  0  0  0  0
   20.9287  -13.2052   25.7409 C   0  0  0  0  0  0
   19.6570  -13.6475   25.4079 C   0  0  0  0  0  0
   17.7200  -13.8553   22.4623 C   0  0  0  0  0  0
   16.7424  -13.1477   22.7205 O   0  0  0  0  0  0
   18.7619  -13.4146   21.7127 N   0  0  0  0  0  0
   19.9926  -14.1464   21.4108 C   0  0  0  0  0  0
   20.9871  -13.0748   20.9949 C   0  0  0  0  0  0
   20.1155  -12.0344   20.3208 C   0  0  0  0  0  0
   18.7786  -12.0757   21.0862 C   0  0  1  0  0  0
   17.6139  -11.7872   20.1233 C   0  0  0  0  0  0
   17.1172  -10.6633   20.0963 O   0  0  0  0  0  0
   17.2317  -12.8094   19.3296 N   0  0  0  0  0  0
   16.3749  -12.7480   18.1261 C   0  0  1  0  0  0
   14.9389  -12.2062   18.4191 C   0  0  0  0  0  0
   14.2852  -12.6920   19.7324 C   0  0  0  0  0  0
   12.7967  -12.3281   19.8026 C   0  0  0  0  0  0
   12.2440  -12.4947   21.1355 N   0  0  0  0  0  0
   12.1042  -11.4950   22.0890 C   0  0  0  0  0  0
   12.7009  -10.3838   22.0599 N   0  0  0  0  0  0
   11.2162  -11.8530   23.0855 N   0  0  0  0  0  0
   17.1162  -11.9987   17.0017 C   0  0  0  0  0  0
   18.3427  -11.8531   17.0049 O   0  0  0  0  0  0
   16.3776  -11.4575   15.8725 C   0  0  0  0  0  0
   16.3254  -10.1935   15.5237 N   0  0  0  0  0  0
   15.5925  -10.1787   14.4300 C   0  0  0  0  0  0
   15.2159  -11.4532   14.0410 C   0  0  0  0  0  0
   15.7182  -12.3029   14.9959 N   0  0  0  0  0  0
   15.6156  -13.7587   14.9832 C   0  0  0  0  0  0
   18.4909  -15.9160   22.4503 H   0  0  0  0  0  0
   18.7869  -11.3319   21.8876 H   0  0  0  0  0  0
   16.2731  -13.7892   17.8103 H   0  0  0  0  0  0
   15.1533  -16.7649   21.2595 H   0  0  0  0  0  0
   16.0145  -15.3157   20.7475 H   0  0  0  0  0  0
   16.8729  -16.8596   20.8713 H   0  0  0  0  0  0
   15.6917  -15.4265   23.2137 H   0  0  0  0  0  0
   17.3208  -14.8684   25.0731 H   0  0  0  0  0  0
   17.9601  -16.4581   24.8187 H   0  0  0  0  0  0
   20.4535  -16.7976   24.3688 H   0  0  0  0  0  0
   22.6995  -15.9892   24.9807 H   0  0  0  0  0  0
   23.0096  -13.7066   25.8530 H   0  0  0  0  0  0
   21.0712  -12.1996   26.1122 H   0  0  0  0  0  0
   18.8168  -12.9815   25.5214 H   0  0  0  0  0  0
   19.8004  -14.8360   20.5871 H   0  0  0  0  0  0
   20.3834  -14.7138   22.2532 H   0  0  0  0  0  0
   21.7695  -13.4540   20.3434 H   0  0  0  0  0  0
   21.4625  -12.6555   21.8825 H   0  0  0  0  0  0
   19.9837  -12.3227   19.2760 H   0  0  0  0  0  0
   20.5738  -11.0473   20.3207 H   0  0  0  0  0  0
   17.6449  -13.7093   19.5162 H   0  0  0  0  0  0
   14.9512  -11.1165   18.4393 H   0  0  0  0  0  0
   14.2870  -12.4753   17.5865 H   0  0  0  0  0  0
   14.4018  -13.7718   19.8344 H   0  0  0  0  0  0
   14.8029  -12.2439   20.5832 H   0  0  0  0  0  0
   12.6463  -11.2904   19.5035 H   0  0  0  0  0  0
   12.2308  -12.9467   19.1072 H   0  0  0  0  0  0
   11.6762  -13.3208   21.2697 H   0  0  0  0  0  0
   13.3215  -10.3018   21.2685 H   0  0  0  0  0  0
   11.2820  -11.3052   23.9323 H   0  0  0  0  0  0
   11.2010  -12.8367   23.3216 H   0  0  0  0  0  0
   15.3592   -9.2551   13.9211 H   0  0  0  0  0  0
   14.6454  -11.8215   13.1990 H   0  0  0  0  0  0
   16.5968  -14.2093   15.1438 H   0  0  0  0  0  0
   15.2208  -14.0944   14.0228 H   0  0  0  0  0  0
   14.9179  -14.0783   15.7561 H   0  0  0  0  0  0
  1  2  1  0  0  0
  1 40  1  0  0  0
  1 41  1  0  0  0
  1 42  1  0  0  0
  2  3  1  0  0  0
  2 43  1  0  0  0
  3 37  1  0  0  0
  3  4  1  0  0  0
  3 11  1  0  0  0
  4  5  1  0  0  0
  4 44  1  0  0  0
  4 45  1  0  0  0
  5 10  1  0  0  0
  5  6  2  0  0  0
  6  7  1  0  0  0
  6 46  1  0  0  0
  7  8  2  0  0  0
  7 47  1  0  0  0
  8  9  1  0  0  0
  8 48  1  0  0  0
  9 10  2  0  0  0
  9 49  1  0  0  0
 10 50  1  0  0  0
 11 12  2  0  0  0
 11 13  1  0  0  0
 13 17  1  0  0  0
 13 14  1  0  0  0
 14 15  1  0  0  0
 14 51  1  0  0  0
 14 52  1  0  0  0
 15 16  1  0  0  0
 15 53  1  0  0  0
 15 54  1  0  0  0
 16 17  1  0  0  0
 16 55  1  0  0  0
 16 56  1  0  0  0
 17 38  1  0  0  0
 17 18  1  0  0  0
 18 19  2  0  0  0
 18 20  1  0  0  0
 20 21  1  0  0  0
 20 57  1  0  0  0
 21 39  1  0  0  0
 21 22  1  0  0  0
 21 29  1  0  0  0
 22 23  1  0  0  0
 22 58  1  0  0  0
 22 59  1  0  0  0
 23 24  1  0  0  0
 23 60  1  0  0  0
 23 61  1  0  0  0
 24 25  1  0  0  0
 24 62  1  0  0  0
 24 63  1  0  0  0
 25 26  1  0  0  0
 25 64  1  0  0  0
 26 27  2  3  0  0
 26 28  1  0  0  0
 27 65  1  0  0  0
 28 66  1  0  0  0
 28 67  1  0  0  0
 29 30  2  0  0  0
 29 31  1  0  0  0
 31 35  1  0  0  0
 31 32  2  0  0  0
 32 33  1  0  0  0
 33 34  2  0  0  0
 33 68  1  0  0  0
 34 35  1  0  0  0
 34 69  1  0  0  0
 35 36  1  0  0  0
 36 70  1  0  0  0
 36 71  1  0  0  0
 36 72  1  0  0  0
M  END
> <s_m_entry_id>
37954

> <s_m_entry_name>
ligand_docking-pose.301

> <s_m_Source_Path>
/home/csk/Desktop/cluster/DUD-E-result/thrb

> <s_m_Source_File>
ligand_docking-pose.sdf

> <i_m_Source_File_Index>
301

> <i_lp_mmshare_version>
53161

> <i_f3d_flags>
0

> <r_lp_tautomer_probability>
0.99990000499975

> <s_lp_Force_Field>
OPLS_2005

> <r_lp_Energy>
28.34316

> <b_lp_Chiralities_Consistent>
1

> <s_lp_Variant>
434896-2

> <s_i_glide_gridfile>
glide-grid_1ype

> <i_i_glide_lignum>
4494

> <i_i_glide_rotatable_bonds>
15

> <r_i_docking_score>
-7.10477014085649

> <r_i_glide_ligand_efficiency>
-0.197354726134902

> <r_i_glide_ligand_efficiency_sa>
-0.65165094714457

> <r_i_glide_ligand_efficiency_ln>
-1.55006889602809

> <r_i_glide_gscore>
-7.10477014085649

> <r_i_glide_lipo>
-2.68884554343672

> <r_i_glide_hbond>
-0.806374589174413

> <r_i_glide_metal>
0

> <r_i_glide_rewards>
-0.787379634330244

> <r_i_glide_evdw>
-48.284351348877

> <r_i_glide_ecoul>
-9.56661033630371

> <r_i_glide_erotb>
1.07500686011324

> <r_i_glide_esite>
-0.0479681161389466

> <r_i_glide_emodel>
-71.1345002769066

> <r_i_glide_energy>
-57.8509616851807

> <r_i_glide_einternal>
26.8188514709473

> <i_i_glide_confnum>
216

> <i_i_glide_posenum>
36

> <r_i_glide_eff_state_penalty>
0

> <s_user_duplicate_titles>
434896

> <s_m_subgroup_title>
dock_pv

> <s_m_subgroupid>
dock_pv1

> <b_m_subgroup_collapsed>
0

$$$$
280012
                    3D
 Schrodinger Suite 2021-1.
 55 57  0  0  1  0            999 V2000
   21.0367  -12.8660   19.2909 C   0  0  0  0  0  0
   20.0293  -13.1697   20.3850 C   0  0  0  0  0  0
   18.7225  -12.6845   20.2843 C   0  0  0  0  0  0
   17.7909  -12.9344   21.3016 C   0  0  0  0  0  0
   18.1914  -13.6664   22.4199 C   0  0  0  0  0  0
   19.4939  -14.1557   22.5276 C   0  0  0  0  0  0
   20.4109  -13.9099   21.5058 C   0  0  0  0  0  0
   19.8462  -14.8948   23.6245 O   0  0  0  0  0  0
   20.3565  -14.0967   25.0019 S   0  0  0  0  0  0
   20.1464  -12.6529   24.8461 O   0  0  0  0  0  0
   19.8566  -14.8309   26.1700 O   0  0  0  0  0  0
   22.1100  -14.4235   24.8480 C   0  0  0  0  0  0
   22.9017  -13.6063   24.0424 C   0  0  0  0  0  0
   24.2669  -13.8522   23.9267 C   0  0  0  0  0  0
   24.8475  -14.9138   24.6194 C   0  0  0  0  0  0
   24.0681  -15.7467   25.4379 C   0  0  0  0  0  0
   22.6908  -15.4920   25.5379 C   0  0  0  0  0  0
   24.6886  -16.8580   26.1991 N   0  3  0  0  0  0
   23.9716  -17.5402   26.9255 O   0  5  0  0  0  0
   25.8934  -17.0546   26.0682 O   0  0  0  0  0  0
   16.4870  -12.4913   21.2826 O   0  0  0  0  0  0
   15.8644  -12.2115   20.0282 C   0  0  0  0  0  0
   14.3916  -11.8193   20.2610 C   0  0  0  0  0  0
   13.6008  -12.8720   21.0770 C   0  0  0  0  0  0
   12.1620  -12.4109   21.3870 C   0  0  0  0  0  0
   12.2178  -11.1183   22.0910 N   0  0  0  0  0  0
   12.8028  -10.0639   21.2476 C   0  0  0  0  0  0
   14.2620  -10.4387   20.9406 C   0  0  0  0  0  0
   11.5599  -10.8073   23.3270 C   0  0  0  0  0  0
   11.6150   -9.6887   23.8946 N   0  0  0  0  0  0
   10.8153  -11.8512   23.9122 N   0  0  0  0  0  0
   22.0159  -12.6556   19.7243 H   0  0  0  0  0  0
   21.1331  -13.7132   18.6090 H   0  0  0  0  0  0
   20.7572  -11.9753   18.7214 H   0  0  0  0  0  0
   18.4461  -12.1074   19.4167 H   0  0  0  0  0  0
   17.4796  -13.8722   23.2064 H   0  0  0  0  0  0
   21.4174  -14.3007   21.5828 H   0  0  0  0  0  0
   22.4559  -12.7785   23.5116 H   0  0  0  0  0  0
   24.8759  -13.2083   23.3137 H   0  0  0  0  0  0
   25.9157  -15.0719   24.5319 H   0  0  0  0  0  0
   22.0702  -16.1137   26.1703 H   0  0  0  0  0  0
   15.9170  -13.0915   19.3847 H   0  0  0  0  0  0
   16.3744  -11.3971   19.5098 H   0  0  0  0  0  0
   13.8930  -11.7350   19.2945 H   0  0  0  0  0  0
   14.1054  -13.0745   22.0250 H   0  0  0  0  0  0
   13.6068  -13.8340   20.5623 H   0  0  0  0  0  0
   11.6330  -13.1815   21.9451 H   0  0  0  0  0  0
   11.6189  -12.2778   20.4524 H   0  0  0  0  0  0
   12.7626   -9.0817   21.7228 H   0  0  0  0  0  0
   12.2227   -9.9889   20.3260 H   0  0  0  0  0  0
   14.7458   -9.6702   20.3406 H   0  0  0  0  0  0
   14.8139  -10.4370   21.8753 H   0  0  0  0  0  0
   11.0417   -9.6908   24.7258 H   0  0  0  0  0  0
   10.2114  -11.6935   24.7111 H   0  0  0  0  0  0
   10.7439  -12.7795   23.5130 H   0  0  0  0  0  0
  1  2  1  0  0  0
  1 32  1  0  0  0
  1 33  1  0  0  0
  1 34  1  0  0  0
  2  7  1  0  0  0
  2  3  2  0  0  0
  3  4  1  0  0  0
  3 35  1  0  0  0
  4  5  2  0  0  0
  4 21  1  0  0  0
  5  6  1  0  0  0
  5 36  1  0  0  0
  6  7  2  0  0  0
  6  8  1  0  0  0
  7 37  1  0  0  0
  8  9  1  0  0  0
  9 10  2  0  0  0
  9 11  2  0  0  0
  9 12  1  0  0  0
 12 17  1  0  0  0
 12 13  2  0  0  0
 13 14  1  0  0  0
 13 38  1  0  0  0
 14 15  2  0  0  0
 14 39  1  0  0  0
 15 16  1  0  0  0
 15 40  1  0  0  0
 16 17  2  0  0  0
 16 18  1  0  0  0
 17 41  1  0  0  0
 18 19  1  0  0  0
 18 20  2  0  0  0
 21 22  1  0  0  0
 22 23  1  0  0  0
 22 42  1  0  0  0
 22 43  1  0  0  0
 23 28  1  0  0  0
 23 24  1  0  0  0
 23 44  1  0  0  0
 24 25  1  0  0  0
 24 45  1  0  0  0
 24 46  1  0  0  0
 25 26  1  0  0  0
 25 47  1  0  0  0
 25 48  1  0  0  0
 26 27  1  0  0  0
 26 29  1  0  0  0
 27 28  1  0  0  0
 27 49  1  0  0  0
 27 50  1  0  0  0
 28 51  1  0  0  0
 28 52  1  0  0  0
 29 30  2  3  0  0
 29 31  1  0  0  0
 30 53  1  0  0  0
 31 54  1  0  0  0
 31 55  1  0  0  0
M  CHG  2  18   1  19  -1
M  END
> <s_m_entry_id>
37955

> <s_m_entry_name>
ligand_docking-pose.302

> <s_m_Source_Path>
/home/csk/Desktop/cluster/DUD-E-result/thrb

> <s_m_Source_File>
ligand_docking-pose.sdf

> <i_m_Source_File_Index>
302

> <i_lp_mmshare_version>
53161

> <i_f3d_flags>
0

> <r_lp_tautomer_probability>
1

> <s_lp_Force_Field>
OPLS_2005

> <r_lp_Energy>
23.272131

> <b_lp_Chiralities_Consistent>
1

> <s_lp_Variant>
280012-1

> <s_i_glide_gridfile>
glide-grid_1ype

> <i_i_glide_lignum>
2499

> <i_i_glide_rotatable_bonds>
8

> <r_i_docking_score>
-7.10414738154537

> <r_i_glide_ligand_efficiency>
-0.22916604456598

> <r_i_glide_ligand_efficiency_sa>
-0.719897777760593

> <r_i_glide_ligand_efficiency_ln>
-1.60220295050903

> <r_i_glide_gscore>
-7.10414738154537

> <r_i_glide_lipo>
-3.08468434454366

> <r_i_glide_hbond>
-0.391480771641907

> <r_i_glide_metal>
0

> <r_i_glide_rewards>
-1.02032541310605

> <r_i_glide_evdw>
-47.1907768249512

> <r_i_glide_ecoul>
-5.01375865936279

> <r_i_glide_erotb>
0.5975706223455

> <r_i_glide_esite>
-0.0936248344472801

> <r_i_glide_emodel>
-72.3399210781865

> <r_i_glide_energy>
-52.204535484314

> <r_i_glide_einternal>
4.08289051055908

> <i_i_glide_confnum>
29

> <i_i_glide_posenum>
257

> <r_i_glide_eff_state_penalty>
0

> <s_user_duplicate_titles>
280012

> <s_m_subgroup_title>
dock_pv

> <s_m_subgroupid>
dock_pv1

> <b_m_subgroup_collapsed>
0

$$$$
251192
                    3D
 Schrodinger Suite 2021-1.
 61 63  0  0  1  0            999 V2000
   13.0326  -12.1806   21.7526 C   0  0  0  0  0  0
   14.0700  -11.5162   21.1108 C   0  0  0  0  0  0
   14.2062  -10.1388   21.2286 C   0  0  0  0  0  0
   13.3839   -9.4510   22.1093 C   0  0  0  0  0  0
   12.4124  -10.1251   22.8655 C   0  0  0  0  0  0
   12.1898  -11.4880   22.5964 C   0  0  0  0  0  0
   11.7373   -9.4428   23.9882 C   0  0  0  0  0  0
   12.0432   -8.2606   24.3240 N   0  0  0  0  0  0
   10.8163  -10.2237   24.6270 N   0  0  0  0  0  0
   15.1127  -12.2929   20.4601 C   0  0  0  0  0  0
   14.9642  -13.2339   19.5028 C   0  0  0  0  0  0
   16.1638  -13.9835   19.1036 C   0  0  0  0  0  0
   16.3986  -14.2469   17.9236 O   0  0  0  0  0  0
   17.1035  -14.3612   20.1866 C   0  0  0  0  0  0
   18.3203  -13.7661   20.2043 C   0  0  0  0  0  0
   19.2468  -13.8458   21.3439 C   0  0  0  0  0  0
   20.4020  -14.6152   21.2918 C   0  0  0  0  0  0
   21.2177  -14.7109   22.4175 C   0  0  0  0  0  0
   20.9337  -14.0171   23.6107 C   0  0  0  0  0  0
   19.7694  -13.2335   23.6236 C   0  0  0  0  0  0
   18.9419  -13.1412   22.5087 C   0  0  0  0  0  0
   21.8159  -14.0923   24.8185 C   0  0  0  0  0  0
   21.5495  -13.4546   25.8743 N   0  0  0  0  0  0
   22.9175  -14.9000   24.6787 N   0  0  0  0  0  0
   16.6201  -15.2821   21.3352 C   0  0  0  0  0  0
   15.2111  -15.9107   21.3010 C   0  0  0  0  0  0
   14.9943  -16.9472   20.1786 C   0  0  0  0  0  0
   13.5304  -17.0744   19.7172 C   0  0  0  0  0  0
   13.1041  -16.0355   18.6567 C   0  0  0  0  0  0
   12.7383  -14.6264   19.1801 C   0  0  0  0  0  0
   13.6643  -13.4676   18.7226 C   0  0  0  0  0  0
   12.9363  -13.2504   21.7081 H   0  0  0  0  0  0
   15.0205   -9.6153   20.7483 H   0  0  0  0  0  0
   13.5932   -8.4046   22.2756 H   0  0  0  0  0  0
   11.4514  -12.0740   23.1244 H   0  0  0  0  0  0
   12.7710   -7.8685   23.7517 H   0  0  0  0  0  0
   10.1795   -9.8056   25.3018 H   0  0  0  0  0  0
   10.4680  -11.0554   24.1743 H   0  0  0  0  0  0
   16.0882  -12.0922   20.8748 H   0  0  0  0  0  0
   18.6434  -13.1463   19.3809 H   0  0  0  0  0  0
   20.6630  -15.1610   20.3956 H   0  0  0  0  0  0
   22.0837  -15.3427   22.3298 H   0  0  0  0  0  0
   19.4919  -12.6706   24.5011 H   0  0  0  0  0  0
   18.0468  -12.5428   22.5581 H   0  0  0  0  0  0
   20.7065  -12.9011   25.8096 H   0  0  0  0  0  0
   23.5396  -14.9948   25.4689 H   0  0  0  0  0  0
   22.9638  -15.5681   23.9245 H   0  0  0  0  0  0
   17.3523  -16.0851   21.4631 H   0  0  0  0  0  0
   16.6757  -14.6998   22.2588 H   0  0  0  0  0  0
   15.0279  -16.4069   22.2561 H   0  0  0  0  0  0
   14.4684  -15.1181   21.2740 H   0  0  0  0  0  0
   15.6218  -16.7336   19.3125 H   0  0  0  0  0  0
   15.3433  -17.9170   20.5409 H   0  0  0  0  0  0
   13.3976  -18.0668   19.2821 H   0  0  0  0  0  0
   12.8573  -17.0421   20.5798 H   0  0  0  0  0  0
   13.8628  -15.9683   17.8737 H   0  0  0  0  0  0
   12.2264  -16.4359   18.1401 H   0  0  0  0  0  0
   11.7524  -14.3803   18.7793 H   0  0  0  0  0  0
   12.5732  -14.6475   20.2516 H   0  0  0  0  0  0
   13.0866  -12.5454   18.8175 H   0  0  0  0  0  0
   13.8696  -13.5387   17.6533 H   0  0  0  0  0  0
  1  6  1  0  0  0
  1  2  2  0  0  0
  1 32  1  0  0  0
  2  3  1  0  0  0
  2 10  1  0  0  0
  3  4  2  0  0  0
  3 33  1  0  0  0
  4  5  1  0  0  0
  4 34  1  0  0  0
  5  6  2  0  0  0
  5  7  1  0  0  0
  6 35  1  0  0  0
  7  8  2  3  0  0
  7  9  1  0  0  0
  8 36  1  0  0  0
  9 37  1  0  0  0
  9 38  1  0  0  0
 10 11  2  0  0  0
 10 39  1  0  0  0
 11 31  1  0  0  0
 11 12  1  0  0  0
 12 13  2  0  0  0
 12 14  1  0  0  0
 14 15  2  0  0  0
 14 25  1  0  0  0
 15 16  1  0  0  0
 15 40  1  0  0  0
 16 21  1  0  0  0
 16 17  2  0  0  0
 17 18  1  0  0  0
 17 41  1  0  0  0
 18 19  2  0  0  0
 18 42  1  0  0  0
 19 20  1  0  0  0
 19 22  1  0  0  0
 20 21  2  0  0  0
 20 43  1  0  0  0
 21 44  1  0  0  0
 22 23  2  3  0  0
 22 24  1  0  0  0
 23 45  1  0  0  0
 24 46  1  0  0  0
 24 47  1  0  0  0
 25 26  1  0  0  0
 25 48  1  0  0  0
 25 49  1  0  0  0
 26 27  1  0  0  0
 26 50  1  0  0  0
 26 51  1  0  0  0
 27 28  1  0  0  0
 27 52  1  0  0  0
 27 53  1  0  0  0
 28 29  1  0  0  0
 28 54  1  0  0  0
 28 55  1  0  0  0
 29 30  1  0  0  0
 29 56  1  0  0  0
 29 57  1  0  0  0
 30 31  1  0  0  0
 30 58  1  0  0  0
 30 59  1  0  0  0
 31 60  1  0  0  0
 31 61  1  0  0  0
M  END
> <s_m_entry_id>
37957

> <s_m_entry_name>
ligand_docking-pose.304

> <s_m_Source_Path>
/home/csk/Desktop/cluster/DUD-E-result/thrb

> <s_m_Source_File>
ligand_docking-pose.sdf

> <i_m_Source_File_Index>
304

> <i_lp_mmshare_version>
53161

> <i_f3d_flags>
0

> <r_lp_tautomer_probability>
1

> <s_lp_Force_Field>
OPLS_2005

> <r_lp_Energy>
37.877039

> <b_lp_Chiralities_Consistent>
1

> <s_lp_Variant>
251192-3

> <s_i_glide_gridfile>
glide-grid_1ype

> <i_i_glide_lignum>
1414

> <i_i_glide_rotatable_bonds>
4

> <r_i_docking_score>
-7.09640936885948

> <r_i_glide_ligand_efficiency>
-0.228916431253532

> <r_i_glide_ligand_efficiency_sa>
-0.719113647331186

> <r_i_glide_ligand_efficiency_ln>
-1.60045779150675

> <r_i_glide_gscore>
-7.09640936885948

> <r_i_glide_lipo>
-3.06138123583904

> <r_i_glide_hbond>
-0.128556554324151

> <r_i_glide_metal>
0

> <r_i_glide_rewards>
-1.21088691976667

> <r_i_glide_evdw>
-39.9350280761719

> <r_i_glide_ecoul>
-5.61596250534058

> <r_i_glide_erotb>
0.229723580369639

> <r_i_glide_esite>
-0.0861624596895773

> <r_i_glide_emodel>
-54.3626989018846

> <r_i_glide_energy>
-45.5509905815125

> <r_i_glide_einternal>
5.43177366256714

> <i_i_glide_confnum>
5

> <i_i_glide_posenum>
13

> <r_i_glide_eff_state_penalty>
0

> <s_user_duplicate_titles>
251192

> <s_m_subgroup_title>
dock_pv

> <s_m_subgroupid>
dock_pv1

> <b_m_subgroup_collapsed>
0

$$$$
305511
                    3D
 Schrodinger Suite 2021-1.
 68 73  0  0  1  0            999 V2000
   19.3829  -14.1069   24.8536 C   0  0  0  0  0  0
   18.5976  -14.9933   23.9885 N   0  0  1  0  0  0
   17.6130  -15.7054   24.8097 C   0  0  0  0  0  0
   17.0573  -16.9183   24.0464 C   0  0  0  0  0  0
   16.6696  -16.5948   22.6089 C   0  0  0  0  0  0
   15.8833  -17.4982   21.8870 C   0  0  0  0  0  0
   15.5578  -17.2677   20.5557 C   0  0  0  0  0  0
   16.0158  -16.1221   19.9132 C   0  0  0  0  0  0
   16.7929  -15.2137   20.6392 C   0  0  0  0  0  0
   17.1380  -15.4123   21.9902 C   0  0  0  0  0  0
   17.9036  -14.3520   22.8429 C   0  0  2  0  0  0
   18.7812  -13.3713   21.9869 C   0  0  0  0  0  0
   19.9359  -14.0241   21.1719 C   0  0  0  0  0  0
   20.5843  -13.1272   20.1040 C   0  0  0  0  0  0
   19.5402  -12.3494   19.2940 C   0  0  0  0  0  0
   18.7308  -11.4217   20.2127 C   0  0  0  0  0  0
   18.0253  -12.1484   21.3737 C   0  0  0  0  0  0
   15.6118  -15.8877   18.4528 C   0  0  2  0  0  0
   16.0218  -14.6494   17.6675 C   0  0  0  0  0  0
   14.5746  -14.8561   18.0426 C   0  0  2  0  0  0
   13.8609  -13.9987   19.0762 C   0  0  0  0  0  0
   12.7478  -14.5403   19.7125 C   0  0  0  0  0  0
   12.0942  -13.8424   20.7193 C   0  0  0  0  0  0
   12.5485  -12.5637   21.1130 C   0  0  0  0  0  0
   11.9193  -11.8524   22.1572 C   0  0  0  0  0  0
   12.3697  -10.5868   22.5728 C   0  0  0  0  0  0
   13.4642  -10.0336   21.8871 C   0  0  0  0  0  0
   14.1109  -10.7072   20.8534 C   0  0  0  0  0  0
   13.6698  -11.9877   20.4508 C   0  0  0  0  0  0
   14.3136  -12.7219   19.4226 C   0  0  0  0  0  0
   11.7267   -9.8531   23.7002 C   0  0  0  0  0  0
   12.0170   -8.6536   23.9516 N   0  0  0  0  0  0
   10.8181  -10.5892   24.4141 N   0  0  0  0  0  0
   20.2607  -13.7246   24.3329 H   0  0  0  0  0  0
   18.8088  -13.2594   25.2252 H   0  0  0  0  0  0
   19.7701  -14.6487   25.7188 H   0  0  0  0  0  0
   16.8301  -15.0520   25.2030 H   0  0  0  0  0  0
   18.1110  -16.1144   25.6904 H   0  0  0  0  0  0
   16.2121  -17.3411   24.5897 H   0  0  0  0  0  0
   17.8228  -17.6957   24.0234 H   0  0  0  0  0  0
   15.5298  -18.4010   22.3631 H   0  0  0  0  0  0
   14.9466  -17.9826   20.0249 H   0  0  0  0  0  0
   17.1513  -14.3472   20.1215 H   0  0  0  0  0  0
   17.1320  -13.7146   23.2801 H   0  0  0  0  0  0
   19.3757  -12.7842   22.6836 H   0  0  0  0  0  0
   20.6779  -14.4797   21.8299 H   0  0  0  0  0  0
   19.5147  -14.8617   20.6155 H   0  0  0  0  0  0
   21.2649  -12.4254   20.5885 H   0  0  0  0  0  0
   21.2057  -13.7323   19.4420 H   0  0  0  0  0  0
   20.0366  -11.7664   18.5180 H   0  0  0  0  0  0
   18.8772  -13.0456   18.7792 H   0  0  0  0  0  0
   19.3960  -10.6620   20.6261 H   0  0  0  0  0  0
   17.9891  -10.8770   19.6280 H   0  0  0  0  0  0
   17.0900  -12.4929   20.9410 H   0  0  0  0  0  0
   17.6952  -11.4508   22.1438 H   0  0  0  0  0  0
   15.6188  -16.8079   17.8659 H   0  0  0  0  0  0
   16.3071  -14.7732   16.6223 H   0  0  0  0  0  0
   16.5941  -13.8506   18.1342 H   0  0  0  0  0  0
   13.9147  -15.1669   17.2302 H   0  0  0  0  0  0
   12.3987  -15.5263   19.4418 H   0  0  0  0  0  0
   11.2425  -14.2836   21.2183 H   0  0  0  0  0  0
   11.0731  -12.3312   22.6300 H   0  0  0  0  0  0
   13.8464   -9.0621   22.1700 H   0  0  0  0  0  0
   14.9646  -10.2584   20.3664 H   0  0  0  0  0  0
   15.1708  -12.2877   18.9310 H   0  0  0  0  0  0
   11.4892   -8.3140   24.7405 H   0  0  0  0  0  0
   10.1759  -10.1330   25.0570 H   0  0  0  0  0  0
   10.5256  -11.4973   24.0899 H   0  0  0  0  0  0
  1  2  1  0  0  0
  1 34  1  0  0  0
  1 35  1  0  0  0
  1 36  1  0  0  0
  2 11  1  0  0  0
  2  3  1  0  0  0
  3  4  1  0  0  0
  3 37  1  0  0  0
  3 38  1  0  0  0
  4  5  1  0  0  0
  4 39  1  0  0  0
  4 40  1  0  0  0
  5 10  2  0  0  0
  5  6  1  0  0  0
  6  7  2  0  0  0
  6 41  1  0  0  0
  7  8  1  0  0  0
  7 42  1  0  0  0
  8  9  2  0  0  0
  8 18  1  0  0  0
  9 10  1  0  0  0
  9 43  1  0  0  0
 10 11  1  0  0  0
 11 12  1  0  0  0
 11 44  1  0  0  0
 12 17  1  0  0  0
 12 13  1  0  0  0
 12 45  1  0  0  0
 13 14  1  0  0  0
 13 46  1  0  0  0
 13 47  1  0  0  0
 14 15  1  0  0  0
 14 48  1  0  0  0
 14 49  1  0  0  0
 15 16  1  0  0  0
 15 50  1  0  0  0
 15 51  1  0  0  0
 16 17  1  0  0  0
 16 52  1  0  0  0
 16 53  1  0  0  0
 17 54  1  0  0  0
 17 55  1  0  0  0
 18 20  1  0  0  0
 18 19  1  0  0  0
 18 56  1  0  0  0
 19 20  1  0  0  0
 19 57  1  0  0  0
 19 58  1  0  0  0
 20 21  1  0  0  0
 20 59  1  0  0  0
 21 30  1  0  0  0
 21 22  2  0  0  0
 22 23  1  0  0  0
 22 60  1  0  0  0
 23 24  2  0  0  0
 23 61  1  0  0  0
 24 29  1  0  0  0
 24 25  1  0  0  0
 25 26  2  0  0  0
 25 62  1  0  0  0
 26 27  1  0  0  0
 26 31  1  0  0  0
 27 28  2  0  0  0
 27 63  1  0  0  0
 28 29  1  0  0  0
 28 64  1  0  0  0
 29 30  2  0  0  0
 30 65  1  0  0  0
 31 32  2  3  0  0
 31 33  1  0  0  0
 32 66  1  0  0  0
 33 67  1  0  0  0
 33 68  1  0  0  0
M  END
> <s_m_entry_id>
37958

> <s_m_entry_name>
ligand_docking-pose.305

> <s_m_Source_Path>
/home/csk/Desktop/cluster/DUD-E-result/thrb

> <s_m_Source_File>
ligand_docking-pose.sdf

> <i_m_Source_File_Index>
305

> <i_lp_mmshare_version>
53161

> <i_f3d_flags>
0

> <r_lp_tautomer_probability>
1

> <s_lp_Force_Field>
OPLS_2005

> <r_lp_Energy>
39.06578

> <b_lp_Chiralities_Consistent>
1

> <s_lp_Variant>
305511-11

> <s_i_glide_gridfile>
glide-grid_1ype

> <i_i_glide_lignum>
4193

> <i_i_glide_rotatable_bonds>
4

> <r_i_docking_score>
-7.09494217647837

> <r_i_glide_ligand_efficiency>
-0.214998247772072

> <r_i_glide_ligand_efficiency_sa>
-0.689614259814122

> <r_i_glide_ligand_efficiency_ln>
-1.57787840440425

> <r_i_glide_gscore>
-7.09494217647837

> <r_i_glide_lipo>
-3.37271056436711

> <r_i_glide_hbond>
-0.16

> <r_i_glide_metal>
0

> <r_i_glide_rewards>
-0.847193944187188

> <r_i_glide_evdw>
-43.2709121704102

> <r_i_glide_ecoul>
-5.16313409805298

> <r_i_glide_erotb>
0.312403982050359

> <r_i_glide_esite>
-0.0894259267459701

> <r_i_glide_emodel>
-66.6614663867183

> <r_i_glide_energy>
-48.4340462684631

> <r_i_glide_einternal>
1.72309601306915

> <i_i_glide_confnum>
3

> <i_i_glide_posenum>
18

> <r_i_glide_eff_state_penalty>
0

> <s_user_duplicate_titles>
305511

> <s_m_subgroup_title>
dock_pv

> <s_m_subgroupid>
dock_pv1

> <b_m_subgroup_collapsed>
0

$$$$
290232
                    3D
 Schrodinger Suite 2021-1.
 64 67  0  0  1  0            999 V2000
   14.7149  -18.6527   23.9250 C   0  0  0  0  0  0
   14.4163  -17.5618   23.0681 O   0  0  0  0  0  0
   13.7351  -17.7602   21.9148 C   0  0  0  0  0  0
   13.2670  -18.8418   21.5578 O   0  0  0  0  0  0
   13.6323  -16.5663   21.0907 C   0  0  0  0  0  0
   13.5568  -15.3132   21.5863 C   0  0  0  0  0  0
   13.5732  -14.0979   20.7978 C   0  0  0  0  0  0
   14.1784  -13.9339   19.5664 C   0  0  0  0  0  0
   14.2019  -12.6136   19.1953 N   0  0  0  0  0  0
   13.4303  -11.8957   20.0940 C   0  0  0  0  0  0
   13.0986  -12.7852   21.1602 C   0  0  0  0  0  0
   12.4660  -12.2532   22.2961 C   0  0  0  0  0  0
   12.1857  -10.8755   22.3786 C   0  0  0  0  0  0
   12.4405  -10.0721   21.2603 C   0  0  0  0  0  0
   13.0536  -10.5511   20.1104 C   0  0  0  0  0  0
   11.6650  -10.2509   23.6164 C   0  0  0  0  0  0
   12.0161   -9.0830   23.9384 N   0  0  0  0  0  0
   10.8160  -11.0535   24.3210 N   0  0  0  0  0  0
   15.0177  -12.0719   18.1090 C   0  0  0  0  0  0
   16.5687  -12.0363   18.2720 C   0  0  0  0  0  0
   17.1886  -11.9880   17.2065 O   0  0  0  0  0  0
   17.2318  -11.8538   19.4594 N   0  0  0  0  0  0
   16.7087  -12.1124   20.8076 C   0  0  0  0  0  0
   17.0944  -13.5639   21.1826 C   0  0  0  0  0  0
   18.6260  -13.8139   21.1761 C   0  0  0  0  0  0
   19.2450  -13.1944   19.8897 C   0  0  0  0  0  0
   18.7098  -11.8018   19.4849 C   0  0  0  0  0  0
   19.3124  -13.2464   22.4491 C   0  0  0  0  0  0
   19.2669  -14.1692   23.6661 C   0  0  0  0  0  0
   18.1116  -14.2691   24.4480 C   0  0  0  0  0  0
   18.0946  -15.0888   25.5723 C   0  0  0  0  0  0
   19.2343  -15.8088   25.9191 C   0  0  0  0  0  0
   20.3909  -15.7203   25.1469 C   0  0  0  0  0  0
   20.4059  -14.9013   24.0201 C   0  0  0  0  0  0
   15.2648  -18.3004   24.7973 H   0  0  0  0  0  0
   15.3407  -19.3792   23.4078 H   0  0  0  0  0  0
   13.8048  -19.1468   24.2677 H   0  0  0  0  0  0
   13.6371  -16.7385   20.0247 H   0  0  0  0  0  0
   13.5043  -15.1441   22.6543 H   0  0  0  0  0  0
   14.7159  -14.6568   18.9686 H   0  0  0  0  0  0
   12.2507  -12.9098   23.1264 H   0  0  0  0  0  0
   12.1723   -9.0244   21.2790 H   0  0  0  0  0  0
   13.2201   -9.8911   19.2790 H   0  0  0  0  0  0
   12.6710   -8.6906   23.2816 H   0  0  0  0  0  0
   10.2458  -10.6312   25.0464 H   0  0  0  0  0  0
   10.4414  -11.8806   23.8811 H   0  0  0  0  0  0
   14.7954  -12.6869   17.2350 H   0  0  0  0  0  0
   14.6667  -11.0728   17.8556 H   0  0  0  0  0  0
   17.2182  -11.4151   21.4748 H   0  0  0  0  0  0
   15.6833  -11.8128   20.9758 H   0  0  0  0  0  0
   16.6547  -13.8268   22.1410 H   0  0  0  0  0  0
   16.6321  -14.2602   20.4857 H   0  0  0  0  0  0
   18.7905  -14.8912   21.1133 H   0  0  0  0  0  0
   19.0427  -13.8551   19.0514 H   0  0  0  0  0  0
   20.3342  -13.1791   19.9502 H   0  0  0  0  0  0
   19.1375  -11.4540   18.5464 H   0  0  0  0  0  0
   19.0006  -11.0533   20.2236 H   0  0  0  0  0  0
   20.3657  -13.0537   22.2395 H   0  0  0  0  0  0
   18.9040  -12.2724   22.7182 H   0  0  0  0  0  0
   17.2154  -13.7265   24.1989 H   0  0  0  0  0  0
   17.2020  -15.1626   26.1745 H   0  0  0  0  0  0
   19.2194  -16.4408   26.7945 H   0  0  0  0  0  0
   21.2721  -16.2813   25.4229 H   0  0  0  0  0  0
   21.3069  -14.8338   23.4276 H   0  0  0  0  0  0
  1  2  1  0  0  0
  1 35  1  0  0  0
  1 36  1  0  0  0
  1 37  1  0  0  0
  2  3  1  0  0  0
  3  4  2  0  0  0
  3  5  1  0  0  0
  5  6  2  0  0  0
  5 38  1  0  0  0
  6  7  1  0  0  0
  6 39  1  0  0  0
  7 11  1  0  0  0
  7  8  2  0  0  0
  8  9  1  0  0  0
  8 40  1  0  0  0
  9 10  1  0  0  0
  9 19  1  0  0  0
 10 15  1  0  0  0
 10 11  2  0  0  0
 11 12  1  0  0  0
 12 13  2  0  0  0
 12 41  1  0  0  0
 13 14  1  0  0  0
 13 16  1  0  0  0
 14 15  2  0  0  0
 14 42  1  0  0  0
 15 43  1  0  0  0
 16 17  2  3  0  0
 16 18  1  0  0  0
 17 44  1  0  0  0
 18 45  1  0  0  0
 18 46  1  0  0  0
 19 20  1  0  0  0
 19 47  1  0  0  0
 19 48  1  0  0  0
 20 21  2  0  0  0
 20 22  1  0  0  0
 22 27  1  0  0  0
 22 23  1  0  0  0
 23 24  1  0  0  0
 23 49  1  0  0  0
 23 50  1  0  0  0
 24 25  1  0  0  0
 24 51  1  0  0  0
 24 52  1  0  0  0
 25 26  1  0  0  0
 25 28  1  0  0  0
 25 53  1  0  0  0
 26 27  1  0  0  0
 26 54  1  0  0  0
 26 55  1  0  0  0
 27 56  1  0  0  0
 27 57  1  0  0  0
 28 29  1  0  0  0
 28 58  1  0  0  0
 28 59  1  0  0  0
 29 34  1  0  0  0
 29 30  2  0  0  0
 30 31  1  0  0  0
 30 60  1  0  0  0
 31 32  2  0  0  0
 31 61  1  0  0  0
 32 33  1  0  0  0
 32 62  1  0  0  0
 33 34  2  0  0  0
 33 63  1  0  0  0
 34 64  1  0  0  0
M  END
> <s_m_entry_id>
37959

> <s_m_entry_name>
ligand_docking-pose.306

> <s_m_Source_Path>
/home/csk/Desktop/cluster/DUD-E-result/thrb

> <s_m_Source_File>
ligand_docking-pose.sdf

> <i_m_Source_File_Index>
306

> <i_lp_mmshare_version>
53161

> <i_f3d_flags>
0

> <r_lp_tautomer_probability>
1

> <s_lp_Force_Field>
OPLS_2005

> <r_lp_Energy>
35.939068

> <b_lp_Chiralities_Consistent>
1

> <s_lp_Variant>
290232-2

> <s_i_glide_gridfile>
glide-grid_1ype

> <i_i_glide_lignum>
4794

> <i_i_glide_rotatable_bonds>
9

> <r_i_docking_score>
-7.09411301297551

> <r_i_glide_ligand_efficiency>
-0.208650382734574

> <r_i_glide_ligand_efficiency_sa>
-0.675946241453446

> <r_i_glide_ligand_efficiency_ln>
-1.5672885476963

> <r_i_glide_gscore>
-7.09411301297551

> <r_i_glide_lipo>
-3.44098409066196

> <r_i_glide_hbond>
-0.397007708904523

> <r_i_glide_metal>
0

> <r_i_glide_rewards>
-1.00824242131052

> <r_i_glide_evdw>
-48.3857307434082

> <r_i_glide_ecoul>
-2.62796354293823

> <r_i_glide_erotb>
0.669594301060301

> <r_i_glide_esite>
-0.103992024547668

> <r_i_glide_emodel>
-71.963434887189

> <r_i_glide_energy>
-51.0136942863464

> <r_i_glide_einternal>
6.72798776626587

> <i_i_glide_confnum>
19

> <i_i_glide_posenum>
132

> <r_i_glide_eff_state_penalty>
0

> <s_user_duplicate_titles>
290232

> <s_m_subgroup_title>
dock_pv

> <s_m_subgroupid>
dock_pv1

> <b_m_subgroup_collapsed>
0

$$$$
549310
                    3D
 Schrodinger Suite 2021-1.
 59 61  0  0  1  0            999 V2000
   20.3203  -16.1932   21.8314 C   0  0  0  0  0  0
   19.3814  -15.0971   21.3447 C   0  0  0  0  0  0
   19.8520  -14.2140   20.3700 C   0  0  0  0  0  0
   19.0302  -13.2097   19.8731 C   0  0  0  0  0  0
   17.7279  -13.0630   20.3451 C   0  0  0  0  0  0
   17.2605  -13.9050   21.3710 C   0  0  0  0  0  0
   18.0720  -14.9508   21.8529 C   0  0  0  0  0  0
   17.5468  -15.8898   22.9550 C   0  0  0  0  0  0
   18.0133  -15.4355   24.3413 C   0  0  0  0  0  0
   17.9357  -14.2530   24.6637 O   0  0  0  0  0  0
   18.5307  -16.3749   25.1458 N   0  0  0  0  0  0
   19.3279  -16.0540   26.3265 C   0  0  0  0  0  0
   20.7171  -15.5890   25.9091 C   0  0  0  0  0  0
   21.0494  -14.2353   25.9234 C   0  0  0  0  0  0
   22.2899  -13.8223   25.4482 C   0  0  0  0  0  0
   23.2186  -14.7431   24.9261 C   0  0  0  0  0  0
   22.8774  -16.1083   24.9785 C   0  0  0  0  0  0
   21.6479  -16.5273   25.4711 C   0  0  0  0  0  0
   24.4941  -14.2670   24.3170 C   0  0  0  0  0  0
   24.8159  -13.0527   24.3210 N   0  0  0  0  0  0
   25.2552  -15.2425   23.7212 N   0  0  0  0  0  0
   16.0181  -13.6861   21.9208 O   0  0  0  0  0  0
   16.9282  -12.0849   19.7373 N   0  0  0  0  0  0
   15.5054  -12.5249   18.7741 S   0  0  0  0  0  0
   15.3362  -11.4535   17.7877 O   0  0  0  0  0  0
   15.6661  -13.9203   18.3483 O   0  0  0  0  0  0
   14.1192  -12.4222   19.8965 C   0  0  0  0  0  0
   13.3535  -13.5509   20.1972 C   0  0  0  0  0  0
   12.3087  -13.4549   21.1156 C   0  0  0  0  0  0
   12.0163  -12.2343   21.7236 C   0  0  0  0  0  0
   12.7741  -11.0963   21.4183 C   0  0  0  0  0  0
   13.8289  -11.2014   20.5051 C   0  0  0  0  0  0
   12.4531   -9.7454   22.0430 C   0  0  0  0  0  0
   13.5670   -9.0644   22.3206 F   0  0  0  0  0  0
   11.7476   -9.0537   21.1527 F   0  0  0  0  0  0
   11.7405   -9.8626   23.1633 F   0  0  0  0  0  0
   21.2989  -16.1445   21.3506 H   0  0  0  0  0  0
   20.4758  -16.1056   22.9048 H   0  0  0  0  0  0
   19.8966  -17.1770   21.6346 H   0  0  0  0  0  0
   20.8533  -14.3165   19.9788 H   0  0  0  0  0  0
   19.4058  -12.5629   19.0939 H   0  0  0  0  0  0
   17.8629  -16.9140   22.7528 H   0  0  0  0  0  0
   16.4585  -15.9341   22.9603 H   0  0  0  0  0  0
   18.5590  -17.3297   24.8239 H   0  0  0  0  0  0
   19.4168  -16.9520   26.9393 H   0  0  0  0  0  0
   18.8392  -15.3038   26.9530 H   0  0  0  0  0  0
   20.3372  -13.5002   26.2719 H   0  0  0  0  0  0
   22.5077  -12.7638   25.4598 H   0  0  0  0  0  0
   23.5459  -16.8736   24.6139 H   0  0  0  0  0  0
   21.4025  -17.5785   25.4663 H   0  0  0  0  0  0
   25.6879  -12.9076   23.8260 H   0  0  0  0  0  0
   26.1778  -14.9969   23.3909 H   0  0  0  0  0  0
   25.0683  -16.2123   23.9199 H   0  0  0  0  0  0
   15.8220  -14.2450   22.6801 H   0  0  0  0  0  0
   17.2787  -11.1436   19.6536 H   0  0  0  0  0  0
   13.5731  -14.5050   19.7371 H   0  0  0  0  0  0
   11.7158  -14.3246   21.3590 H   0  0  0  0  0  0
   11.1949  -12.1798   22.4264 H   0  0  0  0  0  0
   14.4303  -10.3344   20.2747 H   0  0  0  0  0  0
  1  2  1  0  0  0
  1 37  1  0  0  0
  1 38  1  0  0  0
  1 39  1  0  0  0
  2  7  1  0  0  0
  2  3  2  0  0  0
  3  4  1  0  0  0
  3 40  1  0  0  0
  4  5  2  0  0  0
  4 41  1  0  0  0
  5  6  1  0  0  0
  5 23  1  0  0  0
  6  7  2  0  0  0
  6 22  1  0  0  0
  7  8  1  0  0  0
  8  9  1  0  0  0
  8 42  1  0  0  0
  8 43  1  0  0  0
  9 10  2  0  0  0
  9 11  1  0  0  0
 11 12  1  0  0  0
 11 44  1  0  0  0
 12 13  1  0  0  0
 12 45  1  0  0  0
 12 46  1  0  0  0
 13 18  1  0  0  0
 13 14  2  0  0  0
 14 15  1  0  0  0
 14 47  1  0  0  0
 15 16  2  0  0  0
 15 48  1  0  0  0
 16 17  1  0  0  0
 16 19  1  0  0  0
 17 18  2  0  0  0
 17 49  1  0  0  0
 18 50  1  0  0  0
 19 20  2  3  0  0
 19 21  1  0  0  0
 20 51  1  0  0  0
 21 52  1  0  0  0
 21 53  1  0  0  0
 22 54  1  0  0  0
 23 24  1  0  0  0
 23 55  1  0  0  0
 24 25  2  0  0  0
 24 26  2  0  0  0
 24 27  1  0  0  0
 27 32  1  0  0  0
 27 28  2  0  0  0
 28 29  1  0  0  0
 28 56  1  0  0  0
 29 30  2  0  0  0
 29 57  1  0  0  0
 30 31  1  0  0  0
 30 58  1  0  0  0
 31 32  2  0  0  0
 31 33  1  0  0  0
 32 59  1  0  0  0
 33 34  1  0  0  0
 33 35  1  0  0  0
 33 36  1  0  0  0
M  END
> <s_m_entry_id>
37960

> <s_m_entry_name>
ligand_docking-pose.307

> <s_m_Source_Path>
/home/csk/Desktop/cluster/DUD-E-result/thrb

> <s_m_Source_File>
ligand_docking-pose.sdf

> <i_m_Source_File_Index>
307

> <i_lp_mmshare_version>
53161

> <i_f3d_flags>
0

> <r_lp_tautomer_probability>
1

> <s_lp_Force_Field>
OPLS_2005

> <r_lp_Energy>
7.165274

> <b_lp_Chiralities_Consistent>
1

> <s_lp_Variant>
549310-1

> <s_i_glide_gridfile>
glide-grid_1ype

> <i_i_glide_lignum>
2351

> <i_i_glide_rotatable_bonds>
11

> <r_i_docking_score>
-7.09327602253323

> <r_i_glide_ligand_efficiency>
-0.197035445070367

> <r_i_glide_ligand_efficiency_sa>
-0.650596704298785

> <r_i_glide_ligand_efficiency_ln>
-1.54756118994514

> <r_i_glide_gscore>
-7.09327602253323

> <r_i_glide_lipo>
-2.97651647242635

> <r_i_glide_hbond>
-0.0167952752531023

> <r_i_glide_metal>
0

> <r_i_glide_rewards>
-0.760519505713113

> <r_i_glide_evdw>
-50.3559989929199

> <r_i_glide_ecoul>
-9.2418327331543

> <r_i_glide_erotb>
0.606813383552347

> <r_i_glide_esite>
-0.042183293073875

> <r_i_glide_emodel>
-78.2076511035481

> <r_i_glide_energy>
-59.5978317260742

> <r_i_glide_einternal>
6.99053716659546

> <i_i_glide_confnum>
45

> <i_i_glide_posenum>
399

> <r_i_glide_eff_state_penalty>
0

> <s_user_duplicate_titles>
549310

> <s_m_subgroup_title>
dock_pv

> <s_m_subgroupid>
dock_pv1

> <b_m_subgroup_collapsed>
0

$$$$
434372
                    3D
 Schrodinger Suite 2021-1.
 64 66  0  0  1  0            999 V2000
   22.0540  -13.6776   25.1745 C   0  0  0  0  0  0
   20.8389  -13.0932   25.5261 C   0  0  0  0  0  0
   19.7675  -13.9039   25.8856 C   0  0  0  0  0  0
   19.9124  -15.2923   25.8999 C   0  0  0  0  0  0
   21.1273  -15.8731   25.5234 C   0  0  0  0  0  0
   22.2027  -15.0634   25.1672 C   0  0  0  0  0  0
   18.7426  -16.1682   26.3266 C   0  0  0  0  0  0
   17.9559  -17.1284   24.8991 S   0  0  0  0  0  0
   16.6691  -17.6382   25.3789 O   0  0  0  0  0  0
   18.9471  -18.0663   24.3619 O   0  0  0  0  0  0
   17.5942  -15.8863   23.6894 N   0  0  0  0  0  0
   18.5520  -15.2522   22.8507 C   0  0  0  0  0  0
   19.7521  -15.7758   22.4842 C   0  0  0  0  0  0
   20.6483  -15.0279   21.6270 C   0  0  0  0  0  0
   20.2205  -13.8250   21.2110 C   0  0  0  0  0  0
   19.0065  -13.2611   21.5369 N   0  0  0  0  0  0
   18.1151  -13.9264   22.3681 C   0  0  0  0  0  0
   17.0132  -13.4479   22.6696 O   0  0  0  0  0  0
   18.5846  -11.9676   20.9565 C   0  0  0  0  0  0
   17.8011  -12.2132   19.6614 C   0  0  0  0  0  0
   18.2824  -11.8535   18.5874 O   0  0  0  0  0  0
   16.6070  -12.8241   19.7719 N   0  0  0  0  0  0
   15.7060  -13.1326   18.6531 C   0  0  1  0  0  0
   15.1906  -14.5949   18.7242 C   0  0  0  0  0  0
   14.8682  -15.1934   17.3422 C   0  0  0  0  0  0
   14.1374  -16.5437   17.4144 C   0  0  0  0  0  0
   12.6985  -16.3767   17.5185 N   0  0  0  0  0  0
   11.8962  -16.3702   18.6494 C   0  0  0  0  0  0
   12.3100  -16.4589   19.8378 N   0  0  0  0  0  0
   10.5613  -16.2502   18.3138 N   0  0  0  0  0  0
   14.6040  -12.0735   18.6649 C   0  0  0  0  0  0
   14.4173  -11.4542   17.6187 O   0  0  0  0  0  0
   13.8017  -11.7285   19.8575 C   0  0  0  0  0  0
   13.0801  -10.6372   19.9777 N   0  0  0  0  0  0
   12.4164  -10.5784   21.1159 C   0  0  0  0  0  0
   12.5896  -11.6503   21.9811 C   0  0  0  0  0  0
   13.6969  -12.7728   21.2568 S   0  0  0  0  0  0
   16.2684  -13.0423   17.7198 H   0  0  0  0  0  0
   22.8910  -13.0504   24.9058 H   0  0  0  0  0  0
   20.7297  -12.0180   25.5340 H   0  0  0  0  0  0
   18.8279  -13.4510   26.1650 H   0  0  0  0  0  0
   21.2400  -16.9483   25.5280 H   0  0  0  0  0  0
   23.1490  -15.5048   24.8916 H   0  0  0  0  0  0
   17.9503  -15.5723   26.7802 H   0  0  0  0  0  0
   19.0619  -16.9012   27.0670 H   0  0  0  0  0  0
   16.7916  -15.2916   23.9344 H   0  0  0  0  0  0
   20.0747  -16.7476   22.8155 H   0  0  0  0  0  0
   21.6157  -15.4178   21.3412 H   0  0  0  0  0  0
   20.8209  -13.1850   20.5782 H   0  0  0  0  0  0
   19.4453  -11.3326   20.7434 H   0  0  0  0  0  0
   17.9846  -11.3867   21.6599 H   0  0  0  0  0  0
   16.2910  -13.1026   20.6961 H   0  0  0  0  0  0
   14.3065  -14.6792   19.3517 H   0  0  0  0  0  0
   15.9377  -15.2328   19.1985 H   0  0  0  0  0  0
   15.8104  -15.3404   16.8129 H   0  0  0  0  0  0
   14.2906  -14.4893   16.7378 H   0  0  0  0  0  0
   14.5249  -17.1716   18.2203 H   0  0  0  0  0  0
   14.3066  -17.0856   16.4832 H   0  0  0  0  0  0
   12.2307  -16.2558   16.6238 H   0  0  0  0  0  0
   11.5688  -16.3969   20.5233 H   0  0  0  0  0  0
    9.9246  -16.6022   19.0154 H   0  0  0  0  0  0
   10.3126  -16.6634   17.4258 H   0  0  0  0  0  0
   11.7765   -9.7289   21.3058 H   0  0  0  0  0  0
   12.1428  -11.8345   22.9491 H   0  0  0  0  0  0
  1  6  1  0  0  0
  1  2  2  0  0  0
  1 39  1  0  0  0
  2  3  1  0  0  0
  2 40  1  0  0  0
  3  4  2  0  0  0
  3 41  1  0  0  0
  4  5  1  0  0  0
  4  7  1  0  0  0
  5  6  2  0  0  0
  5 42  1  0  0  0
  6 43  1  0  0  0
  7  8  1  0  0  0
  7 44  1  0  0  0
  7 45  1  0  0  0
  8  9  2  0  0  0
  8 10  2  0  0  0
  8 11  1  0  0  0
 11 12  1  0  0  0
 11 46  1  0  0  0
 12 17  1  0  0  0
 12 13  2  0  0  0
 13 14  1  0  0  0
 13 47  1  0  0  0
 14 15  2  0  0  0
 14 48  1  0  0  0
 15 16  1  0  0  0
 15 49  1  0  0  0
 16 17  1  0  0  0
 16 19  1  0  0  0
 17 18  2  0  0  0
 19 20  1  0  0  0
 19 50  1  0  0  0
 19 51  1  0  0  0
 20 21  2  0  0  0
 20 22  1  0  0  0
 22 23  1  0  0  0
 22 52  1  0  0  0
 23 38  1  0  0  0
 23 24  1  0  0  0
 23 31  1  0  0  0
 24 25  1  0  0  0
 24 53  1  0  0  0
 24 54  1  0  0  0
 25 26  1  0  0  0
 25 55  1  0  0  0
 25 56  1  0  0  0
 26 27  1  0  0  0
 26 57  1  0  0  0
 26 58  1  0  0  0
 27 28  1  0  0  0
 27 59  1  0  0  0
 28 29  2  3  0  0
 28 30  1  0  0  0
 29 60  1  0  0  0
 30 61  1  0  0  0
 30 62  1  0  0  0
 31 32  2  0  0  0
 31 33  1  0  0  0
 33 37  1  0  0  0
 33 34  2  0  0  0
 34 35  1  0  0  0
 35 36  2  0  0  0
 35 63  1  0  0  0
 36 37  1  0  0  0
 36 64  1  0  0  0
M  END
> <s_m_entry_id>
37962

> <s_m_entry_name>
ligand_docking-pose.309

> <s_m_Source_Path>
/home/csk/Desktop/cluster/DUD-E-result/thrb

> <s_m_Source_File>
ligand_docking-pose.sdf

> <i_m_Source_File_Index>
309

> <i_lp_mmshare_version>
53161

> <i_f3d_flags>
0

> <r_lp_tautomer_probability>
0.99990000499975

> <s_lp_Force_Field>
OPLS_2005

> <r_lp_Energy>
18.31299

> <b_lp_Chiralities_Consistent>
1

> <s_lp_Variant>
434372-1

> <s_i_glide_gridfile>
glide-grid_1ype

> <i_i_glide_lignum>
1553

> <i_i_glide_rotatable_bonds>
15

> <r_i_docking_score>
-7.08462131987355

> <r_i_glide_ligand_efficiency>
-0.191476251888474

> <r_i_glide_ligand_efficiency_sa>
-0.638041349846067

> <r_i_glide_ligand_efficiency_ln>
-1.53648827719224

> <r_i_glide_gscore>
-7.08462131987355

> <r_i_glide_lipo>
-3.03388612514391

> <r_i_glide_hbond>
-0.338115004066012

> <r_i_glide_metal>
0

> <r_i_glide_rewards>
-0.661516967916317

> <r_i_glide_evdw>
-49.8416442871094

> <r_i_glide_ecoul>
-9.27487945556641

> <r_i_glide_erotb>
0.90410344461996

> <r_i_glide_esite>
-0.0718925346768407

> <r_i_glide_emodel>
-74.3365624239402

> <r_i_glide_energy>
-59.1165237426758

> <r_i_glide_einternal>
19.3384742736816

> <i_i_glide_confnum>
5

> <i_i_glide_posenum>
7

> <r_i_glide_eff_state_penalty>
0

> <s_user_duplicate_titles>
434372

> <s_m_subgroup_title>
dock_pv

> <s_m_subgroupid>
dock_pv1

> <b_m_subgroup_collapsed>
0

$$$$
154687
                    3D
 Schrodinger Suite 2021-1.
 69 72  0  0  1  0            999 V2000
   21.4774  -13.5568   26.0751 C   0  0  0  0  0  0
   20.1029  -13.5256   26.2937 C   0  0  0  0  0  0
   19.3192  -14.6162   25.9331 C   0  0  0  0  0  0
   19.9127  -15.7405   25.3546 C   0  0  0  0  0  0
   21.2961  -15.7772   25.1559 C   0  0  0  0  0  0
   22.0799  -14.6837   25.5181 C   0  0  0  0  0  0
   19.0321  -16.8784   24.8449 C   0  0  0  0  0  0
   18.8621  -16.8441   23.3075 C   0  0  1  0  0  0
   17.9546  -17.9674   22.7472 C   0  0  0  0  0  0
   16.5342  -17.6973   22.9823 N   0  0  1  0  0  0
   15.6850  -18.4625   22.0784 C   0  0  0  0  0  0
   14.2618  -17.8787   22.0536 C   0  0  0  0  0  0
   14.2068  -16.4189   21.5579 C   0  0  0  0  0  0
   12.8223  -15.9650   21.5070 N   0  0  1  0  0  0
   12.6586  -14.5813   21.0627 C   0  0  0  0  0  0
   13.3932  -13.5632   21.9581 C   0  0  0  0  0  0
   12.9393  -12.1164   21.7923 C   0  0  0  0  0  0
   12.0170  -11.6115   22.7177 C   0  0  0  0  0  0
   11.6150  -10.2819   22.6608 C   0  0  0  0  0  0
   12.0685   -9.4604   21.6378 C   0  0  0  0  0  0
   12.9726   -9.9521   20.7013 C   0  0  0  0  0  0
   13.4437  -11.2671   20.7848 C   0  0  0  0  0  0
   14.4667  -11.7406   19.7561 C   0  0  0  0  0  0
   15.8170  -11.6425   20.2963 N   0  0  0  0  0  0
   16.9462  -11.4550   19.5991 C   0  0  0  0  0  0
   16.9966  -11.3869   18.3710 O   0  0  0  0  0  0
   18.2297  -11.3025   20.4324 C   0  0  0  0  0  0
   18.8682  -12.6118   20.7028 N   0  0  0  0  0  0
   20.0608  -13.0235   20.1042 C   0  0  0  0  0  0
   20.6526  -14.1958   20.4481 C   0  0  0  0  0  0
   20.1068  -15.0496   21.3667 N   0  0  0  0  0  0
   19.0108  -14.6868   21.9415 C   0  0  0  0  0  0
   18.2900  -13.3961   21.6964 C   0  0  0  0  0  0
   17.2723  -13.0620   22.3206 O   0  0  0  0  0  0
   18.4024  -15.5281   22.8586 N   0  0  0  0  0  0
   20.7983  -11.9681   18.8836 Cl  0  0  0  0  0  0
   19.8570  -17.0291   22.8973 H   0  0  0  0  0  0
   22.0760  -12.6985   26.3424 H   0  0  0  0  0  0
   19.6372  -12.6546   26.7270 H   0  0  0  0  0  0
   18.2485  -14.5746   26.0770 H   0  0  0  0  0  0
   21.7588  -16.6383   24.6976 H   0  0  0  0  0  0
   23.1472  -14.7012   25.3555 H   0  0  0  0  0  0
   18.0576  -16.8366   25.3326 H   0  0  0  0  0  0
   19.4691  -17.8287   25.1557 H   0  0  0  0  0  0
   18.2267  -18.9351   23.1706 H   0  0  0  0  0  0
   18.1448  -18.0266   21.6737 H   0  0  0  0  0  0
   16.2983  -17.9165   23.9407 H   0  0  0  0  0  0
   15.6631  -19.5034   22.3943 H   0  0  0  0  0  0
   16.0855  -18.4292   21.0623 H   0  0  0  0  0  0
   13.8261  -17.9587   23.0501 H   0  0  0  0  0  0
   13.6474  -18.5038   21.4039 H   0  0  0  0  0  0
   14.6678  -16.3428   20.5711 H   0  0  0  0  0  0
   14.7906  -15.7992   22.2394 H   0  0  0  0  0  0
   12.2837  -16.5736   20.9058 H   0  0  0  0  0  0
   11.5935  -14.3507   21.0673 H   0  0  0  0  0  0
   12.9586  -14.4798   20.0201 H   0  0  0  0  0  0
   13.2153  -13.8402   22.9961 H   0  0  0  0  0  0
   14.4757  -13.6293   21.8384 H   0  0  0  0  0  0
   11.6136  -12.2496   23.4913 H   0  0  0  0  0  0
   10.9054   -9.9051   23.3852 H   0  0  0  0  0  0
   11.7231   -8.4434   21.5674 H   0  0  0  0  0  0
   13.3177   -9.2888   19.9257 H   0  0  0  0  0  0
   14.3772  -11.1535   18.8390 H   0  0  0  0  0  0
   14.2648  -12.7703   19.4627 H   0  0  0  0  0  0
   15.9240  -11.9040   21.2686 H   0  0  0  0  0  0
   17.9851  -10.7971   21.3707 H   0  0  0  0  0  0
   18.9057  -10.6249   19.9255 H   0  0  0  0  0  0
   21.5881  -14.4991   19.9918 H   0  0  0  0  0  0
   17.4693  -15.2914   23.1706 H   0  0  0  0  0  0
  1  6  1  0  0  0
  1  2  2  0  0  0
  1 38  1  0  0  0
  2  3  1  0  0  0
  2 39  1  0  0  0
  3  4  2  0  0  0
  3 40  1  0  0  0
  4  5  1  0  0  0
  4  7  1  0  0  0
  5  6  2  0  0  0
  5 41  1  0  0  0
  6 42  1  0  0  0
  7  8  1  0  0  0
  7 43  1  0  0  0
  7 44  1  0  0  0
  8 37  1  0  0  0
  8 35  1  0  0  0
  8  9  1  0  0  0
  9 10  1  0  0  0
  9 45  1  0  0  0
  9 46  1  0  0  0
 10 11  1  0  0  0
 10 47  1  0  0  0
 11 12  1  0  0  0
 11 48  1  0  0  0
 11 49  1  0  0  0
 12 13  1  0  0  0
 12 50  1  0  0  0
 12 51  1  0  0  0
 13 14  1  0  0  0
 13 52  1  0  0  0
 13 53  1  0  0  0
 14 15  1  0  0  0
 14 54  1  0  0  0
 15 16  1  0  0  0
 15 55  1  0  0  0
 15 56  1  0  0  0
 16 17  1  0  0  0
 16 57  1  0  0  0
 16 58  1  0  0  0
 17 22  2  0  0  0
 17 18  1  0  0  0
 18 19  2  0  0  0
 18 59  1  0  0  0
 19 20  1  0  0  0
 19 60  1  0  0  0
 20 21  2  0  0  0
 20 61  1  0  0  0
 21 22  1  0  0  0
 21 62  1  0  0  0
 22 23  1  0  0  0
 23 24  1  0  0  0
 23 63  1  0  0  0
 23 64  1  0  0  0
 24 25  1  0  0  0
 24 65  1  0  0  0
 25 26  2  0  0  0
 25 27  1  0  0  0
 27 28  1  0  0  0
 27 66  1  0  0  0
 27 67  1  0  0  0
 28 33  1  0  0  0
 28 29  1  0  0  0
 29 30  2  0  0  0
 29 36  1  0  0  0
 30 31  1  0  0  0
 30 68  1  0  0  0
 31 32  2  0  0  0
 32 33  1  0  0  0
 32 35  1  0  0  0
 33 34  2  0  0  0
 35 69  1  0  0  0
M  END
> <s_m_entry_id>
37963

> <s_m_entry_name>
ligand_docking-pose.310

> <s_m_Source_Path>
/home/csk/Desktop/cluster/DUD-E-result/thrb

> <s_m_Source_File>
ligand_docking-pose.sdf

> <i_m_Source_File_Index>
310

> <i_lp_mmshare_version>
53161

> <i_f3d_flags>
0

> <r_lp_tautomer_probability>
1

> <s_lp_Force_Field>
OPLS_2005

> <r_lp_Energy>
41.679076

> <b_lp_Chiralities_Consistent>
1

> <s_lp_Variant>
154687-1

> <s_i_glide_gridfile>
glide-grid_1ype

> <i_i_glide_lignum>
1027

> <i_i_glide_rotatable_bonds>
2

> <r_i_docking_score>
-7.083975601284

> <r_i_glide_ligand_efficiency>
-0.196777100035667

> <r_i_glide_ligand_efficiency_sa>
-0.649743667790109

> <r_i_glide_ligand_efficiency_ln>
-1.5455320892969

> <r_i_glide_gscore>
-7.083975601284

> <r_i_glide_lipo>
-3.83889963525417

> <r_i_glide_hbond>
0

> <r_i_glide_metal>
0

> <r_i_glide_rewards>
-0.463297812732935

> <r_i_glide_evdw>
-51.3830871582031

> <r_i_glide_ecoul>
-2.47115802764893

> <r_i_glide_erotb>
0.158049908760593

> <r_i_glide_esite>
0

> <r_i_glide_emodel>
-64.3925464976719

> <r_i_glide_energy>
-53.8542451858521

> <r_i_glide_einternal>
2.22144150733948

> <i_i_glide_confnum>
5

> <i_i_glide_posenum>
143

> <r_i_glide_eff_state_penalty>
0

> <s_user_duplicate_titles>
154687

> <s_m_subgroup_title>
dock_pv

> <s_m_subgroupid>
dock_pv1

> <b_m_subgroup_collapsed>
0

$$$$
168134
                    3D
 Schrodinger Suite 2021-1.
 62 63  0  0  1  0            999 V2000
   11.9245   -9.4559   23.9216 C   0  0  0  0  0  0
   12.8119   -9.0529   22.9280 C   0  0  0  0  0  0
   12.9813   -9.8371   21.7929 C   0  0  0  0  0  0
   12.2957  -11.0481   21.6736 C   0  0  0  0  0  0
   11.4285  -11.4601   22.6909 C   0  0  0  0  0  0
   11.2241  -10.6535   23.8067 C   0  0  0  0  0  0
   12.4610  -11.9044   20.4235 C   0  0  0  0  0  0
   13.7829  -12.6905   20.3601 C   0  0  0  0  0  0
   14.9951  -11.8114   19.9797 C   0  0  0  0  0  0
   16.2827  -12.6190   19.8014 C   0  0  0  0  0  0
   16.5974  -13.1144   18.7186 O   0  0  0  0  0  0
   17.1562  -12.7557   21.1231 C   0  0  0  0  0  0
   16.5874  -12.6796   22.2172 O   0  0  0  0  0  0
   18.4975  -12.9516   20.9616 N   0  0  0  0  0  0
   19.2850  -12.8811   19.7207 C   0  0  0  0  0  0
   20.7073  -12.5817   20.1646 C   0  0  0  0  0  0
   20.7987  -13.3083   21.4933 C   0  0  0  0  0  0
   19.3879  -13.2080   22.1135 C   0  0  2  0  0  0
   19.0237  -14.4755   22.9113 C   0  0  0  0  0  0
   19.0189  -15.5686   22.3438 O   0  0  0  0  0  0
   18.7540  -14.2930   24.2217 N   0  0  0  0  0  0
   18.5567  -15.3181   25.2735 C   0  0  2  0  0  0
   19.8709  -16.0993   25.5621 C   0  0  0  0  0  0
   21.1130  -15.2165   25.7961 C   0  0  0  0  0  0
   22.4158  -16.0310   25.8202 C   0  0  0  0  0  0
   23.5815  -15.1733   25.7132 N   0  0  0  0  0  0
   23.9827  -14.4812   24.5823 C   0  0  0  0  0  0
   23.3229  -14.3985   23.5210 N   0  0  0  0  0  0
   25.2157  -13.8919   24.7207 N   0  0  0  0  0  0
   17.4119  -16.2523   24.9044 C   0  0  0  0  0  0
   17.1709  -17.2897   25.5212 O   0  0  0  0  0  0
   11.7757   -8.8344   24.7911 H   0  0  0  0  0  0
   13.3574   -8.1283   23.0390 H   0  0  0  0  0  0
   13.6441   -9.4992   21.0114 H   0  0  0  0  0  0
   10.8794  -12.3876   22.6056 H   0  0  0  0  0  0
   10.5253  -10.9547   24.5760 H   0  0  0  0  0  0
   11.6204  -12.6006   20.3601 H   0  0  0  0  0  0
   12.3794  -11.2691   19.5403 H   0  0  0  0  0  0
   13.9561  -13.1995   21.3119 H   0  0  0  0  0  0
   13.6720  -13.4816   19.6154 H   0  0  0  0  0  0
   14.7911  -11.2966   19.0400 H   0  0  0  0  0  0
   15.1619  -11.0335   20.7226 H   0  0  0  0  0  0
   19.2351  -13.8477   19.2179 H   0  0  0  0  0  0
   18.9394  -12.1116   19.0298 H   0  0  0  0  0  0
   21.4650  -12.8996   19.4462 H   0  0  0  0  0  0
   20.8238  -11.5089   20.3211 H   0  0  0  0  0  0
   21.0775  -14.3470   21.3045 H   0  0  0  0  0  0
   21.5712  -12.8854   22.1359 H   0  0  0  0  0  0
   19.3204  -12.3324   22.7626 H   0  0  0  0  0  0
   18.8522  -13.3518   24.5745 H   0  0  0  0  0  0
   18.2712  -14.7885   26.1832 H   0  0  0  0  0  0
   19.7333  -16.7551   26.4244 H   0  0  0  0  0  0
   20.0784  -16.7620   24.7189 H   0  0  0  0  0  0
   21.1812  -14.4645   25.0131 H   0  0  0  0  0  0
   21.0013  -14.6523   26.7210 H   0  0  0  0  0  0
   22.4835  -16.6416   26.7200 H   0  0  0  0  0  0
   22.4461  -16.7175   24.9730 H   0  0  0  0  0  0
   24.1883  -15.1251   26.5242 H   0  0  0  0  0  0
   22.4480  -14.9027   23.5757 H   0  0  0  0  0  0
   25.6246  -13.5989   23.8445 H   0  0  0  0  0  0
   25.8851  -14.4616   25.2169 H   0  0  0  0  0  0
   16.7977  -15.9388   24.0585 H   0  0  0  0  0  0
  1  6  1  0  0  0
  1  2  2  0  0  0
  1 32  1  0  0  0
  2  3  1  0  0  0
  2 33  1  0  0  0
  3  4  2  0  0  0
  3 34  1  0  0  0
  4  5  1  0  0  0
  4  7  1  0  0  0
  5  6  2  0  0  0
  5 35  1  0  0  0
  6 36  1  0  0  0
  7  8  1  0  0  0
  7 37  1  0  0  0
  7 38  1  0  0  0
  8  9  1  0  0  0
  8 39  1  0  0  0
  8 40  1  0  0  0
  9 10  1  0  0  0
  9 41  1  0  0  0
  9 42  1  0  0  0
 10 11  2  0  0  0
 10 12  1  0  0  0
 12 13  2  0  0  0
 12 14  1  0  0  0
 14 18  1  0  0  0
 14 15  1  0  0  0
 15 16  1  0  0  0
 15 43  1  0  0  0
 15 44  1  0  0  0
 16 17  1  0  0  0
 16 45  1  0  0  0
 16 46  1  0  0  0
 17 18  1  0  0  0
 17 47  1  0  0  0
 17 48  1  0  0  0
 18 19  1  0  0  0
 18 49  1  0  0  0
 19 20  2  0  0  0
 19 21  1  0  0  0
 21 22  1  0  0  0
 21 50  1  0  0  0
 22 23  1  0  0  0
 22 30  1  0  0  0
 22 51  1  0  0  0
 23 24  1  0  0  0
 23 52  1  0  0  0
 23 53  1  0  0  0
 24 25  1  0  0  0
 24 54  1  0  0  0
 24 55  1  0  0  0
 25 26  1  0  0  0
 25 56  1  0  0  0
 25 57  1  0  0  0
 26 27  1  0  0  0
 26 58  1  0  0  0
 27 28  2  3  0  0
 27 29  1  0  0  0
 28 59  1  0  0  0
 29 60  1  0  0  0
 29 61  1  0  0  0
 30 31  2  0  0  0
 30 62  1  0  0  0
M  END
> <s_m_entry_id>
37964

> <s_m_entry_name>
ligand_docking-pose.311

> <s_m_Source_Path>
/home/csk/Desktop/cluster/DUD-E-result/thrb

> <s_m_Source_File>
ligand_docking-pose.sdf

> <i_m_Source_File_Index>
311

> <i_lp_mmshare_version>
53161

> <i_f3d_flags>
0

> <r_lp_tautomer_probability>
0.999800024997

> <s_lp_Force_Field>
OPLS_2005

> <r_lp_Energy>
28.51938

> <b_lp_Chiralities_Consistent>
1

> <s_lp_Variant>
168134-4

> <s_i_glide_gridfile>
glide-grid_1ype

> <i_i_glide_lignum>
895

> <i_i_glide_rotatable_bonds>
15

> <r_i_docking_score>
-7.08071273630113

> <r_i_glide_ligand_efficiency>
-0.228410088267778

> <r_i_glide_ligand_efficiency_sa>
-0.717523031274087

> <r_i_glide_ligand_efficiency_ln>
-1.59691771982082

> <r_i_glide_gscore>
-7.08071273630113

> <r_i_glide_lipo>
-3.02758204306562

> <r_i_glide_hbond>
-0.667266766330635

> <r_i_glide_metal>
0

> <r_i_glide_rewards>
-1.35476813389415

> <r_i_glide_evdw>
-43.2011451721191

> <r_i_glide_ecoul>
-8.47578620910645

> <r_i_glide_erotb>
1.40041629655235

> <r_i_glide_esite>
-8.68995911418188e-05

> <r_i_glide_emodel>
-71.5531397838831

> <r_i_glide_energy>
-51.6769313812256

> <r_i_glide_einternal>
7.06557464599609

> <i_i_glide_confnum>
158

> <i_i_glide_posenum>
122

> <r_i_glide_eff_state_penalty>
0

> <s_user_duplicate_titles>
168134

> <s_m_subgroup_title>
dock_pv

> <s_m_subgroupid>
dock_pv1

> <b_m_subgroup_collapsed>
0

$$$$
167732
                    3D
 Schrodinger Suite 2021-1.
 58 61  0  0  1  0            999 V2000
   22.3159  -13.8171   25.5167 C   0  0  0  0  0  0
   21.3627  -13.1401   26.2818 C   0  0  0  0  0  0
   20.0612  -13.6390   26.3114 C   0  0  0  0  0  0
   19.6744  -14.7406   25.6223 N   0  0  0  0  0  0
   20.6064  -15.3760   24.8623 C   0  0  0  0  0  0
   21.9374  -14.9482   24.7896 C   0  0  0  0  0  0
   20.1117  -16.5814   24.0650 C   0  0  0  0  0  0
   19.9241  -16.3029   22.5445 C   0  0  2  0  0  0
   19.1084  -15.0098   22.2288 C   0  0  0  0  0  0
   18.0707  -14.8309   22.8764 O   0  0  0  0  0  0
   19.5306  -14.1399   21.2701 N   0  0  0  0  0  0
   20.7954  -14.2521   20.5313 C   0  0  0  0  0  0
   21.1100  -12.8012   20.1772 C   0  0  0  0  0  0
   19.7526  -12.1753   19.9580 C   0  0  0  0  0  0
   18.8254  -12.8768   20.9646 C   0  0  1  0  0  0
   17.3616  -13.0433   20.4611 C   0  0  0  0  0  0
   16.5705  -11.7349   20.4280 C   0  0  0  0  0  0
   17.1480  -10.6593   20.3205 O   0  0  0  0  0  0
   15.2383  -11.8386   20.5068 N   0  0  0  0  0  0
   14.2949  -10.7219   20.4245 C   0  0  0  0  0  0
   13.2279  -10.7260   21.5180 C   0  0  0  0  0  0
   13.0879   -9.5857   22.3206 C   0  0  0  0  0  0
   12.1339   -9.5393   23.3362 C   0  0  0  0  0  0
   11.2908  -10.6281   23.5486 C   0  0  0  0  0  0
   11.4185  -11.7701   22.7597 C   0  0  0  0  0  0
   12.3889  -11.8356   21.7552 C   0  0  0  0  0  0
   12.5156  -13.0427   21.0402 N   0  0  0  0  0  0
   12.8159  -14.2939   21.5211 C   0  0  0  0  0  0
   12.8885  -15.1634   20.5479 N   0  0  0  0  0  0
   12.6448  -14.4293   19.3922 N   0  0  0  0  0  0
   12.4156  -13.1051   19.7064 N   0  0  0  0  0  0
   12.0158   -8.1414   24.3404 Cl  0  0  0  0  0  0
   19.2280  -17.4201   21.8747 N   0  0  0  0  0  0
   20.9290  -16.2410   22.1327 H   0  0  0  0  0  0
   18.7908  -12.3166   21.9030 H   0  0  0  0  0  0
   23.3353  -13.4618   25.4812 H   0  0  0  0  0  0
   21.6162  -12.2536   26.8424 H   0  0  0  0  0  0
   19.3011  -13.1481   26.8957 H   0  0  0  0  0  0
   22.6581  -15.4747   24.1803 H   0  0  0  0  0  0
   19.1786  -16.9482   24.4982 H   0  0  0  0  0  0
   20.8372  -17.3848   24.2022 H   0  0  0  0  0  0
   20.6517  -14.8214   19.6113 H   0  0  0  0  0  0
   21.6170  -14.6347   21.1269 H   0  0  0  0  0  0
   21.7683  -12.7139   19.3110 H   0  0  0  0  0  0
   21.6163  -12.3164   21.0139 H   0  0  0  0  0  0
   19.4332  -12.3859   18.9356 H   0  0  0  0  0  0
   19.7520  -11.0901   20.0750 H   0  0  0  0  0  0
   16.8054  -13.7422   21.0862 H   0  0  0  0  0  0
   17.3569  -13.4762   19.4611 H   0  0  0  0  0  0
   14.8345  -12.7652   20.5192 H   0  0  0  0  0  0
   13.7936  -10.7730   19.4577 H   0  0  0  0  0  0
   14.8173   -9.7643   20.4269 H   0  0  0  0  0  0
   13.7329   -8.7314   22.1755 H   0  0  0  0  0  0
   10.5361  -10.5927   24.3220 H   0  0  0  0  0  0
   10.7517  -12.6026   22.9363 H   0  0  0  0  0  0
   12.9474  -14.4601   22.5810 H   0  0  0  0  0  0
   19.7417  -18.2819   21.9901 H   0  0  0  0  0  0
   18.3308  -17.5746   22.3156 H   0  0  0  0  0  0
  1  6  1  0  0  0
  1  2  2  0  0  0
  1 36  1  0  0  0
  2  3  1  0  0  0
  2 37  1  0  0  0
  3  4  2  0  0  0
  3 38  1  0  0  0
  4  5  1  0  0  0
  5  6  2  0  0  0
  5  7  1  0  0  0
  6 39  1  0  0  0
  7  8  1  0  0  0
  7 40  1  0  0  0
  7 41  1  0  0  0
  8 34  1  0  0  0
  8  9  1  0  0  0
  8 33  1  0  0  0
  9 10  2  0  0  0
  9 11  1  0  0  0
 11 15  1  0  0  0
 11 12  1  0  0  0
 12 13  1  0  0  0
 12 42  1  0  0  0
 12 43  1  0  0  0
 13 14  1  0  0  0
 13 44  1  0  0  0
 13 45  1  0  0  0
 14 15  1  0  0  0
 14 46  1  0  0  0
 14 47  1  0  0  0
 15 35  1  0  0  0
 15 16  1  0  0  0
 16 17  1  0  0  0
 16 48  1  0  0  0
 16 49  1  0  0  0
 17 18  2  0  0  0
 17 19  1  0  0  0
 19 20  1  0  0  0
 19 50  1  0  0  0
 20 21  1  0  0  0
 20 51  1  0  0  0
 20 52  1  0  0  0
 21 26  1  0  0  0
 21 22  2  0  0  0
 22 23  1  0  0  0
 22 53  1  0  0  0
 23 24  2  0  0  0
 23 32  1  0  0  0
 24 25  1  0  0  0
 24 54  1  0  0  0
 25 26  2  0  0  0
 25 55  1  0  0  0
 26 27  1  0  0  0
 27 31  1  0  0  0
 27 28  1  0  0  0
 28 29  2  0  0  0
 28 56  1  0  0  0
 29 30  1  0  0  0
 30 31  2  0  0  0
 33 57  1  0  0  0
 33 58  1  0  0  0
M  END
> <s_m_entry_id>
37965

> <s_m_entry_name>
ligand_docking-pose.312

> <s_m_Source_Path>
/home/csk/Desktop/cluster/DUD-E-result/thrb

> <s_m_Source_File>
ligand_docking-pose.sdf

> <i_m_Source_File_Index>
312

> <i_lp_mmshare_version>
53161

> <i_f3d_flags>
0

> <r_lp_tautomer_probability>
1

> <s_lp_Force_Field>
OPLS_2005

> <r_lp_Energy>
41.282666

> <b_lp_Chiralities_Consistent>
1

> <s_lp_Variant>
167732-1

> <s_i_glide_gridfile>
glide-grid_1ype

> <i_i_glide_lignum>
1954

> <i_i_glide_rotatable_bonds>
10

> <r_i_docking_score>
-7.07163390884614

> <r_i_glide_ligand_efficiency>
-0.214291936631701

> <r_i_glide_ligand_efficiency_sa>
-0.687348742586365

> <r_i_glide_ligand_efficiency_ln>
-1.57269476636659

> <r_i_glide_gscore>
-7.07163390884614

> <r_i_glide_lipo>
-3.69633202731738

> <r_i_glide_hbond>
0

> <r_i_glide_metal>
0

> <r_i_glide_rewards>
-1.20015528935617

> <r_i_glide_evdw>
-54.080394744873

> <r_i_glide_ecoul>
-1.98397195339203

> <r_i_glide_erotb>
0.826468938079863

> <r_i_glide_esite>
0

> <r_i_glide_emodel>
-77.8254802913462

> <r_i_glide_energy>
-56.0643666982651

> <r_i_glide_einternal>
6.84033155441284

> <i_i_glide_confnum>
52

> <i_i_glide_posenum>
386

> <r_i_glide_eff_state_penalty>
0

> <s_user_duplicate_titles>
167732

> <s_m_subgroup_title>
dock_pv

> <s_m_subgroupid>
dock_pv1

> <b_m_subgroup_collapsed>
0

$$$$
114964
                    3D
 Schrodinger Suite 2021-1.
 43 46  0  0  1  0            999 V2000
   13.4091  -10.0403   21.3859 C   0  0  0  0  0  0
   14.2519  -11.0952   21.0309 C   0  0  0  0  0  0
   13.9431  -12.4098   21.4021 C   0  0  0  0  0  0
   12.7770  -12.6444   22.1389 C   0  0  0  0  0  0
   11.9436  -11.5918   22.5126 C   0  0  0  0  0  0
   12.2531  -10.2883   22.1267 C   0  0  0  0  0  0
   10.8161  -11.8530   23.2855 N   0  0  0  0  0  0
   14.8329  -13.5465   21.0435 C   0  0  0  0  0  0
   14.3258  -14.5748   20.2441 C   0  0  0  0  0  0
   15.1103  -15.6762   19.9196 C   0  0  0  0  0  0
   16.4093  -15.7734   20.4089 C   0  0  0  0  0  0
   16.9524  -14.7713   21.2263 C   0  0  0  0  0  0
   16.1537  -13.6464   21.5210 C   0  0  0  0  0  0
   16.6555  -12.6530   22.3208 O   0  0  0  0  0  0
   18.3445  -14.9666   21.7826 C   0  0  0  0  0  0
   19.0025  -16.1790   21.7612 N   0  0  0  0  0  0
   20.1995  -16.0271   22.4168 C   0  0  0  0  0  0
   21.2433  -16.8975   22.7243 C   0  0  0  0  0  0
   22.3137  -16.3555   23.4380 C   0  0  0  0  0  0
   22.3729  -15.0052   23.8343 C   0  0  0  0  0  0
   21.3027  -14.1504   23.5048 C   0  0  0  0  0  0
   20.2075  -14.6673   22.7960 C   0  0  0  0  0  0
   19.0584  -14.0395   22.3878 N   0  0  0  0  0  0
   23.5454  -14.4874   24.5732 C   0  0  0  0  0  0
   24.0159  -13.3489   24.3211 N   0  0  0  0  0  0
   24.0157  -15.3567   25.5211 N   0  0  0  0  0  0
   14.4683  -16.9298   18.9232 Cl  0  0  0  0  0  0
   18.6144  -17.0168   21.3569 H   0  0  0  0  0  0
   13.6590   -9.0311   21.0977 H   0  0  0  0  0  0
   15.1522  -10.8906   20.4692 H   0  0  0  0  0  0
   12.5316  -13.6514   22.4458 H   0  0  0  0  0  0
   11.6110   -9.4685   22.4141 H   0  0  0  0  0  0
   10.0538  -11.1824   23.2880 H   0  0  0  0  0  0
   10.6188  -12.8248   23.5162 H   0  0  0  0  0  0
   13.3116  -14.5194   19.8730 H   0  0  0  0  0  0
   16.9856  -16.6477   20.1464 H   0  0  0  0  0  0
   17.5680  -12.8562   22.5580 H   0  0  0  0  0  0
   21.2324  -17.9363   22.4294 H   0  0  0  0  0  0
   23.1365  -17.0185   23.6697 H   0  0  0  0  0  0
   21.3066  -13.1107   23.8012 H   0  0  0  0  0  0
   23.5086  -12.8863   23.5825 H   0  0  0  0  0  0
   24.7344  -15.0385   26.1595 H   0  0  0  0  0  0
   23.4916  -16.1843   25.7525 H   0  0  0  0  0  0
  1  6  1  0  0  0
  1  2  2  0  0  0
  1 29  1  0  0  0
  2  3  1  0  0  0
  2 30  1  0  0  0
  3  4  2  0  0  0
  3  8  1  0  0  0
  4  5  1  0  0  0
  4 31  1  0  0  0
  5  6  2  0  0  0
  5  7  1  0  0  0
  6 32  1  0  0  0
  7 33  1  0  0  0
  7 34  1  0  0  0
  8 13  1  0  0  0
  8  9  2  0  0  0
  9 10  1  0  0  0
  9 35  1  0  0  0
 10 11  2  0  0  0
 10 27  1  0  0  0
 11 12  1  0  0  0
 11 36  1  0  0  0
 12 13  2  0  0  0
 12 15  1  0  0  0
 13 14  1  0  0  0
 14 37  1  0  0  0
 15 23  2  0  0  0
 15 16  1  0  0  0
 16 28  1  0  0  0
 16 17  1  0  0  0
 17 22  2  0  0  0
 17 18  1  0  0  0
 18 19  2  0  0  0
 18 38  1  0  0  0
 19 20  1  0  0  0
 19 39  1  0  0  0
 20 21  2  0  0  0
 20 24  1  0  0  0
 21 22  1  0  0  0
 21 40  1  0  0  0
 22 23  1  0  0  0
 24 25  2  3  0  0
 24 26  1  0  0  0
 25 41  1  0  0  0
 26 42  1  0  0  0
 26 43  1  0  0  0
M  END
> <s_m_entry_id>
37966

> <s_m_entry_name>
ligand_docking-pose.313

> <s_m_Source_Path>
/home/csk/Desktop/cluster/DUD-E-result/thrb

> <s_m_Source_File>
ligand_docking-pose.sdf

> <i_m_Source_File_Index>
313

> <i_lp_mmshare_version>
53161

> <i_f3d_flags>
0

> <r_lp_tautomer_probability>
0.999999999997365

> <s_lp_Force_Field>
OPLS_2005

> <r_lp_Energy>
26.569958

> <b_lp_Chiralities_Consistent>
1

> <s_lp_Variant>
114964-2

> <s_i_glide_gridfile>
glide-grid_1ype

> <i_i_glide_lignum>
1724

> <i_i_glide_rotatable_bonds>
4

> <r_i_docking_score>
-7.07127395319335

> <r_i_glide_ligand_efficiency>
-0.261899035303457

> <r_i_glide_ligand_efficiency_sa>
-0.785697105047195

> <r_i_glide_ligand_efficiency_ln>
-1.64607599724114

> <r_i_glide_gscore>
-7.07127395319335

> <r_i_glide_lipo>
-2.04705206421393

> <r_i_glide_hbond>
-0.947143919608885

> <r_i_glide_metal>
0

> <r_i_glide_rewards>
-1.26663314894528

> <r_i_glide_evdw>
-35.5271949768066

> <r_i_glide_ecoul>
-8.17921161651611

> <r_i_glide_erotb>
0.271414562007488

> <r_i_glide_esite>
-0.0786178911149916

> <r_i_glide_emodel>
-60.9906269910412

> <r_i_glide_energy>
-43.7064065933228

> <r_i_glide_einternal>
2.54691052436829

> <i_i_glide_confnum>
1

> <i_i_glide_posenum>
145

> <r_i_glide_eff_state_penalty>
0

> <s_user_duplicate_titles>
114964

> <s_m_subgroup_title>
dock_pv

> <s_m_subgroupid>
dock_pv1

> <b_m_subgroup_collapsed>
0

$$$$
233015
                    3D
 Schrodinger Suite 2021-1.
 60 62  0  0  1  0            999 V2000
   22.5885  -13.5771   25.4130 C   0  0  0  0  0  0
   21.4981  -13.1126   26.1459 C   0  0  0  0  0  0
   20.2819  -13.7830   26.0721 C   0  0  0  0  0  0
   20.1659  -14.9201   25.2696 C   0  0  0  0  0  0
   21.2556  -15.3748   24.5235 C   0  0  0  0  0  0
   22.4715  -14.7007   24.5970 C   0  0  0  0  0  0
   18.6149  -15.8060   25.2277 S   0  0  0  0  0  0
   18.0129  -15.6506   26.5546 O   0  0  0  0  0  0
   18.8711  -17.1403   24.6724 O   0  0  0  0  0  0
   17.6169  -14.9254   24.0789 N   0  0  1  0  0  0
   17.8224  -15.1225   22.6238 C   0  0  1  0  0  0
   16.6572  -15.9755   22.1010 C   0  0  0  0  0  0
   16.7763  -16.0880   20.5911 C   0  0  0  0  0  0
   16.6819  -14.6944   19.9558 C   0  0  0  0  0  0
   17.4629  -13.6341   20.6505 N   0  0  0  0  0  0
   18.0047  -13.7533   21.9058 C   0  0  0  0  0  0
   18.6544  -12.8433   22.4259 O   0  0  0  0  0  0
   17.7163  -12.3834   19.8907 C   0  0  0  0  0  0
   16.4109  -11.7559   19.3737 C   0  0  0  0  0  0
   16.3419  -11.4529   18.1833 O   0  0  0  0  0  0
   15.3959  -11.5836   20.2437 N   0  0  0  0  0  0
   14.0365  -11.1513   19.8824 C   0  0  1  0  0  0
   13.0934  -12.3652   19.7112 C   0  0  0  0  0  0
   12.8069  -13.0871   21.0360 C   0  0  0  0  0  0
   12.1776  -12.1227   22.0526 C   0  0  0  0  0  0
   12.9845  -10.8017   22.2566 C   0  0  1  0  0  0
   13.4295  -10.1421   20.9084 C   0  0  2  0  0  0
   12.4168   -9.3439   20.3132 O   0  0  0  0  0  0
   12.3133   -9.8002   23.2419 C   0  0  0  0  0  0
   12.8154   -8.6532   23.3771 N   0  0  0  0  0  0
   11.2158  -10.2462   23.9343 N   0  0  0  0  0  0
   18.7643  -15.6468   22.4521 H   0  0  0  0  0  0
   14.0807  -10.6531   18.9127 H   0  0  0  0  0  0
   23.5339  -13.0590   25.4797 H   0  0  0  0  0  0
   21.5960  -12.2449   26.7804 H   0  0  0  0  0  0
   19.4409  -13.4284   26.6496 H   0  0  0  0  0  0
   21.1693  -16.2521   23.8991 H   0  0  0  0  0  0
   23.3230  -15.0513   24.0325 H   0  0  0  0  0  0
   16.6751  -14.6524   24.3859 H   0  0  0  0  0  0
   15.6929  -15.5339   22.3577 H   0  0  0  0  0  0
   16.6782  -16.9676   22.5565 H   0  0  0  0  0  0
   15.9984  -16.7358   20.1857 H   0  0  0  0  0  0
   17.7243  -16.5556   20.3214 H   0  0  0  0  0  0
   15.6446  -14.3864   20.1003 H   0  0  0  0  0  0
   16.8084  -14.6540   18.8744 H   0  0  0  0  0  0
   18.3163  -12.6563   19.0208 H   0  0  0  0  0  0
   18.2674  -11.6207   20.4437 H   0  0  0  0  0  0
   15.5303  -11.9080   21.1894 H   0  0  0  0  0  0
   12.1510  -12.0396   19.2791 H   0  0  0  0  0  0
   13.5174  -13.0651   18.9895 H   0  0  0  0  0  0
   12.1354  -13.9309   20.8663 H   0  0  0  0  0  0
   13.7266  -13.5094   21.4456 H   0  0  0  0  0  0
   12.0073  -12.6271   23.0056 H   0  0  0  0  0  0
   11.1715  -11.8715   21.7199 H   0  0  0  0  0  0
   13.9177  -11.1094   22.7210 H   0  0  0  0  0  0
   14.2130   -9.4147   21.1365 H   0  0  0  0  0  0
   11.6510   -9.8872   20.1090 H   0  0  0  0  0  0
   12.3070   -8.1013   24.0507 H   0  0  0  0  0  0
   10.7239   -9.6450   24.5800 H   0  0  0  0  0  0
   10.7387  -11.0925   23.6538 H   0  0  0  0  0  0
  1  6  1  0  0  0
  1  2  2  0  0  0
  1 34  1  0  0  0
  2  3  1  0  0  0
  2 35  1  0  0  0
  3  4  2  0  0  0
  3 36  1  0  0  0
  4  5  1  0  0  0
  4  7  1  0  0  0
  5  6  2  0  0  0
  5 37  1  0  0  0
  6 38  1  0  0  0
  7  8  2  0  0  0
  7  9  2  0  0  0
  7 10  1  0  0  0
 10 11  1  0  0  0
 10 39  1  0  0  0
 11 32  1  0  0  0
 11 16  1  0  0  0
 11 12  1  0  0  0
 12 13  1  0  0  0
 12 40  1  0  0  0
 12 41  1  0  0  0
 13 14  1  0  0  0
 13 42  1  0  0  0
 13 43  1  0  0  0
 14 15  1  0  0  0
 14 44  1  0  0  0
 14 45  1  0  0  0
 15 16  1  0  0  0
 15 18  1  0  0  0
 16 17  2  0  0  0
 18 19  1  0  0  0
 18 46  1  0  0  0
 18 47  1  0  0  0
 19 20  2  0  0  0
 19 21  1  0  0  0
 21 22  1  0  0  0
 21 48  1  0  0  0
 22 33  1  0  0  0
 22 27  1  0  0  0
 22 23  1  0  0  0
 23 24  1  0  0  0
 23 49  1  0  0  0
 23 50  1  0  0  0
 24 25  1  0  0  0
 24 51  1  0  0  0
 24 52  1  0  0  0
 25 26  1  0  0  0
 25 53  1  0  0  0
 25 54  1  0  0  0
 26 27  1  0  0  0
 26 29  1  0  0  0
 26 55  1  0  0  0
 27 28  1  0  0  0
 27 56  1  0  0  0
 28 57  1  0  0  0
 29 30  2  3  0  0
 29 31  1  0  0  0
 30 58  1  0  0  0
 31 59  1  0  0  0
 31 60  1  0  0  0
M  END
> <s_m_entry_id>
37967

> <s_m_entry_name>
ligand_docking-pose.314

> <s_m_Source_Path>
/home/csk/Desktop/cluster/DUD-E-result/thrb

> <s_m_Source_File>
ligand_docking-pose.sdf

> <i_m_Source_File_Index>
314

> <i_lp_mmshare_version>
53161

> <i_f3d_flags>
0

> <r_lp_tautomer_probability>
1

> <s_lp_Force_Field>
OPLS_2005

> <r_lp_Energy>
24.890964

> <b_lp_Chiralities_Consistent>
1

> <s_lp_Variant>
233015-5

> <s_i_glide_gridfile>
glide-grid_1ype

> <i_i_glide_lignum>
1868

> <i_i_glide_rotatable_bonds>
9

> <r_i_docking_score>
-7.0690202143967

> <r_i_glide_ligand_efficiency>
-0.228032910141829

> <r_i_glide_ligand_efficiency_sa>
-0.716338171208081

> <r_i_glide_ligand_efficiency_ln>
-1.59428069779861

> <r_i_glide_gscore>
-7.0690202143967

> <r_i_glide_lipo>
-2.79334442527527

> <r_i_glide_hbond>
-0.422736389835941

> <r_i_glide_metal>
0

> <r_i_glide_rewards>
-1.39893715065295

> <r_i_glide_evdw>
-45.3835487365723

> <r_i_glide_ecoul>
-5.60993576049805

> <r_i_glide_erotb>
0.688635728621891

> <r_i_glide_esite>
-0.0319701763511102

> <r_i_glide_emodel>
-59.5923485109823

> <r_i_glide_energy>
-50.9934844970703

> <r_i_glide_einternal>
20.2903423309326

> <i_i_glide_confnum>
85

> <i_i_glide_posenum>
289

> <r_i_glide_eff_state_penalty>
0

> <s_user_duplicate_titles>
233015

> <s_m_subgroup_title>
dock_pv

> <s_m_subgroupid>
dock_pv1

> <b_m_subgroup_collapsed>
0

$$$$
545880
                    3D
 Schrodinger Suite 2021-1.
 49 51  0  0  1  0            999 V2000
   18.9483  -14.4016   24.5207 C   0  0  0  0  0  0
   18.3837  -14.9711   23.1972 C   0  0  2  0  0  0
   19.3681  -15.9114   22.4753 C   0  0  0  0  0  0
   20.4892  -15.1272   21.8043 C   0  0  0  0  0  0
   19.8866  -14.1665   20.7693 C   0  0  2  0  0  0
   20.8152  -13.0580   20.2781 C   0  0  0  0  0  0
   19.8795  -12.0252   19.6703 C   0  0  0  0  0  0
   18.5575  -12.1645   20.4538 C   0  0  2  0  0  0
   18.7020  -13.4114   21.2470 N   0  0  0  0  0  0
   17.9194  -13.7550   22.3211 C   0  0  0  0  0  0
   16.9242  -13.0855   22.6181 O   0  0  0  0  0  0
   17.2939  -12.0117   19.5632 C   0  0  0  0  0  0
   17.2152  -11.0555   18.7895 O   0  0  0  0  0  0
   16.2948  -12.8985   19.6995 N   0  0  0  0  0  0
   14.9467  -12.7461   19.1537 C   0  0  0  0  0  0
   14.0146  -12.1511   20.2013 C   0  0  0  0  0  0
   14.2358  -10.8631   20.6915 C   0  0  0  0  0  0
   13.4406  -10.3557   21.7115 C   0  0  0  0  0  0
   12.4101  -11.1229   22.2831 C   0  0  0  0  0  0
   12.1784  -12.4036   21.7389 C   0  0  0  0  0  0
   12.9637  -12.9099   20.7098 C   0  0  0  0  0  0
   11.6201  -10.5917   23.4334 C   0  0  0  0  0  0
   11.8310   -9.4445   23.9079 N   0  0  0  0  0  0
   10.6890  -11.4620   23.9223 N   0  0  0  0  0  0
   17.2159  -15.6888   23.5560 O   0  0  0  0  0  0
   19.5494  -14.7595   19.9189 H   0  0  0  0  0  0
   18.4332  -11.3330   21.1511 H   0  0  0  0  0  0
   19.7877  -13.7254   24.3539 H   0  0  0  0  0  0
   18.1954  -13.8549   25.0917 H   0  0  0  0  0  0
   19.3069  -15.2045   25.1666 H   0  0  0  0  0  0
   18.8417  -16.4794   21.7054 H   0  0  0  0  0  0
   19.7830  -16.6413   23.1723 H   0  0  0  0  0  0
   21.0832  -14.5887   22.5441 H   0  0  0  0  0  0
   21.1674  -15.8204   21.3034 H   0  0  0  0  0  0
   21.3679  -12.6283   21.1140 H   0  0  0  0  0  0
   21.5609  -13.4273   19.5724 H   0  0  0  0  0  0
   19.7490  -12.2883   18.6183 H   0  0  0  0  0  0
   20.2905  -11.0178   19.7221 H   0  0  0  0  0  0
   16.4026  -13.6063   20.4113 H   0  0  0  0  0  0
   14.9373  -12.0940   18.2771 H   0  0  0  0  0  0
   14.5859  -13.7218   18.8219 H   0  0  0  0  0  0
   15.0518  -10.2632   20.3168 H   0  0  0  0  0  0
   13.6727   -9.3651   22.0759 H   0  0  0  0  0  0
   11.3999  -13.0506   22.1187 H   0  0  0  0  0  0
   12.7711  -13.9087   20.3440 H   0  0  0  0  0  0
   12.5661   -8.9532   23.4290 H   0  0  0  0  0  0
    9.9944  -11.1358   24.5892 H   0  0  0  0  0  0
   10.5614  -12.3812   23.5266 H   0  0  0  0  0  0
   16.5246  -15.0584   23.7987 H   0  0  0  0  0  0
  1  2  1  0  0  0
  1 28  1  0  0  0
  1 29  1  0  0  0
  1 30  1  0  0  0
  2 10  1  0  0  0
  2  3  1  0  0  0
  2 25  1  0  0  0
  3  4  1  0  0  0
  3 31  1  0  0  0
  3 32  1  0  0  0
  4  5  1  0  0  0
  4 33  1  0  0  0
  4 34  1  0  0  0
  5 26  1  0  0  0
  5  9  1  0  0  0
  5  6  1  0  0  0
  6  7  1  0  0  0
  6 35  1  0  0  0
  6 36  1  0  0  0
  7  8  1  0  0  0
  7 37  1  0  0  0
  7 38  1  0  0  0
  8 27  1  0  0  0
  8  9  1  0  0  0
  8 12  1  0  0  0
  9 10  1  0  0  0
 10 11  2  0  0  0
 12 13  2  0  0  0
 12 14  1  0  0  0
 14 15  1  0  0  0
 14 39  1  0  0  0
 15 16  1  0  0  0
 15 40  1  0  0  0
 15 41  1  0  0  0
 16 21  1  0  0  0
 16 17  2  0  0  0
 17 18  1  0  0  0
 17 42  1  0  0  0
 18 19  2  0  0  0
 18 43  1  0  0  0
 19 20  1  0  0  0
 19 22  1  0  0  0
 20 21  2  0  0  0
 20 44  1  0  0  0
 21 45  1  0  0  0
 22 23  2  3  0  0
 22 24  1  0  0  0
 23 46  1  0  0  0
 24 47  1  0  0  0
 24 48  1  0  0  0
 25 49  1  0  0  0
M  END
> <s_m_entry_id>
37968

> <s_m_entry_name>
ligand_docking-pose.315

> <s_m_Source_Path>
/home/csk/Desktop/cluster/DUD-E-result/thrb

> <s_m_Source_File>
ligand_docking-pose.sdf

> <i_m_Source_File_Index>
315

> <i_lp_mmshare_version>
53161

> <i_f3d_flags>
0

> <r_lp_tautomer_probability>
1

> <s_lp_Force_Field>
OPLS_2005

> <r_lp_Energy>
19.325355

> <b_lp_Chiralities_Consistent>
1

> <s_lp_Variant>
545880-2

> <s_i_glide_gridfile>
glide-grid_1ype

> <i_i_glide_lignum>
2809

> <i_i_glide_rotatable_bonds>
6

> <r_i_docking_score>
-7.06794118956323

> <r_i_glide_ligand_efficiency>
-0.282717647582529

> <r_i_glide_ligand_efficiency_sa>
-0.826671415550145

> <r_i_glide_ligand_efficiency_ln>
-1.67531387103199

> <r_i_glide_gscore>
-7.06794118956323

> <r_i_glide_lipo>
-2.4709768055834

> <r_i_glide_hbond>
-0.181986296896408

> <r_i_glide_metal>
0

> <r_i_glide_rewards>
-1.7353601196648

> <r_i_glide_evdw>
-39.5440979003906

> <r_i_glide_ecoul>
-8.42530155181885

> <r_i_glide_erotb>
0.640281005797807

> <r_i_glide_esite>
-0.0788988454240659

> <r_i_glide_emodel>
-65.8674860436465

> <r_i_glide_energy>
-47.9693994522095

> <r_i_glide_einternal>
5.20929288864136

> <i_i_glide_confnum>
21

> <i_i_glide_posenum>
294

> <r_i_glide_eff_state_penalty>
0

> <s_user_duplicate_titles>
545880

> <s_m_subgroup_title>
dock_pv

> <s_m_subgroupid>
dock_pv1

> <b_m_subgroup_collapsed>
0

$$$$
236074
                    3D
 Schrodinger Suite 2021-1.
 66 68  0  0  1  0            999 V2000
   20.3178  -14.1386   26.1849 C   0  0  0  0  0  0
   19.7654  -14.3697   24.7669 C   0  0  2  0  0  0
   20.1771  -13.2382   23.8125 C   0  0  0  0  0  0
   19.5486  -13.4533   22.4414 C   0  0  0  0  0  0
   20.2337  -13.0797   21.2823 C   0  0  0  0  0  0
   19.6530  -13.2185   20.0310 C   0  0  0  0  0  0
   18.3738  -13.7458   19.9209 C   0  0  0  0  0  0
   17.6620  -14.1661   21.0495 C   0  0  0  0  0  0
   18.2597  -14.0196   22.3206 C   0  0  0  0  0  0
   17.6159  -14.5237   23.4685 N   0  0  0  0  0  0
   18.2315  -14.5396   24.7986 C   0  0  0  0  0  0
   16.0127  -14.8860   20.7892 S   0  0  0  0  0  0
   15.6988  -15.7592   21.9217 O   0  0  0  0  0  0
   15.9729  -15.4352   19.4294 O   0  0  0  0  0  0
   14.8798  -13.5259   20.8716 N   0  0  1  0  0  0
   14.2752  -12.8542   19.6756 C   0  0  2  0  0  0
   15.3734  -12.4301   18.6474 C   0  0  0  0  0  0
   14.9173  -12.0316   17.2244 C   0  0  0  0  0  0
   16.1047  -11.9687   16.2437 C   0  0  0  0  0  0
   15.6168  -11.7205   14.8988 N   0  0  0  0  0  0
   16.0136  -10.7217   14.2276 C   0  0  0  0  0  0
   15.8292  -10.6531   12.8401 N   0  0  0  0  0  0
   16.6266   -9.5534   14.7205 N   0  0  0  0  0  0
   13.3488  -11.6711   20.1183 C   0  0  0  0  0  0
   13.2160  -10.7392   19.3220 O   0  0  0  0  0  0
   12.7242  -11.5998   21.3329 N   0  0  0  0  0  0
   12.4726  -12.7212   22.2573 C   0  0  0  0  0  0
   11.2899  -12.2169   23.0949 C   0  0  0  0  0  0
   11.4887  -10.7296   23.1713 C   0  0  0  0  0  0
   11.9560  -10.4049   21.7601 C   0  0  1  0  0  0
   12.6362   -9.0339   21.6206 C   0  0  0  0  0  0
   14.0161   -9.0684   21.9211 O   0  0  0  0  0  0
   11.0743  -10.3476   21.1225 H   0  0  0  0  0  0
   19.9379  -13.2143   26.6219 H   0  0  0  0  0  0
   20.0326  -14.9542   26.8486 H   0  0  0  0  0  0
   21.4069  -14.0763   26.1840 H   0  0  0  0  0  0
   20.1959  -15.3093   24.4125 H   0  0  0  0  0  0
   21.2639  -13.1769   23.7391 H   0  0  0  0  0  0
   19.8446  -12.2784   24.2103 H   0  0  0  0  0  0
   21.2267  -12.6591   21.3530 H   0  0  0  0  0  0
   20.1966  -12.9244   19.1464 H   0  0  0  0  0  0
   17.9670  -13.8531   18.9301 H   0  0  0  0  0  0
   16.6397  -14.8031   23.4310 H   0  0  0  0  0  0
   17.7768  -13.7753   25.4244 H   0  0  0  0  0  0
   17.9659  -15.4750   25.2951 H   0  0  0  0  0  0
   14.3679  -13.4320   21.7510 H   0  0  0  0  0  0
   13.6222  -13.5914   19.2048 H   0  0  0  0  0  0
   16.0053  -11.6482   19.0745 H   0  0  0  0  0  0
   16.0230  -13.2761   18.4816 H   0  0  0  0  0  0
   14.1864  -12.7599   16.8646 H   0  0  0  0  0  0
   14.4164  -11.0646   17.2278 H   0  0  0  0  0  0
   16.8415  -11.2416   16.5953 H   0  0  0  0  0  0
   16.6182  -12.9318   16.2323 H   0  0  0  0  0  0
   15.2093  -11.3475   12.4500 H   0  0  0  0  0  0
   15.6167   -9.7400   12.4488 H   0  0  0  0  0  0
   16.5293   -9.3974   15.7098 H   0  0  0  0  0  0
   16.4222   -8.6999   14.2187 H   0  0  0  0  0  0
   13.3072  -12.8544   22.9454 H   0  0  0  0  0  0
   12.1772  -13.6430   21.7544 H   0  0  0  0  0  0
   11.2159  -12.6529   24.0889 H   0  0  0  0  0  0
   10.3480  -12.4363   22.5861 H   0  0  0  0  0  0
   12.2605  -10.4772   23.9016 H   0  0  0  0  0  0
   10.5934  -10.1831   23.4701 H   0  0  0  0  0  0
   12.1586   -8.3268   22.2958 H   0  0  0  0  0  0
   12.5136   -8.6532   20.6063 H   0  0  0  0  0  0
   14.4476   -9.6167   21.2589 H   0  0  0  0  0  0
  1  2  1  0  0  0
  1 34  1  0  0  0
  1 35  1  0  0  0
  1 36  1  0  0  0
  2 11  1  0  0  0
  2  3  1  0  0  0
  2 37  1  0  0  0
  3  4  1  0  0  0
  3 38  1  0  0  0
  3 39  1  0  0  0
  4  9  2  0  0  0
  4  5  1  0  0  0
  5  6  2  0  0  0
  5 40  1  0  0  0
  6  7  1  0  0  0
  6 41  1  0  0  0
  7  8  2  0  0  0
  7 42  1  0  0  0
  8  9  1  0  0  0
  8 12  1  0  0  0
  9 10  1  0  0  0
 10 11  1  0  0  0
 10 43  1  0  0  0
 11 44  1  0  0  0
 11 45  1  0  0  0
 12 13  2  0  0  0
 12 14  2  0  0  0
 12 15  1  0  0  0
 15 16  1  0  0  0
 15 46  1  0  0  0
 16 17  1  0  0  0
 16 24  1  0  0  0
 16 47  1  0  0  0
 17 18  1  0  0  0
 17 48  1  0  0  0
 17 49  1  0  0  0
 18 19  1  0  0  0
 18 50  1  0  0  0
 18 51  1  0  0  0
 19 20  1  0  0  0
 19 52  1  0  0  0
 19 53  1  0  0  0
 20 21  2  3  0  0
 21 22  1  0  0  0
 21 23  1  0  0  0
 22 54  1  0  0  0
 22 55  1  0  0  0
 23 56  1  0  0  0
 23 57  1  0  0  0
 24 25  2  0  0  0
 24 26  1  0  0  0
 26 30  1  0  0  0
 26 27  1  0  0  0
 27 28  1  0  0  0
 27 58  1  0  0  0
 27 59  1  0  0  0
 28 29  1  0  0  0
 28 60  1  0  0  0
 28 61  1  0  0  0
 29 30  1  0  0  0
 29 62  1  0  0  0
 29 63  1  0  0  0
 30 33  1  0  0  0
 30 31  1  0  0  0
 31 32  1  0  0  0
 31 64  1  0  0  0
 31 65  1  0  0  0
 32 66  1  0  0  0
M  END
> <s_m_entry_id>
37969

> <s_m_entry_name>
ligand_docking-pose.316

> <s_m_Source_Path>
/home/csk/Desktop/cluster/DUD-E-result/thrb

> <s_m_Source_File>
ligand_docking-pose.sdf

> <i_m_Source_File_Index>
316

> <i_lp_mmshare_version>
53161

> <i_f3d_flags>
0

> <r_lp_tautomer_probability>
1

> <s_lp_Force_Field>
OPLS_2005

> <r_lp_Energy>
45.022675

> <b_lp_Chiralities_Consistent>
1

> <s_lp_Variant>
236074-1

> <s_i_glide_gridfile>
glide-grid_1ype

> <i_i_glide_lignum>
2259

> <i_i_glide_rotatable_bonds>
11

> <r_i_docking_score>
-7.06463929547652

> <r_i_glide_ligand_efficiency>
-0.220769977983641

> <r_i_glide_ligand_efficiency_sa>
-0.700900989778744

> <r_i_glide_ligand_efficiency_ln>
-1.58196531305119

> <r_i_glide_gscore>
-7.06463929547652

> <r_i_glide_lipo>
-2.5457567586825

> <r_i_glide_hbond>
-0.716264879888598

> <r_i_glide_metal>
0

> <r_i_glide_rewards>
-0.91936996517362

> <r_i_glide_evdw>
-43.6341018676758

> <r_i_glide_ecoul>
-10.0581369400024

> <r_i_glide_erotb>
0.926717562410321

> <r_i_glide_esite>
-0.119539619757967

> <r_i_glide_emodel>
-73.2978121246524

> <r_i_glide_energy>
-53.6922388076782

> <r_i_glide_einternal>
7.49528694152832

> <i_i_glide_confnum>
50

> <i_i_glide_posenum>
57

> <r_i_glide_eff_state_penalty>
0

> <s_user_duplicate_titles>
236074

> <s_m_subgroup_title>
dock_pv

> <s_m_subgroupid>
dock_pv1

> <b_m_subgroup_collapsed>
0

$$$$
273626
                    3D
 Schrodinger Suite 2021-1.
 65 67  0  0  1  0            999 V2000
   25.4943  -15.1226   24.2398 C   0  0  0  0  0  0
   24.4168  -15.7500   23.5498 O   0  0  0  0  0  0
   23.1463  -15.7077   24.0915 C   0  0  0  0  0  0
   22.8360  -15.1285   25.3294 C   0  0  0  0  0  0
   21.5175  -15.0889   25.7758 C   0  0  0  0  0  0
   20.4698  -15.6201   25.0063 C   0  0  0  0  0  0
   20.7768  -16.1904   23.7593 C   0  0  0  0  0  0
   22.1082  -16.2566   23.3327 C   0  0  0  0  0  0
   19.4861  -16.7922   22.6478 S   0  0  0  0  0  0
   18.3278  -17.1987   23.4498 O   0  0  0  0  0  0
   20.1193  -17.7526   21.7391 O   0  0  0  0  0  0
   19.0279  -15.4028   21.6636 N   0  0  1  0  0  0
   18.6900  -14.0992   22.3005 C   0  0  1  0  0  0
   19.9471  -13.2491   22.6053 C   0  0  0  0  0  0
   20.9969  -13.1754   21.4784 C   0  0  0  0  0  0
   20.5157  -12.5147   20.1779 C   0  0  0  0  0  0
   19.2671  -13.1659   19.5537 C   0  0  0  0  0  0
   17.9922  -12.8798   20.2348 N   0  0  0  0  0  0
   17.6179  -13.3391   21.4746 C   0  0  0  0  0  0
   16.5266  -13.0883   21.9924 O   0  0  0  0  0  0
   17.0575  -11.9970   19.5027 C   0  0  0  0  0  0
   15.8988  -12.7662   18.8371 C   0  0  0  0  0  0
   16.0068  -13.9426   18.4910 O   0  0  0  0  0  0
   14.6021  -11.9966   18.5856 C   0  0  0  0  0  0
   13.8571  -11.7372   19.8901 C   0  0  0  0  0  0
   12.8902  -12.6372   20.3341 C   0  0  0  0  0  0
   12.1643  -12.3622   21.4900 C   0  0  0  0  0  0
   12.3742  -11.1759   22.2200 C   0  0  0  0  0  0
   13.3654  -10.2943   21.7609 C   0  0  0  0  0  0
   14.1063  -10.5761   20.6223 C   0  0  0  0  0  0
   11.5791  -10.8278   23.4279 C   0  0  0  0  0  0
   11.6161   -9.6742   23.9309 N   0  0  0  0  0  0
   10.8159  -11.8515   23.9206 N   0  0  0  0  0  0
   19.1437  -15.5369   25.3872 O   0  0  0  0  0  0
   18.8067  -15.1486   26.7140 C   0  0  0  0  0  0
   18.2183  -14.3304   23.2579 H   0  0  0  0  0  0
   26.4084  -15.2358   23.6564 H   0  0  0  0  0  0
   25.3211  -14.0542   24.3693 H   0  0  0  0  0  0
   25.6651  -15.5755   25.2155 H   0  0  0  0  0  0
   23.6000  -14.6908   25.9543 H   0  0  0  0  0  0
   21.3205  -14.6109   26.7190 H   0  0  0  0  0  0
   22.3512  -16.6898   22.3725 H   0  0  0  0  0  0
   19.6299  -15.3000   20.8440 H   0  0  0  0  0  0
   20.4460  -13.6038   23.4984 H   0  0  0  0  0  0
   19.6159  -12.2530   22.8979 H   0  0  0  0  0  0
   21.3587  -14.1783   21.2501 H   0  0  0  0  0  0
   21.8798  -12.6547   21.8442 H   0  0  0  0  0  0
   21.3320  -12.5853   19.4552 H   0  0  0  0  0  0
   20.3431  -11.4468   20.3198 H   0  0  0  0  0  0
   19.4239  -14.2424   19.5609 H   0  0  0  0  0  0
   19.1802  -12.9657   18.4850 H   0  0  0  0  0  0
   17.5886  -11.4595   18.7195 H   0  0  0  0  0  0
   16.6649  -11.2388   20.1788 H   0  0  0  0  0  0
   13.9668  -12.5849   17.9224 H   0  0  0  0  0  0
   14.8194  -11.0611   18.0717 H   0  0  0  0  0  0
   12.6876  -13.5418   19.7800 H   0  0  0  0  0  0
   11.4116  -13.0792   21.7896 H   0  0  0  0  0  0
   13.5777   -9.3766   22.2934 H   0  0  0  0  0  0
   14.8651   -9.8711   20.3209 H   0  0  0  0  0  0
   10.9879   -9.6144   24.7212 H   0  0  0  0  0  0
   10.1019  -11.6557   24.6146 H   0  0  0  0  0  0
   10.8269  -12.7833   23.5228 H   0  0  0  0  0  0
   17.7218  -15.1500   26.8282 H   0  0  0  0  0  0
   19.2144  -15.8519   27.4420 H   0  0  0  0  0  0
   19.1560  -14.1414   26.9448 H   0  0  0  0  0  0
  1  2  1  0  0  0
  1 37  1  0  0  0
  1 38  1  0  0  0
  1 39  1  0  0  0
  2  3  1  0  0  0
  3  8  1  0  0  0
  3  4  2  0  0  0
  4  5  1  0  0  0
  4 40  1  0  0  0
  5  6  2  0  0  0
  5 41  1  0  0  0
  6  7  1  0  0  0
  6 34  1  0  0  0
  7  8  2  0  0  0
  7  9  1  0  0  0
  8 42  1  0  0  0
  9 10  2  0  0  0
  9 11  2  0  0  0
  9 12  1  0  0  0
 12 13  1  0  0  0
 12 43  1  0  0  0
 13 36  1  0  0  0
 13 19  1  0  0  0
 13 14  1  0  0  0
 14 15  1  0  0  0
 14 44  1  0  0  0
 14 45  1  0  0  0
 15 16  1  0  0  0
 15 46  1  0  0  0
 15 47  1  0  0  0
 16 17  1  0  0  0
 16 48  1  0  0  0
 16 49  1  0  0  0
 17 18  1  0  0  0
 17 50  1  0  0  0
 17 51  1  0  0  0
 18 19  1  0  0  0
 18 21  1  0  0  0
 19 20  2  0  0  0
 21 22  1  0  0  0
 21 52  1  0  0  0
 21 53  1  0  0  0
 22 23  2  0  0  0
 22 24  1  0  0  0
 24 25  1  0  0  0
 24 54  1  0  0  0
 24 55  1  0  0  0
 25 30  1  0  0  0
 25 26  2  0  0  0
 26 27  1  0  0  0
 26 56  1  0  0  0
 27 28  2  0  0  0
 27 57  1  0  0  0
 28 29  1  0  0  0
 28 31  1  0  0  0
 29 30  2  0  0  0
 29 58  1  0  0  0
 30 59  1  0  0  0
 31 32  2  3  0  0
 31 33  1  0  0  0
 32 60  1  0  0  0
 33 61  1  0  0  0
 33 62  1  0  0  0
 34 35  1  0  0  0
 35 63  1  0  0  0
 35 64  1  0  0  0
 35 65  1  0  0  0
M  END
> <s_m_entry_id>
37970

> <s_m_entry_name>
ligand_docking-pose.317

> <s_m_Source_Path>
/home/csk/Desktop/cluster/DUD-E-result/thrb

> <s_m_Source_File>
ligand_docking-pose.sdf

> <i_m_Source_File_Index>
317

> <i_lp_mmshare_version>
53161

> <i_f3d_flags>
0

> <r_lp_tautomer_probability>
0.999999960000001

> <s_lp_Force_Field>
OPLS_2005

> <r_lp_Energy>
33.603342

> <b_lp_Chiralities_Consistent>
1

> <s_lp_Variant>
273626-1

> <s_i_glide_gridfile>
glide-grid_1ype

> <i_i_glide_lignum>
4678

> <i_i_glide_rotatable_bonds>
10

> <r_i_docking_score>
-7.06193393756033

> <r_i_glide_ligand_efficiency>
-0.201769541073152

> <r_i_glide_ligand_efficiency_sa>
-0.660001547444423

> <r_i_glide_ligand_efficiency_ln>
-1.55025123047378

> <r_i_glide_gscore>
-7.06193393756033

> <r_i_glide_lipo>
-3.07291755743721

> <r_i_glide_hbond>
-0.608799064543765

> <r_i_glide_metal>
0

> <r_i_glide_rewards>
-0.084172295533087

> <r_i_glide_evdw>
-46.5453987121582

> <r_i_glide_ecoul>
-9.58127117156982

> <r_i_glide_erotb>
0.56628825320651

> <r_i_glide_esite>
-0.0978726619093899

> <r_i_glide_emodel>
-75.1599776450026

> <r_i_glide_energy>
-56.126669883728

> <r_i_glide_einternal>
7.21176958084106

> <i_i_glide_confnum>
1

> <i_i_glide_posenum>
50

> <r_i_glide_eff_state_penalty>
0

> <s_user_duplicate_titles>
273626

> <s_m_subgroup_title>
dock_pv

> <s_m_subgroupid>
dock_pv1

> <b_m_subgroup_collapsed>
0

$$$$
96663
                    3D
 Schrodinger Suite 2021-1.
 35 36  0  0  1  0            999 V2000
   20.9359  -13.4507   21.8030 C   0  0  0  0  0  0
   20.1416  -13.0078   20.5872 C   0  0  0  0  0  0
   18.7457  -12.9498   20.6247 C   0  0  0  0  0  0
   18.0137  -12.5736   19.4888 C   0  0  0  0  0  0
   18.6994  -12.2525   18.3052 C   0  0  0  0  0  0
   20.1016  -12.2664   18.2862 C   0  0  0  0  0  0
   20.8145  -12.6480   19.4205 C   0  0  0  0  0  0
   21.0793  -11.7866   16.7210 Br  0  0  0  0  0  0
   18.0164  -11.8581   17.1759 O   0  0  0  0  0  0
   16.5141  -12.5077   19.5687 C   0  0  0  0  0  0
   15.8191  -13.2936   18.9264 O   0  0  0  0  0  0
   16.0460  -11.5174   20.3512 N   0  0  0  0  0  0
   14.7554  -11.3769   20.8818 C   0  0  0  0  0  0
   13.9700  -12.4708   21.2612 C   0  0  0  0  0  0
   12.8396  -12.2716   22.0517 C   0  0  0  0  0  0
   12.4728  -10.9841   22.4883 C   0  0  0  0  0  0
   13.2045   -9.8949   21.9778 C   0  0  0  0  0  0
   14.3360  -10.0859   21.1898 C   0  0  0  0  0  0
   11.4174  -10.7594   23.5210 C   0  0  0  0  0  0
   11.2673   -9.6370   24.0663 N   0  0  0  0  0  0
   10.6567  -11.8530   23.8445 N   0  0  0  0  0  0
   20.2951  -13.7031   22.6490 H   0  0  0  0  0  0
   21.5448  -14.3224   21.5585 H   0  0  0  0  0  0
   21.6161  -12.6550   22.1105 H   0  0  0  0  0  0
   18.2310  -13.2133   21.5394 H   0  0  0  0  0  0
   21.8949  -12.6691   19.3893 H   0  0  0  0  0  0
   17.0966  -12.1394   17.1993 H   0  0  0  0  0  0
   16.7098  -10.8165   20.6461 H   0  0  0  0  0  0
   14.2736  -13.4819   21.0328 H   0  0  0  0  0  0
   12.3086  -13.1497   22.3896 H   0  0  0  0  0  0
   12.9507   -8.8835   22.2636 H   0  0  0  0  0  0
   14.9290   -9.2288   20.9025 H   0  0  0  0  0  0
   10.4986   -9.6629   24.7257 H   0  0  0  0  0  0
    9.8526  -11.7331   24.4581 H   0  0  0  0  0  0
   10.8161  -12.7822   23.4733 H   0  0  0  0  0  0
  1  2  1  0  0  0
  1 22  1  0  0  0
  1 23  1  0  0  0
  1 24  1  0  0  0
  2  7  1  0  0  0
  2  3  2  0  0  0
  3  4  1  0  0  0
  3 25  1  0  0  0
  4  5  2  0  0  0
  4 10  1  0  0  0
  5  6  1  0  0  0
  5  9  1  0  0  0
  6  7  2  0  0  0
  6  8  1  0  0  0
  7 26  1  0  0  0
  9 27  1  0  0  0
 10 11  2  0  0  0
 10 12  1  0  0  0
 12 13  1  0  0  0
 12 28  1  0  0  0
 13 18  1  0  0  0
 13 14  2  0  0  0
 14 15  1  0  0  0
 14 29  1  0  0  0
 15 16  2  0  0  0
 15 30  1  0  0  0
 16 17  1  0  0  0
 16 19  1  0  0  0
 17 18  2  0  0  0
 17 31  1  0  0  0
 18 32  1  0  0  0
 19 20  2  3  0  0
 19 21  1  0  0  0
 20 33  1  0  0  0
 21 34  1  0  0  0
 21 35  1  0  0  0
M  END
> <s_m_entry_id>
37971

> <s_m_entry_name>
ligand_docking-pose.318

> <s_m_Source_Path>
/home/csk/Desktop/cluster/DUD-E-result/thrb

> <s_m_Source_File>
ligand_docking-pose.sdf

> <i_m_Source_File_Index>
318

> <i_lp_mmshare_version>
53161

> <i_f3d_flags>
0

> <r_lp_tautomer_probability>
0.999999999997365

> <s_lp_Force_Field>
OPLS_2005

> <r_lp_Energy>
17.035764

> <b_lp_Chiralities_Consistent>
1

> <s_lp_Variant>
96663-1

> <s_i_glide_gridfile>
glide-grid_1ype

> <i_i_glide_lignum>
2312

> <i_i_glide_rotatable_bonds>
5

> <r_i_docking_score>
-7.05642690205984

> <r_i_glide_ligand_efficiency>
-0.336020328669516

> <r_i_glide_ligand_efficiency_sa>
-0.927054607581046

> <r_i_glide_ligand_efficiency_ln>
-1.74468729268115

> <r_i_glide_gscore>
-7.05642690205984

> <r_i_glide_lipo>
-2.44656888034228

> <r_i_glide_hbond>
-0.49827490732043

> <r_i_glide_metal>
0

> <r_i_glide_rewards>
-1.17347665487164

> <r_i_glide_evdw>
-35.6174201965332

> <r_i_glide_ecoul>
-10.1678943634033

> <r_i_glide_erotb>
0.470975999537227

> <r_i_glide_esite>
-0.103027294725549

> <r_i_glide_emodel>
-58.9555035684068

> <r_i_glide_energy>
-45.7853145599365

> <r_i_glide_einternal>
11.6418504714966

> <i_i_glide_confnum>
19

> <i_i_glide_posenum>
7

> <r_i_glide_eff_state_penalty>
0

> <s_user_duplicate_titles>
96663

> <s_m_subgroup_title>
dock_pv

> <s_m_subgroupid>
dock_pv1

> <b_m_subgroup_collapsed>
0

$$$$
202728
                    3D
 Schrodinger Suite 2021-1.
 57 59  0  0  1  0            999 V2000
   21.2899  -12.1493   19.4358 C   0  0  0  0  0  0
   20.1194  -12.5221   20.3207 C   0  0  0  0  0  0
   20.2440  -13.5496   21.2565 C   0  0  0  0  0  0
   19.1585  -13.9022   22.0688 C   0  0  0  0  0  0
   17.9280  -13.2486   21.8949 C   0  0  0  0  0  0
   17.7969  -12.2149   20.9567 C   0  0  0  0  0  0
   18.9030  -11.8534   20.1914 C   0  0  0  0  0  0
   16.6415  -11.5013   20.7224 O   0  0  0  0  0  0
   15.3796  -12.0513   21.0816 C   0  0  0  0  0  0
   14.3294  -11.1549   20.4068 C   0  0  0  0  0  0
   12.8794  -11.6746   20.4897 C   0  0  0  0  0  0
   12.3930  -11.8548   21.8141 O   0  0  0  0  0  0
   12.2444  -10.6058   22.4582 N   0  0  0  0  0  0
   11.4963  -10.7006   23.4792 C   0  0  0  0  0  0
   11.2162   -9.6134   24.3209 N   0  0  0  0  0  0
   10.8160  -11.8529   23.9218 N   0  0  0  0  0  0
   19.2796  -15.0038   23.0893 C   0  0  0  0  0  0
   18.5523  -15.9907   22.9571 O   0  0  0  0  0  0
   20.1118  -14.8381   24.1591 N   0  0  0  0  0  0
   21.1214  -13.7713   24.3169 C   0  0  0  0  0  0
   22.5647  -14.2650   24.2266 C   0  0  0  0  0  0
   23.6855  -13.4530   24.4604 C   0  0  0  0  0  0
   24.9019  -14.1034   24.3210 C   0  0  0  0  0  0
   24.7068  -15.7703   23.9263 S   0  0  0  0  0  0
   22.9866  -15.5620   23.9209 C   0  0  0  0  0  0
   20.0275  -15.7346   25.3253 C   0  0  0  0  0  0
   18.9686  -15.2866   26.3465 C   0  0  0  0  0  0
   17.5059  -15.4481   26.0402 C   0  0  0  0  0  0
   18.1698  -16.2864   27.1322 C   0  0  0  0  0  0
   21.8165  -13.0527   19.1256 H   0  0  0  0  0  0
   20.9626  -11.6521   18.5203 H   0  0  0  0  0  0
   21.9935  -11.5047   19.9679 H   0  0  0  0  0  0
   21.1889  -14.0681   21.3524 H   0  0  0  0  0  0
   17.0818  -13.5371   22.5019 H   0  0  0  0  0  0
   18.7982  -11.0531   19.4776 H   0  0  0  0  0  0
   15.2400  -12.0632   22.1623 H   0  0  0  0  0  0
   15.2891  -13.0755   20.7162 H   0  0  0  0  0  0
   14.5890  -11.0530   19.3520 H   0  0  0  0  0  0
   14.3859  -10.1507   20.8299 H   0  0  0  0  0  0
   12.8139  -12.6418   19.9892 H   0  0  0  0  0  0
   12.2106  -11.0135   19.9364 H   0  0  0  0  0  0
   11.4888   -8.7058   23.9801 H   0  0  0  0  0  0
   10.2837   -9.5859   24.7232 H   0  0  0  0  0  0
   10.8261  -12.6782   23.3348 H   0  0  0  0  0  0
    9.9058  -11.7353   24.3566 H   0  0  0  0  0  0
   20.9625  -12.9633   23.6065 H   0  0  0  0  0  0
   20.9524  -13.3045   25.2888 H   0  0  0  0  0  0
   23.6167  -12.4079   24.7240 H   0  0  0  0  0  0
   25.8936  -13.6907   24.4420 H   0  0  0  0  0  0
   22.3607  -16.4097   23.6884 H   0  0  0  0  0  0
   19.8146  -16.7562   25.0045 H   0  0  0  0  0  0
   20.9902  -15.7910   25.8342 H   0  0  0  0  0  0
   19.2539  -14.3563   26.8406 H   0  0  0  0  0  0
   16.8195  -14.6534   26.3209 H   0  0  0  0  0  0
   17.1898  -15.9471   25.1240 H   0  0  0  0  0  0
   18.3393  -17.3493   26.9598 H   0  0  0  0  0  0
   17.9593  -16.0668   28.1792 H   0  0  0  0  0  0
  1  2  1  0  0  0
  1 30  1  0  0  0
  1 31  1  0  0  0
  1 32  1  0  0  0
  2  7  1  0  0  0
  2  3  2  0  0  0
  3  4  1  0  0  0
  3 33  1  0  0  0
  4  5  2  0  0  0
  4 17  1  0  0  0
  5  6  1  0  0  0
  5 34  1  0  0  0
  6  7  2  0  0  0
  6  8  1  0  0  0
  7 35  1  0  0  0
  8  9  1  0  0  0
  9 10  1  0  0  0
  9 36  1  0  0  0
  9 37  1  0  0  0
 10 11  1  0  0  0
 10 38  1  0  0  0
 10 39  1  0  0  0
 11 12  1  0  0  0
 11 40  1  0  0  0
 11 41  1  0  0  0
 12 13  1  0  0  0
 13 14  2  3  0  0
 14 15  1  0  0  0
 14 16  1  0  0  0
 15 42  1  0  0  0
 15 43  1  0  0  0
 16 44  1  0  0  0
 16 45  1  0  0  0
 17 18  2  0  0  0
 17 19  1  0  0  0
 19 20  1  0  0  0
 19 26  1  0  0  0
 20 21  1  0  0  0
 20 46  1  0  0  0
 20 47  1  0  0  0
 21 25  2  0  0  0
 21 22  1  0  0  0
 22 23  2  0  0  0
 22 48  1  0  0  0
 23 24  1  0  0  0
 23 49  1  0  0  0
 24 25  1  0  0  0
 25 50  1  0  0  0
 26 27  1  0  0  0
 26 51  1  0  0  0
 26 52  1  0  0  0
 27 29  1  0  0  0
 27 28  1  0  0  0
 27 53  1  0  0  0
 28 29  1  0  0  0
 28 54  1  0  0  0
 28 55  1  0  0  0
 29 56  1  0  0  0
 29 57  1  0  0  0
M  END
> <s_m_entry_id>
37973

> <s_m_entry_name>
ligand_docking-pose.320

> <s_m_Source_Path>
/home/csk/Desktop/cluster/DUD-E-result/thrb

> <s_m_Source_File>
ligand_docking-pose.sdf

> <i_m_Source_File_Index>
320

> <i_lp_mmshare_version>
53161

> <i_f3d_flags>
0

> <r_lp_tautomer_probability>
1

> <s_lp_Force_Field>
OPLS_2005

> <r_lp_Energy>
30.839389

> <b_lp_Chiralities_Consistent>
1

> <s_lp_Variant>
202728-1

> <s_i_glide_gridfile>
glide-grid_1ype

> <i_i_glide_lignum>
2436

> <i_i_glide_rotatable_bonds>
12

> <r_i_docking_score>
-7.05424462252283

> <r_i_glide_ligand_efficiency>
-0.243249814569753

> <r_i_glide_ligand_efficiency_sa>
-0.747340497308775

> <r_i_glide_ligand_efficiency_ln>
-1.61524313834831

> <r_i_glide_gscore>
-7.05424462252283

> <r_i_glide_lipo>
-3.73075562636965

> <r_i_glide_hbond>
-0.473661049125801

> <r_i_glide_metal>
0

> <r_i_glide_rewards>
-0.738294931165856

> <r_i_glide_evdw>
-46.1897773742676

> <r_i_glide_ecoul>
-5.379075050354

> <r_i_glide_erotb>
1.13869953318452

> <r_i_glide_esite>
-0.133882422779564

> <r_i_glide_emodel>
-69.435028289453

> <r_i_glide_energy>
-51.5688524246216

> <r_i_glide_einternal>
9.05177116394043

> <i_i_glide_confnum>
111

> <i_i_glide_posenum>
175

> <r_i_glide_eff_state_penalty>
0

> <s_user_duplicate_titles>
202728

> <s_m_subgroup_title>
dock_pv

> <s_m_subgroupid>
dock_pv1

> <b_m_subgroup_collapsed>
0

$$$$
275733
                    3D
 Schrodinger Suite 2021-1.
 81 86  0  0  1  0            999 V2000
   18.3873  -15.3832   23.1081 B   0  0  0  0  0  0
   18.3756  -15.2630   24.4716 O   0  0  0  0  0  0
   19.6907  -15.4453   24.9562 C   0  0  2  0  0  0
   20.1804  -14.1586   25.7086 C   0  0  0  0  0  0
   21.4807  -13.5515   25.0973 C   0  0  2  0  0  0
   21.3148  -13.4152   23.5755 C   0  0  0  0  0  0
   21.7741  -14.8945   23.5045 C   0  0  2  0  0  0
   20.5401  -15.8444   23.7011 C   0  0  2  0  0  0
   19.6444  -15.6410   22.6135 O   0  0  0  0  0  0
   20.8941  -17.3477   23.6246 C   0  0  0  0  0  0
   22.5993  -14.5882   24.8007 C   0  0  0  0  0  0
   23.9958  -13.9572   24.5332 C   0  0  0  0  0  0
   22.7988  -15.7195   25.8441 C   0  0  0  0  0  0
   17.0546  -15.4210   22.2418 C   0  0  2  0  0  0
   16.8520  -16.7860   21.5425 C   0  0  0  0  0  0
   15.3861  -17.2809   21.4473 C   0  0  0  0  0  0
   14.4020  -16.3883   20.6555 C   0  0  0  0  0  0
   13.7081  -15.3005   21.4977 C   0  0  0  0  0  0
   12.7717  -14.5633   20.6717 N   0  0  0  0  0  0
   16.9286  -14.3166   21.2726 N   0  0  0  0  0  0
   17.4227  -13.0674   21.3459 C   0  0  0  0  0  0
   18.0888  -12.6519   22.2877 O   0  0  0  0  0  0
   17.1453  -12.1322   20.1665 C   0  0  0  0  0  0
   15.7289  -11.8550   19.9401 N   0  0  0  0  0  0
   14.8768  -12.3176   18.9712 C   0  0  0  0  0  0
   13.7013  -11.7608   19.1273 N   0  0  0  0  0  0
   13.8823  -10.9750   20.1791 C   0  0  0  0  0  0
   15.0810  -10.9917   20.7220 N   0  0  0  0  0  0
   12.7817  -10.0656   20.6969 C   0  0  0  0  0  0
   12.1076  -10.6232   21.9352 C   0  0  0  0  0  0
   11.9283   -9.9015   23.0279 N   0  0  0  0  0  0
   11.2230  -10.7125   23.8929 N   0  0  0  0  0  0
   11.0821  -11.8531   23.2149 N   0  0  3  0  0  0
   11.6161  -11.8409   21.9908 N   0  0  0  0  0  0
   15.2478  -13.2761   17.8506 C   0  0  0  0  0  0
   15.6686  -12.6257   16.5311 C   0  0  0  0  0  0
   16.0419  -11.2755   16.4525 C   0  0  0  0  0  0
   16.3789  -10.7079   15.2254 C   0  0  0  0  0  0
   16.3583  -11.4947   14.0762 C   0  0  0  0  0  0
   16.0176  -12.8428   14.1441 C   0  0  0  0  0  0
   15.6761  -13.4067   15.3713 C   0  0  0  0  0  0
   19.6371  -16.2684   25.6696 H   0  0  0  0  0  0
   21.7689  -12.6531   25.6445 H   0  0  0  0  0  0
   22.3339  -15.1841   22.6184 H   0  0  0  0  0  0
   16.2443  -15.2969   22.9543 H   0  0  0  0  0  0
   10.6031  -12.6676   23.5903 H   0  0  0  0  0  0
   19.3977  -13.3969   25.7047 H   0  0  0  0  0  0
   20.3208  -14.3844   26.7653 H   0  0  0  0  0  0
   20.3269  -13.1602   23.1984 H   0  0  0  0  0  0
   21.9701  -12.6949   23.0883 H   0  0  0  0  0  0
   21.5491  -17.6612   24.4338 H   0  0  0  0  0  0
   20.0033  -17.9724   23.6756 H   0  0  0  0  0  0
   21.4036  -17.5860   22.6907 H   0  0  0  0  0  0
   24.7123  -14.7123   24.2096 H   0  0  0  0  0  0
   23.9875  -13.1829   23.7680 H   0  0  0  0  0  0
   24.3881  -13.4965   25.4404 H   0  0  0  0  0  0
   23.4328  -16.5107   25.4424 H   0  0  0  0  0  0
   23.2888  -15.3309   26.7334 H   0  0  0  0  0  0
   21.8819  -16.1911   26.1824 H   0  0  0  0  0  0
   17.3025  -16.7748   20.5450 H   0  0  0  0  0  0
   17.4076  -17.5507   22.0913 H   0  0  0  0  0  0
   15.4113  -18.2626   20.9649 H   0  0  0  0  0  0
   14.9945  -17.4693   22.4499 H   0  0  0  0  0  0
   14.9153  -15.9434   19.8002 H   0  0  0  0  0  0
   13.6333  -17.0356   20.2298 H   0  0  0  0  0  0
   13.1625  -15.7486   22.3288 H   0  0  0  0  0  0
   14.4286  -14.6027   21.9202 H   0  0  0  0  0  0
   12.0076  -15.1551   20.3781 H   0  0  0  0  0  0
   12.3489  -13.8187   21.2144 H   0  0  0  0  0  0
   16.2385  -14.4733   20.5547 H   0  0  0  0  0  0
   17.6530  -11.1788   20.3265 H   0  0  0  0  0  0
   17.5735  -12.5575   19.2587 H   0  0  0  0  0  0
   13.1930   -9.0766   20.9070 H   0  0  0  0  0  0
   12.0358   -9.8874   19.9213 H   0  0  0  0  0  0
   16.0332  -13.9695   18.1528 H   0  0  0  0  0  0
   14.3993  -13.9290   17.6385 H   0  0  0  0  0  0
   16.0499  -10.6541   17.3328 H   0  0  0  0  0  0
   16.6335   -9.6606   15.1644 H   0  0  0  0  0  0
   16.5955  -11.0515   13.1193 H   0  0  0  0  0  0
   15.9860  -13.4473   13.2496 H   0  0  0  0  0  0
   15.3846  -14.4479   15.4125 H   0  0  0  0  0  0
  1  9  1  0  0  0
  1  2  1  0  0  0
  1 14  1  0  0  0
  2  3  1  0  0  0
  3 42  1  0  0  0
  3  8  1  0  0  0
  3  4  1  0  0  0
  4  5  1  0  0  0
  4 47  1  0  0  0
  4 48  1  0  0  0
  5 43  1  0  0  0
  5 11  1  0  0  0
  5  6  1  0  0  0
  6  7  1  0  0  0
  6 49  1  0  0  0
  6 50  1  0  0  0
  7 44  1  0  0  0
  7  8  1  0  0  0
  7 11  1  0  0  0
  8  9  1  0  0  0
  8 10  1  0  0  0
 10 51  1  0  0  0
 10 52  1  0  0  0
 10 53  1  0  0  0
 11 12  1  0  0  0
 11 13  1  0  0  0
 12 54  1  0  0  0
 12 55  1  0  0  0
 12 56  1  0  0  0
 13 57  1  0  0  0
 13 58  1  0  0  0
 13 59  1  0  0  0
 14 45  1  0  0  0
 14 15  1  0  0  0
 14 20  1  0  0  0
 15 16  1  0  0  0
 15 60  1  0  0  0
 15 61  1  0  0  0
 16 17  1  0  0  0
 16 62  1  0  0  0
 16 63  1  0  0  0
 17 18  1  0  0  0
 17 64  1  0  0  0
 17 65  1  0  0  0
 18 19  1  0  0  0
 18 66  1  0  0  0
 18 67  1  0  0  0
 19 68  1  0  0  0
 19 69  1  0  0  0
 20 21  1  0  0  0
 20 70  1  0  0  0
 21 22  2  0  0  0
 21 23  1  0  0  0
 23 24  1  0  0  0
 23 71  1  0  0  0
 23 72  1  0  0  0
 24 28  1  0  0  0
 24 25  1  0  0  0
 25 26  2  0  0  0
 25 35  1  0  0  0
 26 27  1  0  0  0
 27 28  2  0  0  0
 27 29  1  0  0  0
 29 73  1  0  0  0
 29 74  1  0  0  0
 29 30  1  0  0  0
 30 31  1  0  0  0
 30 34  2  0  0  0
 31 32  2  0  0  0
 32 33  1  0  0  0
 33 46  1  0  0  0
 33 34  1  0  0  0
 35 36  1  0  0  0
 35 75  1  0  0  0
 35 76  1  0  0  0
 36 41  1  0  0  0
 36 37  2  0  0  0
 37 38  1  0  0  0
 37 77  1  0  0  0
 38 39  2  0  0  0
 38 78  1  0  0  0
 39 40  1  0  0  0
 39 79  1  0  0  0
 40 41  2  0  0  0
 40 80  1  0  0  0
 41 81  1  0  0  0
M  END
> <s_m_entry_id>
37975

> <s_m_entry_name>
ligand_docking-pose.322

> <s_m_Source_Path>
/home/csk/Desktop/cluster/DUD-E-result/thrb

> <s_m_Source_File>
ligand_docking-pose.sdf

> <i_m_Source_File_Index>
322

> <i_lp_mmshare_version>
53161

> <i_f3d_flags>
0

> <r_lp_tautomer_probability>
0.2

> <s_lp_Force_Field>
OPLS_2005

> <r_lp_Energy>
52.443667

> <b_lp_Chiralities_Consistent>
1

> <s_lp_Variant>
275733-2

> <s_i_glide_gridfile>
glide-grid_1ype

> <i_i_glide_lignum>
62

> <i_i_glide_rotatable_bonds>
13

> <r_i_docking_score>
-7.04897271871421

> <r_i_glide_ligand_efficiency>
-0.171926163871078

> <r_i_glide_ligand_efficiency_sa>
-0.592838761599269

> <r_i_glide_ligand_efficiency_ln>
-1.49546302018096

> <r_i_glide_gscore>
-7.04897271871421

> <r_i_glide_lipo>
-2.38738059123467

> <r_i_glide_hbond>
-0.28046602824756

> <r_i_glide_metal>
0

> <r_i_glide_rewards>
-1.2384864197534

> <r_i_glide_evdw>
-55.2194900512695

> <r_i_glide_ecoul>
-6.66078233718872

> <r_i_glide_erotb>
0.710447390985964

> <r_i_glide_esite>
-0.0929952173227597

> <r_i_glide_emodel>
-85.1336617221585

> <r_i_glide_energy>
-61.8802723884583

> <r_i_glide_einternal>
6.76455593109131

> <i_i_glide_confnum>
93

> <i_i_glide_posenum>
173

> <r_i_glide_eff_state_penalty>
0

> <s_user_duplicate_titles>
275733

> <s_m_subgroup_title>
dock_pv

> <s_m_subgroupid>
dock_pv1

> <b_m_subgroup_collapsed>
0

$$$$
130606
                    3D
 Schrodinger Suite 2021-1.
 79 81  0  0  1  0            999 V2000
   17.5753  -15.2124   24.8853 C   0  0  0  0  0  0
   18.7068  -15.3920   23.9602 N   0  0  2  0  0  0
   19.8479  -14.4563   24.2255 C   0  0  0  0  0  0
   20.0928  -14.2672   25.7638 C   0  0  0  0  0  0
   21.3218  -13.4695   26.2498 C   0  0  0  0  0  0
   22.6672  -14.1614   25.9727 C   0  0  0  0  0  0
   23.2761  -13.8673   24.5955 C   0  0  0  0  0  0
   22.2632  -13.7922   23.4447 C   0  0  0  0  0  0
   21.1509  -14.8617   23.4589 C   0  0  0  0  0  0
   18.3004  -15.6221   22.5207 C   0  0  1  0  0  0
   17.5354  -16.9470   22.1619 C   0  0  0  0  0  0
   16.0992  -17.2243   22.6432 C   0  0  0  0  0  0
   15.7737  -18.2636   23.2102 O   0  0  0  0  0  0
   15.2025  -16.2517   22.3208 O   0  0  0  0  0  0
   17.6758  -14.3369   21.8766 C   0  0  0  0  0  0
   16.5793  -13.9851   22.3209 O   0  0  0  0  0  0
   18.2931  -13.6444   20.8722 N   0  0  0  0  0  0
   19.5360  -14.0481   20.1715 C   0  0  0  0  0  0
   20.5561  -12.9006   20.2940 C   0  0  0  0  0  0
   19.9976  -11.5851   19.7368 C   0  0  0  0  0  0
   18.6331  -11.2738   20.3749 C   0  0  0  0  0  0
   17.6138  -12.4413   20.3226 C   0  0  1  0  0  0
   16.9326  -12.6932   18.9494 C   0  0  0  0  0  0
   15.8990  -11.6352   18.5082 C   0  0  0  0  0  0
   14.5429  -11.9753   18.8071 O   0  0  0  0  0  0
   14.1388  -11.9348   20.1721 C   0  0  0  0  0  0
   13.9996  -10.5018   20.7170 C   0  0  0  0  0  0
   13.6162  -10.5572   22.2040 C   0  0  0  0  0  0
   12.3644  -11.2964   22.4395 N   0  0  0  0  0  0
   12.3706  -12.6506   21.8486 C   0  0  0  0  0  0
   12.7877  -12.6340   20.3552 C   0  0  0  0  0  0
   11.4685  -10.8862   23.4873 C   0  0  0  0  0  0
   11.4737   -9.7542   24.0313 N   0  0  0  0  0  0
   10.5405  -11.8529   23.9171 N   0  0  0  0  0  0
   19.2048  -15.8514   21.9893 H   0  0  0  0  0  0
   16.8379  -12.1127   21.0115 H   0  0  0  0  0  0
   16.7343  -15.8565   24.6681 H   0  0  0  0  0  0
   17.8521  -15.4556   25.9102 H   0  0  0  0  0  0
   17.2146  -14.1837   24.8658 H   0  0  0  0  0  0
   19.5338  -13.4840   23.8419 H   0  0  0  0  0  0
   20.1190  -15.2468   26.2445 H   0  0  0  0  0  0
   19.2375  -13.7426   26.1914 H   0  0  0  0  0  0
   21.2231  -13.3448   27.3293 H   0  0  0  0  0  0
   21.3089  -12.4564   25.8461 H   0  0  0  0  0  0
   22.5571  -15.2403   26.1053 H   0  0  0  0  0  0
   23.3923  -13.8586   26.7211 H   0  0  0  0  0  0
   24.0240  -14.6305   24.3740 H   0  0  0  0  0  0
   23.8233  -12.9235   24.6349 H   0  0  0  0  0  0
   22.8163  -13.8500   22.5065 H   0  0  0  0  0  0
   21.8072  -12.8019   23.4355 H   0  0  0  0  0  0
   20.9621  -15.0237   22.4057 H   0  0  0  0  0  0
   21.5347  -15.8103   23.8368 H   0  0  0  0  0  0
   17.5085  -17.0612   21.0770 H   0  0  0  0  0  0
   18.1383  -17.7845   22.5151 H   0  0  0  0  0  0
   15.6277  -15.4090   22.1091 H   0  0  0  0  0  0
   19.9585  -15.0177   20.4141 H   0  0  0  0  0  0
   19.2715  -14.1460   19.1211 H   0  0  0  0  0  0
   20.8430  -12.7700   21.3348 H   0  0  0  0  0  0
   21.4724  -13.1671   19.7652 H   0  0  0  0  0  0
   20.6977  -10.7720   19.9274 H   0  0  0  0  0  0
   19.8917  -11.6619   18.6536 H   0  0  0  0  0  0
   18.8154  -11.0368   21.4240 H   0  0  0  0  0  0
   18.1848  -10.3664   19.9807 H   0  0  0  0  0  0
   17.7038  -12.7745   18.1835 H   0  0  0  0  0  0
   16.4382  -13.6665   18.9595 H   0  0  0  0  0  0
   16.1647  -10.6531   18.8874 H   0  0  0  0  0  0
   15.9440  -11.5460   17.4217 H   0  0  0  0  0  0
   14.8514  -12.4950   20.7714 H   0  0  0  0  0  0
   14.9302   -9.9432   20.6329 H   0  0  0  0  0  0
   13.2258   -9.9507   20.1801 H   0  0  0  0  0  0
   14.4018  -11.1036   22.7210 H   0  0  0  0  0  0
   13.5970   -9.5515   22.6247 H   0  0  0  0  0  0
   13.0544  -13.2736   22.4285 H   0  0  0  0  0  0
   11.3869  -13.1156   21.9200 H   0  0  0  0  0  0
   12.0126  -12.1357   19.7794 H   0  0  0  0  0  0
   12.8494  -13.6620   19.9990 H   0  0  0  0  0  0
   10.7315   -9.6963   24.7192 H   0  0  0  0  0  0
    9.8070  -11.6477   24.5918 H   0  0  0  0  0  0
   10.5045  -12.7883   23.5289 H   0  0  0  0  0  0
  1  2  1  0  0  0
  1 37  1  0  0  0
  1 38  1  0  0  0
  1 39  1  0  0  0
  2  3  1  0  0  0
  2 10  1  0  0  0
  3  9  1  0  0  0
  3  4  1  0  0  0
  3 40  1  0  0  0
  4  5  1  0  0  0
  4 41  1  0  0  0
  4 42  1  0  0  0
  5  6  1  0  0  0
  5 43  1  0  0  0
  5 44  1  0  0  0
  6  7  1  0  0  0
  6 45  1  0  0  0
  6 46  1  0  0  0
  7  8  1  0  0  0
  7 47  1  0  0  0
  7 48  1  0  0  0
  8  9  1  0  0  0
  8 49  1  0  0  0
  8 50  1  0  0  0
  9 51  1  0  0  0
  9 52  1  0  0  0
 10 35  1  0  0  0
 10 11  1  0  0  0
 10 15  1  0  0  0
 11 12  1  0  0  0
 11 53  1  0  0  0
 11 54  1  0  0  0
 12 13  2  0  0  0
 12 14  1  0  0  0
 14 55  1  0  0  0
 15 16  2  0  0  0
 15 17  1  0  0  0
 17 22  1  0  0  0
 17 18  1  0  0  0
 18 19  1  0  0  0
 18 56  1  0  0  0
 18 57  1  0  0  0
 19 20  1  0  0  0
 19 58  1  0  0  0
 19 59  1  0  0  0
 20 21  1  0  0  0
 20 60  1  0  0  0
 20 61  1  0  0  0
 21 22  1  0  0  0
 21 62  1  0  0  0
 21 63  1  0  0  0
 22 36  1  0  0  0
 22 23  1  0  0  0
 23 24  1  0  0  0
 23 64  1  0  0  0
 23 65  1  0  0  0
 24 25  1  0  0  0
 24 66  1  0  0  0
 24 67  1  0  0  0
 25 26  1  0  0  0
 26 31  1  0  0  0
 26 27  1  0  0  0
 26 68  1  0  0  0
 27 28  1  0  0  0
 27 69  1  0  0  0
 27 70  1  0  0  0
 28 29  1  0  0  0
 28 71  1  0  0  0
 28 72  1  0  0  0
 29 30  1  0  0  0
 29 32  1  0  0  0
 30 31  1  0  0  0
 30 73  1  0  0  0
 30 74  1  0  0  0
 31 75  1  0  0  0
 31 76  1  0  0  0
 32 33  2  3  0  0
 32 34  1  0  0  0
 33 77  1  0  0  0
 34 78  1  0  0  0
 34 79  1  0  0  0
M  END
> <s_m_entry_id>
37976

> <s_m_entry_name>
ligand_docking-pose.323

> <s_m_Source_Path>
/home/csk/Desktop/cluster/DUD-E-result/thrb

> <s_m_Source_File>
ligand_docking-pose.sdf

> <i_m_Source_File_Index>
323

> <i_lp_mmshare_version>
53161

> <i_f3d_flags>
0

> <r_lp_tautomer_probability>
1

> <s_lp_Force_Field>
OPLS_2005

> <r_lp_Energy>
62.758713

> <b_lp_Chiralities_Consistent>
1

> <s_lp_Variant>
130606-1

> <s_i_glide_gridfile>
glide-grid_1ype

> <i_i_glide_lignum>
4328

> <i_i_glide_rotatable_bonds>
12

> <r_i_docking_score>
-7.04280359136045

> <r_i_glide_ligand_efficiency>
-0.207141282098837

> <r_i_glide_ligand_efficiency_sa>
-0.671057341230343

> <r_i_glide_ligand_efficiency_ln>
-1.555952857281

> <r_i_glide_gscore>
-7.04280359136045

> <r_i_glide_lipo>
-3.24778535473006

> <r_i_glide_hbond>
-0.456

> <r_i_glide_metal>
0

> <r_i_glide_rewards>
-0.874091211844334

> <r_i_glide_evdw>
-41.2063255310059

> <r_i_glide_ecoul>
-7.39710187911987

> <r_i_glide_erotb>
0.793064558990571

> <r_i_glide_esite>
-0.0881100253583567

> <r_i_glide_emodel>
-64.2466786736029

> <r_i_glide_energy>
-48.6034274101257

> <r_i_glide_einternal>
7.77497816085815

> <i_i_glide_confnum>
137

> <i_i_glide_posenum>
243

> <r_i_glide_eff_state_penalty>
0

> <s_user_duplicate_titles>
130606

> <s_m_subgroup_title>
dock_pv

> <s_m_subgroupid>
dock_pv1

> <b_m_subgroup_collapsed>
0

$$$$
284673
                    3D
 Schrodinger Suite 2021-1.
 63 65  0  0  1  0            999 V2000
   15.5768  -11.4407   14.5666 C   0  0  0  0  0  0
   16.1767  -11.2572   15.9548 C   0  0  0  0  0  0
   16.8563  -10.2531   16.1821 O   0  0  0  0  0  0
   15.9101  -12.2333   16.8557 N   0  0  0  0  0  0
   16.3358  -12.3019   18.1695 C   0  0  0  0  0  0
   15.3958  -12.4754   19.1530 C   0  0  0  0  0  0
   15.8841  -12.5235   20.5308 C   0  0  0  0  0  0
   17.1872  -12.2969   20.7603 C   0  0  0  0  0  0
   18.1308  -12.0872   19.7851 N   0  0  0  0  0  0
   17.7921  -12.2201   18.4520 C   0  0  0  0  0  0
   18.6413  -12.2497   17.5534 O   0  0  0  0  0  0
   19.5420  -11.7973   20.1125 C   0  0  0  0  0  0
   20.3006  -13.0997   20.3664 C   0  0  0  0  0  0
   20.8106  -13.6944   19.4227 O   0  0  0  0  0  0
   20.3855  -13.5051   21.6425 N   0  0  0  0  0  0
   21.0459  -14.7334   22.0991 C   0  0  1  0  0  0
   22.0710  -14.4513   23.2241 C   0  0  0  0  0  0
   21.3993  -14.2215   24.5882 C   0  0  0  0  0  0
   20.4349  -15.3770   24.9225 C   0  0  0  0  0  0
   19.4164  -15.4829   23.8596 N   0  0  0  0  0  0
   20.0442  -15.8357   22.5657 C   0  0  1  0  0  0
   19.1675  -16.2383   21.5285 O   0  0  0  0  0  0
   18.0411  -15.1027   24.0439 C   0  0  0  0  0  0
   17.2166  -14.8596   23.1208 N   0  0  0  0  0  0
   17.6160  -15.0326   25.3833 N   0  0  0  0  0  0
   13.8911  -12.5326   18.8436 C   0  0  0  0  0  0
   12.8963  -12.7935   20.0040 C   0  0  0  0  0  0
   12.7092  -11.6986   21.0597 C   0  0  0  0  0  0
   13.4030  -10.4827   21.0207 C   0  0  0  0  0  0
   13.2167   -9.5383   22.0257 C   0  0  0  0  0  0
   12.3203   -9.7925   23.0599 C   0  0  0  0  0  0
   11.6160  -10.9915   23.1015 C   0  0  0  0  0  0
   11.8152  -11.9418   22.1055 C   0  0  0  0  0  0
   21.6161  -15.1501   21.2641 H   0  0  0  0  0  0
   14.7520  -10.7466   14.4185 H   0  0  0  0  0  0
   16.3298  -11.2397   13.8049 H   0  0  0  0  0  0
   15.2164  -12.4574   14.4134 H   0  0  0  0  0  0
   15.2609  -12.9487   16.5633 H   0  0  0  0  0  0
   15.2270  -12.7526   21.3544 H   0  0  0  0  0  0
   17.6176  -12.3662   21.7504 H   0  0  0  0  0  0
   19.5908  -11.1695   20.9998 H   0  0  0  0  0  0
   20.0494  -11.1977   19.3562 H   0  0  0  0  0  0
   19.9133  -12.9708   22.3551 H   0  0  0  0  0  0
   22.6943  -13.5951   22.9617 H   0  0  0  0  0  0
   22.7569  -15.2952   23.3011 H   0  0  0  0  0  0
   20.8652  -13.2709   24.6077 H   0  0  0  0  0  0
   22.1598  -14.1416   25.3660 H   0  0  0  0  0  0
   20.0159  -15.2276   25.9168 H   0  0  0  0  0  0
   20.9857  -16.3178   24.9724 H   0  0  0  0  0  0
   20.6285  -16.7405   22.7459 H   0  0  0  0  0  0
   18.4699  -15.5738   21.4782 H   0  0  0  0  0  0
   16.2947  -14.6550   23.5000 H   0  0  0  0  0  0
   16.6557  -14.8307   25.6226 H   0  0  0  0  0  0
   18.2163  -15.2764   26.1550 H   0  0  0  0  0  0
   13.6159  -11.6114   18.3292 H   0  0  0  0  0  0
   13.7506  -13.3316   18.1136 H   0  0  0  0  0  0
   11.9141  -12.9794   19.5675 H   0  0  0  0  0  0
   13.1720  -13.7195   20.5127 H   0  0  0  0  0  0
   14.1104  -10.2633   20.2363 H   0  0  0  0  0  0
   13.7809   -8.6194   22.0109 H   0  0  0  0  0  0
   12.1743   -9.0608   23.8409 H   0  0  0  0  0  0
   10.9125  -11.1830   23.9008 H   0  0  0  0  0  0
   11.2621  -12.8698   22.1485 H   0  0  0  0  0  0
  1  2  1  0  0  0
  1 35  1  0  0  0
  1 36  1  0  0  0
  1 37  1  0  0  0
  2  3  2  0  0  0
  2  4  1  0  0  0
  4  5  1  0  0  0
  4 38  1  0  0  0
  5 10  1  0  0  0
  5  6  2  0  0  0
  6  7  1  0  0  0
  6 26  1  0  0  0
  7  8  2  0  0  0
  7 39  1  0  0  0
  8  9  1  0  0  0
  8 40  1  0  0  0
  9 10  1  0  0  0
  9 12  1  0  0  0
 10 11  2  0  0  0
 12 13  1  0  0  0
 12 41  1  0  0  0
 12 42  1  0  0  0
 13 14  2  0  0  0
 13 15  1  0  0  0
 15 16  1  0  0  0
 15 43  1  0  0  0
 16 34  1  0  0  0
 16 21  1  0  0  0
 16 17  1  0  0  0
 17 18  1  0  0  0
 17 44  1  0  0  0
 17 45  1  0  0  0
 18 19  1  0  0  0
 18 46  1  0  0  0
 18 47  1  0  0  0
 19 20  1  0  0  0
 19 48  1  0  0  0
 19 49  1  0  0  0
 20 21  1  0  0  0
 20 23  1  0  0  0
 21 22  1  0  0  0
 21 50  1  0  0  0
 22 51  1  0  0  0
 23 24  2  3  0  0
 23 25  1  0  0  0
 24 52  1  0  0  0
 25 53  1  0  0  0
 25 54  1  0  0  0
 26 27  1  0  0  0
 26 55  1  0  0  0
 26 56  1  0  0  0
 27 28  1  0  0  0
 27 57  1  0  0  0
 27 58  1  0  0  0
 28 33  1  0  0  0
 28 29  2  0  0  0
 29 30  1  0  0  0
 29 59  1  0  0  0
 30 31  2  0  0  0
 30 60  1  0  0  0
 31 32  1  0  0  0
 31 61  1  0  0  0
 32 33  2  0  0  0
 32 62  1  0  0  0
 33 63  1  0  0  0
M  END
> <s_m_entry_id>
37979

> <s_m_entry_name>
ligand_docking-pose.326

> <s_m_Source_Path>
/home/csk/Desktop/cluster/DUD-E-result/thrb

> <s_m_Source_File>
ligand_docking-pose.sdf

> <i_m_Source_File_Index>
326

> <i_lp_mmshare_version>
53161

> <i_f3d_flags>
0

> <r_lp_tautomer_probability>
1

> <s_lp_Force_Field>
OPLS_2005

> <r_lp_Energy>
31.928237

> <b_lp_Chiralities_Consistent>
1

> <s_lp_Variant>
284673-1

> <s_i_glide_gridfile>
glide-grid_1ype

> <i_i_glide_lignum>
4079

> <i_i_glide_rotatable_bonds>
11

> <r_i_docking_score>
-7.02311284177465

> <r_i_glide_ligand_efficiency>
-0.212821601265898

> <r_i_glide_ligand_efficiency_sa>
-0.682632591429443

> <r_i_glide_ligand_efficiency_ln>
-1.56190393227853

> <r_i_glide_gscore>
-7.02311284177465

> <r_i_glide_lipo>
-2.89921907456109

> <r_i_glide_hbond>
-0.470725951342231

> <r_i_glide_metal>
0

> <r_i_glide_rewards>
-1.07150118400947

> <r_i_glide_evdw>
-48.9752616882324

> <r_i_glide_ecoul>
-6.07033348083496

> <r_i_glide_erotb>
0.777646474675013

> <r_i_glide_esite>
0

> <r_i_glide_emodel>
-76.4756225788699

> <r_i_glide_energy>
-55.0455951690674

> <r_i_glide_einternal>
8.68498992919922

> <i_i_glide_confnum>
61

> <i_i_glide_posenum>
79

> <r_i_glide_eff_state_penalty>
0

> <s_user_duplicate_titles>
284673

> <s_m_subgroup_title>
dock_pv

> <s_m_subgroupid>
dock_pv1

> <b_m_subgroup_collapsed>
0

$$$$
347252
                    3D
 Schrodinger Suite 2021-1.
 66 68  0  0  1  0            999 V2000
   13.1004  -12.7150   20.4239 C   0  0  0  0  0  0
   12.2703  -12.4248   21.5034 C   0  0  0  0  0  0
   12.3939  -11.2203   22.2214 C   0  0  0  0  0  0
   13.3672  -10.3022   21.7851 C   0  0  0  0  0  0
   14.2104  -10.5971   20.7209 C   0  0  0  0  0  0
   14.0908  -11.8104   20.0447 C   0  0  0  0  0  0
   15.0808  -12.1653   18.9446 C   0  0  0  0  0  0
   16.4414  -12.1507   19.4685 N   0  0  0  0  0  0
   17.5754  -11.8530   18.8194 C   0  0  0  0  0  0
   17.5827  -11.5409   17.6258 O   0  0  0  0  0  0
   18.8924  -11.8821   19.6633 C   0  0  2  0  0  0
   20.1318  -11.8767   18.7842 C   0  0  0  0  0  0
   20.7593  -13.0531   18.8616 C   0  0  0  0  0  0
   20.1133  -13.9296   19.8985 C   0  0  0  0  0  0
   19.0550  -13.1100   20.4653 N   0  0  0  0  0  0
   18.3265  -13.4297   21.5647 C   0  0  0  0  0  0
   17.4944  -12.6528   22.0421 O   0  0  0  0  0  0
   18.4374  -14.8611   22.1728 C   0  0  1  0  0  0
   18.5081  -14.8379   23.7276 C   0  0  0  0  0  0
   19.8971  -14.6233   24.3857 C   0  0  0  0  0  0
   20.8635  -13.6556   23.6612 C   0  0  0  0  0  0
   22.2524  -13.6651   24.3269 C   0  0  0  0  0  0
   22.1588  -13.2768   25.8152 C   0  0  0  0  0  0
   21.0549  -14.0466   26.5585 C   0  0  0  0  0  0
   19.7152  -14.0690   25.8115 C   0  0  0  0  0  0
   17.3144  -15.6711   21.6226 N   0  0  2  0  0  0
   16.0078  -15.4521   22.2509 C   0  0  0  0  0  0
   14.8700  -16.0767   21.4297 C   0  0  0  0  0  0
   15.0218  -16.8686   20.5003 O   0  0  0  0  0  0
   13.6614  -15.6785   21.9212 O   0  0  0  0  0  0
   11.5386  -10.9571   23.4132 C   0  0  0  0  0  0
   10.8160  -11.8530   23.9205 N   0  0  0  0  0  0
   11.6160   -9.6854   23.9204 N   0  0  0  0  0  0
   18.8556  -11.0088   20.3169 H   0  0  0  0  0  0
   19.3482  -15.3563   21.8407 H   0  0  0  0  0  0
   12.9910  -13.6608   19.9122 H   0  0  0  0  0  0
   11.5313  -13.1642   21.7798 H   0  0  0  0  0  0
   13.5251   -9.3622   22.2917 H   0  0  0  0  0  0
   14.9832   -9.8935   20.4455 H   0  0  0  0  0  0
   14.9701  -11.4657   18.1131 H   0  0  0  0  0  0
   14.8720  -13.1602   18.5462 H   0  0  0  0  0  0
   16.5451  -12.4630   20.4287 H   0  0  0  0  0  0
   20.4160  -11.0535   18.1485 H   0  0  0  0  0  0
   21.6160  -13.3626   18.2974 H   0  0  0  0  0  0
   20.8570  -14.2291   20.6320 H   0  0  0  0  0  0
   19.7132  -14.8664   19.5210 H   0  0  0  0  0  0
   18.1520  -15.8013   24.0966 H   0  0  0  0  0  0
   17.7795  -14.1284   24.1269 H   0  0  0  0  0  0
   20.3881  -15.5975   24.4422 H   0  0  0  0  0  0
   20.4390  -12.6529   23.6075 H   0  0  0  0  0  0
   20.9966  -13.9600   22.6313 H   0  0  0  0  0  0
   22.9344  -12.9978   23.8005 H   0  0  0  0  0  0
   22.6886  -14.6617   24.2419 H   0  0  0  0  0  0
   21.9569  -12.2128   25.9211 H   0  0  0  0  0  0
   23.1191  -13.4555   26.2989 H   0  0  0  0  0  0
   20.8996  -13.5834   27.5246 H   0  0  0  0  0  0
   21.3850  -15.0708   26.7209 H   0  0  0  0  0  0
   19.0157  -14.6981   26.3648 H   0  0  0  0  0  0
   19.2442  -13.0839   25.7912 H   0  0  0  0  0  0
   17.5355  -16.6556   21.6993 H   0  0  0  0  0  0
   16.0150  -15.8740   23.2547 H   0  0  0  0  0  0
   15.7999  -14.3851   22.3210 H   0  0  0  0  0  0
   13.7608  -15.0529   22.6458 H   0  0  0  0  0  0
   10.8304  -12.7681   23.4849 H   0  0  0  0  0  0
   10.9854   -9.4545   24.6763 H   0  0  0  0  0  0
   12.1362   -8.9586   23.4603 H   0  0  0  0  0  0
  1  6  1  0  0  0
  1  2  2  0  0  0
  1 36  1  0  0  0
  2  3  1  0  0  0
  2 37  1  0  0  0
  3  4  2  0  0  0
  3 31  1  0  0  0
  4  5  1  0  0  0
  4 38  1  0  0  0
  5  6  2  0  0  0
  5 39  1  0  0  0
  6  7  1  0  0  0
  7  8  1  0  0  0
  7 40  1  0  0  0
  7 41  1  0  0  0
  8  9  1  0  0  0
  8 42  1  0  0  0
  9 10  2  0  0  0
  9 11  1  0  0  0
 11 34  1  0  0  0
 11 15  1  0  0  0
 11 12  1  0  0  0
 12 13  2  0  0  0
 12 43  1  0  0  0
 13 14  1  0  0  0
 13 44  1  0  0  0
 14 15  1  0  0  0
 14 45  1  0  0  0
 14 46  1  0  0  0
 15 16  1  0  0  0
 16 17  2  0  0  0
 16 18  1  0  0  0
 18 35  1  0  0  0
 18 19  1  0  0  0
 18 26  1  0  0  0
 19 20  1  0  0  0
 19 47  1  0  0  0
 19 48  1  0  0  0
 20 25  1  0  0  0
 20 21  1  0  0  0
 20 49  1  0  0  0
 21 22  1  0  0  0
 21 50  1  0  0  0
 21 51  1  0  0  0
 22 23  1  0  0  0
 22 52  1  0  0  0
 22 53  1  0  0  0
 23 24  1  0  0  0
 23 54  1  0  0  0
 23 55  1  0  0  0
 24 25  1  0  0  0
 24 56  1  0  0  0
 24 57  1  0  0  0
 25 58  1  0  0  0
 25 59  1  0  0  0
 26 27  1  0  0  0
 26 60  1  0  0  0
 27 28  1  0  0  0
 27 61  1  0  0  0
 27 62  1  0  0  0
 28 29  2  0  0  0
 28 30  1  0  0  0
 30 63  1  0  0  0
 31 32  2  3  0  0
 31 33  1  0  0  0
 32 64  1  0  0  0
 33 65  1  0  0  0
 33 66  1  0  0  0
M  END
> <s_m_entry_id>
37981

> <s_m_entry_name>
ligand_docking-pose.328

> <s_m_Source_Path>
/home/csk/Desktop/cluster/DUD-E-result/thrb

> <s_m_Source_File>
ligand_docking-pose.sdf

> <i_m_Source_File_Index>
328

> <i_lp_mmshare_version>
53161

> <i_f3d_flags>
0

> <r_lp_tautomer_probability>
1

> <s_lp_Force_Field>
OPLS_2005

> <r_lp_Energy>
26.070806

> <b_lp_Chiralities_Consistent>
1

> <s_lp_Variant>
347252-2

> <s_i_glide_gridfile>
glide-grid_1ype

> <i_i_glide_lignum>
1347

> <i_i_glide_rotatable_bonds>
13

> <r_i_docking_score>
-7.01255669691776

> <r_i_glide_ligand_efficiency>
-0.212501718088417

> <r_i_glide_ligand_efficiency_sa>
-0.681606555157278

> <r_i_glide_ligand_efficiency_ln>
-1.55955630031915

> <r_i_glide_gscore>
-7.01255669691776

> <r_i_glide_lipo>
-3.42522795463079

> <r_i_glide_hbond>
-0.307187555509535

> <r_i_glide_metal>
0

> <r_i_glide_rewards>
-0.931580619923295

> <r_i_glide_evdw>
-44.4153289794922

> <r_i_glide_ecoul>
-7.00141191482544

> <r_i_glide_erotb>
0.96807057621562

> <r_i_glide_esite>
-0.0456529068713293

> <r_i_glide_emodel>
-66.0002127072686

> <r_i_glide_energy>
-51.4167408943176

> <r_i_glide_einternal>
11.5137996673584

> <i_i_glide_confnum>
50

> <i_i_glide_posenum>
236

> <r_i_glide_eff_state_penalty>
0

> <s_user_duplicate_titles>
347252

> <s_m_subgroup_title>
dock_pv

> <s_m_subgroupid>
dock_pv1

> <b_m_subgroup_collapsed>
0

$$$$
425542
                    3D
 Schrodinger Suite 2021-1.
 51 52  0  0  1  0            999 V2000
   24.1998  -16.3877   24.5315 C   0  0  0  0  0  0
   25.2024  -15.4433   24.3088 C   0  0  0  0  0  0
   24.8567  -14.0918   24.3211 C   0  0  0  0  0  0
   23.5896  -13.6562   24.5323 N   0  0  0  0  0  0
   22.6164  -14.5866   24.7536 C   0  0  0  0  0  0
   22.8896  -15.9627   24.7575 C   0  0  0  0  0  0
   21.2008  -14.0385   24.9716 C   0  0  0  0  0  0
   20.6523  -13.3486   23.7028 C   0  0  0  0  0  0
   20.3094  -14.2416   22.5951 N   0  0  0  0  0  0
   19.7649  -13.5991   21.4706 C   0  0  0  0  0  0
   20.4953  -13.5992   20.2842 C   0  0  0  0  0  0
   19.9564  -13.0544   19.1213 C   0  0  0  0  0  0
   18.6649  -12.5205   19.1208 C   0  0  0  0  0  0
   17.9379  -12.4520   20.3264 C   0  0  0  0  0  0
   18.4834  -13.0266   21.4880 C   0  0  0  0  0  0
   17.7508  -13.0547   22.6260 F   0  0  0  0  0  0
   16.5572  -11.7768   20.3998 C   0  0  0  0  0  0
   15.4166  -12.6001   19.7876 C   0  0  0  0  0  0
   15.6085  -13.7206   19.3139 O   0  0  0  0  0  0
   14.2089  -12.0225   19.8407 N   0  0  0  0  0  0
   12.9471  -12.6879   19.5295 C   0  0  0  0  0  0
   12.6200  -13.8233   20.5267 C   0  0  0  0  0  0
   12.8157  -13.4310   21.8844 O   0  0  0  0  0  0
   11.7400  -12.5900   22.3209 N   0  0  0  0  0  0
   12.0610  -11.2504   22.6640 C   0  0  0  0  0  0
   12.9937  -10.5576   22.1778 N   0  0  0  0  0  0
   11.2158  -10.7440   23.6600 N   0  0  0  0  0  0
   18.0845  -12.1005   17.8471 C   0  0  0  0  0  0
   17.6235  -11.7663   16.8381 N   0  0  0  0  0  0
   21.2600  -13.1586   25.9736 F   0  0  0  0  0  0
   20.3771  -15.0097   25.3752 F   0  0  0  0  0  0
   24.4365  -17.4422   24.5339 H   0  0  0  0  0  0
   26.2257  -15.7501   24.1427 H   0  0  0  0  0  0
   25.6098  -13.3335   24.1678 H   0  0  0  0  0  0
   22.1078  -16.6898   24.9292 H   0  0  0  0  0  0
   21.3952  -12.6519   23.3267 H   0  0  0  0  0  0
   19.7897  -12.7358   23.9680 H   0  0  0  0  0  0
   21.0499  -14.8945   22.3784 H   0  0  0  0  0  0
   21.4784  -14.0466   20.2526 H   0  0  0  0  0  0
   20.5373  -13.1089   18.2102 H   0  0  0  0  0  0
   16.6053  -10.8075   19.9023 H   0  0  0  0  0  0
   16.2958  -11.5576   21.4349 H   0  0  0  0  0  0
   14.1151  -11.1667   20.3742 H   0  0  0  0  0  0
   12.9707  -13.0714   18.5089 H   0  0  0  0  0  0
   12.1614  -11.9342   19.5647 H   0  0  0  0  0  0
   13.2964  -14.6586   20.3502 H   0  0  0  0  0  0
   11.6164  -14.2188   20.3614 H   0  0  0  0  0  0
   11.1755  -13.1700   22.9405 H   0  0  0  0  0  0
   13.0240   -9.6448   22.6037 H   0  0  0  0  0  0
   11.2564   -9.7672   23.9002 H   0  0  0  0  0  0
   10.2819  -11.1230   23.7599 H   0  0  0  0  0  0
  1  6  1  0  0  0
  1  2  2  0  0  0
  1 32  1  0  0  0
  2  3  1  0  0  0
  2 33  1  0  0  0
  3  4  2  0  0  0
  3 34  1  0  0  0
  4  5  1  0  0  0
  5  6  2  0  0  0
  5  7  1  0  0  0
  6 35  1  0  0  0
  7  8  1  0  0  0
  7 30  1  0  0  0
  7 31  1  0  0  0
  8  9  1  0  0  0
  8 36  1  0  0  0
  8 37  1  0  0  0
  9 10  1  0  0  0
  9 38  1  0  0  0
 10 15  1  0  0  0
 10 11  2  0  0  0
 11 12  1  0  0  0
 11 39  1  0  0  0
 12 13  2  0  0  0
 12 40  1  0  0  0
 13 14  1  0  0  0
 13 28  1  0  0  0
 14 15  2  0  0  0
 14 17  1  0  0  0
 15 16  1  0  0  0
 17 18  1  0  0  0
 17 41  1  0  0  0
 17 42  1  0  0  0
 18 19  2  0  0  0
 18 20  1  0  0  0
 20 21  1  0  0  0
 20 43  1  0  0  0
 21 22  1  0  0  0
 21 44  1  0  0  0
 21 45  1  0  0  0
 22 23  1  0  0  0
 22 46  1  0  0  0
 22 47  1  0  0  0
 23 24  1  0  0  0
 24 25  1  0  0  0
 24 48  1  0  0  0
 25 26  2  3  0  0
 25 27  1  0  0  0
 26 49  1  0  0  0
 27 50  1  0  0  0
 27 51  1  0  0  0
 28 29  3  0  0  0
M  END
> <s_m_entry_id>
37982

> <s_m_entry_name>
ligand_docking-pose.329

> <s_m_Source_Path>
/home/csk/Desktop/cluster/DUD-E-result/thrb

> <s_m_Source_File>
ligand_docking-pose.sdf

> <i_m_Source_File_Index>
329

> <i_lp_mmshare_version>
53161

> <i_f3d_flags>
0

> <r_lp_tautomer_probability>
1

> <s_lp_Force_Field>
OPLS_2005

> <r_lp_Energy>
8.528132

> <b_lp_Chiralities_Consistent>
1

> <s_lp_Variant>
425542-1

> <s_i_glide_gridfile>
glide-grid_1ype

> <i_i_glide_lignum>
1966

> <i_i_glide_rotatable_bonds>
12

> <r_i_docking_score>
-7.01235899373911

> <r_i_glide_ligand_efficiency>
-0.226205128830294

> <r_i_glide_ligand_efficiency_sa>
-0.710596414365794

> <r_i_glide_ligand_efficiency_ln>
-1.58150185608245

> <r_i_glide_gscore>
-7.01235899373911

> <r_i_glide_lipo>
-2.61368969008164

> <r_i_glide_hbond>
-0.35958855951885

> <r_i_glide_metal>
0

> <r_i_glide_rewards>
-1.50447342412065

> <r_i_glide_evdw>
-43.8517799377441

> <r_i_glide_ecoul>
-9.6824312210083

> <r_i_glide_erotb>
1.15607640054192

> <r_i_glide_esite>
-0.0457300405214289

> <r_i_glide_emodel>
-75.1403847148858

> <r_i_glide_energy>
-53.5342111587524

> <r_i_glide_einternal>
4.10786151885986

> <i_i_glide_confnum>
115

> <i_i_glide_posenum>
58

> <r_i_glide_eff_state_penalty>
0

> <s_user_duplicate_titles>
425542

> <s_m_subgroup_title>
dock_pv

> <s_m_subgroupid>
dock_pv1

> <b_m_subgroup_collapsed>
0

$$$$
287508
                    3D
 Schrodinger Suite 2021-1.
 71 75  0  0  1  0            999 V2000
   22.3020  -13.9741   25.8276 C   0  0  0  0  0  0
   21.2593  -13.0901   25.5613 C   0  0  0  0  0  0
   20.4900  -13.2618   24.4113 C   0  0  0  0  0  0
   20.7429  -14.3350   23.5445 C   0  0  0  0  0  0
   21.8086  -15.1990   23.8173 C   0  0  0  0  0  0
   22.5895  -15.0187   24.9555 C   0  0  0  0  0  0
   19.8846  -14.6040   22.3023 C   0  0  0  0  0  0
   18.4119  -14.0870   22.3317 C   0  0  2  0  0  0
   17.6181  -14.5706   23.5663 C   0  0  0  0  0  0
   17.0120  -15.9465   23.3452 C   0  0  0  0  0  0
   16.0684  -15.8627   22.1434 C   0  0  1  0  0  0
   16.7630  -15.3998   20.9268 N   0  0  0  0  0  0
   17.7540  -14.4381   20.9538 C   0  0  0  0  0  0
   18.1753  -13.9063   19.9263 O   0  0  0  0  0  0
   16.0985  -15.9215   19.6892 C   0  0  1  0  0  0
   14.8844  -16.7778   20.1251 C   0  0  0  0  0  0
   15.3174  -17.4387   21.7289 S   0  0  0  0  0  0
   15.6118  -14.8948   18.6498 C   0  0  0  0  0  0
   15.7782  -15.1313   17.4558 O   0  0  0  0  0  0
   15.0486  -13.7733   19.1333 N   0  0  0  0  0  0
   14.6536  -12.5421   18.4356 C   0  0  2  0  0  0
   15.3521  -12.2800   17.0541 C   0  0  0  0  0  0
   14.9029  -11.0248   16.2742 C   0  0  0  0  0  0
   15.9460  -10.4559   15.2799 C   0  0  0  0  0  0
   16.2979  -11.4475   14.2774 N   0  0  0  0  0  0
   15.5632  -11.5954   13.2495 C   0  0  0  0  0  0
   15.5551  -12.7980   12.5278 N   0  0  0  0  0  0
   14.6773  -10.6535   12.6870 N   0  0  0  0  0  0
   15.0364  -11.5015   19.4845 C   0  0  0  0  0  0
   16.1873  -11.0524   19.5153 O   0  0  0  0  0  0
   14.0411  -11.0701   20.4734 C   0  0  0  0  0  0
   13.0693  -11.7884   20.9717 N   0  0  0  0  0  0
   12.4579  -11.1557   22.0147 C   0  0  0  0  0  0
   11.4584  -11.7086   22.8193 C   0  0  0  0  0  0
   10.9925  -10.9785   23.9149 C   0  0  0  0  0  0
   11.4621   -9.6954   24.1740 C   0  0  0  0  0  0
   12.4183   -9.0925   23.3598 C   0  0  0  0  0  0
   12.9299   -9.8483   22.2937 C   0  0  0  0  0  0
   14.1939   -9.4581   21.1505 S   0  0  0  0  0  0
   18.4306  -12.9962   22.3521 H   0  0  0  0  0  0
   15.2323  -15.1834   22.3237 H   0  0  0  0  0  0
   16.8206  -16.5748   19.2035 H   0  0  0  0  0  0
   22.9021  -13.8545   26.7163 H   0  0  0  0  0  0
   21.0489  -12.2755   26.2386 H   0  0  0  0  0  0
   19.6889  -12.5661   24.2178 H   0  0  0  0  0  0
   22.0257  -16.0221   23.1515 H   0  0  0  0  0  0
   23.4071  -15.6923   25.1705 H   0  0  0  0  0  0
   19.8684  -15.6838   22.1393 H   0  0  0  0  0  0
   20.4229  -14.1806   21.4514 H   0  0  0  0  0  0
   18.2205  -14.5901   24.4726 H   0  0  0  0  0  0
   16.8218  -13.8522   23.7676 H   0  0  0  0  0  0
   16.4763  -16.2684   24.2394 H   0  0  0  0  0  0
   17.7946  -16.6883   23.1743 H   0  0  0  0  0  0
   13.9348  -16.2418   20.1811 H   0  0  0  0  0  0
   14.7384  -17.6146   19.4400 H   0  0  0  0  0  0
   14.9342  -13.7308   20.1377 H   0  0  0  0  0  0
   13.5728  -12.5728   18.2921 H   0  0  0  0  0  0
   16.4382  -12.2892   17.1763 H   0  0  0  0  0  0
   15.1387  -13.1117   16.3841 H   0  0  0  0  0  0
   14.0089  -11.2698   15.7117 H   0  0  0  0  0  0
   14.5851  -10.2531   16.9598 H   0  0  0  0  0  0
   15.5804   -9.5285   14.8295 H   0  0  0  0  0  0
   16.8475  -10.1573   15.8154 H   0  0  0  0  0  0
   16.0118  -13.5660   12.9962 H   0  0  0  0  0  0
   14.6552  -13.1187   12.1970 H   0  0  0  0  0  0
   14.8672   -9.6862   12.9087 H   0  0  0  0  0  0
   14.5226  -10.7285   11.6932 H   0  0  0  0  0  0
   11.0524  -12.6809   22.6129 H   0  0  0  0  0  0
   10.2306  -11.4029   24.5505 H   0  0  0  0  0  0
   11.0507   -9.1544   25.0141 H   0  0  0  0  0  0
   12.7849   -8.0997   23.5770 H   0  0  0  0  0  0
  1  6  1  0  0  0
  1  2  2  0  0  0
  1 43  1  0  0  0
  2  3  1  0  0  0
  2 44  1  0  0  0
  3  4  2  0  0  0
  3 45  1  0  0  0
  4  5  1  0  0  0
  4  7  1  0  0  0
  5  6  2  0  0  0
  5 46  1  0  0  0
  6 47  1  0  0  0
  7  8  1  0  0  0
  7 48  1  0  0  0
  7 49  1  0  0  0
  8 40  1  0  0  0
  8 13  1  0  0  0
  8  9  1  0  0  0
  9 10  1  0  0  0
  9 50  1  0  0  0
  9 51  1  0  0  0
 10 11  1  0  0  0
 10 52  1  0  0  0
 10 53  1  0  0  0
 11 41  1  0  0  0
 11 17  1  0  0  0
 11 12  1  0  0  0
 12 13  1  0  0  0
 12 15  1  0  0  0
 13 14  2  0  0  0
 15 42  1  0  0  0
 15 16  1  0  0  0
 15 18  1  0  0  0
 16 17  1  0  0  0
 16 54  1  0  0  0
 16 55  1  0  0  0
 18 19  2  0  0  0
 18 20  1  0  0  0
 20 21  1  0  0  0
 20 56  1  0  0  0
 21 22  1  0  0  0
 21 29  1  0  0  0
 21 57  1  0  0  0
 22 23  1  0  0  0
 22 58  1  0  0  0
 22 59  1  0  0  0
 23 24  1  0  0  0
 23 60  1  0  0  0
 23 61  1  0  0  0
 24 25  1  0  0  0
 24 62  1  0  0  0
 24 63  1  0  0  0
 25 26  2  3  0  0
 26 27  1  0  0  0
 26 28  1  0  0  0
 27 64  1  0  0  0
 27 65  1  0  0  0
 28 66  1  0  0  0
 28 67  1  0  0  0
 29 30  2  0  0  0
 29 31  1  0  0  0
 31 39  1  0  0  0
 31 32  2  0  0  0
 32 33  1  0  0  0
 33 38  2  0  0  0
 33 34  1  0  0  0
 34 35  2  0  0  0
 34 68  1  0  0  0
 35 36  1  0  0  0
 35 69  1  0  0  0
 36 37  2  0  0  0
 36 70  1  0  0  0
 37 38  1  0  0  0
 37 71  1  0  0  0
 38 39  1  0  0  0
M  END
> <s_m_entry_id>
37984

> <s_m_entry_name>
ligand_docking-pose.331

> <s_m_Source_Path>
/home/csk/Desktop/cluster/DUD-E-result/thrb

> <s_m_Source_File>
ligand_docking-pose.sdf

> <i_m_Source_File_Index>
331

> <i_lp_mmshare_version>
53161

> <i_f3d_flags>
0

> <r_lp_tautomer_probability>
0.99990000499975

> <s_lp_Force_Field>
OPLS_2005

> <r_lp_Energy>
33.439006

> <b_lp_Chiralities_Consistent>
1

> <s_lp_Variant>
287508-1

> <s_i_glide_gridfile>
glide-grid_1ype

> <i_i_glide_lignum>
1019

> <i_i_glide_rotatable_bonds>
11

> <r_i_docking_score>
-7.0094370726367

> <r_i_glide_ligand_efficiency>
-0.179729155708633

> <r_i_glide_ligand_efficiency_sa>
-0.609499568738079

> <r_i_glide_ligand_efficiency_ln>
-1.50302228307712

> <r_i_glide_gscore>
-7.0094370726367

> <r_i_glide_lipo>
-3.4612849074879

> <r_i_glide_hbond>
-0.275187670371148

> <r_i_glide_metal>
0

> <r_i_glide_rewards>
-0.270227121123203

> <r_i_glide_evdw>
-49.7891693115234

> <r_i_glide_ecoul>
-6.84117937088013

> <r_i_glide_erotb>
0.568176155636389

> <r_i_glide_esite>
-0.0552781580826462

> <r_i_glide_emodel>
-74.1153847193333

> <r_i_glide_energy>
-56.6303486824036

> <r_i_glide_einternal>
18.1985301971436

> <i_i_glide_confnum>
18

> <i_i_glide_posenum>
94

> <r_i_glide_eff_state_penalty>
0

> <s_user_duplicate_titles>
287508

> <s_m_subgroup_title>
dock_pv

> <s_m_subgroupid>
dock_pv1

> <b_m_subgroup_collapsed>
0

$$$$
549352
                    3D
 Schrodinger Suite 2021-1.
 58 60  0  0  1  0            999 V2000
   19.5466  -12.6209   18.9198 C   0  0  0  0  0  0
   19.0222  -13.1297   20.2551 C   0  0  0  0  0  0
   19.8810  -13.0531   21.3441 C   0  0  0  0  0  0
   19.4486  -13.4195   22.6100 C   0  0  0  0  0  0
   18.1646  -13.9263   22.8152 C   0  0  0  0  0  0
   17.2873  -14.0229   21.7238 C   0  0  0  0  0  0
   17.7149  -13.6320   20.4327 C   0  0  0  0  0  0
   16.7524  -13.7276   19.2434 C   0  0  0  0  0  0
   15.8660  -12.4870   19.1313 C   0  0  0  0  0  0
   16.3073  -11.4546   18.6258 O   0  0  0  0  0  0
   14.6176  -12.6119   19.6012 N   0  0  0  0  0  0
   13.5870  -11.5880   19.5388 C   0  0  0  0  0  0
   12.9534  -11.3225   20.8961 C   0  0  0  0  0  0
   12.0163  -12.2318   21.3941 C   0  0  0  0  0  0
   11.3065  -11.9275   22.5527 C   0  0  0  0  0  0
   11.5618  -10.7235   23.2002 C   0  0  0  0  0  0
   12.4997   -9.8475   22.7695 N   0  0  0  0  0  0
   13.1933  -10.1551   21.6410 C   0  0  0  0  0  0
   14.2559   -9.1490   21.2430 C   0  0  0  0  0  0
   10.8181  -10.3753   24.3210 N   0  0  0  0  0  0
   16.0055  -14.4843   21.9197 O   0  0  0  0  0  0
   17.7791  -14.2915   24.1168 N   0  0  0  0  0  0
   18.6015  -15.6151   24.9669 S   0  0  0  0  0  0
   17.9696  -15.7170   26.2867 O   0  0  0  0  0  0
   18.6003  -16.7636   24.0540 O   0  0  0  0  0  0
   20.2805  -15.0102   25.2414 C   0  0  0  0  0  0
   20.3726  -13.9387   26.1359 C   0  0  0  0  0  0
   21.5751  -13.2708   26.3223 C   0  0  0  0  0  0
   22.7093  -13.6837   25.6320 C   0  0  0  0  0  0
   22.6506  -14.7598   24.7510 C   0  0  0  0  0  0
   21.4339  -15.4406   24.5411 C   0  0  0  0  0  0
   21.3728  -16.5940   23.5428 C   0  0  0  0  0  0
   24.1145  -15.1762   23.9221 Cl  0  0  0  0  0  0
   20.3753  -11.9213   19.0554 H   0  0  0  0  0  0
   19.8991  -13.4531   18.3145 H   0  0  0  0  0  0
   18.7841  -12.0791   18.3611 H   0  0  0  0  0  0
   20.8816  -12.6655   21.2223 H   0  0  0  0  0  0
   20.1291  -13.2670   23.4306 H   0  0  0  0  0  0
   16.1409  -14.6255   19.3397 H   0  0  0  0  0  0
   17.2811  -13.8532   18.2997 H   0  0  0  0  0  0
   14.3502  -13.4938   20.0133 H   0  0  0  0  0  0
   12.8165  -11.9481   18.8584 H   0  0  0  0  0  0
   13.9404  -10.6595   19.0893 H   0  0  0  0  0  0
   11.7944  -13.1493   20.8664 H   0  0  0  0  0  0
   10.5601  -12.6208   22.9165 H   0  0  0  0  0  0
   13.9474   -8.6504   20.3275 H   0  0  0  0  0  0
   14.4187   -8.3960   22.0155 H   0  0  0  0  0  0
   15.2085   -9.6458   21.0610 H   0  0  0  0  0  0
    9.9679  -10.8894   24.5438 H   0  0  0  0  0  0
   10.9491   -9.4584   24.7166 H   0  0  0  0  0  0
   15.7723  -14.6544   22.8381 H   0  0  0  0  0  0
   16.7878  -14.2524   24.3221 H   0  0  0  0  0  0
   19.4955  -13.5934   26.6672 H   0  0  0  0  0  0
   21.6165  -12.4309   27.0002 H   0  0  0  0  0  0
   23.6447  -13.1663   25.7828 H   0  0  0  0  0  0
   22.3290  -16.8435   23.0848 H   0  0  0  0  0  0
   21.0134  -17.4983   24.0373 H   0  0  0  0  0  0
   20.6848  -16.3520   22.7316 H   0  0  0  0  0  0
  1  2  1  0  0  0
  1 34  1  0  0  0
  1 35  1  0  0  0
  1 36  1  0  0  0
  2  7  1  0  0  0
  2  3  2  0  0  0
  3  4  1  0  0  0
  3 37  1  0  0  0
  4  5  2  0  0  0
  4 38  1  0  0  0
  5  6  1  0  0  0
  5 22  1  0  0  0
  6  7  2  0  0  0
  6 21  1  0  0  0
  7  8  1  0  0  0
  8  9  1  0  0  0
  8 39  1  0  0  0
  8 40  1  0  0  0
  9 10  2  0  0  0
  9 11  1  0  0  0
 11 12  1  0  0  0
 11 41  1  0  0  0
 12 13  1  0  0  0
 12 42  1  0  0  0
 12 43  1  0  0  0
 13 18  1  0  0  0
 13 14  2  0  0  0
 14 15  1  0  0  0
 14 44  1  0  0  0
 15 16  2  0  0  0
 15 45  1  0  0  0
 16 17  1  0  0  0
 16 20  1  0  0  0
 17 18  2  0  0  0
 18 19  1  0  0  0
 19 46  1  0  0  0
 19 47  1  0  0  0
 19 48  1  0  0  0
 20 49  1  0  0  0
 20 50  1  0  0  0
 21 51  1  0  0  0
 22 23  1  0  0  0
 22 52  1  0  0  0
 23 24  2  0  0  0
 23 25  2  0  0  0
 23 26  1  0  0  0
 26 31  1  0  0  0
 26 27  2  0  0  0
 27 28  1  0  0  0
 27 53  1  0  0  0
 28 29  2  0  0  0
 28 54  1  0  0  0
 29 30  1  0  0  0
 29 55  1  0  0  0
 30 31  2  0  0  0
 30 33  1  0  0  0
 31 32  1  0  0  0
 32 56  1  0  0  0
 32 57  1  0  0  0
 32 58  1  0  0  0
M  END
> <s_m_entry_id>
37985

> <s_m_entry_name>
ligand_docking-pose.332

> <s_m_Source_Path>
/home/csk/Desktop/cluster/DUD-E-result/thrb

> <s_m_Source_File>
ligand_docking-pose.sdf

> <i_m_Source_File_Index>
332

> <i_lp_mmshare_version>
53161

> <i_f3d_flags>
0

> <r_lp_tautomer_probability>
0.999999772200052

> <s_lp_Force_Field>
OPLS_2005

> <r_lp_Energy>
11.50214

> <b_lp_Chiralities_Consistent>
1

> <s_lp_Variant>
549352-1

> <s_i_glide_gridfile>
glide-grid_1ype

> <i_i_glide_lignum>
2364

> <i_i_glide_rotatable_bonds>
9

> <r_i_docking_score>
-7.00715017631455

> <r_i_glide_ligand_efficiency>
-0.212337884130744

> <r_i_glide_ligand_efficiency_sa>
-0.681081052114236

> <r_i_glide_ligand_efficiency_ln>
-1.55835391813047

> <r_i_glide_gscore>
-7.00715017631455

> <r_i_glide_lipo>
-3.58294347764587

> <r_i_glide_hbond>
-0.681531664229901

> <r_i_glide_metal>
0

> <r_i_glide_rewards>
0.133823886695042

> <r_i_glide_evdw>
-48.5212707519531

> <r_i_glide_ecoul>
-7.02824592590332

> <r_i_glide_erotb>
0.680537264341295

> <r_i_glide_esite>
-0.0767357589919603

> <r_i_glide_emodel>
-73.6034759053158

> <r_i_glide_energy>
-55.5495166778564

> <r_i_glide_einternal>
9.228684425354

> <i_i_glide_confnum>
51

> <i_i_glide_posenum>
266

> <r_i_glide_eff_state_penalty>
0

> <s_user_duplicate_titles>
549352

> <s_m_subgroup_title>
dock_pv

> <s_m_subgroupid>
dock_pv1

> <b_m_subgroup_collapsed>
0

$$$$
470960
                    3D
 Schrodinger Suite 2021-1.
 70 73  0  0  1  0            999 V2000
   15.9707  -17.1505   19.8009 C   0  0  0  0  0  0
   15.7920  -18.1735   20.9338 C   0  0  0  0  0  0
   16.0421  -17.5884   22.2084 O   0  0  0  0  0  0
   17.3053  -17.4313   22.6714 C   0  0  0  0  0  0
   18.3490  -17.7829   22.1146 O   0  0  0  0  0  0
   17.3438  -16.6758   24.0601 C   0  0  0  0  0  0
   16.9591  -17.2982   25.0551 O   0  0  0  0  0  0
   17.9091  -15.4224   24.0709 N   0  0  0  0  0  0
   18.2399  -14.8425   25.3971 C   0  0  0  0  0  0
   19.7292  -14.7276   25.7023 C   0  0  0  0  0  0
   20.2486  -13.4947   26.1001 C   0  0  0  0  0  0
   21.6219  -13.3215   26.2052 C   0  0  0  0  0  0
   22.4781  -14.3836   25.9213 C   0  0  0  0  0  0
   21.9667  -15.6299   25.5644 C   0  0  0  0  0  0
   20.5886  -15.8074   25.4701 C   0  0  0  0  0  0
   18.1911  -14.6416   22.9038 C   0  0  0  0  0  0
   19.4529  -14.0598   22.7050 C   0  0  0  0  0  0
   19.7310  -13.3023   21.5743 C   0  0  0  0  0  0
   18.7729  -13.1310   20.5743 C   0  0  0  0  0  0
   17.5078  -13.7224   20.7563 C   0  0  0  0  0  0
   17.2120  -14.4368   21.9176 C   0  0  0  0  0  0
   16.5408  -13.7625   19.7706 O   0  0  0  0  0  0
   16.6222  -12.7716   18.7382 C   0  0  1  0  0  0
   18.1004  -12.5236   18.3353 C   0  0  0  0  0  0
   19.0185  -12.3326   19.4581 N   0  0  0  0  0  0
   20.3701  -12.0915   18.9459 C   0  0  0  0  0  0
   15.8887  -13.3773   17.5228 C   0  0  0  0  0  0
   15.9802  -11.4716   19.2732 C   0  0  0  0  0  0
   14.5791  -11.7043   19.4295 O   0  0  0  0  0  0
   13.9121  -11.1288   20.4846 C   0  0  0  0  0  0
   14.3217   -9.9514   21.1133 C   0  0  0  0  0  0
   13.5985   -9.4492   22.1846 C   0  0  0  0  0  0
   12.4627  -10.1130   22.6799 C   0  0  0  0  0  0
   12.0514  -11.2825   22.0107 C   0  0  0  0  0  0
   12.7625  -11.7747   20.9226 C   0  0  0  0  0  0
   11.7519   -9.5848   23.8747 C   0  0  0  0  0  0
   12.0159   -8.4415   24.3369 N   0  0  0  0  0  0
   10.8160  -10.4378   24.3899 N   0  0  0  0  0  0
   15.7369  -17.5968   18.8343 H   0  0  0  0  0  0
   15.3125  -16.2921   19.9384 H   0  0  0  0  0  0
   16.9950  -16.7811   19.7556 H   0  0  0  0  0  0
   16.4292  -19.0448   20.7727 H   0  0  0  0  0  0
   14.7643  -18.5378   20.9293 H   0  0  0  0  0  0
   17.7904  -15.3976   26.2224 H   0  0  0  0  0  0
   17.7862  -13.8535   25.4401 H   0  0  0  0  0  0
   19.6003  -12.6530   26.2830 H   0  0  0  0  0  0
   22.0156  -12.3570   26.4871 H   0  0  0  0  0  0
   23.5473  -14.2455   25.9989 H   0  0  0  0  0  0
   22.6358  -16.4523   25.3584 H   0  0  0  0  0  0
   20.1940  -16.7647   25.1612 H   0  0  0  0  0  0
   20.2672  -14.1910   23.3931 H   0  0  0  0  0  0
   20.7152  -12.8698   21.4809 H   0  0  0  0  0  0
   16.2254  -14.8646   22.0281 H   0  0  0  0  0  0
   18.4670  -13.4529   17.9210 H   0  0  0  0  0  0
   18.2369  -11.8070   17.5251 H   0  0  0  0  0  0
   20.8481  -13.0337   18.6720 H   0  0  0  0  0  0
   20.3761  -11.4526   18.0642 H   0  0  0  0  0  0
   20.9918  -11.6052   19.6978 H   0  0  0  0  0  0
   15.8576  -12.6821   16.6836 H   0  0  0  0  0  0
   16.3683  -14.2962   17.1830 H   0  0  0  0  0  0
   14.8592  -13.6381   17.7711 H   0  0  0  0  0  0
   16.4690  -11.1903   20.2080 H   0  0  0  0  0  0
   16.1431  -10.6536   18.5734 H   0  0  0  0  0  0
   15.1950   -9.4152   20.7722 H   0  0  0  0  0  0
   13.9693   -8.5469   22.6490 H   0  0  0  0  0  0
   11.1759  -11.8362   22.3193 H   0  0  0  0  0  0
   12.4336  -12.6792   20.4321 H   0  0  0  0  0  0
   12.7421   -7.9697   23.8253 H   0  0  0  0  0  0
   10.1590  -10.0863   25.0827 H   0  0  0  0  0  0
   10.5406  -11.2683   23.8911 H   0  0  0  0  0  0
  1  2  1  0  0  0
  1 39  1  0  0  0
  1 40  1  0  0  0
  1 41  1  0  0  0
  2  3  1  0  0  0
  2 42  1  0  0  0
  2 43  1  0  0  0
  3  4  1  0  0  0
  4  5  2  0  0  0
  4  6  1  0  0  0
  6  7  2  0  0  0
  6  8  1  0  0  0
  8  9  1  0  0  0
  8 16  1  0  0  0
  9 10  1  0  0  0
  9 44  1  0  0  0
  9 45  1  0  0  0
 10 15  1  0  0  0
 10 11  2  0  0  0
 11 12  1  0  0  0
 11 46  1  0  0  0
 12 13  2  0  0  0
 12 47  1  0  0  0
 13 14  1  0  0  0
 13 48  1  0  0  0
 14 15  2  0  0  0
 14 49  1  0  0  0
 15 50  1  0  0  0
 16 21  1  0  0  0
 16 17  2  0  0  0
 17 18  1  0  0  0
 17 51  1  0  0  0
 18 19  2  0  0  0
 18 52  1  0  0  0
 19 25  1  0  0  0
 19 20  1  0  0  0
 20 21  2  0  0  0
 20 22  1  0  0  0
 21 53  1  0  0  0
 22 23  1  0  0  0
 23 24  1  0  0  0
 23 27  1  0  0  0
 23 28  1  0  0  0
 24 25  1  0  0  0
 24 54  1  0  0  0
 24 55  1  0  0  0
 25 26  1  0  0  0
 26 56  1  0  0  0
 26 57  1  0  0  0
 26 58  1  0  0  0
 27 59  1  0  0  0
 27 60  1  0  0  0
 27 61  1  0  0  0
 28 29  1  0  0  0
 28 62  1  0  0  0
 28 63  1  0  0  0
 29 30  1  0  0  0
 30 35  1  0  0  0
 30 31  2  0  0  0
 31 32  1  0  0  0
 31 64  1  0  0  0
 32 33  2  0  0  0
 32 65  1  0  0  0
 33 34  1  0  0  0
 33 36  1  0  0  0
 34 35  2  0  0  0
 34 66  1  0  0  0
 35 67  1  0  0  0
 36 37  2  3  0  0
 36 38  1  0  0  0
 37 68  1  0  0  0
 38 69  1  0  0  0
 38 70  1  0  0  0
M  END
> <s_m_entry_id>
37986

> <s_m_entry_name>
ligand_docking-pose.333

> <s_m_Source_Path>
/home/csk/Desktop/cluster/DUD-E-result/thrb

> <s_m_Source_File>
ligand_docking-pose.sdf

> <i_m_Source_File_Index>
333

> <i_lp_mmshare_version>
53161

> <i_f3d_flags>
0

> <r_lp_tautomer_probability>
1

> <s_lp_Force_Field>
OPLS_2005

> <r_lp_Energy>
48.213503

> <b_lp_Chiralities_Consistent>
1

> <s_lp_Variant>
470960-2

> <s_i_glide_gridfile>
glide-grid_1ype

> <i_i_glide_lignum>
4036

> <i_i_glide_rotatable_bonds>
11

> <r_i_docking_score>
-7.00669029147083

> <r_i_glide_ligand_efficiency>
-0.184386586617653

> <r_i_glide_ligand_efficiency_sa>
-0.619903168800507

> <r_i_glide_ligand_efficiency_ln>
-1.5108485427868

> <r_i_glide_gscore>
-7.00669029147083

> <r_i_glide_lipo>
-4.1327983732636

> <r_i_glide_hbond>
-0.159189328849638

> <r_i_glide_metal>
0

> <r_i_glide_rewards>
0.0499718619571453

> <r_i_glide_evdw>
-50.8101959228516

> <r_i_glide_ecoul>
-5.52416467666626

> <r_i_glide_erotb>
0.692259515140937

> <r_i_glide_esite>
-0.0877994688131565

> <r_i_glide_emodel>
-73.1925796814493

> <r_i_glide_energy>
-56.3343605995178

> <r_i_glide_einternal>
7.99445772171021

> <i_i_glide_confnum>
19

> <i_i_glide_posenum>
219

> <r_i_glide_eff_state_penalty>
0

> <s_user_duplicate_titles>
470960

> <s_m_subgroup_title>
dock_pv

> <s_m_subgroupid>
dock_pv1

> <b_m_subgroup_collapsed>
0

$$$$
133252
                    3D
 Schrodinger Suite 2021-1.
 52 55  0  0  1  0            999 V2000
   21.1631  -12.6278   19.5169 C   0  0  0  0  0  0
   20.5541  -13.1028   20.7474 N   0  0  0  0  0  0
   21.2134  -13.6122   21.8365 C   0  0  0  0  0  0
   20.2420  -13.8281   22.7961 C   0  0  0  0  0  0
   19.0517  -13.4530   22.3702 N   0  0  0  0  0  0
   19.2309  -13.0257   21.1365 C   0  0  0  0  0  0
   18.1225  -12.4849   20.2951 C   0  0  0  0  0  0
   18.0086  -12.7992   18.9367 C   0  0  0  0  0  0
   16.9584  -12.2903   18.1739 C   0  0  0  0  0  0
   16.0160  -11.4530   18.7666 C   0  0  0  0  0  0
   16.1179  -11.1307   20.1213 C   0  0  0  0  0  0
   17.1671  -11.6498   20.8770 C   0  0  0  0  0  0
   15.2151  -10.2842   20.7210 O   0  0  0  0  0  0
   14.0016  -10.7515   21.1802 C   0  0  0  0  0  0
   13.3317   -9.9955   22.1373 C   0  0  0  0  0  0
   12.2201  -10.5474   22.7818 C   0  0  0  0  0  0
   11.7399  -11.7925   22.3439 C   0  0  0  0  0  0
   12.4377  -12.4832   21.3566 C   0  0  0  0  0  0
   13.5654  -11.9789   20.7844 N   0  0  0  0  0  0
   12.0160  -13.7524   21.0038 O   0  0  0  0  0  0
   12.8697  -14.6809   20.4395 C   0  0  0  0  0  0
   14.1093  -14.9558   21.0315 C   0  0  0  0  0  0
   15.0130  -15.8889   20.4881 C   0  0  0  0  0  0
   14.6014  -16.5589   19.3191 C   0  0  0  0  0  0
   13.3553  -16.3239   18.7391 C   0  0  0  0  0  0
   12.4838  -15.3961   19.3018 C   0  0  0  0  0  0
   11.2576  -15.2020   18.7210 O   0  0  0  0  0  0
   16.3471  -16.1577   21.1027 C   0  0  0  0  0  0
   17.2007  -16.8793   20.5203 N   0  0  0  0  0  0
   16.5587  -15.5607   22.3210 N   0  0  0  0  0  0
   11.6160   -9.8530   23.9741 C   0  0  0  0  0  0
   11.8701   -8.6876   24.2786 O   0  0  0  0  0  0
   10.8160  -10.6532   24.7210 O   0  0  0  0  0  0
   22.1617  -12.2530   19.7256 H   0  0  0  0  0  0
   21.2160  -13.4525   18.8059 H   0  0  0  0  0  0
   20.5732  -11.8173   19.0910 H   0  0  0  0  0  0
   22.2818  -13.7640   21.8325 H   0  0  0  0  0  0
   20.3946  -14.2250   23.7895 H   0  0  0  0  0  0
   18.7289  -13.4530   18.4712 H   0  0  0  0  0  0
   16.8706  -12.5488   17.1291 H   0  0  0  0  0  0
   15.2019  -11.0542   18.1805 H   0  0  0  0  0  0
   17.2462  -11.3913   21.9210 H   0  0  0  0  0  0
   13.7460   -9.0482   22.4526 H   0  0  0  0  0  0
   10.8754  -12.2567   22.7998 H   0  0  0  0  0  0
   14.3595  -14.3986   21.9218 H   0  0  0  0  0  0
   15.2370  -17.2908   18.8422 H   0  0  0  0  0  0
   13.0716  -16.8681   17.8493 H   0  0  0  0  0  0
   11.1179  -15.7663   17.9566 H   0  0  0  0  0  0
   16.8732  -17.2315   19.6353 H   0  0  0  0  0  0
   17.4604  -15.6725   22.7577 H   0  0  0  0  0  0
   15.8128  -15.1265   22.8499 H   0  0  0  0  0  0
   10.2081  -10.1718   25.2981 H   0  0  0  0  0  0
  1  2  1  0  0  0
  1 34  1  0  0  0
  1 35  1  0  0  0
  1 36  1  0  0  0
  2  6  1  0  0  0
  2  3  1  0  0  0
  3  4  2  0  0  0
  3 37  1  0  0  0
  4  5  1  0  0  0
  4 38  1  0  0  0
  5  6  2  0  0  0
  6  7  1  0  0  0
  7 12  1  0  0  0
  7  8  2  0  0  0
  8  9  1  0  0  0
  8 39  1  0  0  0
  9 10  2  0  0  0
  9 40  1  0  0  0
 10 11  1  0  0  0
 10 41  1  0  0  0
 11 12  2  0  0  0
 11 13  1  0  0  0
 12 42  1  0  0  0
 13 14  1  0  0  0
 14 19  1  0  0  0
 14 15  2  0  0  0
 15 16  1  0  0  0
 15 43  1  0  0  0
 16 17  2  0  0  0
 16 31  1  0  0  0
 17 18  1  0  0  0
 17 44  1  0  0  0
 18 19  2  0  0  0
 18 20  1  0  0  0
 20 21  1  0  0  0
 21 26  1  0  0  0
 21 22  2  0  0  0
 22 23  1  0  0  0
 22 45  1  0  0  0
 23 24  2  0  0  0
 23 28  1  0  0  0
 24 25  1  0  0  0
 24 46  1  0  0  0
 25 26  2  0  0  0
 25 47  1  0  0  0
 26 27  1  0  0  0
 27 48  1  0  0  0
 28 29  2  3  0  0
 28 30  1  0  0  0
 29 49  1  0  0  0
 30 50  1  0  0  0
 30 51  1  0  0  0
 31 32  2  0  0  0
 31 33  1  0  0  0
 33 52  1  0  0  0
M  END
> <s_m_entry_id>
37987

> <s_m_entry_name>
ligand_docking-pose.334

> <s_m_Source_Path>
/home/csk/Desktop/cluster/DUD-E-result/thrb

> <s_m_Source_File>
ligand_docking-pose.sdf

> <i_m_Source_File_Index>
334

> <i_lp_mmshare_version>
53161

> <i_f3d_flags>
0

> <r_lp_tautomer_probability>
1

> <s_lp_Force_Field>
OPLS_2005

> <r_lp_Energy>
20.627757

> <b_lp_Chiralities_Consistent>
1

> <s_lp_Variant>
133252-2

> <s_i_glide_gridfile>
glide-grid_1ype

> <i_i_glide_lignum>
4215

> <i_i_glide_rotatable_bonds>
9

> <r_i_docking_score>
-6.99550310573529

> <r_i_glide_ligand_efficiency>
-0.211984942598039

> <r_i_glide_ligand_efficiency_sa>
-0.679948980032923

> <r_i_glide_ligand_efficiency_ln>
-1.55576366993894

> <r_i_glide_gscore>
-6.99550310573529

> <r_i_glide_lipo>
-2.92143173226628

> <r_i_glide_hbond>
-0.305233567223884

> <r_i_glide_metal>
0

> <r_i_glide_rewards>
-1.00191422066383

> <r_i_glide_evdw>
-48.8382835388184

> <r_i_glide_ecoul>
-6.04180335998535

> <r_i_glide_erotb>
0.605066834308393

> <r_i_glide_esite>
-0.0238057389509748

> <r_i_glide_emodel>
-75.8482028208909

> <r_i_glide_energy>
-54.8800868988037

> <r_i_glide_einternal>
6.17708921432495

> <i_i_glide_confnum>
19

> <i_i_glide_posenum>
218

> <r_i_glide_eff_state_penalty>
0

> <s_user_duplicate_titles>
133252

> <s_m_subgroup_title>
dock_pv

> <s_m_subgroupid>
dock_pv1

> <b_m_subgroup_collapsed>
0

$$$$
192814
                    3D
 Schrodinger Suite 2021-1.
 57 59  0  0  1  0            999 V2000
   19.2397  -12.5631   18.7706 C   0  0  0  0  0  0
   17.9435  -12.9052   19.4990 C   0  0  0  0  0  0
   16.7520  -12.3592   19.1371 C   0  0  0  0  0  0
   15.5790  -12.6433   19.7760 N   0  0  0  0  0  0
   15.6287  -13.4129   20.8117 C   0  0  0  0  0  0
   16.8685  -14.0935   21.3136 C   0  0  0  0  0  0
   16.8664  -14.8779   22.2731 O   0  0  0  0  0  0
   18.0114  -13.7951   20.5760 N   0  0  0  0  0  0
   19.2651  -14.4918   20.9700 C   0  0  0  0  0  0
   19.9573  -13.8552   22.1875 C   0  0  0  0  0  0
   19.3783  -13.0556   22.9210 O   0  0  0  0  0  0
   21.2135  -14.2682   22.4066 N   0  0  0  0  0  0
   22.0314  -13.9166   23.5691 C   0  0  0  0  0  0
   22.3247  -15.1201   24.4766 C   0  0  0  0  0  0
   21.2973  -16.0355   24.7521 C   0  0  0  0  0  0
   21.5365  -17.1700   25.5229 C   0  0  0  0  0  0
   22.8082  -17.3997   26.0441 C   0  0  0  0  0  0
   23.8365  -16.4981   25.7876 C   0  0  0  0  0  0
   23.6123  -15.3636   24.9990 C   0  0  0  0  0  0
   24.7907  -14.4436   24.7206 C   0  0  0  0  0  0
   25.2898  -14.6725   23.3776 N   0  0  0  0  0  0
   20.2567  -18.2826   25.8458 Cl  0  0  0  0  0  0
   14.4607  -13.6880   21.5211 N   0  0  0  0  0  0
   13.0904  -13.5728   21.0149 C   0  0  0  0  0  0
   12.5808  -12.1576   20.6540 C   0  0  0  0  0  0
   12.3788  -11.2164   21.8312 C   0  0  0  0  0  0
   13.0697  -10.0044   21.8872 C   0  0  0  0  0  0
   12.8268   -9.1148   22.9310 C   0  0  0  0  0  0
   11.9068   -9.4472   23.9209 C   0  0  0  0  0  0
   11.2157  -10.6534   23.8725 C   0  0  0  0  0  0
   11.4513  -11.5370   22.8243 C   0  0  0  0  0  0
   19.0630  -11.8529   17.9634 H   0  0  0  0  0  0
   19.9590  -12.1161   19.4565 H   0  0  0  0  0  0
   19.6877  -13.4494   18.3214 H   0  0  0  0  0  0
   16.6881  -11.6719   18.3052 H   0  0  0  0  0  0
   19.9550  -14.5831   20.1336 H   0  0  0  0  0  0
   19.0385  -15.5287   21.2260 H   0  0  0  0  0  0
   21.6481  -14.8910   21.7395 H   0  0  0  0  0  0
   21.5673  -13.1471   24.1904 H   0  0  0  0  0  0
   22.9390  -13.4624   23.1762 H   0  0  0  0  0  0
   20.3033  -15.8693   24.3589 H   0  0  0  0  0  0
   22.9960  -18.2728   26.6531 H   0  0  0  0  0  0
   24.8173  -16.6869   26.2018 H   0  0  0  0  0  0
   24.4889  -13.4025   24.8429 H   0  0  0  0  0  0
   25.5886  -14.6263   25.4457 H   0  0  0  0  0  0
   25.9731  -13.9540   23.1427 H   0  0  0  0  0  0
   25.8235  -15.5329   23.3980 H   0  0  0  0  0  0
   14.5678  -14.2292   22.3762 H   0  0  0  0  0  0
   13.0488  -14.1731   20.1041 H   0  0  0  0  0  0
   12.3955  -14.0618   21.7003 H   0  0  0  0  0  0
   13.2143  -11.6880   19.9041 H   0  0  0  0  0  0
   11.6163  -12.2622   20.1610 H   0  0  0  0  0  0
   13.7890   -9.7449   21.1265 H   0  0  0  0  0  0
   13.3684   -8.1824   22.9885 H   0  0  0  0  0  0
   11.7216   -8.7583   24.7325 H   0  0  0  0  0  0
   10.4810  -10.8922   24.6292 H   0  0  0  0  0  0
   10.8899  -12.4570   22.7710 H   0  0  0  0  0  0
  1  2  1  0  0  0
  1 32  1  0  0  0
  1 33  1  0  0  0
  1 34  1  0  0  0
  2  8  1  0  0  0
  2  3  2  0  0  0
  3  4  1  0  0  0
  3 35  1  0  0  0
  4  5  2  0  0  0
  5  6  1  0  0  0
  5 23  1  0  0  0
  6  7  2  0  0  0
  6  8  1  0  0  0
  8  9  1  0  0  0
  9 10  1  0  0  0
  9 36  1  0  0  0
  9 37  1  0  0  0
 10 11  2  0  0  0
 10 12  1  0  0  0
 12 13  1  0  0  0
 12 38  1  0  0  0
 13 14  1  0  0  0
 13 39  1  0  0  0
 13 40  1  0  0  0
 14 19  1  0  0  0
 14 15  2  0  0  0
 15 16  1  0  0  0
 15 41  1  0  0  0
 16 17  2  0  0  0
 16 22  1  0  0  0
 17 18  1  0  0  0
 17 42  1  0  0  0
 18 19  2  0  0  0
 18 43  1  0  0  0
 19 20  1  0  0  0
 20 21  1  0  0  0
 20 44  1  0  0  0
 20 45  1  0  0  0
 21 46  1  0  0  0
 21 47  1  0  0  0
 23 24  1  0  0  0
 23 48  1  0  0  0
 24 25  1  0  0  0
 24 49  1  0  0  0
 24 50  1  0  0  0
 25 26  1  0  0  0
 25 51  1  0  0  0
 25 52  1  0  0  0
 26 31  1  0  0  0
 26 27  2  0  0  0
 27 28  1  0  0  0
 27 53  1  0  0  0
 28 29  2  0  0  0
 28 54  1  0  0  0
 29 30  1  0  0  0
 29 55  1  0  0  0
 30 31  2  0  0  0
 30 56  1  0  0  0
 31 57  1  0  0  0
M  END
> <s_m_entry_id>
37988

> <s_m_entry_name>
ligand_docking-pose.335

> <s_m_Source_Path>
/home/csk/Desktop/cluster/DUD-E-result/thrb

> <s_m_Source_File>
ligand_docking-pose.sdf

> <i_m_Source_File_Index>
335

> <i_lp_mmshare_version>
53161

> <i_f3d_flags>
0

> <r_lp_tautomer_probability>
1

> <s_lp_Force_Field>
OPLS_2005

> <r_lp_Energy>
23.267499

> <b_lp_Chiralities_Consistent>
1

> <s_lp_Variant>
192814-1

> <s_i_glide_gridfile>
glide-grid_1ype

> <i_i_glide_lignum>
3034

> <i_i_glide_rotatable_bonds>
10

> <r_i_docking_score>
-6.99395988431196

> <r_i_glide_ligand_efficiency>
-0.225611609171353

> <r_i_glide_ligand_efficiency_sa>
-0.708731943194519

> <r_i_glide_ligand_efficiency_ln>
-1.57735229304164

> <r_i_glide_gscore>
-6.99395988431196

> <r_i_glide_lipo>
-2.59329396925105

> <r_i_glide_hbond>
-0.866193689754154

> <r_i_glide_metal>
0

> <r_i_glide_rewards>
-0.714691273065627

> <r_i_glide_evdw>
-42.7709770202637

> <r_i_glide_ecoul>
-10.0424032211304

> <r_i_glide_erotb>
0.825128381941615

> <r_i_glide_esite>
0

> <r_i_glide_emodel>
-70.5311169363483

> <r_i_glide_energy>
-52.813380241394

> <r_i_glide_einternal>
8.68879508972168

> <i_i_glide_confnum>
35

> <i_i_glide_posenum>
150

> <r_i_glide_eff_state_penalty>
0

> <s_user_duplicate_titles>
192814

> <s_m_subgroup_title>
dock_pv

> <s_m_subgroupid>
dock_pv1

> <b_m_subgroup_collapsed>
0

$$$$
53045
                    3D
 Schrodinger Suite 2021-1.
 56 58  0  0  1  0            999 V2000
   21.1196  -12.9966   18.5248 C   0  0  0  0  0  0
   19.9015  -12.7800   19.3918 C   0  0  0  0  0  0
   19.9491  -13.0881   20.7496 C   0  0  0  0  0  0
   18.8447  -12.8369   21.5809 C   0  0  0  0  0  0
   17.6824  -12.3033   21.0128 C   0  0  0  0  0  0
   17.6229  -12.0207   19.6476 C   0  0  0  0  0  0
   18.7373  -12.2519   18.8450 C   0  0  0  0  0  0
   16.5095  -11.4504   19.0951 O   0  0  0  0  0  0
   15.5596  -12.3717   18.0711 S   0  0  0  0  0  0
   14.8148  -11.4535   17.2051 O   0  0  0  0  0  0
   16.3594  -13.4627   17.5011 O   0  0  0  0  0  0
   14.4137  -13.0494   19.2794 C   0  0  0  0  0  0
   14.2055  -14.4307   19.2806 C   0  0  0  0  0  0
   13.3368  -15.0067   20.1989 C   0  0  0  0  0  0
   12.6694  -14.2059   21.1205 C   0  0  0  0  0  0
   12.8413  -12.8189   21.1365 C   0  0  0  0  0  0
   13.7145  -12.2361   20.1905 C   0  0  0  0  0  0
   13.9251  -10.8393   20.1762 N   0  0  0  0  0  0
   13.4449  -10.0067   21.2784 C   0  0  0  0  0  0
   12.0682  -10.4920   21.7598 C   0  0  0  0  0  0
   12.1185  -11.9703   22.1781 C   0  0  0  0  0  0
   18.8415  -13.0531   22.9475 O   0  0  0  0  0  0
   20.0349  -13.4841   23.6003 C   0  0  0  0  0  0
   20.0240  -13.0358   25.0703 C   0  0  0  0  0  0
   21.1420  -13.6853   25.8996 C   0  0  0  0  0  0
   22.3991  -13.4567   25.2633 O   0  0  0  0  0  0
   23.2025  -14.6089   25.3899 N   0  0  0  0  0  0
   24.2753  -14.5328   24.7208 C   0  0  0  0  0  0
   25.2167  -15.5759   24.7187 N   0  0  0  0  0  0
   24.6952  -13.4530   23.9210 N   0  0  0  0  0  0
   21.0631  -12.4404   17.5872 H   0  0  0  0  0  0
   22.0151  -12.6553   19.0461 H   0  0  0  0  0  0
   21.2162  -14.0600   18.3072 H   0  0  0  0  0  0
   20.8583  -13.5187   21.1389 H   0  0  0  0  0  0
   16.8276  -12.0920   21.6388 H   0  0  0  0  0  0
   18.6904  -12.0122   17.7932 H   0  0  0  0  0  0
   14.7171  -15.0659   18.5711 H   0  0  0  0  0  0
   13.1862  -16.0774   20.2025 H   0  0  0  0  0  0
   12.0155  -14.6741   21.8402 H   0  0  0  0  0  0
   14.7741  -10.5058   19.7352 H   0  0  0  0  0  0
   14.1801  -10.1267   22.0746 H   0  0  0  0  0  0
   13.4394   -8.9576   20.9897 H   0  0  0  0  0  0
   11.7210   -9.8800   22.5916 H   0  0  0  0  0  0
   11.3363  -10.3542   20.9634 H   0  0  0  0  0  0
   11.1097  -12.3475   22.3570 H   0  0  0  0  0  0
   12.6563  -12.0591   23.1213 H   0  0  0  0  0  0
   20.9344  -13.0579   23.1480 H   0  0  0  0  0  0
   20.1014  -14.5721   23.5216 H   0  0  0  0  0  0
   19.0606  -13.2752   25.5209 H   0  0  0  0  0  0
   20.1214  -11.9523   25.1136 H   0  0  0  0  0  0
   20.9058  -14.7473   26.0290 H   0  0  0  0  0  0
   21.1709  -13.2581   26.9031 H   0  0  0  0  0  0
   25.0598  -16.2933   25.4090 H   0  0  0  0  0  0
   26.1960  -15.3247   24.7173 H   0  0  0  0  0  0
   24.1838  -12.5909   24.0396 H   0  0  0  0  0  0
   25.6852  -13.2683   23.8444 H   0  0  0  0  0  0
  1  2  1  0  0  0
  1 31  1  0  0  0
  1 32  1  0  0  0
  1 33  1  0  0  0
  2  7  1  0  0  0
  2  3  2  0  0  0
  3  4  1  0  0  0
  3 34  1  0  0  0
  4  5  2  0  0  0
  4 22  1  0  0  0
  5  6  1  0  0  0
  5 35  1  0  0  0
  6  7  2  0  0  0
  6  8  1  0  0  0
  7 36  1  0  0  0
  8  9  1  0  0  0
  9 10  2  0  0  0
  9 11  2  0  0  0
  9 12  1  0  0  0
 12 17  1  0  0  0
 12 13  2  0  0  0
 13 14  1  0  0  0
 13 37  1  0  0  0
 14 15  2  0  0  0
 14 38  1  0  0  0
 15 16  1  0  0  0
 15 39  1  0  0  0
 16 21  1  0  0  0
 16 17  2  0  0  0
 17 18  1  0  0  0
 18 19  1  0  0  0
 18 40  1  0  0  0
 19 20  1  0  0  0
 19 41  1  0  0  0
 19 42  1  0  0  0
 20 21  1  0  0  0
 20 43  1  0  0  0
 20 44  1  0  0  0
 21 45  1  0  0  0
 21 46  1  0  0  0
 22 23  1  0  0  0
 23 24  1  0  0  0
 23 47  1  0  0  0
 23 48  1  0  0  0
 24 25  1  0  0  0
 24 49  1  0  0  0
 24 50  1  0  0  0
 25 26  1  0  0  0
 25 51  1  0  0  0
 25 52  1  0  0  0
 26 27  1  0  0  0
 27 28  2  3  0  0
 28 29  1  0  0  0
 28 30  1  0  0  0
 29 53  1  0  0  0
 29 54  1  0  0  0
 30 55  1  0  0  0
 30 56  1  0  0  0
M  END
> <s_m_entry_id>
37990

> <s_m_entry_name>
ligand_docking-pose.337

> <s_m_Source_Path>
/home/csk/Desktop/cluster/DUD-E-result/thrb

> <s_m_Source_File>
ligand_docking-pose.sdf

> <i_m_Source_File_Index>
337

> <i_lp_mmshare_version>
53161

> <i_f3d_flags>
0

> <r_lp_tautomer_probability>
1

> <s_lp_Force_Field>
OPLS_2005

> <r_lp_Energy>
23.224321

> <b_lp_Chiralities_Consistent>
1

> <s_lp_Variant>
53045-1

> <s_i_glide_gridfile>
glide-grid_1ype

> <i_i_glide_lignum>
2454

> <i_i_glide_rotatable_bonds>
9

> <r_i_docking_score>
-6.98092174851413

> <r_i_glide_ligand_efficiency>
-0.232697391617138

> <r_i_glide_ligand_efficiency_sa>
-0.723044898463706

> <r_i_glide_ligand_efficiency_ln>
-1.58614148449705

> <r_i_glide_gscore>
-6.98092174851413

> <r_i_glide_lipo>
-3.34189770919944

> <r_i_glide_hbond>
-0.510488637169902

> <r_i_glide_metal>
0

> <r_i_glide_rewards>
-0.67175429307077

> <r_i_glide_evdw>
-48.7022895812988

> <r_i_glide_ecoul>
-6.47382593154907

> <r_i_glide_erotb>
0.949407259723275

> <r_i_glide_esite>
0

> <r_i_glide_emodel>
-74.3756850091521

> <r_i_glide_energy>
-55.1761155128479

> <r_i_glide_einternal>
7.27333736419678

> <i_i_glide_confnum>
47

> <i_i_glide_posenum>
68

> <r_i_glide_eff_state_penalty>
0

> <s_user_duplicate_titles>
53045

> <s_m_subgroup_title>
dock_pv

> <s_m_subgroupid>
dock_pv1

> <b_m_subgroup_collapsed>
0

$$$$
168859
                    3D
 Schrodinger Suite 2021-1.
 77 80  0  0  1  0            999 V2000
   17.5664  -17.4233   22.5170 C   0  0  0  0  0  0
   17.7055  -15.9736   22.4839 N   0  0  1  0  0  0
   19.0186  -15.4729   21.9889 C   0  0  2  0  0  0
   20.2327  -15.8401   22.8964 C   0  0  0  0  0  0
   20.4283  -15.0245   24.1658 C   0  0  0  0  0  0
   21.5381  -14.1607   24.2945 C   0  0  0  0  0  0
   21.6834  -13.3905   25.4393 C   0  0  0  0  0  0
   20.7213  -13.4319   26.4405 C   0  0  0  0  0  0
   19.6173  -14.2663   26.3192 C   0  0  0  0  0  0
   19.4649  -15.0659   25.1965 C   0  0  0  0  0  0
   18.8770  -13.9355   21.7446 C   0  0  0  0  0  0
   18.1322  -13.2614   22.4603 O   0  0  0  0  0  0
   19.5437  -13.3976   20.6906 N   0  0  0  0  0  0
   20.6938  -14.0112   20.0255 C   0  0  0  0  0  0
   21.2142  -12.9596   19.0571 C   0  0  0  0  0  0
   20.0354  -12.0518   18.7837 C   0  0  0  0  0  0
   19.1967  -12.0988   20.0702 C   0  0  1  0  0  0
   17.6890  -11.9136   19.8117 C   0  0  0  0  0  0
   17.1141  -10.9510   20.3140 O   0  0  0  0  0  0
   17.0739  -12.8802   19.1061 N   0  0  0  0  0  0
   15.6155  -13.0510   19.0022 C   0  0  1  0  0  0
   14.8776  -11.8519   18.3248 C   0  0  0  0  0  0
   13.5729  -11.4274   19.0345 C   0  0  0  0  0  0
   13.7417  -10.8825   20.4727 C   0  0  0  0  0  0
   12.4640  -10.9221   21.1708 N   0  0  0  0  0  0
   12.2105  -11.8998   21.9456 C   0  0  0  0  0  0
   11.2162  -11.8519   22.9293 N   0  0  0  0  0  0
   12.8212  -13.1709   21.9233 N   0  0  0  0  0  0
   15.4091  -14.3391   18.1916 C   0  0  0  0  0  0
   16.0160  -14.5081   17.1292 O   0  0  0  0  0  0
   14.4142  -15.3155   18.6915 C   0  0  0  0  0  0
   14.2690  -15.4171   19.9737 N   0  0  0  0  0  0
   13.2917  -16.2651   20.5132 C   0  0  0  0  0  0
   13.2169  -16.6539   21.6769 O   0  0  0  0  0  0
   12.1634  -16.6351   19.4952 C   0  0  2  0  0  0
   11.3298  -17.8746   19.8821 C   0  0  0  0  0  0
   10.8183  -18.6922   18.9419 C   0  0  0  0  0  0
   11.1324  -18.4964   17.5361 C   0  0  0  0  0  0
   12.0493  -17.5900   17.1314 C   0  0  0  0  0  0
   12.7149  -16.6960   18.0398 C   0  0  0  0  0  0
   13.7497  -16.0323   17.6957 N   0  0  0  0  0  0
   19.1602  -15.9490   21.0196 H   0  0  0  0  0  0
   19.5407  -11.2977   20.7225 H   0  0  0  0  0  0
   15.2827  -13.1756   20.0315 H   0  0  0  0  0  0
   16.5521  -17.6863   22.8140 H   0  0  0  0  0  0
   17.7555  -17.8596   21.5352 H   0  0  0  0  0  0
   18.2427  -17.8832   23.2406 H   0  0  0  0  0  0
   16.9482  -15.5995   21.9267 H   0  0  0  0  0  0
   20.1834  -16.8876   23.1951 H   0  0  0  0  0  0
   21.1512  -15.7784   22.3157 H   0  0  0  0  0  0
   22.2740  -14.0938   23.5078 H   0  0  0  0  0  0
   22.5307  -12.7296   25.5386 H   0  0  0  0  0  0
   20.8277  -12.8066   27.3131 H   0  0  0  0  0  0
   18.8692  -14.2868   27.0985 H   0  0  0  0  0  0
   18.5964  -15.7004   25.1014 H   0  0  0  0  0  0
   20.3851  -14.9144   19.5033 H   0  0  0  0  0  0
   21.4748  -14.2811   20.7324 H   0  0  0  0  0  0
   21.6143  -13.3912   18.1429 H   0  0  0  0  0  0
   22.0109  -12.3866   19.5373 H   0  0  0  0  0  0
   19.4806  -12.4337   17.9237 H   0  0  0  0  0  0
   20.3935  -11.0535   18.5475 H   0  0  0  0  0  0
   17.6302  -13.6213   18.7031 H   0  0  0  0  0  0
   15.5400  -10.9935   18.2775 H   0  0  0  0  0  0
   14.6605  -12.0502   17.2719 H   0  0  0  0  0  0
   13.0779  -10.6528   18.4469 H   0  0  0  0  0  0
   12.8946  -12.2833   19.0323 H   0  0  0  0  0  0
   14.5255  -11.4143   21.0194 H   0  0  0  0  0  0
   14.0939   -9.8526   20.4481 H   0  0  0  0  0  0
   10.5177  -11.1262   22.8407 H   0  0  0  0  0  0
   10.7783  -12.7321   23.1694 H   0  0  0  0  0  0
   13.6723  -13.2693   21.3924 H   0  0  0  0  0  0
   12.8857  -13.6786   22.7943 H   0  0  0  0  0  0
   11.4821  -15.7838   19.5457 H   0  0  0  0  0  0
   11.0527  -18.0560   20.9075 H   0  0  0  0  0  0
   10.1813  -19.5082   19.2371 H   0  0  0  0  0  0
   10.6205  -19.0951   16.7974 H   0  0  0  0  0  0
   12.2267  -17.4874   16.0713 H   0  0  0  0  0  0
  1  2  1  0  0  0
  1 45  1  0  0  0
  1 46  1  0  0  0
  1 47  1  0  0  0
  2  3  1  0  0  0
  2 48  1  0  0  0
  3 42  1  0  0  0
  3  4  1  0  0  0
  3 11  1  0  0  0
  4  5  1  0  0  0
  4 49  1  0  0  0
  4 50  1  0  0  0
  5 10  1  0  0  0
  5  6  2  0  0  0
  6  7  1  0  0  0
  6 51  1  0  0  0
  7  8  2  0  0  0
  7 52  1  0  0  0
  8  9  1  0  0  0
  8 53  1  0  0  0
  9 10  2  0  0  0
  9 54  1  0  0  0
 10 55  1  0  0  0
 11 12  2  0  0  0
 11 13  1  0  0  0
 13 17  1  0  0  0
 13 14  1  0  0  0
 14 15  1  0  0  0
 14 56  1  0  0  0
 14 57  1  0  0  0
 15 16  1  0  0  0
 15 58  1  0  0  0
 15 59  1  0  0  0
 16 17  1  0  0  0
 16 60  1  0  0  0
 16 61  1  0  0  0
 17 43  1  0  0  0
 17 18  1  0  0  0
 18 19  2  0  0  0
 18 20  1  0  0  0
 20 21  1  0  0  0
 20 62  1  0  0  0
 21 44  1  0  0  0
 21 22  1  0  0  0
 21 29  1  0  0  0
 22 23  1  0  0  0
 22 63  1  0  0  0
 22 64  1  0  0  0
 23 24  1  0  0  0
 23 65  1  0  0  0
 23 66  1  0  0  0
 24 25  1  0  0  0
 24 67  1  0  0  0
 24 68  1  0  0  0
 25 26  2  3  0  0
 26 27  1  0  0  0
 26 28  1  0  0  0
 27 69  1  0  0  0
 27 70  1  0  0  0
 28 71  1  0  0  0
 28 72  1  0  0  0
 29 30  2  0  0  0
 29 31  1  0  0  0
 31 41  1  0  0  0
 31 32  2  0  0  0
 32 33  1  0  0  0
 33 34  2  0  0  0
 33 35  1  0  0  0
 35 40  1  0  0  0
 35 36  1  0  0  0
 35 73  1  0  0  0
 36 37  2  0  0  0
 36 74  1  0  0  0
 37 38  1  0  0  0
 37 75  1  0  0  0
 38 39  2  0  0  0
 38 76  1  0  0  0
 39 40  1  0  0  0
 39 77  1  0  0  0
 40 41  2  0  0  0
M  END
> <s_m_entry_id>
37992

> <s_m_entry_name>
ligand_docking-pose.339

> <s_m_Source_Path>
/home/csk/Desktop/cluster/DUD-E-result/thrb

> <s_m_Source_File>
ligand_docking-pose.sdf

> <i_m_Source_File_Index>
339

> <i_lp_mmshare_version>
53161

> <i_f3d_flags>
0

> <r_lp_tautomer_probability>
1

> <s_lp_Force_Field>
OPLS_2005

> <r_lp_Energy>
43.340587

> <b_lp_Chiralities_Consistent>
1

> <s_lp_Variant>
168859-2

> <s_i_glide_gridfile>
glide-grid_1ype

> <i_i_glide_lignum>
4497

> <i_i_glide_rotatable_bonds>
14

> <r_i_docking_score>
-6.97462377373876

> <r_i_glide_ligand_efficiency>
-0.170112774969238

> <r_i_glide_ligand_efficiency_sa>
-0.586585802732165

> <r_i_glide_ligand_efficiency_ln>
-1.47968964408247

> <r_i_glide_gscore>
-6.97462377373876

> <r_i_glide_lipo>
-2.93317033675888

> <r_i_glide_hbond>
-0.657995327285678

> <r_i_glide_metal>
0

> <r_i_glide_rewards>
-0.813581279016648

> <r_i_glide_evdw>
-54.4116287231445

> <r_i_glide_ecoul>
-3.11326360702515

> <r_i_glide_erotb>
0.6473789542206

> <r_i_glide_esite>
-0.0296848076871555

> <r_i_glide_emodel>
-64.6428605636638

> <r_i_glide_energy>
-57.5248923301697

> <r_i_glide_einternal>
23.854305267334

> <i_i_glide_confnum>
3

> <i_i_glide_posenum>
80

> <r_i_glide_eff_state_penalty>
0

> <s_user_duplicate_titles>
168859

> <s_m_subgroup_title>
dock_pv

> <s_m_subgroupid>
dock_pv1

> <b_m_subgroup_collapsed>
0

$$$$
235018
                    3D
 Schrodinger Suite 2021-1.
 84 86  0  0  1  0            999 V2000
   17.0017  -18.3589   23.5743 C   0  0  0  0  0  0
   16.0281  -18.2495   22.3878 C   0  0  2  0  0  0
   16.7697  -17.9431   21.0763 C   0  0  0  0  0  0
   15.7998  -17.6386   19.9394 C   0  0  0  0  0  0
   16.1915  -17.8421   18.6131 C   0  0  0  0  0  0
   15.3585  -17.4940   17.5533 C   0  0  0  0  0  0
   14.1218  -16.9136   17.8070 C   0  0  0  0  0  0
   13.6900  -16.7109   19.1206 C   0  0  0  0  0  0
   14.5123  -17.1158   20.1947 C   0  0  0  0  0  0
   14.0537  -16.9909   21.5237 N   0  0  0  0  0  0
   14.9353  -17.2005   22.6715 C   0  0  0  0  0  0
   12.1142  -15.8577   19.3277 S   0  0  0  0  0  0
   11.6148  -16.0982   20.6862 O   0  0  0  0  0  0
   11.2900  -16.1691   18.1567 O   0  0  0  0  0  0
   12.5608  -14.1601   19.2088 N   0  0  1  0  0  0
   13.2280  -13.5159   20.3661 C   0  0  2  0  0  0
   12.1566  -12.7504   21.2058 C   0  0  0  0  0  0
   12.1539  -11.1989   21.2463 C   0  0  0  0  0  0
   13.1275  -10.6043   22.2830 C   0  0  0  0  0  0
   12.6984   -9.2863   22.7248 N   0  0  0  0  0  0
   12.0166   -9.1878   23.7952 C   0  0  0  0  0  0
   12.0160   -8.0120   24.5613 N   0  0  0  0  0  0
   11.1870  -10.1845   24.3455 N   0  0  0  0  0  0
   14.4385  -12.6855   19.8413 C   0  0  0  0  0  0
   14.3989  -12.2146   18.6989 O   0  0  0  0  0  0
   15.4964  -12.4627   20.6710 N   0  0  0  0  0  0
   16.7106  -11.7514   20.2055 C   0  0  0  0  0  0
   17.8724  -12.7815   20.2040 C   0  0  0  0  0  0
   18.0475  -13.4451   21.5895 C   0  0  0  0  0  0
   16.7090  -14.1019   21.9708 C   0  0  0  0  0  0
   15.5952  -13.0465   22.0219 C   0  0  0  0  0  0
   19.2088  -14.4587   21.6730 C   0  0  0  0  0  0
   20.5932  -13.7971   21.7950 C   0  0  0  0  0  0
   21.6157  -14.6926   22.3246 N   0  0  0  0  0  0
   21.7587  -15.0061   23.6239 C   0  0  0  0  0  0
   21.0187  -14.5793   24.5106 O   0  0  0  0  0  0
   22.9192  -15.9436   23.9830 C   0  0  0  0  0  0
   23.9692  -15.3221   24.9384 C   0  0  0  0  0  0
   24.8120  -14.2041   24.3202 C   0  0  0  0  0  0
   24.7495  -13.0368   24.6853 O   0  0  0  0  0  0
   25.6156  -14.6544   23.3184 O   0  0  0  0  0  0
   17.5174  -17.4157   23.7560 H   0  0  0  0  0  0
   16.4752  -18.6285   24.4915 H   0  0  0  0  0  0
   17.7612  -19.1206   23.3970 H   0  0  0  0  0  0
   15.5341  -19.2170   22.2922 H   0  0  0  0  0  0
   17.4215  -18.7761   20.8080 H   0  0  0  0  0  0
   17.4267  -17.0828   21.2140 H   0  0  0  0  0  0
   17.1652  -18.2554   18.3976 H   0  0  0  0  0  0
   15.6816  -17.6512   16.5352 H   0  0  0  0  0  0
   13.4994  -16.6160   16.9726 H   0  0  0  0  0  0
   13.2014  -16.4692   21.6952 H   0  0  0  0  0  0
   15.3689  -16.2592   23.0015 H   0  0  0  0  0  0
   14.3316  -17.5213   23.5188 H   0  0  0  0  0  0
   12.8645  -13.8337   18.2867 H   0  0  0  0  0  0
   13.6291  -14.3352   20.9589 H   0  0  0  0  0  0
   11.1659  -13.0531   20.8626 H   0  0  0  0  0  0
   12.1814  -13.1282   22.2296 H   0  0  0  0  0  0
   12.3230  -10.7717   20.2583 H   0  0  0  0  0  0
   11.1452  -10.8912   21.5213 H   0  0  0  0  0  0
   13.2167  -11.2990   23.1208 H   0  0  0  0  0  0
   14.1332  -10.5162   21.8770 H   0  0  0  0  0  0
   12.4725   -7.2127   24.1532 H   0  0  0  0  0  0
   11.1488   -7.7402   24.9977 H   0  0  0  0  0  0
   10.9946  -10.9822   23.7578 H   0  0  0  0  0  0
   10.3264   -9.8837   24.7930 H   0  0  0  0  0  0
   16.9175  -10.9616   20.9296 H   0  0  0  0  0  0
   16.5790  -11.2456   19.2474 H   0  0  0  0  0  0
   18.8015  -12.2954   19.9078 H   0  0  0  0  0  0
   17.7038  -13.5384   19.4360 H   0  0  0  0  0  0
   18.2259  -12.6516   22.3200 H   0  0  0  0  0  0
   16.4561  -14.9235   21.2991 H   0  0  0  0  0  0
   16.8091  -14.5610   22.9565 H   0  0  0  0  0  0
   15.9109  -12.2528   22.6923 H   0  0  0  0  0  0
   14.6551  -13.3782   22.4575 H   0  0  0  0  0  0
   19.1851  -15.1384   20.8204 H   0  0  0  0  0  0
   19.0545  -15.0865   22.5514 H   0  0  0  0  0  0
   20.5268  -12.9424   22.4675 H   0  0  0  0  0  0
   20.9082  -13.3834   20.8373 H   0  0  0  0  0  0
   22.2918  -15.0524   21.6567 H   0  0  0  0  0  0
   23.3908  -16.4186   23.1211 H   0  0  0  0  0  0
   22.4556  -16.7806   24.5054 H   0  0  0  0  0  0
   24.6730  -16.0996   25.2338 H   0  0  0  0  0  0
   23.5227  -15.0185   25.8866 H   0  0  0  0  0  0
   26.1793  -13.9347   22.9926 H   0  0  0  0  0  0
  1  2  1  0  0  0
  1 42  1  0  0  0
  1 43  1  0  0  0
  1 44  1  0  0  0
  2 11  1  0  0  0
  2  3  1  0  0  0
  2 45  1  0  0  0
  3  4  1  0  0  0
  3 46  1  0  0  0
  3 47  1  0  0  0
  4  9  2  0  0  0
  4  5  1  0  0  0
  5  6  2  0  0  0
  5 48  1  0  0  0
  6  7  1  0  0  0
  6 49  1  0  0  0
  7  8  2  0  0  0
  7 50  1  0  0  0
  8  9  1  0  0  0
  8 12  1  0  0  0
  9 10  1  0  0  0
 10 11  1  0  0  0
 10 51  1  0  0  0
 11 52  1  0  0  0
 11 53  1  0  0  0
 12 13  2  0  0  0
 12 14  2  0  0  0
 12 15  1  0  0  0
 15 16  1  0  0  0
 15 54  1  0  0  0
 16 17  1  0  0  0
 16 24  1  0  0  0
 16 55  1  0  0  0
 17 18  1  0  0  0
 17 56  1  0  0  0
 17 57  1  0  0  0
 18 19  1  0  0  0
 18 58  1  0  0  0
 18 59  1  0  0  0
 19 20  1  0  0  0
 19 60  1  0  0  0
 19 61  1  0  0  0
 20 21  2  3  0  0
 21 22  1  0  0  0
 21 23  1  0  0  0
 22 62  1  0  0  0
 22 63  1  0  0  0
 23 64  1  0  0  0
 23 65  1  0  0  0
 24 25  2  0  0  0
 24 26  1  0  0  0
 26 31  1  0  0  0
 26 27  1  0  0  0
 27 28  1  0  0  0
 27 66  1  0  0  0
 27 67  1  0  0  0
 28 29  1  0  0  0
 28 68  1  0  0  0
 28 69  1  0  0  0
 29 30  1  0  0  0
 29 32  1  0  0  0
 29 70  1  0  0  0
 30 31  1  0  0  0
 30 71  1  0  0  0
 30 72  1  0  0  0
 31 73  1  0  0  0
 31 74  1  0  0  0
 32 33  1  0  0  0
 32 75  1  0  0  0
 32 76  1  0  0  0
 33 34  1  0  0  0
 33 77  1  0  0  0
 33 78  1  0  0  0
 34 35  1  0  0  0
 34 79  1  0  0  0
 35 36  2  0  0  0
 35 37  1  0  0  0
 37 38  1  0  0  0
 37 80  1  0  0  0
 37 81  1  0  0  0
 38 39  1  0  0  0
 38 82  1  0  0  0
 38 83  1  0  0  0
 39 40  2  0  0  0
 39 41  1  0  0  0
 41 84  1  0  0  0
M  END
> <s_m_entry_id>
37993

> <s_m_entry_name>
ligand_docking-pose.340

> <s_m_Source_Path>
/home/csk/Desktop/cluster/DUD-E-result/thrb

> <s_m_Source_File>
ligand_docking-pose.sdf

> <i_m_Source_File_Index>
340

> <i_lp_mmshare_version>
53161

> <i_f3d_flags>
0

> <r_lp_tautomer_probability>
1

> <s_lp_Force_Field>
OPLS_2005

> <r_lp_Energy>
38.091667

> <b_lp_Chiralities_Consistent>
1

> <s_lp_Variant>
235018-1

> <s_i_glide_gridfile>
glide-grid_1ype

> <i_i_glide_lignum>
2209

> <i_i_glide_rotatable_bonds>
17

> <r_i_docking_score>
-6.9683687192635

> <r_i_glide_ligand_efficiency>
-0.169960212664963

> <r_i_glide_ligand_efficiency_sa>
-0.586059734764984

> <r_i_glide_ligand_efficiency_ln>
-1.47836261345968

> <r_i_glide_gscore>
-6.9683687192635

> <r_i_glide_lipo>
-1.91150492527846

> <r_i_glide_hbond>
-0.437610590876598

> <r_i_glide_metal>
0

> <r_i_glide_rewards>
-0.974202755933475

> <r_i_glide_evdw>
-51.6743659973145

> <r_i_glide_ecoul>
-12.2237758636475

> <r_i_glide_erotb>
0.840172370621799

> <r_i_glide_esite>
-0.0679381383839241

> <r_i_glide_emodel>
-78.1662724629546

> <r_i_glide_energy>
-63.8981418609619

> <r_i_glide_einternal>
22.9389476776123

> <i_i_glide_confnum>
19

> <i_i_glide_posenum>
46

> <r_i_glide_eff_state_penalty>
0

> <s_user_duplicate_titles>
235018

> <s_m_subgroup_title>
dock_pv

> <s_m_subgroupid>
dock_pv1

> <b_m_subgroup_collapsed>
0

$$$$
229769
                    3D
 Schrodinger Suite 2021-1.
 69 71  0  0  1  0            999 V2000
   12.0174  -15.1331   19.4522 C   0  0  0  0  0  0
   12.3421  -15.5853   20.7198 C   0  0  0  0  0  0
   13.2942  -14.3718   21.5164 S   0  0  0  0  0  0
   13.2266  -13.4066   20.0624 C   0  0  0  0  0  0
   12.5006  -13.9552   19.1211 N   0  0  0  0  0  0
   13.9478  -12.1333   19.9196 C   0  0  0  0  0  0
   14.0147  -11.5910   18.8109 O   0  0  0  0  0  0
   14.6040  -11.4521   21.1241 C   0  0  2  0  0  0
   14.1264   -9.9729   21.2729 C   0  0  0  0  0  0
   12.6799   -9.8062   21.7846 C   0  0  0  0  0  0
   12.5324  -10.1735   23.2739 C   0  0  0  0  0  0
   11.1485  -10.6531   23.6951 C   0  0  0  0  0  0
   10.8161  -11.8530   22.9526 N   0  0  0  0  0  0
   16.0617  -11.4533   20.9085 N   0  0  0  0  0  0
   16.9061  -12.4823   21.1239 C   0  0  0  0  0  0
   16.5431  -13.6299   21.3713 O   0  0  0  0  0  0
   18.4050  -12.1228   21.0595 C   0  0  2  0  0  0
   18.7417  -11.3776   19.7717 C   0  0  0  0  0  0
   20.1976  -11.7001   19.4985 C   0  0  0  0  0  0
   20.2937  -13.1474   19.9518 C   0  0  0  0  0  0
   19.3694  -13.2470   21.0855 N   0  0  0  0  0  0
   19.5228  -14.0074   22.2026 C   0  0  0  0  0  0
   19.0778  -13.6070   23.2798 O   0  0  0  0  0  0
   20.2761  -15.3898   22.2107 C   0  0  1  0  0  0
   19.3794  -16.5634   22.7155 C   0  0  0  0  0  0
   18.6952  -16.4397   24.1048 C   0  0  0  0  0  0
   18.0165  -17.7652   24.5293 C   0  0  0  0  0  0
   17.2578  -17.6084   25.8674 C   0  0  0  0  0  0
   18.1796  -17.0623   26.9832 C   0  0  0  0  0  0
   18.9183  -15.7854   26.5392 C   0  0  0  0  0  0
   19.6771  -16.0269   25.2272 C   0  0  0  0  0  0
   20.8160  -15.7958   20.8974 N   0  0  0  0  0  0
   14.4108  -11.9806   22.0550 H   0  0  0  0  0  0
   18.6297  -11.4697   21.9052 H   0  0  0  0  0  0
   21.1175  -15.2990   22.8985 H   0  0  0  0  0  0
   11.4157  -15.6723   18.7342 H   0  0  0  0  0  0
   12.0711  -16.5126   21.1963 H   0  0  0  0  0  0
   14.7973   -9.4123   21.9212 H   0  0  0  0  0  0
   14.2016   -9.4552   20.3212 H   0  0  0  0  0  0
   12.3538   -8.7746   21.6466 H   0  0  0  0  0  0
   12.0125  -10.4034   21.1619 H   0  0  0  0  0  0
   13.2158  -10.9738   23.5205 H   0  0  0  0  0  0
   12.8164   -9.3209   23.8905 H   0  0  0  0  0  0
   11.1134  -10.8680   24.7637 H   0  0  0  0  0  0
   10.4165   -9.8698   23.5077 H   0  0  0  0  0  0
   10.8610  -12.6949   23.5210 H   0  0  0  0  0  0
    9.8300  -11.7517   22.7199 H   0  0  0  0  0  0
   16.4612  -10.5463   20.7145 H   0  0  0  0  0  0
   18.1248  -11.7261   18.9402 H   0  0  0  0  0  0
   18.5576  -10.3158   19.9218 H   0  0  0  0  0  0
   20.4985  -11.5497   18.4615 H   0  0  0  0  0  0
   20.8352  -11.0802   20.1319 H   0  0  0  0  0  0
   19.9681  -13.8260   19.1621 H   0  0  0  0  0  0
   21.3269  -13.3774   20.2130 H   0  0  0  0  0  0
   18.6001  -16.7410   21.9713 H   0  0  0  0  0  0
   19.9801  -17.4744   22.7237 H   0  0  0  0  0  0
   17.9097  -15.6840   24.0422 H   0  0  0  0  0  0
   17.3276  -18.0909   23.7489 H   0  0  0  0  0  0
   18.7572  -18.5637   24.5972 H   0  0  0  0  0  0
   16.4168  -16.9271   25.7248 H   0  0  0  0  0  0
   16.8281  -18.5641   26.1706 H   0  0  0  0  0  0
   17.6160  -16.8606   27.8931 H   0  0  0  0  0  0
   18.9120  -17.8244   27.2525 H   0  0  0  0  0  0
   18.2049  -14.9688   26.4102 H   0  0  0  0  0  0
   19.6156  -15.4535   27.3008 H   0  0  0  0  0  0
   20.4624  -16.7755   25.3447 H   0  0  0  0  0  0
   20.2134  -15.1148   24.9712 H   0  0  0  0  0  0
   21.7605  -15.4515   20.7514 H   0  0  0  0  0  0
   20.8680  -16.8005   20.8218 H   0  0  0  0  0  0
  1  5  1  0  0  0
  1  2  2  0  0  0
  1 36  1  0  0  0
  2  3  1  0  0  0
  2 37  1  0  0  0
  3  4  1  0  0  0
  4  5  2  0  0  0
  4  6  1  0  0  0
  6  7  2  0  0  0
  6  8  1  0  0  0
  8 33  1  0  0  0
  8  9  1  0  0  0
  8 14  1  0  0  0
  9 10  1  0  0  0
  9 38  1  0  0  0
  9 39  1  0  0  0
 10 11  1  0  0  0
 10 40  1  0  0  0
 10 41  1  0  0  0
 11 12  1  0  0  0
 11 42  1  0  0  0
 11 43  1  0  0  0
 12 13  1  0  0  0
 12 44  1  0  0  0
 12 45  1  0  0  0
 13 46  1  0  0  0
 13 47  1  0  0  0
 14 15  1  0  0  0
 14 48  1  0  0  0
 15 16  2  0  0  0
 15 17  1  0  0  0
 17 34  1  0  0  0
 17 21  1  0  0  0
 17 18  1  0  0  0
 18 19  1  0  0  0
 18 49  1  0  0  0
 18 50  1  0  0  0
 19 20  1  0  0  0
 19 51  1  0  0  0
 19 52  1  0  0  0
 20 21  1  0  0  0
 20 53  1  0  0  0
 20 54  1  0  0  0
 21 22  1  0  0  0
 22 23  2  0  0  0
 22 24  1  0  0  0
 24 35  1  0  0  0
 24 25  1  0  0  0
 24 32  1  0  0  0
 25 26  1  0  0  0
 25 55  1  0  0  0
 25 56  1  0  0  0
 26 31  1  0  0  0
 26 27  1  0  0  0
 26 57  1  0  0  0
 27 28  1  0  0  0
 27 58  1  0  0  0
 27 59  1  0  0  0
 28 29  1  0  0  0
 28 60  1  0  0  0
 28 61  1  0  0  0
 29 30  1  0  0  0
 29 62  1  0  0  0
 29 63  1  0  0  0
 30 31  1  0  0  0
 30 64  1  0  0  0
 30 65  1  0  0  0
 31 66  1  0  0  0
 31 67  1  0  0  0
 32 68  1  0  0  0
 32 69  1  0  0  0
M  END
> <s_m_entry_id>
37994

> <s_m_entry_name>
ligand_docking-pose.341

> <s_m_Source_Path>
/home/csk/Desktop/cluster/DUD-E-result/thrb

> <s_m_Source_File>
ligand_docking-pose.sdf

> <i_m_Source_File_Index>
341

> <i_lp_mmshare_version>
53161

> <i_f3d_flags>
0

> <r_lp_tautomer_probability>
0.99990000499975

> <s_lp_Force_Field>
OPLS_2005

> <r_lp_Energy>
24.433204

> <b_lp_Chiralities_Consistent>
1

> <s_lp_Variant>
229769-1

> <s_i_glide_gridfile>
glide-grid_1ype

> <i_i_glide_lignum>
2118

> <i_i_glide_rotatable_bonds>
13

> <r_i_docking_score>
-6.9629558831867

> <r_i_glide_ligand_efficiency>
-0.217592371349584

> <r_i_glide_ligand_efficiency_sa>
-0.690812717563113

> <r_i_glide_ligand_efficiency_ln>
-1.55919562525437

> <r_i_glide_gscore>
-6.9629558831867

> <r_i_glide_lipo>
-3.02058395014978

> <r_i_glide_hbond>
-0.79832880563865

> <r_i_glide_metal>
0

> <r_i_glide_rewards>
-0.893906586571494

> <r_i_glide_evdw>
-40.0780448913574

> <r_i_glide_ecoul>
-7.89179563522339

> <r_i_glide_erotb>
0.937535049024602

> <r_i_glide_esite>
0

> <r_i_glide_emodel>
-58.1457150441442

> <r_i_glide_energy>
-47.9698405265808

> <r_i_glide_einternal>
16.0949974060059

> <i_i_glide_confnum>
206

> <i_i_glide_posenum>
55

> <r_i_glide_eff_state_penalty>
0

> <s_user_duplicate_titles>
229769

> <s_m_subgroup_title>
dock_pv

> <s_m_subgroupid>
dock_pv1

> <b_m_subgroup_collapsed>
0

$$$$
273656
                    3D
 Schrodinger Suite 2021-1.
 63 65  0  0  1  0            999 V2000
   21.4359  -13.6801   25.9524 C   0  0  0  0  0  0
   22.0687  -14.8219   25.4657 C   0  0  0  0  0  0
   21.3482  -15.7339   24.6983 C   0  0  0  0  0  0
   19.9986  -15.5008   24.4152 C   0  0  0  0  0  0
   19.3665  -14.3612   24.9229 C   0  0  0  0  0  0
   20.0905  -13.4474   25.6847 C   0  0  0  0  0  0
   19.2216  -16.4947   23.5586 C   0  0  0  0  0  0
   19.7366  -16.5510   21.7276 S   0  0  0  0  0  0
   19.0348  -17.6857   21.1214 O   0  0  0  0  0  0
   21.1968  -16.4575   21.6446 O   0  0  0  0  0  0
   19.0512  -15.1018   20.9950 N   0  0  2  0  0  0
   19.5143  -13.7481   21.3858 C   0  0  1  0  0  0
   20.8570  -13.3077   20.7550 C   0  0  0  0  0  0
   20.9548  -13.2942   19.2291 C   0  0  0  0  0  0
   20.0198  -12.2997   18.5437 C   0  0  0  0  0  0
   18.5396  -12.5414   18.8530 C   0  0  0  0  0  0
   18.0863  -12.1043   20.1820 N   0  0  0  0  0  0
   18.2864  -12.8118   21.3312 C   0  0  0  0  0  0
   17.5608  -12.7127   22.3203 O   0  0  0  0  0  0
   17.1021  -11.0082   20.2337 C   0  0  0  0  0  0
   15.6638  -11.4721   19.9702 C   0  0  0  0  0  0
   15.3971  -12.3112   19.1095 O   0  0  0  0  0  0
   14.5945  -10.7779   20.8212 C   0  0  0  0  0  0
   13.1419  -10.8737   20.2986 C   0  0  2  0  0  0
   12.2522   -9.8131   20.9975 C   0  0  0  0  0  0
   11.9281  -10.1733   22.4616 C   0  0  0  0  0  0
   11.2841  -11.5606   22.5640 C   0  0  1  0  0  0
   12.1964  -12.6335   21.9388 C   0  0  0  0  0  0
   12.5299  -12.2887   20.4744 C   0  0  0  0  0  0
   10.8164  -11.8518   23.9023 N   0  0  0  0  0  0
   19.7508  -13.7920   22.4429 H   0  0  0  0  0  0
   21.9898  -12.9693   26.5479 H   0  0  0  0  0  0
   23.1117  -14.9962   25.6835 H   0  0  0  0  0  0
   21.8432  -16.6149   24.3153 H   0  0  0  0  0  0
   18.3225  -14.1729   24.7176 H   0  0  0  0  0  0
   19.6158  -12.5592   26.0725 H   0  0  0  0  0  0
   18.1488  -16.3048   23.5831 H   0  0  0  0  0  0
   19.3801  -17.4984   23.9512 H   0  0  0  0  0  0
   18.0526  -15.1748   20.7773 H   0  0  0  0  0  0
   21.6387  -13.9635   21.1365 H   0  0  0  0  0  0
   21.1227  -12.3144   21.1209 H   0  0  0  0  0  0
   20.7972  -14.2995   18.8382 H   0  0  0  0  0  0
   21.9753  -13.0297   18.9643 H   0  0  0  0  0  0
   20.1696  -12.3978   17.4679 H   0  0  0  0  0  0
   20.3028  -11.2790   18.7997 H   0  0  0  0  0  0
   18.3736  -13.6174   18.7935 H   0  0  0  0  0  0
   17.8813  -12.1535   18.0747 H   0  0  0  0  0  0
   17.3349  -10.2565   19.4883 H   0  0  0  0  0  0
   17.1440  -10.4911   21.1931 H   0  0  0  0  0  0
   14.8795   -9.7281   20.8973 H   0  0  0  0  0  0
   14.6494  -11.1882   21.8290 H   0  0  0  0  0  0
   13.1179  -10.6467   19.2306 H   0  0  0  0  0  0
   11.3149   -9.7023   20.4549 H   0  0  0  0  0  0
   12.7261   -8.8322   20.9578 H   0  0  0  0  0  0
   12.8232  -10.1234   23.0831 H   0  0  0  0  0  0
   11.2295   -9.4499   22.8733 H   0  0  0  0  0  0
   10.4148  -11.5435   21.9207 H   0  0  0  0  0  0
   13.1071  -12.7540   22.5270 H   0  0  0  0  0  0
   11.6922  -13.5989   21.9210 H   0  0  0  0  0  0
   13.1883  -13.0582   20.0746 H   0  0  0  0  0  0
   11.6167  -12.3636   19.8874 H   0  0  0  0  0  0
    9.9841  -11.3085   24.1211 H   0  0  0  0  0  0
   10.5153  -12.8230   23.9226 H   0  0  0  0  0  0
  1  6  1  0  0  0
  1  2  2  0  0  0
  1 32  1  0  0  0
  2  3  1  0  0  0
  2 33  1  0  0  0
  3  4  2  0  0  0
  3 34  1  0  0  0
  4  5  1  0  0  0
  4  7  1  0  0  0
  5  6  2  0  0  0
  5 35  1  0  0  0
  6 36  1  0  0  0
  7  8  1  0  0  0
  7 37  1  0  0  0
  7 38  1  0  0  0
  8  9  2  0  0  0
  8 10  2  0  0  0
  8 11  1  0  0  0
 11 12  1  0  0  0
 11 39  1  0  0  0
 12 31  1  0  0  0
 12 18  1  0  0  0
 12 13  1  0  0  0
 13 14  1  0  0  0
 13 40  1  0  0  0
 13 41  1  0  0  0
 14 15  1  0  0  0
 14 42  1  0  0  0
 14 43  1  0  0  0
 15 16  1  0  0  0
 15 44  1  0  0  0
 15 45  1  0  0  0
 16 17  1  0  0  0
 16 46  1  0  0  0
 16 47  1  0  0  0
 17 18  1  0  0  0
 17 20  1  0  0  0
 18 19  2  0  0  0
 20 21  1  0  0  0
 20 48  1  0  0  0
 20 49  1  0  0  0
 21 22  2  0  0  0
 21 23  1  0  0  0
 23 24  1  0  0  0
 23 50  1  0  0  0
 23 51  1  0  0  0
 24 29  1  0  0  0
 24 25  1  0  0  0
 24 52  1  0  0  0
 25 26  1  0  0  0
 25 53  1  0  0  0
 25 54  1  0  0  0
 26 27  1  0  0  0
 26 55  1  0  0  0
 26 56  1  0  0  0
 27 28  1  0  0  0
 27 30  1  0  0  0
 27 57  1  0  0  0
 28 29  1  0  0  0
 28 58  1  0  0  0
 28 59  1  0  0  0
 29 60  1  0  0  0
 29 61  1  0  0  0
 30 62  1  0  0  0
 30 63  1  0  0  0
M  END
> <s_m_entry_id>
37995

> <s_m_entry_name>
ligand_docking-pose.342

> <s_m_Source_Path>
/home/csk/Desktop/cluster/DUD-E-result/thrb

> <s_m_Source_File>
ligand_docking-pose.sdf

> <i_m_Source_File_Index>
342

> <i_lp_mmshare_version>
53161

> <i_f3d_flags>
0

> <r_lp_tautomer_probability>
0.999999960000001

> <s_lp_Force_Field>
OPLS_2005

> <r_lp_Energy>
26.357104

> <b_lp_Chiralities_Consistent>
1

> <s_lp_Variant>
273656-1

> <s_i_glide_gridfile>
glide-grid_1ype

> <i_i_glide_lignum>
1583

> <i_i_glide_rotatable_bonds>
8

> <r_i_docking_score>
-6.96160664890589

> <r_i_glide_ligand_efficiency>
-0.23205355496353

> <r_i_glide_ligand_efficiency_sa>
-0.721044348287359

> <r_i_glide_ligand_efficiency_ln>
-1.58175288341119

> <r_i_glide_gscore>
-6.96160664890589

> <r_i_glide_lipo>
-3.25715101984589

> <r_i_glide_hbond>
-0.356639557596502

> <r_i_glide_metal>
0

> <r_i_glide_rewards>
-1.26591746039497

> <r_i_glide_evdw>
-39.3027458190918

> <r_i_glide_ecoul>
-5.57884168624878

> <r_i_glide_erotb>
0.735139600593262

> <r_i_glide_esite>
-0.0150746677698862

> <r_i_glide_emodel>
-57.9925804252976

> <r_i_glide_energy>
-44.8815875053406

> <r_i_glide_einternal>
11.042631149292

> <i_i_glide_confnum>
73

> <i_i_glide_posenum>
185

> <r_i_glide_eff_state_penalty>
0

> <s_user_duplicate_titles>
273656

> <s_m_subgroup_title>
dock_pv

> <s_m_subgroupid>
dock_pv1

> <b_m_subgroup_collapsed>
0

$$$$
61460
                    3D
 Schrodinger Suite 2021-1.
 72 76  0  0  1  0            999 V2000
   14.5063  -11.6000   19.5801 B   0  0  0  0  0  0
   13.3422  -11.0716   19.1222 O   0  0  0  0  0  0
   12.4234  -11.0775   20.1829 C   0  0  2  0  0  0
   11.8929   -9.6312   20.4200 C   0  0  0  0  0  0
   12.0549   -9.1798   21.8598 C   0  0  1  0  0  0
   11.5777  -10.2953   22.7815 C   0  0  0  0  0  0
   13.0163  -10.7873   22.6555 C   0  0  1  0  0  0
   13.1581  -11.7076   21.3953 C   0  0  2  0  0  0
   14.4976  -11.7993   20.9498 O   0  0  0  0  0  0
   12.7206  -13.1669   21.6730 C   0  0  0  0  0  0
   13.4403   -9.2644   22.4830 C   0  0  0  0  0  0
   14.5887   -8.8593   21.5051 C   0  0  0  0  0  0
   13.4554   -8.3154   23.7405 C   0  0  0  0  0  0
   15.7048  -11.9397   18.6231 C   0  0  2  0  0  0
   15.4072  -13.1983   17.7657 C   0  0  0  0  0  0
   14.8844  -12.9178   16.3441 C   0  0  0  0  0  0
   15.9320  -12.4112   15.3189 C   0  0  0  0  0  0
   16.0905  -10.8825   15.1683 C   0  0  0  0  0  0
   14.8603  -10.2580   14.7146 N   0  0  0  0  0  0
   16.8771  -12.0810   19.4653 N   0  0  0  0  0  0
   18.1378  -12.3230   19.0897 C   0  0  0  0  0  0
   18.5153  -12.2522   17.9195 O   0  0  0  0  0  0
   19.0455  -12.7341   20.2259 C   0  0  0  0  0  0
   18.5113  -13.2327   21.4267 C   0  0  0  0  0  0
   19.2679  -13.5816   22.4882 N   0  0  0  0  0  0
   20.6144  -13.4630   22.3495 C   0  0  0  0  0  0
   21.2355  -13.0546   21.2098 N   0  0  0  0  0  0
   20.4518  -12.6673   20.1682 C   0  0  0  0  0  0
   21.2205  -12.1399   18.9673 C   0  0  0  0  0  0
   21.4543  -13.7826   23.5530 C   0  0  0  0  0  0
   20.8475  -14.1184   24.7712 C   0  0  0  0  0  0
   21.6102  -14.4063   25.8912 C   0  0  0  0  0  0
   22.9967  -14.3715   25.8195 C   0  0  0  0  0  0
   23.6275  -14.0289   24.6305 C   0  0  0  0  0  0
   22.8573  -13.7367   23.5099 C   0  0  0  0  0  0
   11.6162  -11.7476   19.9199 H   0  0  0  0  0  0
   15.8348  -11.0526   18.0106 H   0  0  0  0  0  0
   12.2822   -8.9022   19.7062 H   0  0  0  0  0  0
   10.8171   -9.5915   20.3215 H   0  0  0  0  0  0
   11.6160   -8.2400   21.9633 H   0  0  0  0  0  0
   11.2528   -9.9922   23.7776 H   0  0  0  0  0  0
   10.8006  -10.9680   22.4332 H   0  0  0  0  0  0
   13.2122  -11.3624   23.5221 H   0  0  0  0  0  0
   11.6612  -13.2251   21.9263 H   0  0  0  0  0  0
   12.8755  -13.8086   20.8057 H   0  0  0  0  0  0
   13.2769  -13.6035   22.5022 H   0  0  0  0  0  0
   15.4945   -9.4537   21.5176 H   0  0  0  0  0  0
   14.2906   -8.8610   20.4646 H   0  0  0  0  0  0
   14.9187   -7.8519   21.7069 H   0  0  0  0  0  0
   14.4155   -8.2040   24.1954 H   0  0  0  0  0  0
   13.2145   -7.2830   23.5214 H   0  0  0  0  0  0
   12.7767   -8.6290   24.5311 H   0  0  0  0  0  0
   16.2855  -13.8400   17.6791 H   0  0  0  0  0  0
   14.6739  -13.8171   18.2874 H   0  0  0  0  0  0
   14.5116  -13.8724   15.9722 H   0  0  0  0  0  0
   14.0205  -12.2549   16.3680 H   0  0  0  0  0  0
   16.9022  -12.8518   15.5484 H   0  0  0  0  0  0
   15.6761  -12.8156   14.3374 H   0  0  0  0  0  0
   16.4286  -10.4151   16.0919 H   0  0  0  0  0  0
   16.8637  -10.6779   14.4271 H   0  0  0  0  0  0
   15.0678   -9.3261   14.3791 H   0  0  0  0  0  0
   14.5217  -10.7574   13.9023 H   0  0  0  0  0  0
   16.6997  -11.9613   20.4531 H   0  0  0  0  0  0
   17.4512  -13.3635   21.5818 H   0  0  0  0  0  0
   20.7579  -11.2420   18.5640 H   0  0  0  0  0  0
   22.2407  -11.8688   19.2331 H   0  0  0  0  0  0
   21.2499  -12.8997   18.1846 H   0  0  0  0  0  0
   19.7728  -14.1559   24.8717 H   0  0  0  0  0  0
   21.1063  -14.6470   26.8106 H   0  0  0  0  0  0
   23.5920  -14.6015   26.6922 H   0  0  0  0  0  0
   24.7058  -13.9905   24.5799 H   0  0  0  0  0  0
   23.3631  -13.4562   22.6000 H   0  0  0  0  0  0
  1  9  1  0  0  0
  1  2  1  0  0  0
  1 14  1  0  0  0
  2  3  1  0  0  0
  3 36  1  0  0  0
  3  8  1  0  0  0
  3  4  1  0  0  0
  4  5  1  0  0  0
  4 38  1  0  0  0
  4 39  1  0  0  0
  5 11  1  0  0  0
  5  6  1  0  0  0
  5 40  1  0  0  0
  6  7  1  0  0  0
  6 41  1  0  0  0
  6 42  1  0  0  0
  7  8  1  0  0  0
  7 11  1  0  0  0
  7 43  1  0  0  0
  8  9  1  0  0  0
  8 10  1  0  0  0
 10 44  1  0  0  0
 10 45  1  0  0  0
 10 46  1  0  0  0
 11 12  1  0  0  0
 11 13  1  0  0  0
 12 47  1  0  0  0
 12 48  1  0  0  0
 12 49  1  0  0  0
 13 50  1  0  0  0
 13 51  1  0  0  0
 13 52  1  0  0  0
 14 37  1  0  0  0
 14 15  1  0  0  0
 14 20  1  0  0  0
 15 16  1  0  0  0
 15 53  1  0  0  0
 15 54  1  0  0  0
 16 17  1  0  0  0
 16 55  1  0  0  0
 16 56  1  0  0  0
 17 18  1  0  0  0
 17 57  1  0  0  0
 17 58  1  0  0  0
 18 19  1  0  0  0
 18 59  1  0  0  0
 18 60  1  0  0  0
 19 61  1  0  0  0
 19 62  1  0  0  0
 20 21  1  0  0  0
 20 63  1  0  0  0
 21 22  2  0  0  0
 21 23  1  0  0  0
 23 28  1  0  0  0
 23 24  2  0  0  0
 24 25  1  0  0  0
 24 64  1  0  0  0
 25 26  2  0  0  0
 26 27  1  0  0  0
 26 30  1  0  0  0
 27 28  2  0  0  0
 28 29  1  0  0  0
 29 65  1  0  0  0
 29 66  1  0  0  0
 29 67  1  0  0  0
 30 35  1  0  0  0
 30 31  2  0  0  0
 31 32  1  0  0  0
 31 68  1  0  0  0
 32 33  2  0  0  0
 32 69  1  0  0  0
 33 34  1  0  0  0
 33 70  1  0  0  0
 34 35  2  0  0  0
 34 71  1  0  0  0
 35 72  1  0  0  0
M  END
> <s_m_entry_id>
37996

> <s_m_entry_name>
ligand_docking-pose.343

> <s_m_Source_Path>
/home/csk/Desktop/cluster/DUD-E-result/thrb

> <s_m_Source_File>
ligand_docking-pose.sdf

> <i_m_Source_File_Index>
343

> <i_lp_mmshare_version>
53161

> <i_f3d_flags>
0

> <r_lp_tautomer_probability>
1

> <s_lp_Force_Field>
OPLS_2005

> <r_lp_Energy>
55.287182

> <b_lp_Chiralities_Consistent>
1

> <s_lp_Variant>
61460-1

> <s_i_glide_gridfile>
glide-grid_1ype

> <i_i_glide_lignum>
14

> <i_i_glide_rotatable_bonds>
9

> <r_i_docking_score>
-6.96019084712354

> <r_i_glide_ligand_efficiency>
-0.198862595632101

> <r_i_glide_ligand_efficiency_sa>
-0.650492736157913

> <r_i_glide_ligand_efficiency_ln>
-1.52791636405668

> <r_i_glide_gscore>
-6.96019084712354

> <r_i_glide_lipo>
-4.30508550767726

> <r_i_glide_hbond>
-0.0686821276271861

> <r_i_glide_metal>
0

> <r_i_glide_rewards>
-0.707667890088483

> <r_i_glide_evdw>
-33.1995086669922

> <r_i_glide_ecoul>
-6.21668100357056

> <r_i_glide_erotb>
0.713722262154588

> <r_i_glide_esite>
0

> <r_i_glide_emodel>
-46.2942955182912

> <r_i_glide_energy>
-39.4161896705627

> <r_i_glide_einternal>
12.7681436538696

> <i_i_glide_confnum>
26

> <i_i_glide_posenum>
24

> <r_i_glide_eff_state_penalty>
0

> <s_user_duplicate_titles>
61460

> <s_m_subgroup_title>
dock_pv

> <s_m_subgroupid>
dock_pv1

> <b_m_subgroup_collapsed>
0

$$$$
279268
                    3D
 Schrodinger Suite 2021-1.
 50 52  0  0  1  0            999 V2000
   24.4850  -13.9372   23.9789 C   0  0  0  0  0  0
   24.9632  -15.1993   24.3204 C   0  0  0  0  0  0
   24.0802  -16.1639   24.8022 C   0  0  0  0  0  0
   22.7224  -15.8751   24.9639 C   0  0  0  0  0  0
   22.2448  -14.5874   24.6543 C   0  0  0  0  0  0
   23.1368  -13.6365   24.1469 C   0  0  0  0  0  0
   20.5213  -14.1075   24.8901 S   0  0  0  0  0  0
   20.4145  -12.6529   24.7274 O   0  0  0  0  0  0
   20.0067  -14.7653   26.0963 O   0  0  0  0  0  0
   19.8743  -14.8706   23.5486 O   0  0  0  0  0  0
   19.5287  -14.0941   22.4748 C   0  0  0  0  0  0
   18.2448  -13.5530   22.4062 C   0  0  0  0  0  0
   17.8543  -12.7611   21.3273 C   0  0  0  0  0  0
   18.7845  -12.4979   20.3101 C   0  0  0  0  0  0
   20.0731  -13.0278   20.3748 C   0  0  0  0  0  0
   20.4420  -13.8383   21.4499 C   0  0  0  0  0  0
   21.2159  -12.6548   19.1363 Cl  0  0  0  0  0  0
   16.5674  -12.2651   21.3469 O   0  0  0  0  0  0
   15.9282  -11.9622   20.1067 C   0  0  0  0  0  0
   14.4456  -11.6083   20.3511 C   0  0  0  0  0  0
   13.6813  -12.6685   21.1817 C   0  0  0  0  0  0
   12.2343  -12.2455   21.5212 C   0  0  0  0  0  0
   12.2539  -10.9226   22.1680 N   0  0  0  0  0  0
   12.7851   -9.8862   21.2736 C   0  0  0  0  0  0
   14.2592  -10.2116   20.9845 C   0  0  0  0  0  0
   11.5767  -10.5848   23.3825 C   0  0  0  0  0  0
   11.6161   -9.4535   23.9268 N   0  0  0  0  0  0
   10.8160  -11.6137   23.9643 N   0  0  0  0  0  0
   21.6902  -17.1456   25.5180 Cl  0  0  0  0  0  0
   25.1610  -13.1915   23.5860 H   0  0  0  0  0  0
   26.0134  -15.4294   24.2060 H   0  0  0  0  0  0
   24.4532  -17.1477   25.0490 H   0  0  0  0  0  0
   22.7896  -12.6546   23.8713 H   0  0  0  0  0  0
   17.5405  -13.7591   23.1993 H   0  0  0  0  0  0
   18.5232  -11.8692   19.4723 H   0  0  0  0  0  0
   21.4379  -14.2576   21.4957 H   0  0  0  0  0  0
   15.9872  -12.8192   19.4366 H   0  0  0  0  0  0
   16.4214  -11.1268   19.6078 H   0  0  0  0  0  0
   13.9361  -11.5631   19.3864 H   0  0  0  0  0  0
   14.2012  -12.8597   22.1233 H   0  0  0  0  0  0
   13.6960  -13.6320   20.6733 H   0  0  0  0  0  0
   11.7773  -13.0090   22.1515 H   0  0  0  0  0  0
   11.6212  -12.1893   20.6180 H   0  0  0  0  0  0
   12.6977   -8.8853   21.7000 H   0  0  0  0  0  0
   12.2024   -9.8881   20.3510 H   0  0  0  0  0  0
   14.6984   -9.4526   20.3441 H   0  0  0  0  0  0
   14.8159  -10.1223   21.9117 H   0  0  0  0  0  0
   11.0329   -9.4445   24.7514 H   0  0  0  0  0  0
   10.1683  -11.4320   24.7222 H   0  0  0  0  0  0
   10.6833  -12.5085   23.5188 H   0  0  0  0  0  0
  1  6  1  0  0  0
  1  2  2  0  0  0
  1 30  1  0  0  0
  2  3  1  0  0  0
  2 31  1  0  0  0
  3  4  2  0  0  0
  3 32  1  0  0  0
  4  5  1  0  0  0
  4 29  1  0  0  0
  5  6  2  0  0  0
  5  7  1  0  0  0
  6 33  1  0  0  0
  7  8  2  0  0  0
  7  9  2  0  0  0
  7 10  1  0  0  0
 10 11  1  0  0  0
 11 16  1  0  0  0
 11 12  2  0  0  0
 12 13  1  0  0  0
 12 34  1  0  0  0
 13 14  2  0  0  0
 13 18  1  0  0  0
 14 15  1  0  0  0
 14 35  1  0  0  0
 15 16  2  0  0  0
 15 17  1  0  0  0
 16 36  1  0  0  0
 18 19  1  0  0  0
 19 20  1  0  0  0
 19 37  1  0  0  0
 19 38  1  0  0  0
 20 25  1  0  0  0
 20 21  1  0  0  0
 20 39  1  0  0  0
 21 22  1  0  0  0
 21 40  1  0  0  0
 21 41  1  0  0  0
 22 23  1  0  0  0
 22 42  1  0  0  0
 22 43  1  0  0  0
 23 24  1  0  0  0
 23 26  1  0  0  0
 24 25  1  0  0  0
 24 44  1  0  0  0
 24 45  1  0  0  0
 25 46  1  0  0  0
 25 47  1  0  0  0
 26 27  2  3  0  0
 26 28  1  0  0  0
 27 48  1  0  0  0
 28 49  1  0  0  0
 28 50  1  0  0  0
M  END
> <s_m_entry_id>
37997

> <s_m_entry_name>
ligand_docking-pose.344

> <s_m_Source_Path>
/home/csk/Desktop/cluster/DUD-E-result/thrb

> <s_m_Source_File>
ligand_docking-pose.sdf

> <i_m_Source_File_Index>
344

> <i_lp_mmshare_version>
53161

> <i_f3d_flags>
0

> <r_lp_tautomer_probability>
1

> <s_lp_Force_Field>
OPLS_2005

> <r_lp_Energy>
23.307607

> <b_lp_Chiralities_Consistent>
1

> <s_lp_Variant>
279268-1

> <s_i_glide_gridfile>
glide-grid_1ype

> <i_i_glide_lignum>
1908

> <i_i_glide_rotatable_bonds>
7

> <r_i_docking_score>
-6.95631071454426

> <r_i_glide_ligand_efficiency>
-0.239872783260147

> <r_i_glide_ligand_efficiency_sa>
-0.736965187207051

> <r_i_glide_ligand_efficiency_ln>
-1.59281875681085

> <r_i_glide_gscore>
-6.95631071454426

> <r_i_glide_lipo>
-3.17999415395923

> <r_i_glide_hbond>
-0.0911817033635575

> <r_i_glide_metal>
0

> <r_i_glide_rewards>
-0.952114638538801

> <r_i_glide_evdw>
-49.1897888183594

> <r_i_glide_ecoul>
-5.15546941757202

> <r_i_glide_erotb>
0.574378016000853

> <r_i_glide_esite>
-0.0745883811297557

> <r_i_glide_emodel>
-72.6456988015011

> <r_i_glide_energy>
-54.3452582359314

> <r_i_glide_einternal>
9.27540493011475

> <i_i_glide_confnum>
38

> <i_i_glide_posenum>
350

> <r_i_glide_eff_state_penalty>
0

> <s_user_duplicate_titles>
279268

> <s_m_subgroup_title>
dock_pv

> <s_m_subgroupid>
dock_pv1

> <b_m_subgroup_collapsed>
0

$$$$
117690
                    3D
 Schrodinger Suite 2021-1.
 36 38  0  0  1  0            999 V2000
   20.3948  -12.4091   18.7305 C   0  0  0  0  0  0
   19.0723  -12.6067   19.4579 C   0  0  0  0  0  0
   17.8622  -12.3025   18.8258 C   0  0  0  0  0  0
   16.6649  -12.4941   19.5127 C   0  0  0  0  0  0
   16.6094  -12.9966   20.7697 N   0  0  0  0  0  0
   17.7714  -13.3108   21.4024 C   0  0  0  0  0  0
   19.0503  -13.1228   20.7915 C   0  0  0  0  0  0
   20.2129  -13.4578   21.5394 C   0  0  0  0  0  0
   20.0972  -13.9562   22.8369 C   0  0  0  0  0  0
   18.8472  -14.1471   23.4167 C   0  0  0  0  0  0
   17.6893  -13.8430   22.7081 C   0  0  0  0  0  0
   18.7173  -14.8056   25.1985 Br  0  0  0  0  0  0
   15.1317  -12.0956   18.7140 S   0  0  0  0  0  0
   14.0732  -11.6676   20.0695 C   0  0  0  0  0  0
   14.3406  -10.5269   20.8189 C   0  0  0  0  0  0
   13.5242  -10.2005   21.8981 C   0  0  0  0  0  0
   12.4335  -11.0096   22.2602 C   0  0  0  0  0  0
   12.1771  -12.1491   21.4736 C   0  0  0  0  0  0
   12.9849  -12.4752   20.3859 C   0  0  0  0  0  0
   11.5948  -10.6491   23.4369 C   0  0  0  0  0  0
   11.6162   -9.4896   23.9245 N   0  0  0  0  0  0
   10.8159  -11.6686   23.9212 N   0  0  0  0  0  0
   20.9338  -13.3540   18.6546 H   0  0  0  0  0  0
   20.2498  -12.0306   17.7188 H   0  0  0  0  0  0
   21.0279  -11.7024   19.2665 H   0  0  0  0  0  0
   17.8492  -11.9189   17.8171 H   0  0  0  0  0  0
   21.1943  -13.3244   21.1066 H   0  0  0  0  0  0
   20.9886  -14.2016   23.3984 H   0  0  0  0  0  0
   16.7126  -14.0073   23.1359 H   0  0  0  0  0  0
   15.1874   -9.8966   20.5826 H   0  0  0  0  0  0
   13.7578   -9.3110   22.4677 H   0  0  0  0  0  0
   11.3421  -12.8013   21.6941 H   0  0  0  0  0  0
   12.7720  -13.3602   19.8029 H   0  0  0  0  0  0
   10.9711   -9.4203   24.6986 H   0  0  0  0  0  0
   10.0900  -11.4688   24.6026 H   0  0  0  0  0  0
   10.8277  -12.5962   23.5211 H   0  0  0  0  0  0
  1  2  1  0  0  0
  1 23  1  0  0  0
  1 24  1  0  0  0
  1 25  1  0  0  0
  2  7  1  0  0  0
  2  3  2  0  0  0
  3  4  1  0  0  0
  3 26  1  0  0  0
  4  5  2  0  0  0
  4 13  1  0  0  0
  5  6  1  0  0  0
  6 11  2  0  0  0
  6  7  1  0  0  0
  7  8  2  0  0  0
  8  9  1  0  0  0
  8 27  1  0  0  0
  9 10  2  0  0  0
  9 28  1  0  0  0
 10 11  1  0  0  0
 10 12  1  0  0  0
 11 29  1  0  0  0
 13 14  1  0  0  0
 14 19  1  0  0  0
 14 15  2  0  0  0
 15 16  1  0  0  0
 15 30  1  0  0  0
 16 17  2  0  0  0
 16 31  1  0  0  0
 17 18  1  0  0  0
 17 20  1  0  0  0
 18 19  2  0  0  0
 18 32  1  0  0  0
 19 33  1  0  0  0
 20 21  2  3  0  0
 20 22  1  0  0  0
 21 34  1  0  0  0
 22 35  1  0  0  0
 22 36  1  0  0  0
M  END
> <s_m_entry_id>
37999

> <s_m_entry_name>
ligand_docking-pose.346

> <s_m_Source_Path>
/home/csk/Desktop/cluster/DUD-E-result/thrb

> <s_m_Source_File>
ligand_docking-pose.sdf

> <i_m_Source_File_Index>
346

> <i_lp_mmshare_version>
53161

> <i_f3d_flags>
0

> <r_lp_tautomer_probability>
1

> <s_lp_Force_Field>
OPLS_2005

> <r_lp_Energy>
7.442686

> <b_lp_Chiralities_Consistent>
1

> <s_lp_Variant>
117690-1

> <s_i_glide_gridfile>
glide-grid_1ype

> <i_i_glide_lignum>
2856

> <i_i_glide_rotatable_bonds>
3

> <r_i_docking_score>
-6.94946915091308

> <r_i_glide_ligand_efficiency>
-0.31588496140514

> <r_i_glide_ligand_efficiency_sa>
-0.885122084907778

> <r_i_glide_ligand_efficiency_ln>
-1.6987037485295

> <r_i_glide_gscore>
-6.94946915091308

> <r_i_glide_lipo>
-3.01489911361136

> <r_i_glide_hbond>
-0.418679967062769

> <r_i_glide_metal>
0

> <r_i_glide_rewards>
-0.970620598861923

> <r_i_glide_evdw>
-39.2991371154785

> <r_i_glide_ecoul>
-5.23217964172363

> <r_i_glide_erotb>
0.278689257188329

> <r_i_glide_esite>
-0.0741749265328926

> <r_i_glide_emodel>
-63.6287165236349

> <r_i_glide_energy>
-44.5313167572021

> <r_i_glide_einternal>
0.4049471616745

> <i_i_glide_confnum>
3

> <i_i_glide_posenum>
141

> <r_i_glide_eff_state_penalty>
0

> <s_user_duplicate_titles>
117690

> <s_m_subgroup_title>
dock_pv

> <s_m_subgroupid>
dock_pv1

> <b_m_subgroup_collapsed>
0

$$$$
112830
                    3D
 Schrodinger Suite 2021-1.
 61 62  0  0  1  0            999 V2000
   21.4188  -11.8530   18.6728 C   0  0  0  0  0  0
   19.9900  -12.3568   18.5648 C   0  0  0  0  0  0
   19.4291  -12.2529   17.4779 O   0  0  0  0  0  0
   19.4192  -12.9264   19.6592 N   0  0  0  0  0  0
   20.1096  -12.9198   20.9390 C   0  0  0  0  0  0
   19.1584  -13.4901   21.9750 C   0  0  1  0  0  0
   17.7859  -13.2890   21.3659 C   0  0  0  0  0  0
   18.0012  -13.3228   19.8335 C   0  0  1  0  0  0
   16.9817  -12.3626   19.1919 C   0  0  0  0  0  0
   16.9995  -11.1607   19.4660 O   0  0  0  0  0  0
   16.0689  -12.9192   18.3766 N   0  0  0  0  0  0
   14.9052  -12.2392   17.7811 C   0  0  1  0  0  0
   14.0254  -11.5236   18.8507 C   0  0  0  0  0  0
   13.6609  -12.4146   20.0666 C   0  0  0  0  0  0
   12.4586  -11.9179   20.8807 C   0  0  0  0  0  0
   12.6699  -10.5572   21.3509 N   0  0  0  0  0  0
   12.3025  -10.2179   22.5169 C   0  0  0  0  0  0
   12.7922   -9.0529   23.1208 N   0  0  0  0  0  0
   11.3824  -10.8829   23.3537 N   0  0  0  0  0  0
   15.2786  -11.3145   16.6102 C   0  0  0  0  0  0
   14.4160  -10.6530   16.0332 O   0  0  0  0  0  0
   16.7357  -11.2060   16.1318 C   0  0  0  0  0  0
   16.9747   -9.8585   14.9791 Cl  0  0  0  0  0  0
   19.4864  -14.8774   22.0739 O   0  0  0  0  0  0
   19.1911  -15.4978   23.3243 C   0  0  0  0  0  0
   20.0073  -14.8545   24.4381 C   0  0  0  0  0  0
   19.3556  -14.2529   25.5166 C   0  0  0  0  0  0
   20.0965  -13.5442   26.4546 C   0  0  0  0  0  0
   21.4751  -13.4531   26.3214 C   0  0  0  0  0  0
   22.1379  -14.0765   25.2681 C   0  0  0  0  0  0
   21.3990  -14.7798   24.3208 C   0  0  0  0  0  0
   19.3200  -12.9534   22.9110 H   0  0  0  0  0  0
   17.8184  -14.3393   19.4983 H   0  0  0  0  0  0
   14.3108  -13.0418   17.3411 H   0  0  0  0  0  0
   21.5086  -11.0944   19.4509 H   0  0  0  0  0  0
   22.0181  -12.7074   18.9550 H   0  0  0  0  0  0
   21.7798  -11.4529   17.7256 H   0  0  0  0  0  0
   20.1564  -11.8530   21.1201 H   0  0  0  0  0  0
   21.1476  -13.2451   21.0224 H   0  0  0  0  0  0
   17.3936  -12.3390   21.7382 H   0  0  0  0  0  0
   17.0771  -14.0615   21.6678 H   0  0  0  0  0  0
   16.1256  -13.9114   18.1971 H   0  0  0  0  0  0
   13.1310  -11.1161   18.3933 H   0  0  0  0  0  0
   14.5448  -10.6532   19.2484 H   0  0  0  0  0  0
   14.5200  -12.5113   20.7321 H   0  0  0  0  0  0
   13.4375  -13.4246   19.7196 H   0  0  0  0  0  0
   12.2392  -12.6366   21.6761 H   0  0  0  0  0  0
   11.6160  -11.9306   20.2024 H   0  0  0  0  0  0
   13.5837   -8.6347   22.6588 H   0  0  0  0  0  0
   12.9623   -9.0990   24.1148 H   0  0  0  0  0  0
   10.8354  -11.6131   22.9229 H   0  0  0  0  0  0
   10.7662  -10.3083   23.9120 H   0  0  0  0  0  0
   17.3897  -11.0007   16.9731 H   0  0  0  0  0  0
   17.0529  -12.1331   15.6562 H   0  0  0  0  0  0
   18.1193  -15.4502   23.5261 H   0  0  0  0  0  0
   19.4478  -16.5557   23.2636 H   0  0  0  0  0  0
   18.2800  -14.2979   25.6102 H   0  0  0  0  0  0
   19.6159  -13.0541   27.2871 H   0  0  0  0  0  0
   22.0160  -12.8898   27.0620 H   0  0  0  0  0  0
   23.2122  -14.0017   25.1813 H   0  0  0  0  0  0
   21.8992  -15.2366   23.4786 H   0  0  0  0  0  0
  1  2  1  0  0  0
  1 35  1  0  0  0
  1 36  1  0  0  0
  1 37  1  0  0  0
  2  3  2  0  0  0
  2  4  1  0  0  0
  4  8  1  0  0  0
  4  5  1  0  0  0
  5  6  1  0  0  0
  5 38  1  0  0  0
  5 39  1  0  0  0
  6 32  1  0  0  0
  6  7  1  0  0  0
  6 24  1  0  0  0
  7  8  1  0  0  0
  7 40  1  0  0  0
  7 41  1  0  0  0
  8 33  1  0  0  0
  8  9  1  0  0  0
  9 10  2  0  0  0
  9 11  1  0  0  0
 11 12  1  0  0  0
 11 42  1  0  0  0
 12 34  1  0  0  0
 12 13  1  0  0  0
 12 20  1  0  0  0
 13 14  1  0  0  0
 13 43  1  0  0  0
 13 44  1  0  0  0
 14 15  1  0  0  0
 14 45  1  0  0  0
 14 46  1  0  0  0
 15 16  1  0  0  0
 15 47  1  0  0  0
 15 48  1  0  0  0
 16 17  2  3  0  0
 17 18  1  0  0  0
 17 19  1  0  0  0
 18 49  1  0  0  0
 18 50  1  0  0  0
 19 51  1  0  0  0
 19 52  1  0  0  0
 20 21  2  0  0  0
 20 22  1  0  0  0
 22 23  1  0  0  0
 22 53  1  0  0  0
 22 54  1  0  0  0
 24 25  1  0  0  0
 25 26  1  0  0  0
 25 55  1  0  0  0
 25 56  1  0  0  0
 26 31  1  0  0  0
 26 27  2  0  0  0
 27 28  1  0  0  0
 27 57  1  0  0  0
 28 29  2  0  0  0
 28 58  1  0  0  0
 29 30  1  0  0  0
 29 59  1  0  0  0
 30 31  2  0  0  0
 30 60  1  0  0  0
 31 61  1  0  0  0
M  END
> <s_m_entry_id>
38000

> <s_m_entry_name>
ligand_docking-pose.347

> <s_m_Source_Path>
/home/csk/Desktop/cluster/DUD-E-result/thrb

> <s_m_Source_File>
ligand_docking-pose.sdf

> <i_m_Source_File_Index>
347

> <i_lp_mmshare_version>
53161

> <i_f3d_flags>
0

> <r_lp_tautomer_probability>
0.999999960000001

> <s_lp_Force_Field>
OPLS_2005

> <r_lp_Energy>
13.81308

> <b_lp_Chiralities_Consistent>
1

> <s_lp_Variant>
112830-1

> <s_i_glide_gridfile>
glide-grid_1ype

> <i_i_glide_lignum>
4057

> <i_i_glide_rotatable_bonds>
13

> <r_i_docking_score>
-6.94539593865288

> <r_i_glide_ligand_efficiency>
-0.224045030279125

> <r_i_glide_ligand_efficiency_sa>
-0.703810722577662

> <r_i_glide_ligand_efficiency_ln>
-1.56639963498933

> <r_i_glide_gscore>
-6.94539593865288

> <r_i_glide_lipo>
-3.10968800851173

> <r_i_glide_hbond>
-0.44451897510741

> <r_i_glide_metal>
0

> <r_i_glide_rewards>
-1.17699759935044

> <r_i_glide_evdw>
-44.972526550293

> <r_i_glide_ecoul>
-6.6724853515625

> <r_i_glide_erotb>
1.08037470837589

> <r_i_glide_esite>
-0.0450669338101732

> <r_i_glide_emodel>
-70.3706350417742

> <r_i_glide_energy>
-51.6450119018555

> <r_i_glide_einternal>
7.42739343643188

> <i_i_glide_confnum>
148

> <i_i_glide_posenum>
177

> <r_i_glide_eff_state_penalty>
0

> <s_user_duplicate_titles>
112830

> <s_m_subgroup_title>
dock_pv

> <s_m_subgroupid>
dock_pv1

> <b_m_subgroup_collapsed>
0

$$$$
167851
                    3D
 Schrodinger Suite 2021-1.
 54 57  0  0  1  0            999 V2000
   19.2448  -14.5318   26.3214 C   0  0  0  0  0  0
   20.1221  -13.5062   26.6709 C   0  0  0  0  0  0
   21.4527  -13.5660   26.2748 C   0  0  0  0  0  0
   21.9248  -14.6478   25.5201 C   0  0  0  0  0  0
   21.0213  -15.6629   25.1254 C   0  0  0  0  0  0
   19.6942  -15.6033   25.5596 C   0  0  0  0  0  0
   21.3882  -16.7801   24.1408 C   0  0  0  0  0  0
   20.7909  -16.6159   22.8127 N   0  0  0  0  0  0
   20.8158  -15.4864   22.0841 C   0  0  0  0  0  0
   21.3503  -14.4408   22.4578 O   0  0  0  0  0  0
   20.1280  -15.5692   20.7199 C   0  0  0  0  0  0
   19.5721  -14.2591   20.3319 N   0  0  0  0  0  0
   20.2924  -13.3411   19.5954 C   0  0  0  0  0  0
   19.7541  -12.1697   19.1816 C   0  0  0  0  0  0
   18.4475  -11.8534   19.4430 N   0  0  0  0  0  0
   17.7551  -12.6747   20.1707 C   0  0  0  0  0  0
   18.2726  -13.9686   20.7290 C   0  0  0  0  0  0
   17.5968  -14.7153   21.4470 O   0  0  0  0  0  0
   16.4116  -12.4144   20.4213 N   0  0  0  0  0  0
   15.6327  -11.3261   19.8258 C   0  0  0  0  0  0
   14.1047  -11.5951   19.7357 C   0  0  0  0  0  0
   13.3088  -11.1724   20.9795 C   0  0  0  0  0  0
   12.3572  -12.0170   21.5714 C   0  0  0  0  0  0
   11.6174  -11.5447   22.6581 C   0  0  0  0  0  0
   11.8457  -10.2539   23.1334 C   0  0  0  0  0  0
   12.8132   -9.4715   22.5020 C   0  0  0  0  0  0
   13.5356   -9.9094   21.4396 N   0  0  0  0  0  0
   13.6103  -10.8874   18.7219 F   0  0  0  0  0  0
   13.8634  -12.8762   19.4399 F   0  0  0  0  0  0
   23.2746  -14.6274   25.1122 N   0  0  0  0  0  0
   23.9808  -13.5973   24.5506 C   0  0  0  0  0  0
   25.2160  -13.9535   24.3177 N   0  0  0  0  0  0
   25.2157  -15.2084   24.7310 C   0  0  0  0  0  0
   24.1060  -15.6665   25.2695 N   0  0  0  0  0  0
   18.2111  -14.4924   26.6356 H   0  0  0  0  0  0
   19.7791  -12.6621   27.2525 H   0  0  0  0  0  0
   22.1078  -12.7556   26.5509 H   0  0  0  0  0  0
   18.9886  -16.3655   25.2610 H   0  0  0  0  0  0
   22.4552  -16.9127   23.9977 H   0  0  0  0  0  0
   21.0503  -17.7300   24.5557 H   0  0  0  0  0  0
   20.3566  -17.4342   22.4149 H   0  0  0  0  0  0
   20.8671  -15.8679   19.9762 H   0  0  0  0  0  0
   19.3624  -16.3461   20.7064 H   0  0  0  0  0  0
   21.3259  -13.6205   19.4449 H   0  0  0  0  0  0
   20.3485  -11.4527   18.6346 H   0  0  0  0  0  0
   15.9123  -13.0543   21.0260 H   0  0  0  0  0  0
   15.8412  -10.3893   20.3442 H   0  0  0  0  0  0
   15.9882  -11.1729   18.8058 H   0  0  0  0  0  0
   12.1697  -13.0131   21.1941 H   0  0  0  0  0  0
   10.8686  -12.1708   23.1247 H   0  0  0  0  0  0
   11.2871   -9.8729   23.9761 H   0  0  0  0  0  0
   13.0261   -8.4719   22.8497 H   0  0  0  0  0  0
   23.5060  -12.6559   24.3371 H   0  0  0  0  0  0
   26.1087  -15.8176   24.6783 H   0  0  0  0  0  0
  1  6  1  0  0  0
  1  2  2  0  0  0
  1 35  1  0  0  0
  2  3  1  0  0  0
  2 36  1  0  0  0
  3  4  2  0  0  0
  3 37  1  0  0  0
  4  5  1  0  0  0
  4 30  1  0  0  0
  5  6  2  0  0  0
  5  7  1  0  0  0
  6 38  1  0  0  0
  7  8  1  0  0  0
  7 39  1  0  0  0
  7 40  1  0  0  0
  8  9  1  0  0  0
  8 41  1  0  0  0
  9 10  2  0  0  0
  9 11  1  0  0  0
 11 12  1  0  0  0
 11 42  1  0  0  0
 11 43  1  0  0  0
 12 17  1  0  0  0
 12 13  1  0  0  0
 13 14  2  0  0  0
 13 44  1  0  0  0
 14 15  1  0  0  0
 14 45  1  0  0  0
 15 16  2  0  0  0
 16 17  1  0  0  0
 16 19  1  0  0  0
 17 18  2  0  0  0
 19 20  1  0  0  0
 19 46  1  0  0  0
 20 21  1  0  0  0
 20 47  1  0  0  0
 20 48  1  0  0  0
 21 22  1  0  0  0
 21 28  1  0  0  0
 21 29  1  0  0  0
 22 27  1  0  0  0
 22 23  2  0  0  0
 23 24  1  0  0  0
 23 49  1  0  0  0
 24 25  2  0  0  0
 24 50  1  0  0  0
 25 26  1  0  0  0
 25 51  1  0  0  0
 26 27  2  0  0  0
 26 52  1  0  0  0
 30 34  1  0  0  0
 30 31  1  0  0  0
 31 32  2  0  0  0
 31 53  1  0  0  0
 32 33  1  0  0  0
 33 34  2  0  0  0
 33 54  1  0  0  0
M  END
> <s_m_entry_id>
38002

> <s_m_entry_name>
ligand_docking-pose.349

> <s_m_Source_Path>
/home/csk/Desktop/cluster/DUD-E-result/thrb

> <s_m_Source_File>
ligand_docking-pose.sdf

> <i_m_Source_File_Index>
349

> <i_lp_mmshare_version>
53161

> <i_f3d_flags>
0

> <r_lp_tautomer_probability>
1

> <s_lp_Force_Field>
OPLS_2005

> <r_lp_Energy>
29.379966

> <b_lp_Chiralities_Consistent>
1

> <s_lp_Variant>
167851-1

> <s_i_glide_gridfile>
glide-grid_1ype

> <i_i_glide_lignum>
1367

> <i_i_glide_rotatable_bonds>
10

> <r_i_docking_score>
-6.94303910692444

> <r_i_glide_ligand_efficiency>
-0.204207032556601

> <r_i_glide_ligand_efficiency_sa>
-0.661551511796597

> <r_i_glide_ligand_efficiency_ln>
-1.53391208437008

> <r_i_glide_gscore>
-6.94303910692444

> <r_i_glide_lipo>
-3.30096385367205

> <r_i_glide_hbond>
0

> <r_i_glide_metal>
0

> <r_i_glide_rewards>
-1.46846382397903

> <r_i_glide_evdw>
-50.7906036376953

> <r_i_glide_ecoul>
-3.0004677772522

> <r_i_glide_erotb>
0.834551439059946

> <r_i_glide_esite>
-0.0185625198607053

> <r_i_glide_emodel>
-74.3059896075621

> <r_i_glide_energy>
-53.7910714149475

> <r_i_glide_einternal>
7.02986526489258

> <i_i_glide_confnum>
48

> <i_i_glide_posenum>
163

> <r_i_glide_eff_state_penalty>
0

> <s_user_duplicate_titles>
167851

> <s_m_subgroup_title>
dock_pv

> <s_m_subgroupid>
dock_pv1

> <b_m_subgroup_collapsed>
0

$$$$
195369
                    3D
 Schrodinger Suite 2021-1.
 67 71  0  0  1  0            999 V2000
   18.5242  -15.2691   26.3927 C   0  0  0  0  0  0
   19.4357  -14.2338   25.9203 N   0  0  0  0  0  0
   20.2029  -13.4539   26.8587 C   0  0  0  0  0  0
   21.0592  -12.6191   25.9272 C   0  0  0  0  0  0
   20.7554  -13.0528   24.5890 N   0  0  0  0  0  0
   19.8403  -13.9367   24.6279 C   0  0  0  0  0  0
   19.3188  -14.5667   23.3991 C   0  0  0  0  0  0
   20.1811  -14.7536   22.3081 C   0  0  0  0  0  0
   19.7152  -15.3057   21.1214 C   0  0  0  0  0  0
   18.3796  -15.6802   21.0085 C   0  0  0  0  0  0
   17.4957  -15.5174   22.0833 C   0  0  0  0  0  0
   17.9763  -14.9562   23.2700 C   0  0  0  0  0  0
   16.1701  -15.9047   22.0552 O   0  0  0  0  0  0
   15.4207  -15.8384   20.9026 C   0  0  0  0  0  0
   15.5021  -16.7927   19.8769 C   0  0  0  0  0  0
   14.6626  -16.6533   18.7635 C   0  0  0  0  0  0
   13.7019  -15.6386   18.7618 C   0  0  0  0  0  0
   13.6695  -14.7315   19.8205 C   0  0  0  0  0  0
   14.5301  -14.8136   20.8751 N   0  0  0  0  0  0
   12.7836  -13.6717   19.7574 O   0  0  0  0  0  0
   13.0242  -12.5011   20.4417 C   0  0  0  0  0  0
   12.2523  -12.2025   21.5624 C   0  0  0  0  0  0
   12.4242  -11.0025   22.2828 C   0  0  0  0  0  0
   13.4204  -10.1184   21.8286 C   0  0  0  0  0  0
   14.2096  -10.4196   20.7208 C   0  0  0  0  0  0
   14.0038  -11.5997   20.0154 C   0  0  0  0  0  0
   14.7582  -11.8561   18.9002 O   0  0  0  0  0  0
   11.5960  -10.6604   23.4685 C   0  0  0  0  0  0
   11.6161   -9.5091   23.9748 N   0  0  0  0  0  0
   10.8159  -11.6898   23.9277 N   0  0  0  0  0  0
   12.8247  -15.5248   17.7417 F   0  0  0  0  0  0
   14.7685  -17.5026   17.6849 O   0  0  0  0  0  0
   15.8006  -17.1722   16.7470 C   0  0  2  0  0  0
   15.6270  -15.8486   15.9796 C   0  0  0  0  0  0
   15.6812  -16.2546   14.4927 C   0  0  2  0  0  0
   16.3462  -17.5536   14.4600 N   0  0  2  0  0  0
   15.8490  -18.2348   15.6478 C   0  0  0  0  0  0
   16.4438  -15.2156   13.6409 C   0  0  0  0  0  0
   17.6684  -15.0842   13.6789 O   0  0  0  0  0  0
   15.6160  -14.4270   12.8937 O   0  0  0  0  0  0
   16.3727  -17.8273   19.9553 F   0  0  0  0  0  0
   16.7478  -17.2037   17.2904 H   0  0  0  0  0  0
   14.6823  -16.3622   14.0632 H   0  0  0  0  0  0
   17.4864  -14.9694   26.2467 H   0  0  0  0  0  0
   18.6944  -16.2089   25.8642 H   0  0  0  0  0  0
   18.6572  -15.4573   27.4587 H   0  0  0  0  0  0
   19.6160  -12.8204   27.5187 H   0  0  0  0  0  0
   20.8178  -14.0579   27.5177 H   0  0  0  0  0  0
   22.1252  -12.7839   26.0910 H   0  0  0  0  0  0
   20.8159  -11.5552   25.9878 H   0  0  0  0  0  0
   21.2226  -14.4673   22.3683 H   0  0  0  0  0  0
   20.3911  -15.4424   20.2896 H   0  0  0  0  0  0
   18.0535  -16.1131   20.0789 H   0  0  0  0  0  0
   17.2728  -14.8085   24.0753 H   0  0  0  0  0  0
   11.5002  -12.9254   21.8423 H   0  0  0  0  0  0
   13.6062   -9.1867   22.3469 H   0  0  0  0  0  0
   14.9814   -9.7331   20.4085 H   0  0  0  0  0  0
   14.5233  -12.6946   18.4984 H   0  0  0  0  0  0
   10.9621   -9.4523   24.7428 H   0  0  0  0  0  0
   10.0910  -11.4989   24.6125 H   0  0  0  0  0  0
   10.8450  -12.6192   23.5320 H   0  0  0  0  0  0
   16.4001  -15.1367   16.2763 H   0  0  0  0  0  0
   14.6502  -15.4126   16.1770 H   0  0  0  0  0  0
   17.3463  -17.4041   14.5292 H   0  0  0  0  0  0
   16.4321  -19.1127   15.9284 H   0  0  0  0  0  0
   14.8353  -18.5676   15.4120 H   0  0  0  0  0  0
   14.6717  -14.6556   12.9359 H   0  0  0  0  0  0
  1  2  1  0  0  0
  1 44  1  0  0  0
  1 45  1  0  0  0
  1 46  1  0  0  0
  2  6  1  0  0  0
  2  3  1  0  0  0
  3  4  1  0  0  0
  3 47  1  0  0  0
  3 48  1  0  0  0
  4  5  1  0  0  0
  4 49  1  0  0  0
  4 50  1  0  0  0
  5  6  2  0  0  0
  6  7  1  0  0  0
  7 12  1  0  0  0
  7  8  2  0  0  0
  8  9  1  0  0  0
  8 51  1  0  0  0
  9 10  2  0  0  0
  9 52  1  0  0  0
 10 11  1  0  0  0
 10 53  1  0  0  0
 11 12  2  0  0  0
 11 13  1  0  0  0
 12 54  1  0  0  0
 13 14  1  0  0  0
 14 19  1  0  0  0
 14 15  2  0  0  0
 15 16  1  0  0  0
 15 41  1  0  0  0
 16 17  2  0  0  0
 16 32  1  0  0  0
 17 18  1  0  0  0
 17 31  1  0  0  0
 18 19  2  0  0  0
 18 20  1  0  0  0
 20 21  1  0  0  0
 21 26  1  0  0  0
 21 22  2  0  0  0
 22 23  1  0  0  0
 22 55  1  0  0  0
 23 24  2  0  0  0
 23 28  1  0  0  0
 24 25  1  0  0  0
 24 56  1  0  0  0
 25 26  2  0  0  0
 25 57  1  0  0  0
 26 27  1  0  0  0
 27 58  1  0  0  0
 28 29  2  3  0  0
 28 30  1  0  0  0
 29 59  1  0  0  0
 30 60  1  0  0  0
 30 61  1  0  0  0
 32 33  1  0  0  0
 33 42  1  0  0  0
 33 37  1  0  0  0
 33 34  1  0  0  0
 34 35  1  0  0  0
 34 62  1  0  0  0
 34 63  1  0  0  0
 35 43  1  0  0  0
 35 36  1  0  0  0
 35 38  1  0  0  0
 36 37  1  0  0  0
 36 64  1  0  0  0
 37 65  1  0  0  0
 37 66  1  0  0  0
 38 39  2  0  0  0
 38 40  1  0  0  0
 40 67  1  0  0  0
M  END
> <s_m_entry_id>
38004

> <s_m_entry_name>
ligand_docking-pose.351

> <s_m_Source_Path>
/home/csk/Desktop/cluster/DUD-E-result/thrb

> <s_m_Source_File>
ligand_docking-pose.sdf

> <i_m_Source_File_Index>
351

> <i_lp_mmshare_version>
53161

> <i_f3d_flags>
0

> <r_lp_tautomer_probability>
0.99999999999366

> <s_lp_Force_Field>
OPLS_2005

> <r_lp_Energy>
56.411048

> <b_lp_Chiralities_Consistent>
1

> <s_lp_Variant>
195369-1

> <s_i_glide_gridfile>
glide-grid_1ype

> <i_i_glide_lignum>
4220

> <i_i_glide_rotatable_bonds>
11

> <r_i_docking_score>
-6.93964764603353

> <r_i_glide_ligand_efficiency>
-0.169259698683745

> <r_i_glide_ligand_efficiency_sa>
-0.583644210380806

> <r_i_glide_ligand_efficiency_ln>
-1.47226934219459

> <r_i_glide_gscore>
-6.93964764603353

> <r_i_glide_lipo>
-2.5892825041464

> <r_i_glide_hbond>
-0.0788804490705428

> <r_i_glide_metal>
0

> <r_i_glide_rewards>
-0.631114306036823

> <r_i_glide_evdw>
-48.9070930480957

> <r_i_glide_ecoul>
-9.91966152191162

> <r_i_glide_erotb>
0.42733595686322

> <r_i_glide_esite>
-0.134402462951451

> <r_i_glide_emodel>
-80.2046662651522

> <r_i_glide_energy>
-58.8267545700073

> <r_i_glide_einternal>
10.3753032684326

> <i_i_glide_confnum>
10

> <i_i_glide_posenum>
330

> <r_i_glide_eff_state_penalty>
0

> <s_user_duplicate_titles>
195369

> <s_m_subgroup_title>
dock_pv

> <s_m_subgroupid>
dock_pv1

> <b_m_subgroup_collapsed>
0

$$$$
179027
                    3D
 Schrodinger Suite 2021-1.
 70 73  0  0  1  0            999 V2000
   22.7971  -13.4703   25.3728 C   0  0  0  0  0  0
   24.0167  -13.2799   24.7210 C   0  0  0  0  0  0
   24.5744  -14.3485   24.0195 C   0  0  0  0  0  0
   23.9659  -15.5582   23.9212 N   0  0  0  0  0  0
   22.7742  -15.7277   24.5543 C   0  0  0  0  0  0
   22.1672  -14.7138   25.3045 C   0  0  0  0  0  0
   22.1071  -17.0868   24.3808 C   0  0  0  0  0  0
   21.0973  -17.1594   23.2075 C   0  0  0  0  0  0
   19.7999  -16.3663   23.4671 C   0  0  0  0  0  0
   18.9293  -16.9366   24.1306 O   0  0  0  0  0  0
   19.5891  -15.1484   22.8934 N   0  0  0  0  0  0
   20.6631  -14.3384   22.3109 C   0  0  0  0  0  0
   20.0884  -13.7154   21.0220 C   0  0  2  0  0  0
   21.0031  -12.6840   20.3618 C   0  0  0  0  0  0
   20.1027  -11.6481   19.6980 C   0  0  0  0  0  0
   18.6849  -11.8752   20.2685 C   0  0  2  0  0  0
   18.8367  -12.9713   21.2422 N   0  0  0  0  0  0
   17.9300  -13.2984   22.2041 C   0  0  0  0  0  0
   16.8651  -12.6884   22.3210 O   0  0  0  0  0  0
   18.3168  -14.4435   23.1674 C   0  0  0  0  0  0
   17.6241  -12.2476   19.2105 C   0  0  0  0  0  0
   17.9011  -13.0504   18.3212 O   0  0  0  0  0  0
   16.4117  -11.6673   19.3388 N   0  0  0  0  0  0
   15.1371  -11.9774   18.6439 C   0  0  2  0  0  0
   14.3719  -13.0767   19.4515 C   0  0  0  0  0  0
   13.8033  -12.6349   20.8185 C   0  0  0  0  0  0
   12.4170  -11.9789   20.7160 C   0  0  0  0  0  0
   11.8662  -11.6906   22.0299 N   0  0  0  0  0  0
   11.9134  -10.4929   22.7275 C   0  0  0  0  0  0
   12.5051   -9.4549   22.3278 N   0  0  0  0  0  0
   11.2193  -10.5660   23.9209 N   0  0  0  0  0  0
   15.2923  -12.3205   17.1475 C   0  0  0  0  0  0
   14.8143  -13.3656   16.7065 O   0  0  0  0  0  0
   15.9589  -11.3793   16.2358 C   0  0  0  0  0  0
   16.8147  -10.4398   16.5573 N   0  0  0  0  0  0
   17.2032   -9.7252   15.5208 C   0  0  0  0  0  0
   16.6741  -10.0946   14.2920 C   0  0  0  0  0  0
   15.6231  -11.4535   14.5234 S   0  0  0  0  0  0
   19.8827  -14.5028   20.2914 H   0  0  0  0  0  0
   18.3051  -11.0009   20.7984 H   0  0  0  0  0  0
   22.3435  -12.6592   25.9238 H   0  0  0  0  0  0
   24.5271  -12.3288   24.7707 H   0  0  0  0  0  0
   25.5314  -14.2457   23.5265 H   0  0  0  0  0  0
   21.2205  -14.8761   25.7997 H   0  0  0  0  0  0
   21.6249  -17.3685   25.3197 H   0  0  0  0  0  0
   22.8845  -17.8398   24.2368 H   0  0  0  0  0  0
   20.8124  -18.2016   23.0624 H   0  0  0  0  0  0
   21.5667  -16.8818   22.2653 H   0  0  0  0  0  0
   21.5910  -14.8626   22.0918 H   0  0  0  0  0  0
   20.9198  -13.5354   23.0026 H   0  0  0  0  0  0
   21.6949  -13.1471   19.6600 H   0  0  0  0  0  0
   21.6167  -12.2007   21.1209 H   0  0  0  0  0  0
   20.1508  -11.7804   18.6161 H   0  0  0  0  0  0
   20.4621  -10.6473   19.9386 H   0  0  0  0  0  0
   18.3689  -14.0020   24.1634 H   0  0  0  0  0  0
   17.4776  -15.1423   23.1907 H   0  0  0  0  0  0
   16.2876  -11.1082   20.1725 H   0  0  0  0  0  0
   14.5364  -11.0673   18.6818 H   0  0  0  0  0  0
   15.0500  -13.9164   19.6218 H   0  0  0  0  0  0
   13.5472  -13.5003   18.8721 H   0  0  0  0  0  0
   14.4943  -11.9563   21.3169 H   0  0  0  0  0  0
   13.7325  -13.5119   21.4641 H   0  0  0  0  0  0
   11.7225  -12.6513   20.2111 H   0  0  0  0  0  0
   12.4603  -11.0649   20.1231 H   0  0  0  0  0  0
   11.3430  -12.4447   22.4591 H   0  0  0  0  0  0
   12.9519   -9.5949   21.4365 H   0  0  0  0  0  0
   11.0240   -9.6674   24.3366 H   0  0  0  0  0  0
   10.3411  -11.0631   23.8528 H   0  0  0  0  0  0
   17.8745   -8.8928   15.6786 H   0  0  0  0  0  0
   16.8161   -9.6453   13.3186 H   0  0  0  0  0  0
  1  6  1  0  0  0
  1  2  2  0  0  0
  1 41  1  0  0  0
  2  3  1  0  0  0
  2 42  1  0  0  0
  3  4  2  0  0  0
  3 43  1  0  0  0
  4  5  1  0  0  0
  5  6  2  0  0  0
  5  7  1  0  0  0
  6 44  1  0  0  0
  7  8  1  0  0  0
  7 45  1  0  0  0
  7 46  1  0  0  0
  8  9  1  0  0  0
  8 47  1  0  0  0
  8 48  1  0  0  0
  9 10  2  0  0  0
  9 11  1  0  0  0
 11 20  1  0  0  0
 11 12  1  0  0  0
 12 13  1  0  0  0
 12 49  1  0  0  0
 12 50  1  0  0  0
 13 39  1  0  0  0
 13 17  1  0  0  0
 13 14  1  0  0  0
 14 15  1  0  0  0
 14 51  1  0  0  0
 14 52  1  0  0  0
 15 16  1  0  0  0
 15 53  1  0  0  0
 15 54  1  0  0  0
 16 40  1  0  0  0
 16 17  1  0  0  0
 16 21  1  0  0  0
 17 18  1  0  0  0
 18 19  2  0  0  0
 18 20  1  0  0  0
 20 55  1  0  0  0
 20 56  1  0  0  0
 21 22  2  0  0  0
 21 23  1  0  0  0
 23 24  1  0  0  0
 23 57  1  0  0  0
 24 25  1  0  0  0
 24 32  1  0  0  0
 24 58  1  0  0  0
 25 26  1  0  0  0
 25 59  1  0  0  0
 25 60  1  0  0  0
 26 27  1  0  0  0
 26 61  1  0  0  0
 26 62  1  0  0  0
 27 28  1  0  0  0
 27 63  1  0  0  0
 27 64  1  0  0  0
 28 29  1  0  0  0
 28 65  1  0  0  0
 29 30  2  3  0  0
 29 31  1  0  0  0
 30 66  1  0  0  0
 31 67  1  0  0  0
 31 68  1  0  0  0
 32 33  2  0  0  0
 32 34  1  0  0  0
 34 38  1  0  0  0
 34 35  2  0  0  0
 35 36  1  0  0  0
 36 37  2  0  0  0
 36 69  1  0  0  0
 37 38  1  0  0  0
 37 70  1  0  0  0
M  END
> <s_m_entry_id>
38005

> <s_m_entry_name>
ligand_docking-pose.352

> <s_m_Source_Path>
/home/csk/Desktop/cluster/DUD-E-result/thrb

> <s_m_Source_File>
ligand_docking-pose.sdf

> <i_m_Source_File_Index>
352

> <i_lp_mmshare_version>
53161

> <i_f3d_flags>
0

> <r_lp_tautomer_probability>
0.99990000499975

> <s_lp_Force_Field>
OPLS_2005

> <r_lp_Energy>
25.218649

> <b_lp_Chiralities_Consistent>
1

> <s_lp_Variant>
179027-2

> <s_i_glide_gridfile>
glide-grid_1ype

> <i_i_glide_lignum>
1951

> <i_i_glide_rotatable_bonds>
14

> <r_i_docking_score>
-6.93834229577465

> <r_i_glide_ligand_efficiency>
-0.182587955151964

> <r_i_glide_ligand_efficiency_sa>
-0.613856214054298

> <r_i_glide_ligand_efficiency_ln>
-1.49611070432037

> <r_i_glide_gscore>
-6.93834229577465

> <r_i_glide_lipo>
-2.76652629750514

> <r_i_glide_hbond>
-0.0971241224412928

> <r_i_glide_metal>
0

> <r_i_glide_rewards>
-1.03163538234625

> <r_i_glide_evdw>
-55.2543029785156

> <r_i_glide_ecoul>
-7.27219772338867

> <r_i_glide_erotb>
0.848842100917361

> <r_i_glide_esite>
-0.0383537869652468

> <r_i_glide_emodel>
-83.7919829154596

> <r_i_glide_energy>
-62.5265007019043

> <r_i_glide_einternal>
8.6788330078125

> <i_i_glide_confnum>
15

> <i_i_glide_posenum>
263

> <r_i_glide_eff_state_penalty>
0

> <s_user_duplicate_titles>
179027

> <s_m_subgroup_title>
dock_pv

> <s_m_subgroupid>
dock_pv1

> <b_m_subgroup_collapsed>
0

$$$$
169964
                    3D
 Schrodinger Suite 2021-1.
 66 67  0  0  1  0            999 V2000
   15.2062  -13.1147   17.2071 B   0  0  0  0  0  0
   15.1876  -11.9278   18.2705 C   0  0  1  0  0  0
   14.0132  -11.9786   19.2904 C   0  0  0  0  0  0
   14.1132  -13.0118   20.4420 C   0  0  0  0  0  0
   12.9843  -12.9219   21.4910 C   0  0  0  0  0  0
   13.0467  -11.6343   22.1600 N   0  0  0  0  0  0
   12.0158  -11.1555   22.7209 C   0  0  0  0  0  0
   11.9417   -9.8037   23.0744 N   0  0  0  0  0  0
   10.8693  -11.8530   23.1488 N   0  0  0  0  0  0
   16.4924  -11.7007   18.9205 N   0  0  0  0  0  0
   17.3951  -12.6377   19.2658 C   0  0  0  0  0  0
   17.2167  -13.8452   19.1291 O   0  0  0  0  0  0
   18.7116  -12.1402   19.9028 C   0  0  2  0  0  0
   19.9109  -12.2846   18.9430 C   0  0  0  0  0  0
   21.1110  -12.4296   19.8626 C   0  0  0  0  0  0
   20.5498  -13.3297   20.9539 C   0  0  0  0  0  0
   19.1441  -12.9307   21.0743 N   0  0  0  0  0  0
   18.3289  -13.2164   22.1178 C   0  0  0  0  0  0
   17.2521  -12.6542   22.3185 O   0  0  0  0  0  0
   18.7500  -14.3527   23.0707 C   0  0  1  0  0  0
   19.2354  -13.8229   24.4421 C   0  0  0  0  0  0
   20.5036  -14.4986   24.9438 C   0  0  0  0  0  0
   20.5617  -15.9017   25.0992 C   0  0  0  0  0  0
   21.7407  -16.5052   25.5208 C   0  0  0  0  0  0
   22.8586  -15.7323   25.8071 C   0  0  0  0  0  0
   22.8112  -14.3502   25.6825 C   0  0  0  0  0  0
   21.6432  -13.7274   25.2604 C   0  0  0  0  0  0
   17.6198  -15.2686   23.2650 N   0  0  0  0  0  0
   17.3043  -16.2627   22.4205 C   0  0  0  0  0  0
   18.0006  -16.5861   21.4581 O   0  0  0  0  0  0
   16.0071  -17.0097   22.6997 C   0  0  0  0  0  0
   16.0394  -13.0543   16.1377 O   0  0  0  0  0  0
   14.4160  -14.2066   17.3430 O   0  0  0  0  0  0
   18.6122  -11.1012   20.2244 H   0  0  0  0  0  0
   14.9839  -11.0526   17.6552 H   0  0  0  0  0  0
   13.0762  -12.1364   18.7552 H   0  0  0  0  0  0
   13.9237  -10.9877   19.7386 H   0  0  0  0  0  0
   15.0615  -12.8888   20.9630 H   0  0  0  0  0  0
   14.1387  -14.0232   20.0376 H   0  0  0  0  0  0
   13.1401  -13.7073   22.2307 H   0  0  0  0  0  0
   12.0148  -13.1140   21.0218 H   0  0  0  0  0  0
   12.8210   -9.3122   23.0754 H   0  0  0  0  0  0
   11.4135   -9.5989   23.9129 H   0  0  0  0  0  0
   10.8092  -12.8515   22.9895 H   0  0  0  0  0  0
    9.9571  -11.4073   23.0899 H   0  0  0  0  0  0
   16.6593  -10.7608   19.2449 H   0  0  0  0  0  0
   19.8154  -13.1884   18.3393 H   0  0  0  0  0  0
   20.0188  -11.4529   18.2518 H   0  0  0  0  0  0
   22.0085  -12.8221   19.3816 H   0  0  0  0  0  0
   21.3656  -11.4587   20.2918 H   0  0  0  0  0  0
   20.6042  -14.3748   20.6432 H   0  0  0  0  0  0
   21.1047  -13.2151   21.8880 H   0  0  0  0  0  0
   19.5568  -14.9317   22.6229 H   0  0  0  0  0  0
   19.4412  -12.7530   24.3776 H   0  0  0  0  0  0
   18.4610  -13.9176   25.2031 H   0  0  0  0  0  0
   19.6972  -16.5093   24.8707 H   0  0  0  0  0  0
   21.7838  -17.5788   25.6273 H   0  0  0  0  0  0
   23.7697  -16.2065   26.1398 H   0  0  0  0  0  0
   23.6843  -13.7616   25.9205 H   0  0  0  0  0  0
   21.6174  -12.6536   25.1674 H   0  0  0  0  0  0
   16.9648  -15.0207   23.9952 H   0  0  0  0  0  0
   16.1876  -17.8258   23.3994 H   0  0  0  0  0  0
   15.2541  -16.3428   23.1206 H   0  0  0  0  0  0
   15.6072  -17.4281   21.7755 H   0  0  0  0  0  0
   15.9384  -13.8430   15.5991 H   0  0  0  0  0  0
   13.8989  -14.1676   18.1491 H   0  0  0  0  0  0
  1  2  1  0  0  0
  1 32  1  0  0  0
  1 33  1  0  0  0
  2  3  1  0  0  0
  2 10  1  0  0  0
  2 35  1  0  0  0
  3  4  1  0  0  0
  3 36  1  0  0  0
  3 37  1  0  0  0
  4  5  1  0  0  0
  4 38  1  0  0  0
  4 39  1  0  0  0
  5  6  1  0  0  0
  5 40  1  0  0  0
  5 41  1  0  0  0
  6  7  2  3  0  0
  7  8  1  0  0  0
  7  9  1  0  0  0
  8 42  1  0  0  0
  8 43  1  0  0  0
  9 44  1  0  0  0
  9 45  1  0  0  0
 10 11  1  0  0  0
 10 46  1  0  0  0
 11 12  2  0  0  0
 11 13  1  0  0  0
 13 34  1  0  0  0
 13 17  1  0  0  0
 13 14  1  0  0  0
 14 15  1  0  0  0
 14 47  1  0  0  0
 14 48  1  0  0  0
 15 16  1  0  0  0
 15 49  1  0  0  0
 15 50  1  0  0  0
 16 17  1  0  0  0
 16 51  1  0  0  0
 16 52  1  0  0  0
 17 18  1  0  0  0
 18 19  2  0  0  0
 18 20  1  0  0  0
 20 21  1  0  0  0
 20 28  1  0  0  0
 20 53  1  0  0  0
 21 22  1  0  0  0
 21 54  1  0  0  0
 21 55  1  0  0  0
 22 27  1  0  0  0
 22 23  2  0  0  0
 23 24  1  0  0  0
 23 56  1  0  0  0
 24 25  2  0  0  0
 24 57  1  0  0  0
 25 26  1  0  0  0
 25 58  1  0  0  0
 26 27  2  0  0  0
 26 59  1  0  0  0
 27 60  1  0  0  0
 28 29  1  0  0  0
 28 61  1  0  0  0
 29 30  2  0  0  0
 29 31  1  0  0  0
 31 62  1  0  0  0
 31 63  1  0  0  0
 31 64  1  0  0  0
 32 65  1  0  0  0
 33 66  1  0  0  0
M  END
> <s_m_entry_id>
38006

> <s_m_entry_name>
ligand_docking-pose.353

> <s_m_Source_Path>
/home/csk/Desktop/cluster/DUD-E-result/thrb

> <s_m_Source_File>
ligand_docking-pose.sdf

> <i_m_Source_File_Index>
353

> <i_lp_mmshare_version>
53161

> <i_f3d_flags>
0

> <r_lp_tautomer_probability>
1

> <s_lp_Force_Field>
OPLS_2005

> <r_lp_Energy>
15.018776

> <b_lp_Chiralities_Consistent>
1

> <s_lp_Variant>
169964-4

> <s_i_glide_gridfile>
glide-grid_1ype

> <i_i_glide_lignum>
128

> <i_i_glide_rotatable_bonds>
16

> <r_i_docking_score>
-6.93226653519344

> <r_i_glide_ligand_efficiency>
-0.21006868288465

> <r_i_glide_ligand_efficiency_sa>
-0.673802511224202

> <r_i_glide_ligand_efficiency_ln>
-1.54170018407187

> <r_i_glide_gscore>
-6.93226653519344

> <r_i_glide_lipo>
-2.52162221499908

> <r_i_glide_hbond>
-0.711352484165816

> <r_i_glide_metal>
0

> <r_i_glide_rewards>
-1.07553073474566

> <r_i_glide_evdw>
-44.0045852661133

> <r_i_glide_ecoul>
-10.0408487319946

> <r_i_glide_erotb>
1.13979230638143

> <r_i_glide_esite>
-0.0571968345594553

> <r_i_glide_emodel>
-68.8914572686926

> <r_i_glide_energy>
-54.0454339981079

> <r_i_glide_einternal>
14.67369556427

> <i_i_glide_confnum>
46

> <i_i_glide_posenum>
148

> <r_i_glide_eff_state_penalty>
0

> <s_user_duplicate_titles>
169964,81733

> <s_m_subgroup_title>
dock_pv

> <s_m_subgroupid>
dock_pv1

> <b_m_subgroup_collapsed>
0

$$$$
550921
                    3D
 Schrodinger Suite 2021-1.
 67 69  0  0  1  0            999 V2000
   12.6190  -12.9807   21.6512 C   0  0  0  0  0  0
   13.0909  -11.5919   21.6190 N   0  0  0  0  0  0
   14.1059  -11.1246   20.7865 C   0  0  0  0  0  0
   14.3315   -9.8045   21.1228 C   0  0  0  0  0  0
   13.4538   -9.4559   22.1236 C   0  0  0  0  0  0
   12.6623  -10.5499   22.4528 C   0  0  0  0  0  0
   11.6047  -10.6179   23.4815 C   0  0  0  0  0  0
   10.8170  -11.5895   23.5373 N   0  0  0  0  0  0
   11.6121   -9.5281   24.3125 N   0  0  0  0  0  0
   14.8368  -11.9612   19.7522 C   0  0  0  0  0  0
   16.1536  -12.2893   20.2880 N   0  0  0  0  0  0
   17.3458  -11.9757   19.7529 C   0  0  0  0  0  0
   17.4516  -11.4732   18.6326 O   0  0  0  0  0  0
   18.5963  -12.1950   20.6544 C   0  0  2  0  0  0
   19.9122  -11.9941   19.9236 C   0  0  0  0  0  0
   20.6225  -13.1263   19.9078 C   0  0  0  0  0  0
   19.8710  -14.2158   20.6289 C   0  0  0  0  0  0
   18.7213  -13.5472   21.2280 N   0  0  0  0  0  0
   17.9667  -14.0132   22.2609 C   0  0  0  0  0  0
   17.0335  -13.3588   22.7294 O   0  0  0  0  0  0
   18.2645  -15.4044   22.8944 C   0  0  1  0  0  0
   18.7453  -15.2379   24.3744 C   0  0  0  0  0  0
   19.9991  -14.3419   24.6026 C   0  0  0  0  0  0
   20.1486  -13.9177   26.0820 C   0  0  0  0  0  0
   21.3086  -12.9101   26.2533 C   0  0  0  0  0  0
   22.6366  -13.4567   25.6758 C   0  0  0  0  0  0
   22.4938  -14.0409   24.2522 C   0  0  0  0  0  0
   21.3149  -15.0300   24.1763 C   0  0  0  0  0  0
   17.0005  -16.1768   22.7382 N   0  0  2  0  0  0
   16.9922  -17.5273   23.3105 C   0  0  0  0  0  0
   15.5882  -18.1469   23.2399 C   0  0  0  0  0  0
   15.4111  -19.3568   23.3159 O   0  0  0  0  0  0
   14.5858  -17.2296   23.1114 O   0  0  0  0  0  0
   18.4927  -11.4624   21.4569 H   0  0  0  0  0  0
   19.0494  -15.9251   22.3480 H   0  0  0  0  0  0
   11.6768  -13.0510   21.1054 H   0  0  0  0  0  0
   13.3395  -13.6642   21.2079 H   0  0  0  0  0  0
   12.4600  -13.3106   22.6786 H   0  0  0  0  0  0
   15.1018   -9.1607   20.7204 H   0  0  0  0  0  0
   13.4199   -8.4879   22.5979 H   0  0  0  0  0  0
   10.1149  -11.4974   24.2629 H   0  0  0  0  0  0
   10.8749   -9.4282   24.9961 H   0  0  0  0  0  0
   12.3887   -8.8903   24.3216 H   0  0  0  0  0  0
   14.9235  -11.3825   18.8331 H   0  0  0  0  0  0
   14.3204  -12.8764   19.4755 H   0  0  0  0  0  0
   16.1691  -12.6233   21.2429 H   0  0  0  0  0  0
   20.2177  -11.0536   19.5050 H   0  0  0  0  0  0
   21.5972  -13.2651   19.4635 H   0  0  0  0  0  0
   20.5103  -14.6941   21.3651 H   0  0  0  0  0  0
   19.5535  -15.0016   19.9439 H   0  0  0  0  0  0
   18.9603  -16.2195   24.7990 H   0  0  0  0  0  0
   17.9095  -14.8523   24.9632 H   0  0  0  0  0  0
   19.8946  -13.4240   24.0218 H   0  0  0  0  0  0
   20.2772  -14.7909   26.7222 H   0  0  0  0  0  0
   19.2180  -13.4636   26.4229 H   0  0  0  0  0  0
   21.4499  -12.6542   27.3049 H   0  0  0  0  0  0
   21.0402  -11.9760   25.7622 H   0  0  0  0  0  0
   23.0176  -14.2341   26.3383 H   0  0  0  0  0  0
   23.3948  -12.6735   25.6665 H   0  0  0  0  0  0
   23.4191  -14.5413   23.9578 H   0  0  0  0  0  0
   22.3476  -13.2262   23.5378 H   0  0  0  0  0  0
   21.2390  -15.4188   23.1634 H   0  0  0  0  0  0
   21.4915  -15.9190   24.7863 H   0  0  0  0  0  0
   16.8762  -16.3186   21.7434 H   0  0  0  0  0  0
   17.7105  -18.1665   22.8084 H   0  0  0  0  0  0
   17.2501  -17.4897   24.3646 H   0  0  0  0  0  0
   14.9811  -16.3447   23.1333 H   0  0  0  0  0  0
  1  2  1  0  0  0
  1 36  1  0  0  0
  1 37  1  0  0  0
  1 38  1  0  0  0
  2  6  1  0  0  0
  2  3  1  0  0  0
  3  4  2  0  0  0
  3 10  1  0  0  0
  4  5  1  0  0  0
  4 39  1  0  0  0
  5  6  2  0  0  0
  5 40  1  0  0  0
  6  7  1  0  0  0
  7  8  2  3  0  0
  7  9  1  0  0  0
  8 41  1  0  0  0
  9 42  1  0  0  0
  9 43  1  0  0  0
 10 11  1  0  0  0
 10 44  1  0  0  0
 10 45  1  0  0  0
 11 12  1  0  0  0
 11 46  1  0  0  0
 12 13  2  0  0  0
 12 14  1  0  0  0
 14 34  1  0  0  0
 14 18  1  0  0  0
 14 15  1  0  0  0
 15 16  2  0  0  0
 15 47  1  0  0  0
 16 17  1  0  0  0
 16 48  1  0  0  0
 17 18  1  0  0  0
 17 49  1  0  0  0
 17 50  1  0  0  0
 18 19  1  0  0  0
 19 20  2  0  0  0
 19 21  1  0  0  0
 21 35  1  0  0  0
 21 22  1  0  0  0
 21 29  1  0  0  0
 22 23  1  0  0  0
 22 51  1  0  0  0
 22 52  1  0  0  0
 23 28  1  0  0  0
 23 24  1  0  0  0
 23 53  1  0  0  0
 24 25  1  0  0  0
 24 54  1  0  0  0
 24 55  1  0  0  0
 25 26  1  0  0  0
 25 56  1  0  0  0
 25 57  1  0  0  0
 26 27  1  0  0  0
 26 58  1  0  0  0
 26 59  1  0  0  0
 27 28  1  0  0  0
 27 60  1  0  0  0
 27 61  1  0  0  0
 28 62  1  0  0  0
 28 63  1  0  0  0
 29 30  1  0  0  0
 29 64  1  0  0  0
 30 31  1  0  0  0
 30 65  1  0  0  0
 30 66  1  0  0  0
 31 32  2  0  0  0
 31 33  1  0  0  0
 33 67  1  0  0  0
M  END
> <s_m_entry_id>
38007

> <s_m_entry_name>
ligand_docking-pose.354

> <s_m_Source_Path>
/home/csk/Desktop/cluster/DUD-E-result/thrb

> <s_m_Source_File>
ligand_docking-pose.sdf

> <i_m_Source_File_Index>
354

> <i_lp_mmshare_version>
53161

> <i_f3d_flags>
0

> <r_lp_tautomer_probability>
1

> <s_lp_Force_Field>
OPLS_2005

> <r_lp_Energy>
26.431566

> <b_lp_Chiralities_Consistent>
1

> <s_lp_Variant>
550921-1

> <s_i_glide_gridfile>
glide-grid_1ype

> <i_i_glide_lignum>
4202

> <i_i_glide_rotatable_bonds>
13

> <r_i_docking_score>
-6.9319850411711

> <r_i_glide_ligand_efficiency>
-0.210060152762761

> <r_i_glide_ligand_efficiency_sa>
-0.673775150565436

> <r_i_glide_ligand_efficiency_ln>
-1.5416375812588

> <r_i_glide_gscore>
-6.9319850411711

> <r_i_glide_lipo>
-3.6600053320887

> <r_i_glide_hbond>
-0.0687565738669263

> <r_i_glide_metal>
0

> <r_i_glide_rewards>
-1.26937388304627

> <r_i_glide_evdw>
-47.8953857421875

> <r_i_glide_ecoul>
-3.24840521812439

> <r_i_glide_erotb>
0.95655660167864

> <r_i_glide_esite>
-0.00837578401981729

> <r_i_glide_emodel>
-67.1385466831217

> <r_i_glide_energy>
-51.1437909603119

> <r_i_glide_einternal>
10.1542882919312

> <i_i_glide_confnum>
178

> <i_i_glide_posenum>
168

> <r_i_glide_eff_state_penalty>
0

> <s_user_duplicate_titles>
550921

> <s_m_subgroup_title>
dock_pv

> <s_m_subgroupid>
dock_pv1

> <b_m_subgroup_collapsed>
0

$$$$
347423
                    3D
 Schrodinger Suite 2021-1.
 67 69  0  0  1  0            999 V2000
   12.3254  -16.6299   18.7241 C   0  0  0  0  0  0
   12.9681  -16.9205   17.5210 C   0  0  0  0  0  0
   14.3723  -16.8462   17.4436 C   0  0  0  0  0  0
   15.1110  -16.4964   18.5397 N   0  0  0  0  0  0
   14.4713  -16.2194   19.7030 C   0  0  0  0  0  0
   13.0822  -16.2730   19.8407 C   0  0  0  0  0  0
   12.4119  -15.9214   21.1614 C   0  0  0  0  0  0
   12.8162  -14.6328   21.7140 N   0  0  0  0  0  0
   12.6043  -13.4391   21.1395 C   0  0  0  0  0  0
   12.0162  -13.2911   20.0668 O   0  0  0  0  0  0
   13.1822  -12.2221   21.9035 C   0  0  2  0  0  0
   12.0846  -11.1705   22.1700 C   0  0  0  0  0  0
   12.7123   -9.8291   21.8405 C   0  0  0  0  0  0
   13.9085  -10.0904   20.9363 C   0  0  0  0  0  0
   14.2400  -11.5044   21.1461 N   0  0  0  0  0  0
   15.3661  -12.1105   20.6665 C   0  0  0  0  0  0
   15.5886  -13.3126   20.8344 O   0  0  0  0  0  0
   16.4310  -11.2839   19.8811 C   0  0  1  0  0  0
   17.7762  -11.2365   20.6508 C   0  0  0  0  0  0
   18.5498  -12.5808   20.7624 C   0  0  0  0  0  0
   19.9421  -12.4999   20.1032 C   0  0  0  0  0  0
   20.6400  -13.8678   20.1316 C   0  0  0  0  0  0
   20.7773  -14.3906   21.5771 C   0  0  0  0  0  0
   19.4283  -14.3929   22.3305 C   0  0  0  0  0  0
   18.7035  -13.0317   22.2347 C   0  0  0  0  0  0
   16.6166  -11.8391   18.5146 N   0  0  2  0  0  0
   15.5108  -11.6955   17.5614 C   0  0  0  0  0  0
   15.9965  -11.0532   16.2459 C   0  0  0  0  0  0
   17.1743  -10.8905   15.9207 O   0  0  0  0  0  0
   14.9358  -10.7218   15.4577 O   0  0  0  0  0  0
   13.1271   -9.2140   22.9466 F   0  0  0  0  0  0
   11.8421   -9.0529   21.2004 F   0  0  0  0  0  0
   15.1484  -17.1413   16.2038 C   0  0  0  0  0  0
   16.3746  -17.4383   16.2487 N   0  0  0  0  0  0
   14.4162  -17.0534   15.0465 N   0  0  0  0  0  0
   13.5976  -12.5968   22.8381 H   0  0  0  0  0  0
   16.1202  -10.2524   19.7944 H   0  0  0  0  0  0
   11.2463  -16.6740   18.7784 H   0  0  0  0  0  0
   12.3667  -17.1947   16.6665 H   0  0  0  0  0  0
   15.0988  -15.9295   20.5343 H   0  0  0  0  0  0
   12.6836  -16.6929   21.8822 H   0  0  0  0  0  0
   11.3212  -15.9521   21.0902 H   0  0  0  0  0  0
   13.3321  -14.6535   22.5834 H   0  0  0  0  0  0
   11.7253  -11.2113   23.1971 H   0  0  0  0  0  0
   11.2163  -11.2982   21.5223 H   0  0  0  0  0  0
   14.7152   -9.3925   21.1684 H   0  0  0  0  0  0
   13.5865   -9.9661   19.9053 H   0  0  0  0  0  0
   17.6139  -10.8062   21.6372 H   0  0  0  0  0  0
   18.4156  -10.4900   20.1848 H   0  0  0  0  0  0
   18.0144  -13.3741   20.2387 H   0  0  0  0  0  0
   20.5531  -11.7363   20.5824 H   0  0  0  0  0  0
   19.8366  -12.1623   19.0704 H   0  0  0  0  0  0
   21.6160  -13.7820   19.6662 H   0  0  0  0  0  0
   20.0806  -14.5828   19.5248 H   0  0  0  0  0  0
   21.4907  -13.7638   22.1168 H   0  0  0  0  0  0
   21.2028  -15.3942   21.5683 H   0  0  0  0  0  0
   19.5847  -14.6554   23.3773 H   0  0  0  0  0  0
   18.7862  -15.1731   21.9158 H   0  0  0  0  0  0
   17.7202  -13.1036   22.7020 H   0  0  0  0  0  0
   19.2165  -12.2633   22.8103 H   0  0  0  0  0  0
   17.1151  -12.7188   18.4854 H   0  0  0  0  0  0
   15.0636  -12.6712   17.3597 H   0  0  0  0  0  0
   14.7314  -11.0570   17.9789 H   0  0  0  0  0  0
   15.2370  -10.3754   14.6152 H   0  0  0  0  0  0
   16.7115  -17.4455   17.2002 H   0  0  0  0  0  0
   14.8826  -17.1915   14.1646 H   0  0  0  0  0  0
   13.4800  -16.6548   15.0351 H   0  0  0  0  0  0
  1  6  1  0  0  0
  1  2  2  0  0  0
  1 38  1  0  0  0
  2  3  1  0  0  0
  2 39  1  0  0  0
  3  4  2  0  0  0
  3 33  1  0  0  0
  4  5  1  0  0  0
  5  6  2  0  0  0
  5 40  1  0  0  0
  6  7  1  0  0  0
  7  8  1  0  0  0
  7 41  1  0  0  0
  7 42  1  0  0  0
  8  9  1  0  0  0
  8 43  1  0  0  0
  9 10  2  0  0  0
  9 11  1  0  0  0
 11 36  1  0  0  0
 11 15  1  0  0  0
 11 12  1  0  0  0
 12 13  1  0  0  0
 12 44  1  0  0  0
 12 45  1  0  0  0
 13 14  1  0  0  0
 13 31  1  0  0  0
 13 32  1  0  0  0
 14 15  1  0  0  0
 14 46  1  0  0  0
 14 47  1  0  0  0
 15 16  1  0  0  0
 16 17  2  0  0  0
 16 18  1  0  0  0
 18 37  1  0  0  0
 18 19  1  0  0  0
 18 26  1  0  0  0
 19 20  1  0  0  0
 19 48  1  0  0  0
 19 49  1  0  0  0
 20 25  1  0  0  0
 20 21  1  0  0  0
 20 50  1  0  0  0
 21 22  1  0  0  0
 21 51  1  0  0  0
 21 52  1  0  0  0
 22 23  1  0  0  0
 22 53  1  0  0  0
 22 54  1  0  0  0
 23 24  1  0  0  0
 23 55  1  0  0  0
 23 56  1  0  0  0
 24 25  1  0  0  0
 24 57  1  0  0  0
 24 58  1  0  0  0
 25 59  1  0  0  0
 25 60  1  0  0  0
 26 27  1  0  0  0
 26 61  1  0  0  0
 27 28  1  0  0  0
 27 62  1  0  0  0
 27 63  1  0  0  0
 28 29  2  0  0  0
 28 30  1  0  0  0
 30 64  1  0  0  0
 33 34  2  3  0  0
 33 35  1  0  0  0
 34 65  1  0  0  0
 35 66  1  0  0  0
 35 67  1  0  0  0
M  END
> <s_m_entry_id>
38008

> <s_m_entry_name>
ligand_docking-pose.355

> <s_m_Source_Path>
/home/csk/Desktop/cluster/DUD-E-result/thrb

> <s_m_Source_File>
ligand_docking-pose.sdf

> <i_m_Source_File_Index>
355

> <i_lp_mmshare_version>
53161

> <i_f3d_flags>
0

> <r_lp_tautomer_probability>
1

> <s_lp_Force_Field>
OPLS_2005

> <r_lp_Energy>
26.611676

> <b_lp_Chiralities_Consistent>
1

> <s_lp_Variant>
347423-2

> <s_i_glide_gridfile>
glide-grid_1ype

> <i_i_glide_lignum>
2018

> <i_i_glide_rotatable_bonds>
13

> <r_i_docking_score>
-6.93052675893595

> <r_i_glide_ligand_efficiency>
-0.198015050255313

> <r_i_glide_ligand_efficiency_sa>
-0.647720359032831

> <r_i_glide_ligand_efficiency_ln>
-1.52140443834054

> <r_i_glide_gscore>
-6.93052675893595

> <r_i_glide_lipo>
-2.45833099954321

> <r_i_glide_hbond>
-0.250309034435067

> <r_i_glide_metal>
0

> <r_i_glide_rewards>
-1.77024807915901

> <r_i_glide_evdw>
-45.1551933288574

> <r_i_glide_ecoul>
-6.19526529312134

> <r_i_glide_erotb>
0.833281938645895

> <r_i_glide_esite>
-0.0978711240334823

> <r_i_glide_emodel>
-67.3031352555824

> <r_i_glide_energy>
-51.3504586219788

> <r_i_glide_einternal>
13.9547462463379

> <i_i_glide_confnum>
40

> <i_i_glide_posenum>
200

> <r_i_glide_eff_state_penalty>
0

> <s_user_duplicate_titles>
347423

> <s_m_subgroup_title>
dock_pv

> <s_m_subgroupid>
dock_pv1

> <b_m_subgroup_collapsed>
0

$$$$
28169
                    3D
 Schrodinger Suite 2021-1.
 74 76  0  0  1  0            999 V2000
   21.6156  -11.8532   19.3991 C   0  0  0  0  0  0
   20.2422  -11.7181   19.8473 N   0  0  1  0  0  0
   19.3729  -12.8153   19.3559 C   0  0  1  0  0  0
   19.5119  -14.1634   20.1256 C   0  0  0  0  0  0
   19.6864  -14.0334   21.6339 C   0  0  0  0  0  0
   18.5756  -13.9915   22.4722 C   0  0  0  0  0  0
   18.7352  -13.8723   23.8494 C   0  0  0  0  0  0
   20.0276  -13.7610   24.4176 C   0  0  0  0  0  0
   20.2190  -13.5616   25.8044 C   0  0  0  0  0  0
   21.5049  -13.4535   26.3220 C   0  0  0  0  0  0
   22.6177  -13.5728   25.4971 C   0  0  0  0  0  0
   22.4654  -13.7678   24.1299 C   0  0  0  0  0  0
   21.1692  -13.8424   23.5646 C   0  0  0  0  0  0
   20.9720  -13.9837   22.1715 C   0  0  0  0  0  0
   17.9134  -12.2923   19.3362 C   0  0  0  0  0  0
   17.4649  -11.5679   20.2261 O   0  0  0  0  0  0
   17.2118  -12.6760   18.2615 N   0  0  0  0  0  0
   15.9255  -12.1302   17.8179 C   0  0  1  0  0  0
   16.1461  -11.0621   16.7212 C   0  0  0  0  0  0
   16.8308  -11.6505   15.4690 C   0  0  0  0  0  0
   16.0272  -12.8398   14.9009 C   0  0  0  0  0  0
   15.6191  -13.8879   15.9710 C   0  0  0  0  0  0
   14.9683  -13.2093   17.2175 C   0  0  1  0  0  0
   14.6255  -14.2746   18.2918 C   0  0  0  0  0  0
   15.4538  -15.1216   18.6271 O   0  0  0  0  0  0
   13.3966  -14.1951   18.8442 N   0  0  0  0  0  0
   12.8274  -14.9667   19.9679 C   0  0  2  0  0  0
   13.4223  -14.6123   21.3585 C   0  0  0  0  0  0
   13.5139  -13.1037   21.6786 C   0  0  0  0  0  0
   12.1956  -12.3296   21.4699 C   0  0  0  0  0  0
   12.2662  -11.0500   22.1591 N   0  0  0  0  0  0
   11.6112  -10.8742   23.2373 C   0  0  0  0  0  0
   11.6158   -9.6497   23.9211 N   0  0  0  0  0  0
   10.8158  -11.8123   23.9211 N   0  0  0  0  0  0
   12.8453  -16.4589   19.6701 C   0  0  0  0  0  0
   12.8630  -17.3238   20.5478 O   0  0  0  0  0  0
   15.4300  -11.6512   18.6676 H   0  0  0  0  0  0
   14.0187  -12.7502   16.9285 H   0  0  0  0  0  0
   11.7718  -14.6930   19.9830 H   0  0  0  0  0  0
   22.2432  -11.1037   19.8832 H   0  0  0  0  0  0
   22.0161  -12.8337   19.6448 H   0  0  0  0  0  0
   21.6866  -11.7124   18.3204 H   0  0  0  0  0  0
   20.2596  -11.7857   20.8581 H   0  0  0  0  0  0
   19.6450  -13.0496   18.3225 H   0  0  0  0  0  0
   20.3807  -14.6973   19.7350 H   0  0  0  0  0  0
   18.6680  -14.8259   19.9208 H   0  0  0  0  0  0
   17.5791  -14.0497   22.0572 H   0  0  0  0  0  0
   17.8664  -13.8530   24.4913 H   0  0  0  0  0  0
   19.3621  -13.4825   26.4564 H   0  0  0  0  0  0
   21.6374  -13.2887   27.3813 H   0  0  0  0  0  0
   23.6103  -13.5041   25.9199 H   0  0  0  0  0  0
   23.3323  -13.8388   23.4896 H   0  0  0  0  0  0
   21.8360  -14.0421   21.5300 H   0  0  0  0  0  0
   17.6684  -13.2813   17.5991 H   0  0  0  0  0  0
   15.1948  -10.6081   16.4438 H   0  0  0  0  0  0
   16.7562  -10.2510   17.1197 H   0  0  0  0  0  0
   16.9321  -10.8770   14.7066 H   0  0  0  0  0  0
   17.8449  -11.9738   15.7112 H   0  0  0  0  0  0
   15.1411  -12.4423   14.4092 H   0  0  0  0  0  0
   16.5990  -13.3279   14.1085 H   0  0  0  0  0  0
   14.9171  -14.5685   15.4841 H   0  0  0  0  0  0
   16.5397  -14.4095   16.2371 H   0  0  0  0  0  0
   12.8267  -13.4122   18.5645 H   0  0  0  0  0  0
   12.8383  -15.0965   22.1442 H   0  0  0  0  0  0
   14.4288  -15.0248   21.4415 H   0  0  0  0  0  0
   13.8299  -13.0145   22.7189 H   0  0  0  0  0  0
   14.3085  -12.6402   21.0927 H   0  0  0  0  0  0
   12.0271  -12.1399   20.4086 H   0  0  0  0  0  0
   11.3498  -12.9518   21.7783 H   0  0  0  0  0  0
   11.9716   -8.8546   23.4175 H   0  0  0  0  0  0
   10.7633   -9.4093   24.4097 H   0  0  0  0  0  0
   10.6855  -12.7329   23.5194 H   0  0  0  0  0  0
    9.9558  -11.4925   24.3616 H   0  0  0  0  0  0
   12.7953  -16.7245   18.6127 H   0  0  0  0  0  0
  1  2  1  0  0  0
  1 40  1  0  0  0
  1 41  1  0  0  0
  1 42  1  0  0  0
  2  3  1  0  0  0
  2 43  1  0  0  0
  3  4  1  0  0  0
  3 15  1  0  0  0
  3 44  1  0  0  0
  4  5  1  0  0  0
  4 45  1  0  0  0
  4 46  1  0  0  0
  5 14  1  0  0  0
  5  6  2  0  0  0
  6  7  1  0  0  0
  6 47  1  0  0  0
  7  8  2  0  0  0
  7 48  1  0  0  0
  8 13  1  0  0  0
  8  9  1  0  0  0
  9 10  2  0  0  0
  9 49  1  0  0  0
 10 11  1  0  0  0
 10 50  1  0  0  0
 11 12  2  0  0  0
 11 51  1  0  0  0
 12 13  1  0  0  0
 12 52  1  0  0  0
 13 14  2  0  0  0
 14 53  1  0  0  0
 15 16  2  0  0  0
 15 17  1  0  0  0
 17 18  1  0  0  0
 17 54  1  0  0  0
 18 37  1  0  0  0
 18 23  1  0  0  0
 18 19  1  0  0  0
 19 20  1  0  0  0
 19 55  1  0  0  0
 19 56  1  0  0  0
 20 21  1  0  0  0
 20 57  1  0  0  0
 20 58  1  0  0  0
 21 22  1  0  0  0
 21 59  1  0  0  0
 21 60  1  0  0  0
 22 23  1  0  0  0
 22 61  1  0  0  0
 22 62  1  0  0  0
 23 38  1  0  0  0
 23 24  1  0  0  0
 24 25  2  0  0  0
 24 26  1  0  0  0
 26 27  1  0  0  0
 26 63  1  0  0  0
 27 39  1  0  0  0
 27 28  1  0  0  0
 27 35  1  0  0  0
 28 29  1  0  0  0
 28 64  1  0  0  0
 28 65  1  0  0  0
 29 30  1  0  0  0
 29 66  1  0  0  0
 29 67  1  0  0  0
 30 31  1  0  0  0
 30 68  1  0  0  0
 30 69  1  0  0  0
 31 32  2  3  0  0
 32 33  1  0  0  0
 32 34  1  0  0  0
 33 70  1  0  0  0
 33 71  1  0  0  0
 34 72  1  0  0  0
 34 73  1  0  0  0
 35 36  2  0  0  0
 35 74  1  0  0  0
M  END
> <s_m_entry_id>
38009

> <s_m_entry_name>
ligand_docking-pose.356

> <s_m_Source_Path>
/home/csk/Desktop/cluster/DUD-E-result/thrb

> <s_m_Source_File>
ligand_docking-pose.sdf

> <i_m_Source_File_Index>
356

> <i_lp_mmshare_version>
53161

> <i_f3d_flags>
0

> <r_lp_tautomer_probability>
0.99990000499975

> <s_lp_Force_Field>
OPLS_2005

> <r_lp_Energy>
10.830318

> <b_lp_Chiralities_Consistent>
1

> <s_lp_Variant>
28169-2

> <s_i_glide_gridfile>
glide-grid_1ype

> <i_i_glide_lignum>
4361

> <i_i_glide_rotatable_bonds>
14

> <r_i_docking_score>
-6.9298029605433

> <r_i_glide_ligand_efficiency>
-0.192494526681758

> <r_i_glide_ligand_efficiency_sa>
-0.63560292215434

> <r_i_glide_ligand_efficiency_ln>
-1.51189578435068

> <r_i_glide_gscore>
-6.9298029605433

> <r_i_glide_lipo>
-3.47665918217828

> <r_i_glide_hbond>
-0.423319844112884

> <r_i_glide_metal>
0

> <r_i_glide_rewards>
-0.470773409040081

> <r_i_glide_evdw>
-54.9625701904297

> <r_i_glide_ecoul>
-4.36499738693237

> <r_i_glide_erotb>
0.916290272617617

> <r_i_glide_esite>
-0.0724626802683262

> <r_i_glide_emodel>
-81.2298774083513

> <r_i_glide_energy>
-59.3275675773621

> <r_i_glide_einternal>
8.26922416687012

> <i_i_glide_confnum>
10

> <i_i_glide_posenum>
177

> <r_i_glide_eff_state_penalty>
0

> <s_user_duplicate_titles>
28169

> <s_m_subgroup_title>
dock_pv

> <s_m_subgroupid>
dock_pv1

> <b_m_subgroup_collapsed>
0

$$$$
2400
                    3D
 Schrodinger Suite 2021-1.
 75 78  0  0  1  0            999 V2000
   15.4067  -10.7109   20.7199 C   0  0  0  0  0  0
   14.1026  -11.3426   21.1925 C   0  0  0  0  0  0
   14.0425  -12.7256   21.3186 C   0  0  0  0  0  0
   12.8650  -13.3879   21.6660 C   0  0  0  0  0  0
   11.7288  -12.6185   21.9226 C   0  0  0  0  0  0
   11.7855  -11.2324   21.8828 C   0  0  0  0  0  0
   12.9578  -10.5884   21.4933 C   0  0  0  0  0  0
   12.9218   -9.0919   21.3319 C   0  0  0  0  0  0
   12.8136   -8.7956   19.9198 N   0  0  0  0  0  0
   12.7959  -14.9156   21.7493 C   0  0  0  0  0  0
   13.8798  -15.6670   21.1013 N   0  0  0  0  0  0
   14.0823  -15.7193   19.7722 C   0  0  0  0  0  0
   13.2887  -15.2674   18.9482 O   0  0  0  0  0  0
   15.4055  -16.3324   19.2598 C   0  0  2  0  0  0
   15.1994  -17.7183   18.6334 C   0  0  0  0  0  0
   16.5283  -18.4174   18.8522 C   0  0  0  0  0  0
   16.9331  -17.9303   20.2350 C   0  0  0  0  0  0
   16.4773  -16.5429   20.2626 N   0  0  0  0  0  0
   17.0713  -15.5095   20.9112 C   0  0  0  0  0  0
   16.8378  -14.3619   20.5447 O   0  0  0  0  0  0
   18.0456  -15.7242   22.1147 C   0  0  1  0  0  0
   18.9339  -14.4833   22.5113 C   0  0  0  0  0  0
   19.4853  -13.6611   21.3414 C   0  0  0  0  0  0
   20.3989  -14.2055   20.4382 C   0  0  0  0  0  0
   20.8098  -13.4520   19.3415 C   0  0  0  0  0  0
   20.3137  -12.1688   19.1490 C   0  0  0  0  0  0
   19.4017  -11.6278   20.0456 C   0  0  0  0  0  0
   18.9915  -12.3692   21.1387 C   0  0  0  0  0  0
   20.0087  -14.7273   23.5783 C   0  0  0  0  0  0
   20.2278  -13.7455   24.5544 C   0  0  0  0  0  0
   21.2057  -13.9261   25.5258 C   0  0  0  0  0  0
   21.9732  -15.0872   25.5201 C   0  0  0  0  0  0
   21.7685  -16.0711   24.5549 C   0  0  0  0  0  0
   20.7855  -15.8943   23.5850 C   0  0  0  0  0  0
   17.1969  -16.0586   23.2951 N   0  0  2  0  0  0
   16.7798  -17.7106   23.6866 S   0  0  0  0  0  0
   15.3802  -17.9002   23.2955 O   0  0  0  0  0  0
   17.8416  -18.5899   23.1904 O   0  0  0  0  0  0
   16.8482  -17.7092   25.5535 C   0  0  0  0  0  0
   15.8072  -15.6696   18.4921 H   0  0  0  0  0  0
   18.6998  -16.5613   21.8816 H   0  0  0  0  0  0
   15.4190  -10.6575   19.6305 H   0  0  0  0  0  0
   15.5687   -9.7114   21.1202 H   0  0  0  0  0  0
   16.2553  -11.3124   21.0371 H   0  0  0  0  0  0
   14.9225  -13.2947   21.1162 H   0  0  0  0  0  0
   10.7811  -13.0527   22.1875 H   0  0  0  0  0  0
   10.8944  -10.6648   22.1088 H   0  0  0  0  0  0
   12.0749   -8.6616   21.8685 H   0  0  0  0  0  0
   13.8203   -8.6518   21.7587 H   0  0  0  0  0  0
   11.9009   -9.0985   19.5886 H   0  0  0  0  0  0
   12.8062   -7.7902   19.8100 H   0  0  0  0  0  0
   11.8329  -15.2625   21.3668 H   0  0  0  0  0  0
   12.8158  -15.1664   22.8081 H   0  0  0  0  0  0
   14.5799  -16.0633   21.7129 H   0  0  0  0  0  0
   14.9253  -17.6619   17.5809 H   0  0  0  0  0  0
   14.4063  -18.2624   19.1531 H   0  0  0  0  0  0
   17.2488  -18.0654   18.1121 H   0  0  0  0  0  0
   16.4675  -19.4994   18.7717 H   0  0  0  0  0  0
   18.0041  -18.0556   20.3965 H   0  0  0  0  0  0
   16.3946  -18.5082   20.9836 H   0  0  0  0  0  0
   18.2230  -13.8201   23.0091 H   0  0  0  0  0  0
   20.7786  -15.2087   20.5748 H   0  0  0  0  0  0
   21.5024  -13.8629   18.6271 H   0  0  0  0  0  0
   20.6376  -11.5935   18.2962 H   0  0  0  0  0  0
   18.9959  -10.6426   19.9211 H   0  0  0  0  0  0
   18.2836  -11.9412   21.8324 H   0  0  0  0  0  0
   19.6464  -12.8335   24.5545 H   0  0  0  0  0  0
   21.3713  -13.1642   26.2738 H   0  0  0  0  0  0
   22.7364  -15.2237   26.2719 H   0  0  0  0  0  0
   22.3749  -16.9658   24.5577 H   0  0  0  0  0  0
   20.6544  -16.6596   22.8338 H   0  0  0  0  0  0
   16.3870  -15.4321   23.3715 H   0  0  0  0  0  0
   16.6866  -18.7248   25.9117 H   0  0  0  0  0  0
   17.8268  -17.3424   25.8663 H   0  0  0  0  0  0
   16.0602  -17.0563   25.9185 H   0  0  0  0  0  0
  1  2  1  0  0  0
  1 42  1  0  0  0
  1 43  1  0  0  0
  1 44  1  0  0  0
  2  7  1  0  0  0
  2  3  2  0  0  0
  3  4  1  0  0  0
  3 45  1  0  0  0
  4  5  2  0  0  0
  4 10  1  0  0  0
  5  6  1  0  0  0
  5 46  1  0  0  0
  6  7  2  0  0  0
  6 47  1  0  0  0
  7  8  1  0  0  0
  8  9  1  0  0  0
  8 48  1  0  0  0
  8 49  1  0  0  0
  9 50  1  0  0  0
  9 51  1  0  0  0
 10 11  1  0  0  0
 10 52  1  0  0  0
 10 53  1  0  0  0
 11 12  1  0  0  0
 11 54  1  0  0  0
 12 13  2  0  0  0
 12 14  1  0  0  0
 14 40  1  0  0  0
 14 18  1  0  0  0
 14 15  1  0  0  0
 15 16  1  0  0  0
 15 55  1  0  0  0
 15 56  1  0  0  0
 16 17  1  0  0  0
 16 57  1  0  0  0
 16 58  1  0  0  0
 17 18  1  0  0  0
 17 59  1  0  0  0
 17 60  1  0  0  0
 18 19  1  0  0  0
 19 20  2  0  0  0
 19 21  1  0  0  0
 21 41  1  0  0  0
 21 22  1  0  0  0
 21 35  1  0  0  0
 22 23  1  0  0  0
 22 29  1  0  0  0
 22 61  1  0  0  0
 23 28  1  0  0  0
 23 24  2  0  0  0
 24 25  1  0  0  0
 24 62  1  0  0  0
 25 26  2  0  0  0
 25 63  1  0  0  0
 26 27  1  0  0  0
 26 64  1  0  0  0
 27 28  2  0  0  0
 27 65  1  0  0  0
 28 66  1  0  0  0
 29 34  1  0  0  0
 29 30  2  0  0  0
 30 31  1  0  0  0
 30 67  1  0  0  0
 31 32  2  0  0  0
 31 68  1  0  0  0
 32 33  1  0  0  0
 32 69  1  0  0  0
 33 34  2  0  0  0
 33 70  1  0  0  0
 34 71  1  0  0  0
 35 36  1  0  0  0
 35 72  1  0  0  0
 36 37  2  0  0  0
 36 38  2  0  0  0
 36 39  1  0  0  0
 39 73  1  0  0  0
 39 74  1  0  0  0
 39 75  1  0  0  0
M  END
> <s_m_entry_id>
38010

> <s_m_entry_name>
ligand_docking-pose.357

> <s_m_Source_Path>
/home/csk/Desktop/cluster/DUD-E-result/thrb

> <s_m_Source_File>
ligand_docking-pose.sdf

> <i_m_Source_File_Index>
357

> <i_lp_mmshare_version>
53161

> <i_f3d_flags>
0

> <r_lp_tautomer_probability>
1

> <s_lp_Force_Field>
OPLS_2005

> <r_lp_Energy>
22.945784

> <b_lp_Chiralities_Consistent>
1

> <s_lp_Variant>
2400-1

> <s_i_glide_gridfile>
glide-grid_1ype

> <i_i_glide_lignum>
2374

> <i_i_glide_rotatable_bonds>
12

> <r_i_docking_score>
-6.92644937384449

> <r_i_glide_ligand_efficiency>
-0.177601265996013

> <r_i_glide_ligand_efficiency_sa>
-0.60228344480398

> <r_i_glide_ligand_efficiency_ln>
-1.48522736471016

> <r_i_glide_gscore>
-6.92644937384449

> <r_i_glide_lipo>
-3.33123436410571

> <r_i_glide_hbond>
-0.740153777753391

> <r_i_glide_metal>
0

> <r_i_glide_rewards>
-0.168816620474483

> <r_i_glide_evdw>
-40.5206871032715

> <r_i_glide_ecoul>
-8.88404655456543

> <r_i_glide_erotb>
0.688321378638644

> <r_i_glide_esite>
-0.0159246518011632

> <r_i_glide_emodel>
-60.2595404565132

> <r_i_glide_energy>
-49.4047336578369

> <r_i_glide_einternal>
10.3390970230103

> <i_i_glide_confnum>
28

> <i_i_glide_posenum>
267

> <r_i_glide_eff_state_penalty>
0

> <s_user_duplicate_titles>
2400

> <s_m_subgroup_title>
dock_pv

> <s_m_subgroupid>
dock_pv1

> <b_m_subgroup_collapsed>
0

$$$$
75190
                    3D
 Schrodinger Suite 2021-1.
 56 60  0  0  1  0            999 V2000
   16.6831  -11.5772   17.8620 C   0  0  0  0  0  0
   16.7937  -12.5897   18.8962 N   0  0  0  0  0  0
   17.9632  -13.0710   19.4512 C   0  0  0  0  0  0
   19.3229  -12.8250   19.2220 C   0  0  0  0  0  0
   20.2289  -13.6168   19.9328 C   0  0  0  0  0  0
   19.8203  -14.5992   20.8423 C   0  0  0  0  0  0
   18.4583  -14.7865   21.1091 C   0  0  0  0  0  0
   17.5232  -14.0263   20.4003 C   0  0  0  0  0  0
   16.1601  -14.0724   20.4670 N   0  0  0  0  0  0
   15.7536  -13.2093   19.5706 C   0  0  0  0  0  0
   14.2761  -12.9339   19.3225 C   0  0  0  0  0  0
   13.6195  -12.1222   20.4327 C   0  0  0  0  0  0
   14.1032  -10.8578   20.7650 C   0  0  0  0  0  0
   13.5033  -10.1259   21.7847 C   0  0  0  0  0  0
   12.4153  -10.6371   22.5168 C   0  0  0  0  0  0
   11.9394  -11.9113   22.1528 C   0  0  0  0  0  0
   12.5255  -12.6395   21.1216 C   0  0  0  0  0  0
   11.8163   -9.8530   23.6393 C   0  0  0  0  0  0
   12.2247   -8.6933   23.9217 N   0  0  0  0  0  0
   10.8161  -10.4971   24.3219 N   0  0  0  0  0  0
   20.8158  -15.3672   21.4646 N   0  0  0  0  0  0
   20.5076  -16.7915   22.4754 S   0  0  0  0  0  0
   19.5189  -17.6174   21.7742 O   0  0  0  0  0  0
   21.8168  -17.3396   22.8434 O   0  0  0  0  0  0
   19.7542  -16.1473   23.9749 C   0  0  0  0  0  0
   18.5117  -16.6426   24.3751 C   0  0  0  0  0  0
   17.8551  -16.1260   25.4866 C   0  0  0  0  0  0
   18.4237  -15.0958   26.2268 C   0  0  0  0  0  0
   19.6842  -14.5697   25.8615 C   0  0  0  0  0  0
   20.3759  -15.1091   24.7299 C   0  0  0  0  0  0
   21.6034  -14.6347   24.3620 N   0  0  0  0  0  0
   22.1644  -13.6411   25.0858 C   0  0  0  0  0  0
   21.5434  -13.0534   26.1810 C   0  0  0  0  0  0
   20.2928  -13.5108   26.5752 C   0  0  0  0  0  0
   17.6274  -11.4615   17.3321 H   0  0  0  0  0  0
   15.9133  -11.8582   17.1440 H   0  0  0  0  0  0
   16.4161  -10.6416   18.3370 H   0  0  0  0  0  0
   19.6656  -12.1002   18.4979 H   0  0  0  0  0  0
   21.2850  -13.4800   19.7496 H   0  0  0  0  0  0
   18.1103  -15.5202   21.8161 H   0  0  0  0  0  0
   13.7503  -13.8837   19.2089 H   0  0  0  0  0  0
   14.0992  -12.4153   18.3794 H   0  0  0  0  0  0
   14.9541  -10.4427   20.2486 H   0  0  0  0  0  0
   13.9287   -9.1581   22.0120 H   0  0  0  0  0  0
   11.1081  -12.3750   22.6622 H   0  0  0  0  0  0
   12.1337  -13.6177   20.8797 H   0  0  0  0  0  0
   12.9744   -8.3931   23.3214 H   0  0  0  0  0  0
   10.2518   -9.9746   24.9847 H   0  0  0  0  0  0
   10.3863  -11.3277   23.9449 H   0  0  0  0  0  0
   21.7614  -15.0152   21.4782 H   0  0  0  0  0  0
   18.0323  -17.4320   23.8122 H   0  0  0  0  0  0
   16.8872  -16.5167   25.7680 H   0  0  0  0  0  0
   17.9067  -14.6903   27.0840 H   0  0  0  0  0  0
   23.1391  -13.3021   24.7610 H   0  0  0  0  0  0
   22.0159  -12.2515   26.7197 H   0  0  0  0  0  0
   19.7926  -13.0662   27.4232 H   0  0  0  0  0  0
  1  2  1  0  0  0
  1 35  1  0  0  0
  1 36  1  0  0  0
  1 37  1  0  0  0
  2 10  1  0  0  0
  2  3  1  0  0  0
  3  8  2  0  0  0
  3  4  1  0  0  0
  4  5  2  0  0  0
  4 38  1  0  0  0
  5  6  1  0  0  0
  5 39  1  0  0  0
  6  7  2  0  0  0
  6 21  1  0  0  0
  7  8  1  0  0  0
  7 40  1  0  0  0
  8  9  1  0  0  0
  9 10  2  0  0  0
 10 11  1  0  0  0
 11 12  1  0  0  0
 11 41  1  0  0  0
 11 42  1  0  0  0
 12 17  1  0  0  0
 12 13  2  0  0  0
 13 14  1  0  0  0
 13 43  1  0  0  0
 14 15  2  0  0  0
 14 44  1  0  0  0
 15 16  1  0  0  0
 15 18  1  0  0  0
 16 17  2  0  0  0
 16 45  1  0  0  0
 17 46  1  0  0  0
 18 19  2  3  0  0
 18 20  1  0  0  0
 19 47  1  0  0  0
 20 48  1  0  0  0
 20 49  1  0  0  0
 21 22  1  0  0  0
 21 50  1  0  0  0
 22 23  2  0  0  0
 22 24  2  0  0  0
 22 25  1  0  0  0
 25 30  1  0  0  0
 25 26  2  0  0  0
 26 27  1  0  0  0
 26 51  1  0  0  0
 27 28  2  0  0  0
 27 52  1  0  0  0
 28 29  1  0  0  0
 28 53  1  0  0  0
 29 34  2  0  0  0
 29 30  1  0  0  0
 30 31  2  0  0  0
 31 32  1  0  0  0
 32 33  2  0  0  0
 32 54  1  0  0  0
 33 34  1  0  0  0
 33 55  1  0  0  0
 34 56  1  0  0  0
M  END
> <s_m_entry_id>
38014

> <s_m_entry_name>
ligand_docking-pose.361

> <s_m_Source_Path>
/home/csk/Desktop/cluster/DUD-E-result/thrb

> <s_m_Source_File>
ligand_docking-pose.sdf

> <i_m_Source_File_Index>
361

> <i_lp_mmshare_version>
53161

> <i_f3d_flags>
0

> <r_lp_tautomer_probability>
1

> <s_lp_Force_Field>
OPLS_2005

> <r_lp_Energy>
21.109455

> <b_lp_Chiralities_Consistent>
1

> <s_lp_Variant>
75190-2

> <s_i_glide_gridfile>
glide-grid_1ype

> <i_i_glide_lignum>
4134

> <i_i_glide_rotatable_bonds>
6

> <r_i_docking_score>
-6.92207542207173

> <r_i_glide_ligand_efficiency>
-0.203590453590345

> <r_i_glide_ligand_efficiency_sa>
-0.659554035303442

> <r_i_glide_ligand_efficiency_ln>
-1.52928061837468

> <r_i_glide_gscore>
-6.92207542207173

> <r_i_glide_lipo>
-3.90868258540795

> <r_i_glide_hbond>
-0.343719591941048

> <r_i_glide_metal>
0

> <r_i_glide_rewards>
0.10997598402604

> <r_i_glide_evdw>
-49.3948440551758

> <r_i_glide_ecoul>
-4.51445531845093

> <r_i_glide_erotb>
0.456290419829537

> <r_i_glide_esite>
-0.0890291480518799

> <r_i_glide_emodel>
-72.3646114426941

> <r_i_glide_energy>
-53.9092993736267

> <r_i_glide_einternal>
2.52539992332458

> <i_i_glide_confnum>
9

> <i_i_glide_posenum>
368

> <r_i_glide_eff_state_penalty>
0

> <s_user_duplicate_titles>
75190

> <s_m_subgroup_title>
dock_pv

> <s_m_subgroupid>
dock_pv1

> <b_m_subgroup_collapsed>
0

$$$$
118450
                    3D
 Schrodinger Suite 2021-1.
 36 38  0  0  1  0            999 V2000
   20.1602  -12.4575   18.5569 C   0  0  0  0  0  0
   18.9847  -12.5430   19.5215 C   0  0  0  0  0  0
   17.7477  -11.9948   19.1783 C   0  0  0  0  0  0
   16.6909  -12.0533   20.0819 C   0  0  0  0  0  0
   16.8018  -12.6480   21.3024 N   0  0  0  0  0  0
   17.9899  -13.2139   21.6508 C   0  0  0  0  0  0
   19.1342  -13.1782   20.7918 C   0  0  0  0  0  0
   20.3440  -13.7731   21.2476 C   0  0  0  0  0  0
   20.4060  -14.3725   22.5034 C   0  0  0  0  0  0
   19.2862  -14.4118   23.3279 C   0  0  0  0  0  0
   18.0823  -13.8530   22.9104 C   0  0  0  0  0  0
   19.3999  -15.2277   25.0438 Br  0  0  0  0  0  0
   15.4960  -11.4529   19.7214 O   0  0  0  0  0  0
   14.4575  -11.3006   20.6130 C   0  0  0  0  0  0
   13.6729  -12.3847   21.0009 C   0  0  0  0  0  0
   12.6580  -12.2076   21.9381 C   0  0  0  0  0  0
   12.4050  -10.9459   22.5137 C   0  0  0  0  0  0
   13.1791   -9.8607   22.0609 C   0  0  0  0  0  0
   14.1903  -10.0338   21.1211 C   0  0  0  0  0  0
   11.3805  -10.7415   23.5821 C   0  0  0  0  0  0
   11.2167   -9.6234   24.1339 N   0  0  0  0  0  0
   10.6532  -11.8530   23.9209 N   0  0  0  0  0  0
   20.5380  -13.4532   18.3233 H   0  0  0  0  0  0
   19.8818  -11.9805   17.6172 H   0  0  0  0  0  0
   20.9748  -11.8833   18.9998 H   0  0  0  0  0  0
   17.6016  -11.5084   18.2261 H   0  0  0  0  0  0
   21.2252  -13.7618   20.6230 H   0  0  0  0  0  0
   21.3331  -14.8139   22.8396 H   0  0  0  0  0  0
   17.2151  -13.8887   23.5546 H   0  0  0  0  0  0
   13.8682  -13.3661   20.5947 H   0  0  0  0  0  0
   12.0935  -13.0811   22.2303 H   0  0  0  0  0  0
   13.0210   -8.8685   22.4607 H   0  0  0  0  0  0
   14.7929   -9.1913   20.8145 H   0  0  0  0  0  0
   10.4621   -9.6687   24.8092 H   0  0  0  0  0  0
    9.8487  -11.7519   24.5384 H   0  0  0  0  0  0
   10.8159  -12.7701   23.5212 H   0  0  0  0  0  0
  1  2  1  0  0  0
  1 23  1  0  0  0
  1 24  1  0  0  0
  1 25  1  0  0  0
  2  7  1  0  0  0
  2  3  2  0  0  0
  3  4  1  0  0  0
  3 26  1  0  0  0
  4  5  2  0  0  0
  4 13  1  0  0  0
  5  6  1  0  0  0
  6 11  2  0  0  0
  6  7  1  0  0  0
  7  8  2  0  0  0
  8  9  1  0  0  0
  8 27  1  0  0  0
  9 10  2  0  0  0
  9 28  1  0  0  0
 10 11  1  0  0  0
 10 12  1  0  0  0
 11 29  1  0  0  0
 13 14  1  0  0  0
 14 19  1  0  0  0
 14 15  2  0  0  0
 15 16  1  0  0  0
 15 30  1  0  0  0
 16 17  2  0  0  0
 16 31  1  0  0  0
 17 18  1  0  0  0
 17 20  1  0  0  0
 18 19  2  0  0  0
 18 32  1  0  0  0
 19 33  1  0  0  0
 20 21  2  3  0  0
 20 22  1  0  0  0
 21 34  1  0  0  0
 22 35  1  0  0  0
 22 36  1  0  0  0
M  END
> <s_m_entry_id>
38016

> <s_m_entry_name>
ligand_docking-pose.363

> <s_m_Source_Path>
/home/csk/Desktop/cluster/DUD-E-result/thrb

> <s_m_Source_File>
ligand_docking-pose.sdf

> <i_m_Source_File_Index>
363

> <i_lp_mmshare_version>
53161

> <i_f3d_flags>
0

> <r_lp_tautomer_probability>
1

> <s_lp_Force_Field>
OPLS_2005

> <r_lp_Energy>
12.769992

> <b_lp_Chiralities_Consistent>
1

> <s_lp_Variant>
118450-1

> <s_i_glide_gridfile>
glide-grid_1ype

> <i_i_glide_lignum>
2854

> <i_i_glide_rotatable_bonds>
3

> <r_i_docking_score>
-6.91851266201992

> <r_i_glide_ligand_efficiency>
-0.314477848273633

> <r_i_glide_ligand_efficiency_sa>
-0.881179298574676

> <r_i_glide_ligand_efficiency_ln>
-1.69113685347864

> <r_i_glide_gscore>
-6.91851266201992

> <r_i_glide_lipo>
-3.00349845614654

> <r_i_glide_hbond>
-0.197591129860397

> <r_i_glide_metal>
0

> <r_i_glide_rewards>
-1.13674199773817

> <r_i_glide_evdw>
-34.8302154541016

> <r_i_glide_ecoul>
-6.89982748031616

> <r_i_glide_erotb>
0.301516393102334

> <r_i_glide_esite>
-0.105712576624647

> <r_i_glide_emodel>
-58.9394760790647

> <r_i_glide_energy>
-41.7300429344177

> <r_i_glide_einternal>
1.69828760623932

> <i_i_glide_confnum>
7

> <i_i_glide_posenum>
349

> <r_i_glide_eff_state_penalty>
0

> <s_user_duplicate_titles>
118450

> <s_m_subgroup_title>
dock_pv

> <s_m_subgroupid>
dock_pv1

> <b_m_subgroup_collapsed>
0

$$$$
177899
                    3D
 Schrodinger Suite 2021-1.
 59 60  0  0  1  0            999 V2000
   16.8210  -16.2849   22.2898 C   0  0  0  0  0  0
   17.6249  -15.7012   23.3596 N   0  0  1  0  0  0
   18.8422  -14.9539   22.9321 C   0  0  2  0  0  0
   19.8275  -14.6106   24.0313 C   0  0  0  0  0  0
   21.1417  -15.0945   23.9768 C   0  0  0  0  0  0
   22.0732  -14.7191   24.9410 C   0  0  0  0  0  0
   21.6876  -13.8744   25.9771 C   0  0  0  0  0  0
   20.3722  -13.4307   26.0783 C   0  0  0  0  0  0
   19.4430  -13.8073   25.1120 C   0  0  0  0  0  0
   18.4351  -13.6737   22.1276 C   0  0  0  0  0  0
   17.4054  -13.0662   22.4417 O   0  0  0  0  0  0
   19.2409  -13.2575   21.1162 N   0  0  0  0  0  0
   20.5190  -13.8426   20.7115 C   0  0  0  0  0  0
   21.2335  -12.7151   19.9898 C   0  0  0  0  0  0
   20.1053  -11.9916   19.2926 C   0  0  0  0  0  0
   18.8960  -12.1140   20.2455 C   0  0  1  0  0  0
   17.5901  -12.3627   19.4751 C   0  0  0  0  0  0
   17.5298  -13.3315   18.7212 O   0  0  0  0  0  0
   16.5671  -11.5122   19.7017 N   0  0  0  0  0  0
   15.1713  -11.6423   19.2221 C   0  0  2  0  0  0
   14.3538  -12.7003   20.0219 C   0  0  0  0  0  0
   13.9039  -12.2033   21.4139 C   0  0  0  0  0  0
   12.6782  -11.2648   21.3483 C   0  0  0  0  0  0
   12.5712  -10.4888   22.5705 N   0  0  0  0  0  0
   11.6134  -10.6962   23.3768 C   0  0  0  0  0  0
   11.2160   -9.7427   24.3210 N   0  0  0  0  0  0
   10.8161  -11.8530   23.4909 N   0  0  0  0  0  0
   15.1558  -11.8575   17.7092 C   0  0  0  0  0  0
   14.4161  -12.6522   17.1318 O   0  0  0  0  0  0
   19.3475  -15.6126   22.2232 H   0  0  0  0  0  0
   18.8175  -11.2204   20.8683 H   0  0  0  0  0  0
   16.0020  -16.8639   22.7174 H   0  0  0  0  0  0
   16.3852  -15.5180   21.6482 H   0  0  0  0  0  0
   17.4198  -16.9548   21.6719 H   0  0  0  0  0  0
   17.0451  -15.1334   23.9686 H   0  0  0  0  0  0
   21.4544  -15.7474   23.1747 H   0  0  0  0  0  0
   23.0907  -15.0775   24.8850 H   0  0  0  0  0  0
   22.4122  -13.5778   26.7205 H   0  0  0  0  0  0
   20.0741  -12.7911   26.8972 H   0  0  0  0  0  0
   18.4261  -13.4531   25.1892 H   0  0  0  0  0  0
   21.1341  -14.1947   21.5338 H   0  0  0  0  0  0
   20.3295  -14.6791   20.0371 H   0  0  0  0  0  0
   21.6918  -12.0490   20.7203 H   0  0  0  0  0  0
   22.0157  -13.0514   19.3108 H   0  0  0  0  0  0
   20.3821  -10.9630   19.0869 H   0  0  0  0  0  0
   19.9166  -12.4789   18.3341 H   0  0  0  0  0  0
   16.6858  -10.8689   20.4729 H   0  0  0  0  0  0
   14.7138  -10.6703   19.3959 H   0  0  0  0  0  0
   13.4581  -13.0069   19.4770 H   0  0  0  0  0  0
   14.9460  -13.6102   20.1350 H   0  0  0  0  0  0
   13.6494  -13.0592   22.0413 H   0  0  0  0  0  0
   14.7436  -11.7158   21.9120 H   0  0  0  0  0  0
   12.7823  -10.5506   20.5316 H   0  0  0  0  0  0
   11.7812  -11.8417   21.1039 H   0  0  0  0  0  0
   11.5628   -8.8055   24.1992 H   0  0  0  0  0  0
   10.2353   -9.7344   24.5826 H   0  0  0  0  0  0
   11.1418  -12.7365   23.1228 H   0  0  0  0  0  0
   10.2718  -11.9816   24.3334 H   0  0  0  0  0  0
   15.8605  -11.2373   17.1544 H   0  0  0  0  0  0
  1  2  1  0  0  0
  1 32  1  0  0  0
  1 33  1  0  0  0
  1 34  1  0  0  0
  2  3  1  0  0  0
  2 35  1  0  0  0
  3 30  1  0  0  0
  3  4  1  0  0  0
  3 10  1  0  0  0
  4  9  1  0  0  0
  4  5  2  0  0  0
  5  6  1  0  0  0
  5 36  1  0  0  0
  6  7  2  0  0  0
  6 37  1  0  0  0
  7  8  1  0  0  0
  7 38  1  0  0  0
  8  9  2  0  0  0
  8 39  1  0  0  0
  9 40  1  0  0  0
 10 11  2  0  0  0
 10 12  1  0  0  0
 12 16  1  0  0  0
 12 13  1  0  0  0
 13 14  1  0  0  0
 13 41  1  0  0  0
 13 42  1  0  0  0
 14 15  1  0  0  0
 14 43  1  0  0  0
 14 44  1  0  0  0
 15 16  1  0  0  0
 15 45  1  0  0  0
 15 46  1  0  0  0
 16 31  1  0  0  0
 16 17  1  0  0  0
 17 18  2  0  0  0
 17 19  1  0  0  0
 19 20  1  0  0  0
 19 47  1  0  0  0
 20 21  1  0  0  0
 20 28  1  0  0  0
 20 48  1  0  0  0
 21 22  1  0  0  0
 21 49  1  0  0  0
 21 50  1  0  0  0
 22 23  1  0  0  0
 22 51  1  0  0  0
 22 52  1  0  0  0
 23 24  1  0  0  0
 23 53  1  0  0  0
 23 54  1  0  0  0
 24 25  2  3  0  0
 25 26  1  0  0  0
 25 27  1  0  0  0
 26 55  1  0  0  0
 26 56  1  0  0  0
 27 57  1  0  0  0
 27 58  1  0  0  0
 28 29  2  0  0  0
 28 59  1  0  0  0
M  END
> <s_m_entry_id>
38017

> <s_m_entry_name>
ligand_docking-pose.364

> <s_m_Source_Path>
/home/csk/Desktop/cluster/DUD-E-result/thrb

> <s_m_Source_File>
ligand_docking-pose.sdf

> <i_m_Source_File_Index>
364

> <i_lp_mmshare_version>
53161

> <i_f3d_flags>
0

> <r_lp_tautomer_probability>
0.99990000499975

> <s_lp_Force_Field>
OPLS_2005

> <r_lp_Energy>
21.275603

> <b_lp_Chiralities_Consistent>
1

> <s_lp_Variant>
177899-1

> <s_i_glide_gridfile>
glide-grid_1ype

> <i_i_glide_lignum>
4398

> <i_i_glide_rotatable_bonds>
12

> <r_i_docking_score>
-6.91735349264403

> <r_i_glide_ligand_efficiency>
-0.238529430780829

> <r_i_glide_ligand_efficiency_sa>
-0.732837982786647

> <r_i_glide_ligand_efficiency_ln>
-1.58389854086561

> <r_i_glide_gscore>
-6.91735349264403

> <r_i_glide_lipo>
-2.66306221859761

> <r_i_glide_hbond>
-0.354812530946058

> <r_i_glide_metal>
0

> <r_i_glide_rewards>
-1.58831365191248

> <r_i_glide_evdw>
-42.7198371887207

> <r_i_glide_ecoul>
-8.33444118499756

> <r_i_glide_erotb>
1.21138558215189

> <r_i_glide_esite>
-0.136392636154107

> <r_i_glide_emodel>
-69.5298093544759

> <r_i_glide_energy>
-51.0542783737183

> <r_i_glide_einternal>
6.30302381515503

> <i_i_glide_confnum>
308

> <i_i_glide_posenum>
65

> <r_i_glide_eff_state_penalty>
0

> <s_user_duplicate_titles>
177899

> <s_m_subgroup_title>
dock_pv

> <s_m_subgroupid>
dock_pv1

> <b_m_subgroup_collapsed>
0

$$$$
78679
                    3D
 Schrodinger Suite 2021-1.
 57 60  0  0  1  0            999 V2000
   20.2953  -11.8530   18.2227 C   0  0  0  0  0  0
   21.2160  -12.3473   19.1324 C   0  0  0  0  0  0
   20.8368  -13.3606   19.9991 C   0  0  0  0  0  0
   19.5360  -13.8530   19.9677 C   0  0  0  0  0  0
   18.5751  -13.2478   19.1530 C   0  0  0  0  0  0
   18.9611  -12.2530   18.2627 C   0  0  0  0  0  0
   19.2105  -15.1123   20.7487 C   0  0  0  0  0  0
   18.8284  -14.8184   22.1715 C   0  0  0  0  0  0
   19.7227  -14.6450   23.2841 C   0  0  0  0  0  0
   21.1194  -14.6620   23.4239 C   0  0  0  0  0  0
   21.7083  -14.4220   24.6735 C   0  0  0  0  0  0
   20.8756  -14.1746   25.7769 C   0  0  0  0  0  0
   19.4831  -14.1800   25.6952 C   0  0  0  0  0  0
   18.9253  -14.4113   24.4365 C   0  0  0  0  0  0
   17.6160  -14.4666   24.0154 N   0  0  0  0  0  0
   17.5458  -14.6772   22.6604 C   0  0  0  0  0  0
   16.2514  -14.7019   21.9210 C   0  0  0  0  0  0
   15.8445  -13.5198   21.2982 C   0  0  0  0  0  0
   14.6103  -13.4414   20.6465 C   0  0  0  0  0  0
   13.7859  -14.5699   20.6127 C   0  0  0  0  0  0
   14.1872  -15.7614   21.2190 C   0  0  0  0  0  0
   15.4233  -15.8338   21.8740 C   0  0  0  0  0  0
   15.8153  -17.0006   22.4822 O   0  0  0  0  0  0
   13.0176  -17.2664   21.1483 Br  0  0  0  0  0  0
   14.1692  -12.1449   19.9713 C   0  0  0  0  0  0
   14.2806  -10.8958   20.8662 C   0  0  0  0  0  0
   13.4849  -11.0671   22.0319 O   0  0  0  0  0  0
   12.2232  -10.0777   22.3236 P   0  0  0  0  0  0
   11.6160   -9.4530   21.1210 O   0  0  0  0  0  0
   11.2160  -10.9865   23.2063 O   0  0  0  0  0  0
   12.8160   -9.0408   23.4175 O   0  0  0  0  0  0
   23.1804  -14.4276   24.8118 C   0  0  0  0  0  0
   23.9176  -13.8530   23.9661 N   0  0  0  0  0  0
   23.6034  -15.1144   25.9205 N   0  0  0  0  0  0
   16.7743  -14.3570   24.5700 H   0  0  0  0  0  0
   20.6206  -11.1113   17.5090 H   0  0  0  0  0  0
   22.2312  -11.9859   19.1296 H   0  0  0  0  0  0
   21.5822  -13.8037   20.6413 H   0  0  0  0  0  0
   17.5599  -13.6154   19.1347 H   0  0  0  0  0  0
   18.2385  -11.8354   17.5780 H   0  0  0  0  0  0
   20.0665  -15.7890   20.7189 H   0  0  0  0  0  0
   18.4000  -15.6477   20.2539 H   0  0  0  0  0  0
   21.7429  -14.8591   22.5642 H   0  0  0  0  0  0
   21.3182  -13.9650   26.7404 H   0  0  0  0  0  0
   18.8739  -13.9928   26.5677 H   0  0  0  0  0  0
   16.4935  -12.6565   21.3341 H   0  0  0  0  0  0
   12.8261  -14.5289   20.1177 H   0  0  0  0  0  0
   16.6828  -16.9161   22.8836 H   0  0  0  0  0  0
   13.1345  -12.2372   19.6358 H   0  0  0  0  0  0
   14.7694  -12.0082   19.0711 H   0  0  0  0  0  0
   13.9820  -10.0119   20.3015 H   0  0  0  0  0  0
   15.3173  -10.7143   21.1456 H   0  0  0  0  0  0
   10.2621  -10.8894   22.9907 H   0  0  0  0  0  0
   13.1204   -9.4530   24.2502 H   0  0  0  0  0  0
   24.8947  -13.9438   24.2020 H   0  0  0  0  0  0
   24.5638  -15.0531   26.2318 H   0  0  0  0  0  0
   22.9358  -15.5849   26.5104 H   0  0  0  0  0  0
  1  6  1  0  0  0
  1  2  2  0  0  0
  1 36  1  0  0  0
  2  3  1  0  0  0
  2 37  1  0  0  0
  3  4  2  0  0  0
  3 38  1  0  0  0
  4  5  1  0  0  0
  4  7  1  0  0  0
  5  6  2  0  0  0
  5 39  1  0  0  0
  6 40  1  0  0  0
  7  8  1  0  0  0
  7 41  1  0  0  0
  7 42  1  0  0  0
  8 16  2  0  0  0
  8  9  1  0  0  0
  9 14  2  0  0  0
  9 10  1  0  0  0
 10 11  2  0  0  0
 10 43  1  0  0  0
 11 12  1  0  0  0
 11 32  1  0  0  0
 12 13  2  0  0  0
 12 44  1  0  0  0
 13 14  1  0  0  0
 13 45  1  0  0  0
 14 15  1  0  0  0
 15 35  1  0  0  0
 15 16  1  0  0  0
 16 17  1  0  0  0
 17 22  1  0  0  0
 17 18  2  0  0  0
 18 19  1  0  0  0
 18 46  1  0  0  0
 19 20  2  0  0  0
 19 25  1  0  0  0
 20 21  1  0  0  0
 20 47  1  0  0  0
 21 22  2  0  0  0
 21 24  1  0  0  0
 22 23  1  0  0  0
 23 48  1  0  0  0
 25 26  1  0  0  0
 25 49  1  0  0  0
 25 50  1  0  0  0
 26 27  1  0  0  0
 26 51  1  0  0  0
 26 52  1  0  0  0
 27 28  1  0  0  0
 28 29  2  0  0  0
 28 30  1  0  0  0
 28 31  1  0  0  0
 30 53  1  0  0  0
 31 54  1  0  0  0
 32 33  2  3  0  0
 32 34  1  0  0  0
 33 55  1  0  0  0
 34 56  1  0  0  0
 34 57  1  0  0  0
M  END
> <s_m_entry_id>
38018

> <s_m_entry_name>
ligand_docking-pose.365

> <s_m_Source_Path>
/home/csk/Desktop/cluster/DUD-E-result/thrb

> <s_m_Source_File>
ligand_docking-pose.sdf

> <i_m_Source_File_Index>
365

> <i_lp_mmshare_version>
53161

> <i_f3d_flags>
0

> <r_lp_tautomer_probability>
0.999999999997365

> <s_lp_Force_Field>
OPLS_2005

> <r_lp_Energy>
1.423868

> <b_lp_Chiralities_Consistent>
1

> <s_lp_Variant>
78679-1

> <s_i_glide_gridfile>
glide-grid_1ype

> <i_i_glide_lignum>
647

> <i_i_glide_rotatable_bonds>
11

> <r_i_docking_score>
-6.91723658471362

> <r_i_glide_ligand_efficiency>
-0.203448134844518

> <r_i_glide_ligand_efficiency_sa>
-0.659092977815461

> <r_i_glide_ligand_efficiency_ln>
-1.52821158347748

> <r_i_glide_gscore>
-6.91723658471362

> <r_i_glide_lipo>
-2.65582913429792

> <r_i_glide_hbond>
-0.480492585642187

> <r_i_glide_metal>
0

> <r_i_glide_rewards>
-0.489670603532283

> <r_i_glide_evdw>
-44.4766426086426

> <r_i_glide_ecoul>
-10.2461910247803

> <r_i_glide_erotb>
0.488975615110125

> <r_i_glide_esite>
-0.0194590922021767

> <r_i_glide_emodel>
-75.9646962241246

> <r_i_glide_energy>
-54.7228336334229

> <r_i_glide_einternal>
6.6717004776001

> <i_i_glide_confnum>
55

> <i_i_glide_posenum>
356

> <r_i_glide_eff_state_penalty>
0

> <s_user_duplicate_titles>
78679

> <s_m_subgroup_title>
dock_pv

> <s_m_subgroupid>
dock_pv1

> <b_m_subgroup_collapsed>
0

$$$$
128956
                    3D
 Schrodinger Suite 2021-1.
 65 67  0  0  1  0            999 V2000
   11.5828  -17.1948   18.6803 C   0  0  0  0  0  0
   12.6069  -16.8521   17.8007 C   0  0  0  0  0  0
   13.7906  -16.3106   18.2952 C   0  0  0  0  0  0
   13.9448  -16.1085   19.6693 C   0  0  0  0  0  0
   12.9227  -16.4718   20.5491 C   0  0  0  0  0  0
   11.7373  -17.0101   20.0518 C   0  0  0  0  0  0
   15.2104  -15.4536   20.2011 C   0  0  0  0  0  0
   16.3964  -16.6647   21.0246 S   0  0  0  0  0  0
   16.6410  -17.7638   20.0864 O   0  0  0  0  0  0
   15.9261  -16.9288   22.3880 O   0  0  0  0  0  0
   17.9043  -15.7606   21.1310 N   0  0  3  0  0  0
   18.1783  -14.7096   22.1514 C   0  0  1  0  0  0
   19.6985  -14.5334   22.3905 C   0  0  0  0  0  0
   20.5753  -14.3467   21.1345 C   0  0  0  0  0  0
   20.2137  -13.1505   20.2359 C   0  0  0  0  0  0
   18.7562  -13.1190   19.7390 C   0  0  0  0  0  0
   17.7533  -12.6983   20.7325 N   0  0  0  0  0  0
   17.3853  -13.4107   21.8443 C   0  0  0  0  0  0
   16.4828  -13.0531   22.6061 O   0  0  0  0  0  0
   17.0198  -11.4470   20.4384 C   0  0  0  0  0  0
   15.6617  -11.7494   19.7775 C   0  0  0  0  0  0
   15.6017  -12.3960   18.7316 O   0  0  0  0  0  0
   14.5876  -11.2491   20.4056 N   0  0  0  0  0  0
   13.1874  -11.3434   19.9654 C   0  0  1  0  0  0
   12.5773  -12.7565   20.0370 C   0  0  0  0  0  0
   12.3751  -13.1823   21.4958 C   0  0  0  0  0  0
   11.5311  -12.1568   22.2717 C   0  0  0  0  0  0
   12.0835  -10.7897   22.1670 N   0  0  0  0  0  0
   12.2850  -10.3549   20.7608 C   0  0  1  0  0  0
   12.8004   -9.0530   20.5590 O   0  0  0  0  0  0
   12.0161   -9.8656   23.2665 C   0  0  0  0  0  0
   12.6027   -8.7539   23.2970 N   0  0  0  0  0  0
   11.2160  -10.2560   24.3546 N   0  0  0  0  0  0
   17.7647  -15.0843   23.0906 H   0  0  0  0  0  0
   13.1754  -11.0256   18.9202 H   0  0  0  0  0  0
   10.6605  -17.6058   18.2945 H   0  0  0  0  0  0
   12.4773  -16.9926   16.7363 H   0  0  0  0  0  0
   14.5742  -16.0316   17.6060 H   0  0  0  0  0  0
   13.0390  -16.3165   21.6119 H   0  0  0  0  0  0
   10.9338  -17.2763   20.7210 H   0  0  0  0  0  0
   14.9696  -14.6857   20.9336 H   0  0  0  0  0  0
   15.7625  -14.9767   19.3926 H   0  0  0  0  0  0
   18.5247  -15.7963   20.3197 H   0  0  0  0  0  0
   20.0651  -15.4093   22.9283 H   0  0  0  0  0  0
   19.8641  -13.6953   23.0704 H   0  0  0  0  0  0
   20.5504  -15.2600   20.5378 H   0  0  0  0  0  0
   21.6152  -14.2442   21.4476 H   0  0  0  0  0  0
   20.8641  -13.2031   19.3614 H   0  0  0  0  0  0
   20.4609  -12.2070   20.7214 H   0  0  0  0  0  0
   18.5082  -14.1287   19.4243 H   0  0  0  0  0  0
   18.6452  -12.5467   18.8170 H   0  0  0  0  0  0
   17.6032  -10.8186   19.7669 H   0  0  0  0  0  0
   16.8964  -10.8519   21.3445 H   0  0  0  0  0  0
   14.7590  -10.5204   21.0832 H   0  0  0  0  0  0
   13.2045  -13.4694   19.5051 H   0  0  0  0  0  0
   11.6170  -12.7770   19.5231 H   0  0  0  0  0  0
   13.3232  -13.3502   22.0097 H   0  0  0  0  0  0
   11.8577  -14.1405   21.5208 H   0  0  0  0  0  0
   11.5084  -12.4895   23.3101 H   0  0  0  0  0  0
   10.4972  -12.1671   21.9259 H   0  0  0  0  0  0
   11.2877  -10.3104   20.3266 H   0  0  0  0  0  0
   12.7602   -8.6199   21.4262 H   0  0  0  0  0  0
   12.4349   -8.2790   24.1718 H   0  0  0  0  0  0
   10.9857   -9.6162   25.0990 H   0  0  0  0  0  0
   10.5702  -11.0303   24.2806 H   0  0  0  0  0  0
  1  6  1  0  0  0
  1  2  2  0  0  0
  1 36  1  0  0  0
  2  3  1  0  0  0
  2 37  1  0  0  0
  3  4  2  0  0  0
  3 38  1  0  0  0
  4  5  1  0  0  0
  4  7  1  0  0  0
  5  6  2  0  0  0
  5 39  1  0  0  0
  6 40  1  0  0  0
  7  8  1  0  0  0
  7 41  1  0  0  0
  7 42  1  0  0  0
  8  9  2  0  0  0
  8 10  2  0  0  0
  8 11  1  0  0  0
 11 12  1  0  0  0
 11 43  1  0  0  0
 12 34  1  0  0  0
 12 18  1  0  0  0
 12 13  1  0  0  0
 13 14  1  0  0  0
 13 44  1  0  0  0
 13 45  1  0  0  0
 14 15  1  0  0  0
 14 46  1  0  0  0
 14 47  1  0  0  0
 15 16  1  0  0  0
 15 48  1  0  0  0
 15 49  1  0  0  0
 16 17  1  0  0  0
 16 50  1  0  0  0
 16 51  1  0  0  0
 17 18  1  0  0  0
 17 20  1  0  0  0
 18 19  2  0  0  0
 20 21  1  0  0  0
 20 52  1  0  0  0
 20 53  1  0  0  0
 21 22  2  0  0  0
 21 23  1  0  0  0
 23 24  1  0  0  0
 23 54  1  0  0  0
 24 35  1  0  0  0
 24 29  1  0  0  0
 24 25  1  0  0  0
 25 26  1  0  0  0
 25 55  1  0  0  0
 25 56  1  0  0  0
 26 27  1  0  0  0
 26 57  1  0  0  0
 26 58  1  0  0  0
 27 28  1  0  0  0
 27 59  1  0  0  0
 27 60  1  0  0  0
 28 29  1  0  0  0
 28 31  1  0  0  0
 29 30  1  0  0  0
 29 61  1  0  0  0
 30 62  1  0  0  0
 31 32  2  3  0  0
 31 33  1  0  0  0
 32 63  1  0  0  0
 33 64  1  0  0  0
 33 65  1  0  0  0
M  END
> <s_m_entry_id>
38019

> <s_m_entry_name>
ligand_docking-pose.366

> <s_m_Source_Path>
/home/csk/Desktop/cluster/DUD-E-result/thrb

> <s_m_Source_File>
ligand_docking-pose.sdf

> <i_m_Source_File_Index>
366

> <i_lp_mmshare_version>
53161

> <i_f3d_flags>
0

> <r_lp_tautomer_probability>
1

> <s_lp_Force_Field>
OPLS_2005

> <r_lp_Energy>
25.143833

> <b_lp_Chiralities_Consistent>
1

> <s_lp_Variant>
128956-1

> <s_i_glide_gridfile>
glide-grid_1ype

> <i_i_glide_lignum>
1593

> <i_i_glide_rotatable_bonds>
10

> <r_i_docking_score>
-6.9138968272013

> <r_i_glide_ligand_efficiency>
-0.209512025066706

> <r_i_glide_ligand_efficiency_sa>
-0.672017012165169

> <r_i_glide_ligand_efficiency_ln>
-1.53761485612768

> <r_i_glide_gscore>
-6.9138968272013

> <r_i_glide_lipo>
-2.24762181530753

> <r_i_glide_hbond>
-0.32

> <r_i_glide_metal>
0

> <r_i_glide_rewards>
-1.54842199780072

> <r_i_glide_evdw>
-46.406364440918

> <r_i_glide_ecoul>
-6.76749992370605

> <r_i_glide_erotb>
0.614657365029489

> <r_i_glide_esite>
-0.0770671685207314

> <r_i_glide_emodel>
-72.3646299056792

> <r_i_glide_energy>
-53.173864364624

> <r_i_glide_einternal>
6.64915943145752

> <i_i_glide_confnum>
73

> <i_i_glide_posenum>
246

> <r_i_glide_eff_state_penalty>
0

> <s_user_duplicate_titles>
128956

> <s_m_subgroup_title>
dock_pv

> <s_m_subgroupid>
dock_pv1

> <b_m_subgroup_collapsed>
0

$$$$
23185
                    3D
 Schrodinger Suite 2021-1.
 59 61  0  0  1  0            999 V2000
   20.6251  -12.4113   19.6915 C   0  0  0  0  0  0
   19.8970  -13.4180   20.5789 C   0  0  0  0  0  0
   20.3788  -14.6701   20.7206 C   0  0  0  0  0  0
   19.6534  -15.6040   21.5518 C   0  0  0  0  0  0
   18.5327  -15.2067   22.1980 C   0  0  0  0  0  0
   18.0342  -13.8246   22.0838 C   0  0  0  0  0  0
   17.0382  -13.4540   22.7209 O   0  0  0  0  0  0
   18.7398  -12.9813   21.2278 N   0  0  0  0  0  0
   18.2089  -11.5956   21.0827 C   0  0  0  0  0  0
   16.9962  -11.5239   20.1404 C   0  0  0  0  0  0
   17.1172  -11.0591   19.0091 O   0  0  0  0  0  0
   15.8287  -11.9302   20.6570 N   0  0  0  0  0  0
   14.5084  -11.8021   20.0544 C   0  0  0  0  0  0
   13.4716  -11.4463   21.1209 C   0  0  0  0  0  0
   13.4241  -10.1720   21.7204 C   0  0  0  0  0  0
   12.5323   -9.8485   22.6943 N   0  0  0  0  0  0
   11.6788  -10.8256   23.0755 C   0  0  0  0  0  0
   11.6159  -12.0665   22.5457 N   0  0  0  0  0  0
   12.5089  -12.3687   21.5697 C   0  0  0  0  0  0
   12.4040  -13.7849   21.0268 C   0  0  0  0  0  0
   10.8252  -10.5507   24.1327 N   0  0  0  0  0  0
   14.3669   -9.0506   21.3311 C   0  0  0  0  0  0
   17.7067  -16.0337   23.0081 N   0  0  0  0  0  0
   18.2119  -17.4530   23.9394 S   0  0  0  0  0  0
   17.0150  -18.2788   24.1239 O   0  0  0  0  0  0
   19.4193  -18.0394   23.3503 O   0  0  0  0  0  0
   18.6517  -16.7483   25.6324 C   0  0  0  0  0  0
   19.6557  -15.6093   25.5637 C   0  0  0  0  0  0
   21.0271  -15.8736   25.5165 C   0  0  0  0  0  0
   21.9376  -14.8179   25.4946 C   0  0  0  0  0  0
   21.4716  -13.5039   25.5088 C   0  0  0  0  0  0
   20.1045  -13.2409   25.5199 C   0  0  0  0  0  0
   19.1966  -14.2923   25.5472 C   0  0  0  0  0  0
   21.4844  -12.8620   19.1922 H   0  0  0  0  0  0
   19.9623  -12.0298   18.9144 H   0  0  0  0  0  0
   21.0003  -11.5740   20.2809 H   0  0  0  0  0  0
   21.2824  -14.9868   20.2188 H   0  0  0  0  0  0
   20.0049  -16.6217   21.5978 H   0  0  0  0  0  0
   18.9601  -10.8562   20.8110 H   0  0  0  0  0  0
   17.8850  -11.2310   22.0563 H   0  0  0  0  0  0
   15.8730  -12.4601   21.5207 H   0  0  0  0  0  0
   14.2718  -12.7399   19.5531 H   0  0  0  0  0  0
   14.4941  -11.0510   19.2628 H   0  0  0  0  0  0
   13.3425  -14.3183   21.1781 H   0  0  0  0  0  0
   11.6162  -14.3563   21.5199 H   0  0  0  0  0  0
   12.1740  -13.7676   19.9615 H   0  0  0  0  0  0
   10.0773  -11.2070   24.3287 H   0  0  0  0  0  0
   10.7227   -9.5975   24.4423 H   0  0  0  0  0  0
   15.3880   -9.3955   21.1872 H   0  0  0  0  0  0
   14.4055   -8.2571   22.0803 H   0  0  0  0  0  0
   14.0153   -8.6313   20.3935 H   0  0  0  0  0  0
   16.8447  -15.5885   23.3426 H   0  0  0  0  0  0
   17.7189  -16.4190   26.0905 H   0  0  0  0  0  0
   19.0370  -17.5737   26.2306 H   0  0  0  0  0  0
   21.3876  -16.8924   25.5133 H   0  0  0  0  0  0
   22.9994  -15.0169   25.4800 H   0  0  0  0  0  0
   22.1725  -12.6810   25.5115 H   0  0  0  0  0  0
   19.7349  -12.2291   25.5206 H   0  0  0  0  0  0
   18.1372  -14.0797   25.5622 H   0  0  0  0  0  0
  1  2  1  0  0  0
  1 34  1  0  0  0
  1 35  1  0  0  0
  1 36  1  0  0  0
  2  8  1  0  0  0
  2  3  2  0  0  0
  3  4  1  0  0  0
  3 37  1  0  0  0
  4  5  2  0  0  0
  4 38  1  0  0  0
  5  6  1  0  0  0
  5 23  1  0  0  0
  6  7  2  0  0  0
  6  8  1  0  0  0
  8  9  1  0  0  0
  9 10  1  0  0  0
  9 39  1  0  0  0
  9 40  1  0  0  0
 10 11  2  0  0  0
 10 12  1  0  0  0
 12 13  1  0  0  0
 12 41  1  0  0  0
 13 14  1  0  0  0
 13 42  1  0  0  0
 13 43  1  0  0  0
 14 19  1  0  0  0
 14 15  2  0  0  0
 15 16  1  0  0  0
 15 22  1  0  0  0
 16 17  2  0  0  0
 17 18  1  0  0  0
 17 21  1  0  0  0
 18 19  2  0  0  0
 19 20  1  0  0  0
 20 44  1  0  0  0
 20 45  1  0  0  0
 20 46  1  0  0  0
 21 47  1  0  0  0
 21 48  1  0  0  0
 22 49  1  0  0  0
 22 50  1  0  0  0
 22 51  1  0  0  0
 23 24  1  0  0  0
 23 52  1  0  0  0
 24 25  2  0  0  0
 24 26  2  0  0  0
 24 27  1  0  0  0
 27 28  1  0  0  0
 27 53  1  0  0  0
 27 54  1  0  0  0
 28 33  1  0  0  0
 28 29  2  0  0  0
 29 30  1  0  0  0
 29 55  1  0  0  0
 30 31  2  0  0  0
 30 56  1  0  0  0
 31 32  1  0  0  0
 31 57  1  0  0  0
 32 33  2  0  0  0
 32 58  1  0  0  0
 33 59  1  0  0  0
M  END
> <s_m_entry_id>
38020

> <s_m_entry_name>
ligand_docking-pose.367

> <s_m_Source_Path>
/home/csk/Desktop/cluster/DUD-E-result/thrb

> <s_m_Source_File>
ligand_docking-pose.sdf

> <i_m_Source_File_Index>
367

> <i_lp_mmshare_version>
53161

> <i_f3d_flags>
0

> <r_lp_tautomer_probability>
0.999999987636

> <s_lp_Force_Field>
OPLS_2005

> <r_lp_Energy>
14.992057

> <b_lp_Chiralities_Consistent>
1

> <s_lp_Variant>
23185-1

> <s_i_glide_gridfile>
glide-grid_1ype

> <i_i_glide_lignum>
2784

> <i_i_glide_rotatable_bonds>
9

> <r_i_docking_score>
-6.91127726989652

> <r_i_glide_ligand_efficiency>
-0.209432644542319

> <r_i_glide_ligand_efficiency_sa>
-0.671762396408359

> <r_i_glide_ligand_efficiency_ln>
-1.53703228014644

> <r_i_glide_gscore>
-6.91127726989652

> <r_i_glide_lipo>
-3.59075471996853

> <r_i_glide_hbond>
-0.0525572594835073

> <r_i_glide_metal>
0

> <r_i_glide_rewards>
-0.779063059807953

> <r_i_glide_evdw>
-51.2138671875

> <r_i_glide_ecoul>
-3.84388208389282

> <r_i_glide_erotb>
0.730069031655695

> <r_i_glide_esite>
-0.0816955903332952

> <r_i_glide_emodel>
-71.3154015069197

> <r_i_glide_energy>
-55.0577492713928

> <r_i_glide_einternal>
10.2854604721069

> <i_i_glide_confnum>
45

> <i_i_glide_posenum>
50

> <r_i_glide_eff_state_penalty>
0

> <s_user_duplicate_titles>
23185

> <s_m_subgroup_title>
dock_pv

> <s_m_subgroupid>
dock_pv1

> <b_m_subgroup_collapsed>
0

$$$$
28517
                    3D
 Schrodinger Suite 2021-1.
 64 65  0  0  1  0            999 V2000
   10.8170  -11.1911   24.2335 C   0  0  0  0  0  0
   11.4920  -11.8530   23.1213 N   0  0  0  0  0  0
   12.4164  -11.2268   22.3790 C   0  0  0  0  0  0
   12.6012  -10.0099   22.3145 O   0  0  0  0  0  0
   13.3999  -12.2391   21.6911 C   0  0  0  0  0  0
   14.6086  -12.1445   21.9209 O   0  0  0  0  0  0
   12.7992  -13.2374   20.7006 C   0  0  2  0  0  0
   12.8188  -14.6724   21.3105 C   0  0  0  0  0  0
   11.8027  -15.6781   20.7238 C   0  0  0  0  0  0
   11.7277  -15.7522   19.1861 C   0  0  0  0  0  0
   10.5825  -16.6412   18.6783 C   0  0  0  0  0  0
   10.8160  -18.0347   19.0019 N   0  0  0  0  0  0
   13.6817  -13.2620   19.5221 N   0  0  0  0  0  0
   14.0517  -12.2580   18.7088 C   0  0  0  0  0  0
   13.6159  -11.1096   18.7838 O   0  0  0  0  0  0
   15.2190  -12.5863   17.7697 C   0  0  0  0  0  0
   16.5049  -12.4022   18.4816 N   0  0  0  0  0  0
   17.0755  -11.0543   18.4752 C   0  0  0  0  0  0
   17.0254  -13.3969   19.2615 C   0  0  0  0  0  0
   16.4161  -14.4534   19.4572 O   0  0  0  0  0  0
   18.4191  -13.2318   19.8529 C   0  0  0  0  0  0
   19.4789  -12.8946   18.9927 C   0  0  0  0  0  0
   20.7881  -12.8071   19.4503 C   0  0  0  0  0  0
   21.0676  -13.0933   20.7778 C   0  0  0  0  0  0
   20.0436  -13.4529   21.6457 C   0  0  0  0  0  0
   18.7099  -13.4956   21.2153 C   0  0  0  0  0  0
   17.3923  -13.8144   22.3867 S   0  0  0  0  0  0
   18.0923  -14.5973   23.8329 C   0  0  0  0  0  0
   18.9367  -13.8557   24.6723 C   0  0  0  0  0  0
   19.4340  -14.4093   25.8493 C   0  0  0  0  0  0
   19.0794  -15.7067   26.2067 C   0  0  0  0  0  0
   18.2320  -16.4529   25.3914 C   0  0  0  0  0  0
   17.7274  -15.9096   24.2048 C   0  0  0  0  0  0
   16.8157  -16.7337   23.4127 C   0  0  0  0  0  0
   16.0923  -17.3887   22.7892 N   0  0  0  0  0  0
   11.7860  -12.9521   20.4074 H   0  0  0  0  0  0
   10.4160  -11.9449   24.9092 H   0  0  0  0  0  0
   11.5186  -10.5866   24.8081 H   0  0  0  0  0  0
   10.0161  -10.5316   23.9206 H   0  0  0  0  0  0
   11.4034  -12.8626   23.1043 H   0  0  0  0  0  0
   12.6385  -14.6356   22.3854 H   0  0  0  0  0  0
   13.8208  -15.1019   21.2324 H   0  0  0  0  0  0
   10.8164  -15.4535   21.1200 H   0  0  0  0  0  0
   12.0366  -16.6687   21.1145 H   0  0  0  0  0  0
   12.6810  -16.0867   18.7754 H   0  0  0  0  0  0
   11.5527  -14.7552   18.7835 H   0  0  0  0  0  0
   10.4869  -16.5467   17.5959 H   0  0  0  0  0  0
    9.6329  -16.3254   19.1113 H   0  0  0  0  0  0
    9.9987  -18.5662   18.7242 H   0  0  0  0  0  0
   11.5810  -18.3840   18.4426 H   0  0  0  0  0  0
   14.1792  -14.1358   19.4084 H   0  0  0  0  0  0
   15.1331  -13.6033   17.3830 H   0  0  0  0  0  0
   15.2174  -11.8914   16.9296 H   0  0  0  0  0  0
   17.2732  -10.6875   19.4849 H   0  0  0  0  0  0
   17.9995  -11.0533   17.9040 H   0  0  0  0  0  0
   16.4161  -10.3453   17.9835 H   0  0  0  0  0  0
   19.3047  -12.7319   17.9393 H   0  0  0  0  0  0
   21.5908  -12.5562   18.7714 H   0  0  0  0  0  0
   22.0834  -13.0522   21.1375 H   0  0  0  0  0  0
   20.3297  -13.6777   22.6556 H   0  0  0  0  0  0
   19.2161  -12.8424   24.4202 H   0  0  0  0  0  0
   20.0823  -13.8279   26.4898 H   0  0  0  0  0  0
   19.4559  -16.1358   27.1204 H   0  0  0  0  0  0
   17.9646  -17.4545   25.7001 H   0  0  0  0  0  0
  1  2  1  0  0  0
  1 37  1  0  0  0
  1 38  1  0  0  0
  1 39  1  0  0  0
  2  3  1  0  0  0
  2 40  1  0  0  0
  3  4  2  0  0  0
  3  5  1  0  0  0
  5  6  2  0  0  0
  5  7  1  0  0  0
  7 36  1  0  0  0
  7  8  1  0  0  0
  7 13  1  0  0  0
  8  9  1  0  0  0
  8 41  1  0  0  0
  8 42  1  0  0  0
  9 10  1  0  0  0
  9 43  1  0  0  0
  9 44  1  0  0  0
 10 11  1  0  0  0
 10 45  1  0  0  0
 10 46  1  0  0  0
 11 12  1  0  0  0
 11 47  1  0  0  0
 11 48  1  0  0  0
 12 49  1  0  0  0
 12 50  1  0  0  0
 13 14  1  0  0  0
 13 51  1  0  0  0
 14 15  2  0  0  0
 14 16  1  0  0  0
 16 17  1  0  0  0
 16 52  1  0  0  0
 16 53  1  0  0  0
 17 18  1  0  0  0
 17 19  1  0  0  0
 18 54  1  0  0  0
 18 55  1  0  0  0
 18 56  1  0  0  0
 19 20  2  0  0  0
 19 21  1  0  0  0
 21 26  1  0  0  0
 21 22  2  0  0  0
 22 23  1  0  0  0
 22 57  1  0  0  0
 23 24  2  0  0  0
 23 58  1  0  0  0
 24 25  1  0  0  0
 24 59  1  0  0  0
 25 26  2  0  0  0
 25 60  1  0  0  0
 26 27  1  0  0  0
 27 28  1  0  0  0
 28 33  1  0  0  0
 28 29  2  0  0  0
 29 30  1  0  0  0
 29 61  1  0  0  0
 30 31  2  0  0  0
 30 62  1  0  0  0
 31 32  1  0  0  0
 31 63  1  0  0  0
 32 33  2  0  0  0
 32 64  1  0  0  0
 33 34  1  0  0  0
 34 35  3  0  0  0
M  END
> <s_m_entry_id>
38021

> <s_m_entry_name>
ligand_docking-pose.368

> <s_m_Source_Path>
/home/csk/Desktop/cluster/DUD-E-result/thrb

> <s_m_Source_File>
ligand_docking-pose.sdf

> <i_m_Source_File_Index>
368

> <i_lp_mmshare_version>
53161

> <i_f3d_flags>
0

> <r_lp_tautomer_probability>
0.99990000499975

> <s_lp_Force_Field>
OPLS_2005

> <r_lp_Energy>
24.650515

> <b_lp_Chiralities_Consistent>
1

> <s_lp_Variant>
28517-1

> <s_i_glide_gridfile>
glide-grid_1ype

> <i_i_glide_lignum>
4519

> <i_i_glide_rotatable_bonds>
15

> <r_i_docking_score>
-6.90527257527862

> <r_i_glide_ligand_efficiency>
-0.197293502150818

> <r_i_glide_ligand_efficiency_sa>
-0.645360127339833

> <r_i_glide_ligand_efficiency_ln>
-1.51586058454134

> <r_i_glide_gscore>
-6.90527257527862

> <r_i_glide_lipo>
-2.73272026683479

> <r_i_glide_hbond>
-0.475307357807018

> <r_i_glide_metal>
0

> <r_i_glide_rewards>
-0.921789868432431

> <r_i_glide_evdw>
-49.2077445983887

> <r_i_glide_ecoul>
-9.11163997650146

> <r_i_glide_erotb>
1.07902548462434

> <r_i_glide_esite>
-0.0273473404340642

> <r_i_glide_emodel>
-69.2587734153043

> <r_i_glide_energy>
-58.3193845748901

> <r_i_glide_einternal>
19.0985870361328

> <i_i_glide_confnum>
42

> <i_i_glide_posenum>
389

> <r_i_glide_eff_state_penalty>
0

> <s_user_duplicate_titles>
28517

> <s_m_subgroup_title>
dock_pv

> <s_m_subgroupid>
dock_pv1

> <b_m_subgroup_collapsed>
0

$$$$
23183
                    3D
 Schrodinger Suite 2021-1.
 54 56  0  0  1  0            999 V2000
   20.0891  -12.4898   18.3465 C   0  0  0  0  0  0
   19.8479  -12.8325   19.8138 C   0  0  0  0  0  0
   20.7303  -13.5824   20.5258 C   0  0  0  0  0  0
   20.5652  -13.8858   21.8489 N   0  0  0  0  0  0
   19.4601  -13.5185   22.4012 C   0  0  0  0  0  0
   18.3519  -12.7846   21.7143 C   0  0  0  0  0  0
   17.2637  -12.5577   22.2599 O   0  0  0  0  0  0
   18.6533  -12.4139   20.4062 N   0  0  0  0  0  0
   17.6073  -11.6364   19.6930 C   0  0  0  0  0  0
   16.4085  -12.5189   19.2932 C   0  0  0  0  0  0
   16.5021  -13.7431   19.2025 O   0  0  0  0  0  0
   15.2590  -11.8526   19.1440 N   0  0  0  0  0  0
   13.9275  -12.4515   19.1883 C   0  0  0  0  0  0
   13.1889  -12.0047   20.4385 C   0  0  0  0  0  0
   12.2908  -12.7209   21.2192 C   0  0  0  0  0  0
   11.7929  -12.0218   22.3202 C   0  0  0  0  0  0
   12.2886  -10.7232   22.4340 C   0  0  0  0  0  0
   13.3746  -10.4008   21.1130 S   0  0  0  0  0  0
   12.0117   -9.7186   23.4741 C   0  0  0  0  0  0
   12.6805   -8.6530   23.5196 N   0  0  0  0  0  0
   11.0075  -10.1064   24.3214 N   0  0  0  0  0  0
   19.2292  -13.7943   23.7411 N   0  0  0  0  0  0
   20.1217  -14.4898   24.6607 C   0  0  0  0  0  0
   19.3995  -14.9520   25.9453 C   0  0  0  0  0  0
   18.5016  -16.1838   25.7857 C   0  0  0  0  0  0
   18.5619  -17.2041   26.7433 C   0  0  0  0  0  0
   17.7680  -18.3419   26.6124 C   0  0  0  0  0  0
   16.8957  -18.4526   25.5316 C   0  0  0  0  0  0
   16.8165  -17.4395   24.5803 C   0  0  0  0  0  0
   17.6122  -16.3065   24.7122 C   0  0  0  0  0  0
   20.8921  -13.0992   17.9274 H   0  0  0  0  0  0
   19.2035  -12.6545   17.7359 H   0  0  0  0  0  0
   20.3872  -11.4486   18.2530 H   0  0  0  0  0  0
   21.6185  -13.9557   20.0517 H   0  0  0  0  0  0
   18.0074  -11.1202   18.8244 H   0  0  0  0  0  0
   17.2558  -10.8372   20.3495 H   0  0  0  0  0  0
   15.2847  -10.8432   19.1836 H   0  0  0  0  0  0
   13.9583  -13.5404   19.1270 H   0  0  0  0  0  0
   13.3723  -12.1156   18.3210 H   0  0  0  0  0  0
   12.0046  -13.7391   21.0029 H   0  0  0  0  0  0
   11.0941  -12.4628   23.0144 H   0  0  0  0  0  0
   13.3738   -8.6241   22.7887 H   0  0  0  0  0  0
   10.6537   -9.4566   25.0086 H   0  0  0  0  0  0
   10.3962  -10.8748   24.0803 H   0  0  0  0  0  0
   18.3675  -13.4530   24.1406 H   0  0  0  0  0  0
   20.6303  -15.3278   24.1809 H   0  0  0  0  0  0
   20.9003  -13.7744   24.9328 H   0  0  0  0  0  0
   20.1638  -15.1670   26.6921 H   0  0  0  0  0  0
   18.8155  -14.1330   26.3633 H   0  0  0  0  0  0
   19.2154  -17.1209   27.5955 H   0  0  0  0  0  0
   17.8185  -19.1238   27.3540 H   0  0  0  0  0  0
   16.2686  -19.3229   25.4327 H   0  0  0  0  0  0
   16.1315  -17.5261   23.7478 H   0  0  0  0  0  0
   17.5096  -15.5325   23.9679 H   0  0  0  0  0  0
  1  2  1  0  0  0
  1 31  1  0  0  0
  1 32  1  0  0  0
  1 33  1  0  0  0
  2  8  1  0  0  0
  2  3  2  0  0  0
  3  4  1  0  0  0
  3 34  1  0  0  0
  4  5  2  0  0  0
  5  6  1  0  0  0
  5 22  1  0  0  0
  6  7  2  0  0  0
  6  8  1  0  0  0
  8  9  1  0  0  0
  9 10  1  0  0  0
  9 35  1  0  0  0
  9 36  1  0  0  0
 10 11  2  0  0  0
 10 12  1  0  0  0
 12 13  1  0  0  0
 12 37  1  0  0  0
 13 14  1  0  0  0
 13 38  1  0  0  0
 13 39  1  0  0  0
 14 18  1  0  0  0
 14 15  2  0  0  0
 15 16  1  0  0  0
 15 40  1  0  0  0
 16 17  2  0  0  0
 16 41  1  0  0  0
 17 18  1  0  0  0
 17 19  1  0  0  0
 19 20  2  3  0  0
 19 21  1  0  0  0
 20 42  1  0  0  0
 21 43  1  0  0  0
 21 44  1  0  0  0
 22 23  1  0  0  0
 22 45  1  0  0  0
 23 24  1  0  0  0
 23 46  1  0  0  0
 23 47  1  0  0  0
 24 25  1  0  0  0
 24 48  1  0  0  0
 24 49  1  0  0  0
 25 30  1  0  0  0
 25 26  2  0  0  0
 26 27  1  0  0  0
 26 50  1  0  0  0
 27 28  2  0  0  0
 27 51  1  0  0  0
 28 29  1  0  0  0
 28 52  1  0  0  0
 29 30  2  0  0  0
 29 53  1  0  0  0
 30 54  1  0  0  0
M  END
> <s_m_entry_id>
38022

> <s_m_entry_name>
ligand_docking-pose.369

> <s_m_Source_Path>
/home/csk/Desktop/cluster/DUD-E-result/thrb

> <s_m_Source_File>
ligand_docking-pose.sdf

> <i_m_Source_File_Index>
369

> <i_lp_mmshare_version>
53161

> <i_f3d_flags>
0

> <r_lp_tautomer_probability>
1

> <s_lp_Force_Field>
OPLS_2005

> <r_lp_Energy>
21.662737

> <b_lp_Chiralities_Consistent>
1

> <s_lp_Variant>
23183-2

> <s_i_glide_gridfile>
glide-grid_1ype

> <i_i_glide_lignum>
3062

> <i_i_glide_rotatable_bonds>
10

> <r_i_docking_score>
-6.89437795892249

> <r_i_glide_ligand_efficiency>
-0.22981259863075

> <r_i_glide_ligand_efficiency_sa>
-0.714081175933616

> <r_i_glide_ligand_efficiency_ln>
-1.56647779253171

> <r_i_glide_gscore>
-6.89437795892249

> <r_i_glide_lipo>
-3.02089510787128

> <r_i_glide_hbond>
-0.13290217081919

> <r_i_glide_metal>
0

> <r_i_glide_rewards>
-1.35962162002809

> <r_i_glide_evdw>
-48.3059577941895

> <r_i_glide_ecoul>
-5.19926500320435

> <r_i_glide_erotb>
0.880228410773849

> <r_i_glide_esite>
-0.0659998307876561

> <r_i_glide_emodel>
-73.0775974771028

> <r_i_glide_energy>
-53.5052227973938

> <r_i_glide_einternal>
3.79724645614624

> <i_i_glide_confnum>
77

> <i_i_glide_posenum>
201

> <r_i_glide_eff_state_penalty>
0

> <s_user_duplicate_titles>
23183

> <s_m_subgroup_title>
dock_pv

> <s_m_subgroupid>
dock_pv1

> <b_m_subgroup_collapsed>
0

$$$$
119150
                    3D
 Schrodinger Suite 2021-1.
 63 66  0  0  1  0            999 V2000
   20.9338  -16.2166   22.0076 C   0  0  0  0  0  0
   19.9642  -15.0086   21.7758 C   0  0  0  0  0  0
   20.5563  -14.1433   20.6191 C   0  0  0  0  0  0
   18.5649  -15.5290   21.3015 C   0  0  0  0  0  0
   18.1383  -16.8535   21.5215 C   0  0  0  0  0  0
   16.8559  -17.2774   21.1711 C   0  0  0  0  0  0
   15.9445  -16.3741   20.6113 C   0  0  0  0  0  0
   16.3571  -15.0461   20.3865 C   0  0  0  0  0  0
   17.6447  -14.6385   20.7209 C   0  0  0  0  0  0
   15.4869  -14.0792   19.8523 N   0  0  0  0  0  0
   14.2720  -14.4173   19.6135 C   0  0  0  0  0  0
   13.6764  -15.7685   19.8048 C   0  0  0  0  0  0
   12.4893  -16.0236   19.5801 O   0  0  0  0  0  0
   14.5931  -16.6911   20.2609 N   0  0  0  0  0  0
   14.1448  -18.0800   20.4646 C   0  0  0  0  0  0
   13.3411  -13.2926   19.1518 C   0  0  0  0  0  0
   12.9563  -12.3566   20.2885 C   0  0  0  0  0  0
   12.0160  -12.7751   21.2241 C   0  0  0  0  0  0
   11.6589  -11.9398   22.2727 C   0  0  0  0  0  0
   12.2352  -10.6657   22.4267 C   0  0  0  0  0  0
   13.1933  -10.2694   21.4733 C   0  0  0  0  0  0
   13.5498  -11.1019   20.4152 C   0  0  0  0  0  0
   11.8461   -9.7650   23.5490 C   0  0  0  0  0  0
   12.4160   -8.6531   23.7287 N   0  0  0  0  0  0
   10.8160  -10.2388   24.3210 N   0  0  0  0  0  0
   19.7732  -14.1296   23.0810 C   0  0  0  0  0  0
   18.6178  -13.8532   23.4221 O   0  0  0  0  0  0
   20.8039  -13.7773   23.9063 N   0  0  0  0  0  0
   20.5110  -13.1921   25.2373 C   0  0  0  0  0  0
   21.4078  -13.8869   26.2866 C   0  0  0  0  0  0
   22.8195  -13.8528   25.9210 N   0  0  0  0  0  0
   23.0797  -14.3955   24.5930 C   0  0  0  0  0  0
   22.2229  -13.7004   23.5131 C   0  0  0  0  0  0
   20.6853  -16.7634   22.9183 H   0  0  0  0  0  0
   20.8819  -16.9215   21.1766 H   0  0  0  0  0  0
   21.9898  -15.9670   22.0811 H   0  0  0  0  0  0
   20.0618  -13.1757   20.5202 H   0  0  0  0  0  0
   21.6161  -13.9286   20.7221 H   0  0  0  0  0  0
   20.4578  -14.6524   19.6575 H   0  0  0  0  0  0
   18.7841  -17.5798   21.9913 H   0  0  0  0  0  0
   16.5797  -18.3023   21.3667 H   0  0  0  0  0  0
   17.9078  -13.6025   20.5737 H   0  0  0  0  0  0
   13.1091  -18.2583   20.1705 H   0  0  0  0  0  0
   14.7653  -18.7602   19.8810 H   0  0  0  0  0  0
   14.2339  -18.3544   21.5155 H   0  0  0  0  0  0
   13.8113  -12.7272   18.3454 H   0  0  0  0  0  0
   12.4176  -13.6799   18.7211 H   0  0  0  0  0  0
   11.5581  -13.7513   21.1460 H   0  0  0  0  0  0
   10.9202  -12.3174   22.9640 H   0  0  0  0  0  0
   13.6795   -9.3073   21.5359 H   0  0  0  0  0  0
   14.2973  -10.7771   19.7066 H   0  0  0  0  0  0
   13.1549   -8.4889   23.0654 H   0  0  0  0  0  0
   10.3506   -9.6313   24.9861 H   0  0  0  0  0  0
   10.2700  -11.0305   24.0143 H   0  0  0  0  0  0
   19.4688  -13.2975   25.5419 H   0  0  0  0  0  0
   20.7378  -12.1254   25.2298 H   0  0  0  0  0  0
   21.2774  -13.4413   27.2731 H   0  0  0  0  0  0
   21.1244  -14.9374   26.3700 H   0  0  0  0  0  0
   23.3957  -14.3137   26.6169 H   0  0  0  0  0  0
   24.1437  -14.2971   24.3762 H   0  0  0  0  0  0
   22.8599  -15.4649   24.6210 H   0  0  0  0  0  0
   22.5137  -12.6531   23.4783 H   0  0  0  0  0  0
   22.4503  -14.0861   22.5322 H   0  0  0  0  0  0
  1  2  1  0  0  0
  1 34  1  0  0  0
  1 35  1  0  0  0
  1 36  1  0  0  0
  2  3  1  0  0  0
  2  4  1  0  0  0
  2 26  1  0  0  0
  3 37  1  0  0  0
  3 38  1  0  0  0
  3 39  1  0  0  0
  4  9  1  0  0  0
  4  5  2  0  0  0
  5  6  1  0  0  0
  5 40  1  0  0  0
  6  7  2  0  0  0
  6 41  1  0  0  0
  7 14  1  0  0  0
  7  8  1  0  0  0
  8  9  2  0  0  0
  8 10  1  0  0  0
  9 42  1  0  0  0
 10 11  2  0  0  0
 11 12  1  0  0  0
 11 16  1  0  0  0
 12 13  2  0  0  0
 12 14  1  0  0  0
 14 15  1  0  0  0
 15 43  1  0  0  0
 15 44  1  0  0  0
 15 45  1  0  0  0
 16 17  1  0  0  0
 16 46  1  0  0  0
 16 47  1  0  0  0
 17 22  1  0  0  0
 17 18  2  0  0  0
 18 19  1  0  0  0
 18 48  1  0  0  0
 19 20  2  0  0  0
 19 49  1  0  0  0
 20 21  1  0  0  0
 20 23  1  0  0  0
 21 22  2  0  0  0
 21 50  1  0  0  0
 22 51  1  0  0  0
 23 24  2  3  0  0
 23 25  1  0  0  0
 24 52  1  0  0  0
 25 53  1  0  0  0
 25 54  1  0  0  0
 26 27  2  0  0  0
 26 28  1  0  0  0
 28 33  1  0  0  0
 28 29  1  0  0  0
 29 30  1  0  0  0
 29 55  1  0  0  0
 29 56  1  0  0  0
 30 31  1  0  0  0
 30 57  1  0  0  0
 30 58  1  0  0  0
 31 32  1  0  0  0
 31 59  1  0  0  0
 32 33  1  0  0  0
 32 60  1  0  0  0
 32 61  1  0  0  0
 33 62  1  0  0  0
 33 63  1  0  0  0
M  END
> <s_m_entry_id>
38023

> <s_m_entry_name>
ligand_docking-pose.370

> <s_m_Source_Path>
/home/csk/Desktop/cluster/DUD-E-result/thrb

> <s_m_Source_File>
ligand_docking-pose.sdf

> <i_m_Source_File_Index>
370

> <i_lp_mmshare_version>
53161

> <i_f3d_flags>
0

> <r_lp_tautomer_probability>
1

> <s_lp_Force_Field>
OPLS_2005

> <r_lp_Energy>
68.201922

> <b_lp_Chiralities_Consistent>
1

> <s_lp_Variant>
119150-2

> <s_i_glide_gridfile>
glide-grid_1ype

> <i_i_glide_lignum>
3264

> <i_i_glide_rotatable_bonds>
6

> <r_i_docking_score>
-6.88878654929174

> <r_i_glide_ligand_efficiency>
-0.208751107554295

> <r_i_glide_ligand_efficiency_sa>
-0.669576343124659

> <r_i_glide_ligand_efficiency_ln>
-1.53203046033465

> <r_i_glide_gscore>
-6.88878654929174

> <r_i_glide_lipo>
-2.9067308434069

> <r_i_glide_hbond>
-0.18042254461085

> <r_i_glide_metal>
0

> <r_i_glide_rewards>
-1.23612451809779

> <r_i_glide_evdw>
-45.5128517150879

> <r_i_glide_ecoul>
-4.79044246673584

> <r_i_glide_erotb>
0.501932667976983

> <r_i_glide_esite>
-0.0732323553884045

> <r_i_glide_emodel>
-68.4396350305642

> <r_i_glide_energy>
-50.3032941818237

> <r_i_glide_einternal>
4.84363651275635

> <i_i_glide_confnum>
10

> <i_i_glide_posenum>
301

> <r_i_glide_eff_state_penalty>
0

> <s_user_duplicate_titles>
119150

> <s_m_subgroup_title>
dock_pv

> <s_m_subgroupid>
dock_pv1

> <b_m_subgroup_collapsed>
0

$$$$
196464
                    3D
 Schrodinger Suite 2021-1.
 73 77  0  0  1  0            999 V2000
   13.7417  -17.7947   16.3449 C   0  0  0  0  0  0
   14.4142  -17.5772   14.9862 C   0  0  0  0  0  0
   15.2507  -16.4310   15.0605 O   0  0  0  0  0  0
   16.0585  -16.1030   14.0292 C   0  0  0  0  0  0
   16.2017  -16.7592   12.9910 O   0  0  0  0  0  0
   16.8349  -14.7974   14.3226 C   0  0  2  0  0  0
   15.9353  -13.5627   14.1828 C   0  0  0  0  0  0
   16.9113  -12.4291   13.8008 C   0  0  2  0  0  0
   18.2279  -13.1561   13.4736 C   0  0  0  0  0  0
   17.9234  -14.5761   13.3754 N   0  0  1  0  0  0
   17.2021  -11.3517   14.7148 O   0  0  0  0  0  0
   16.8932  -11.5005   16.0480 C   0  0  0  0  0  0
   17.8915  -11.8530   16.9649 C   0  0  0  0  0  0
   17.5474  -12.0426   18.3081 C   0  0  0  0  0  0
   16.2784  -11.8483   18.7539 N   0  0  0  0  0  0
   15.3175  -11.4704   17.8655 C   0  0  0  0  0  0
   15.5916  -11.2731   16.5108 C   0  0  0  0  0  0
   14.6079  -10.8963   15.6576 F   0  0  0  0  0  0
   14.0162  -11.3629   18.3207 O   0  0  0  0  0  0
   13.5846  -12.0438   19.4409 C   0  0  0  0  0  0
   13.0254  -11.3095   20.4885 C   0  0  0  0  0  0
   12.5316  -11.9308   21.6499 C   0  0  0  0  0  0
   12.6943  -13.3249   21.7460 C   0  0  0  0  0  0
   13.2222  -14.0743   20.6970 C   0  0  0  0  0  0
   13.6399  -13.4421   19.5312 C   0  0  0  0  0  0
   14.0932  -14.2064   18.4857 O   0  0  0  0  0  0
   11.8510  -11.1283   22.7034 C   0  0  0  0  0  0
   12.0158   -9.8807   22.7692 N   0  0  0  0  0  0
   11.0170  -11.8530   23.5213 N   0  0  0  0  0  0
   18.5026  -12.4625   19.2196 O   0  0  0  0  0  0
   18.2098  -13.2532   20.3214 C   0  0  0  0  0  0
   17.1816  -14.2060   20.3315 C   0  0  0  0  0  0
   16.9299  -14.9686   21.4681 C   0  0  0  0  0  0
   17.7240  -14.8121   22.6005 C   0  0  0  0  0  0
   18.7877  -13.8986   22.6080 C   0  0  0  0  0  0
   19.0079  -13.1173   21.4613 C   0  0  0  0  0  0
   19.6327  -13.7713   23.8154 C   0  0  0  0  0  0
   19.1605  -13.8534   24.9978 N   0  0  0  0  0  0
   20.2308  -13.6743   25.9481 C   0  0  0  0  0  0
   21.5192  -13.5664   25.1465 C   0  0  0  0  0  0
   21.0058  -13.5800   23.8002 N   0  0  0  0  0  0
   21.9222  -13.6526   22.6707 C   0  0  0  0  0  0
   19.1765  -11.9883   16.5585 F   0  0  0  0  0  0
   17.2143  -14.8822   15.3409 H   0  0  0  0  0  0
   16.5793  -11.9213   12.8940 H   0  0  0  0  0  0
   13.0787  -18.6593   16.3118 H   0  0  0  0  0  0
   13.1438  -16.9279   16.6281 H   0  0  0  0  0  0
   14.4808  -17.9673   17.1269 H   0  0  0  0  0  0
   14.9983  -18.4596   14.7191 H   0  0  0  0  0  0
   13.6585  -17.4374   14.2108 H   0  0  0  0  0  0
   15.1839  -13.6852   13.3993 H   0  0  0  0  0  0
   15.3839  -13.4252   15.1097 H   0  0  0  0  0  0
   18.7086  -12.7735   12.5723 H   0  0  0  0  0  0
   18.9278  -13.0549   14.3031 H   0  0  0  0  0  0
   18.7165  -15.1716   13.5763 H   0  0  0  0  0  0
   12.9477  -10.2375   20.3733 H   0  0  0  0  0  0
   12.4164  -13.8528   22.6444 H   0  0  0  0  0  0
   13.2926  -15.1473   20.7971 H   0  0  0  0  0  0
   13.9718  -15.1474   18.6290 H   0  0  0  0  0  0
   11.4625   -9.4882   23.5161 H   0  0  0  0  0  0
   10.3636  -11.3786   24.1333 H   0  0  0  0  0  0
   10.8719  -12.8484   23.3810 H   0  0  0  0  0  0
   16.5685  -14.3570   19.4567 H   0  0  0  0  0  0
   16.1202  -15.6826   21.4738 H   0  0  0  0  0  0
   17.5103  -15.4170   23.4717 H   0  0  0  0  0  0
   19.7919  -12.3802   21.4380 H   0  0  0  0  0  0
   20.0153  -12.7602   26.5069 H   0  0  0  0  0  0
   20.2333  -14.5383   26.6149 H   0  0  0  0  0  0
   22.1963  -14.3936   25.3660 H   0  0  0  0  0  0
   22.0653  -12.6556   25.3953 H   0  0  0  0  0  0
   21.7176  -14.5355   22.0631 H   0  0  0  0  0  0
   21.8351  -12.7705   22.0399 H   0  0  0  0  0  0
   22.9584  -13.7091   23.0084 H   0  0  0  0  0  0
  1  2  1  0  0  0
  1 46  1  0  0  0
  1 47  1  0  0  0
  1 48  1  0  0  0
  2  3  1  0  0  0
  2 49  1  0  0  0
  2 50  1  0  0  0
  3  4  1  0  0  0
  4  5  2  0  0  0
  4  6  1  0  0  0
  6 44  1  0  0  0
  6 10  1  0  0  0
  6  7  1  0  0  0
  7  8  1  0  0  0
  7 51  1  0  0  0
  7 52  1  0  0  0
  8 45  1  0  0  0
  8  9  1  0  0  0
  8 11  1  0  0  0
  9 10  1  0  0  0
  9 53  1  0  0  0
  9 54  1  0  0  0
 10 55  1  0  0  0
 11 12  1  0  0  0
 12 17  1  0  0  0
 12 13  2  0  0  0
 13 14  1  0  0  0
 13 43  1  0  0  0
 14 15  2  0  0  0
 14 30  1  0  0  0
 15 16  1  0  0  0
 16 17  2  0  0  0
 16 19  1  0  0  0
 17 18  1  0  0  0
 19 20  1  0  0  0
 20 25  1  0  0  0
 20 21  2  0  0  0
 21 22  1  0  0  0
 21 56  1  0  0  0
 22 23  2  0  0  0
 22 27  1  0  0  0
 23 24  1  0  0  0
 23 57  1  0  0  0
 24 25  2  0  0  0
 24 58  1  0  0  0
 25 26  1  0  0  0
 26 59  1  0  0  0
 27 28  2  3  0  0
 27 29  1  0  0  0
 28 60  1  0  0  0
 29 61  1  0  0  0
 29 62  1  0  0  0
 30 31  1  0  0  0
 31 36  1  0  0  0
 31 32  2  0  0  0
 32 33  1  0  0  0
 32 63  1  0  0  0
 33 34  2  0  0  0
 33 64  1  0  0  0
 34 35  1  0  0  0
 34 65  1  0  0  0
 35 36  2  0  0  0
 35 37  1  0  0  0
 36 66  1  0  0  0
 37 41  1  0  0  0
 37 38  2  0  0  0
 38 39  1  0  0  0
 39 40  1  0  0  0
 39 67  1  0  0  0
 39 68  1  0  0  0
 40 41  1  0  0  0
 40 69  1  0  0  0
 40 70  1  0  0  0
 41 42  1  0  0  0
 42 71  1  0  0  0
 42 72  1  0  0  0
 42 73  1  0  0  0
M  END
> <s_m_entry_id>
38024

> <s_m_entry_name>
ligand_docking-pose.371

> <s_m_Source_Path>
/home/csk/Desktop/cluster/DUD-E-result/thrb

> <s_m_Source_File>
ligand_docking-pose.sdf

> <i_m_Source_File_Index>
371

> <i_lp_mmshare_version>
53161

> <i_f3d_flags>
0

> <r_lp_tautomer_probability>
0.99999999999366

> <s_lp_Force_Field>
OPLS_2005

> <r_lp_Energy>
54.391704

> <b_lp_Chiralities_Consistent>
1

> <s_lp_Variant>
196464-1

> <s_i_glide_gridfile>
glide-grid_1ype

> <i_i_glide_lignum>
4005

> <i_i_glide_rotatable_bonds>
12

> <r_i_docking_score>
-6.88220504984975

> <r_i_glide_ligand_efficiency>
-0.160051280229064

> <r_i_glide_ligand_efficiency_sa>
-0.560723344013917

> <r_i_glide_ligand_efficiency_ln>
-1.44547695593913

> <r_i_glide_gscore>
-6.88220504984975

> <r_i_glide_lipo>
-2.43046636727922

> <r_i_glide_hbond>
-0.379029316209905

> <r_i_glide_metal>
0

> <r_i_glide_rewards>
-0.601889257539302

> <r_i_glide_evdw>
-50.9657402038574

> <r_i_glide_ecoul>
-7.76339340209961

> <r_i_glide_erotb>
0.416718320224195

> <r_i_glide_esite>
-0.174742408537706

> <r_i_glide_emodel>
-77.8584081611852

> <r_i_glide_energy>
-58.729133605957

> <r_i_glide_einternal>
9.89164733886719

> <i_i_glide_confnum>
2

> <i_i_glide_posenum>
61

> <r_i_glide_eff_state_penalty>
0

> <s_user_duplicate_titles>
196464

> <s_m_subgroup_title>
dock_pv

> <s_m_subgroupid>
dock_pv1

> <b_m_subgroup_collapsed>
0

$$$$
28516
                    3D
 Schrodinger Suite 2021-1.
 52 53  0  0  1  0            999 V2000
   19.7795  -13.5720   24.3183 C   0  0  0  0  0  0
   19.0896  -13.4530   23.1160 C   0  0  0  0  0  0
   19.7708  -13.4699   21.9052 C   0  0  0  0  0  0
   21.1487  -13.7071   21.9082 C   0  0  0  0  0  0
   21.8359  -13.8472   23.1112 C   0  0  0  0  0  0
   21.1752  -13.7458   24.3485 C   0  0  0  0  0  0
   21.9076  -13.7902   25.6470 C   0  0  0  0  0  0
   21.3405  -13.4531   26.7206 N   0  0  0  0  0  0
   23.2159  -14.2034   25.5645 N   0  0  0  0  0  0
   19.0188  -13.2235   20.7745 O   0  0  0  0  0  0
   19.6729  -12.9301   19.5413 C   0  0  0  0  0  0
   18.7044  -12.1448   18.6373 C   0  0  0  0  0  0
   17.3864  -12.8781   18.3415 C   0  0  0  0  0  0
   16.4651  -12.1333   17.3594 C   0  0  0  0  0  0
   15.0592  -12.7636   17.2149 C   0  0  0  0  0  0
   14.2137  -12.7622   18.5063 C   0  0  0  0  0  0
   14.2685  -11.4531   19.0523 O   0  0  0  0  0  0
   13.6336  -11.1678   20.2380 C   0  0  0  0  0  0
   12.6583  -11.9657   20.8439 C   0  0  0  0  0  0
   12.0468  -11.5380   22.0214 C   0  0  0  0  0  0
   12.3885  -10.3084   22.6202 C   0  0  0  0  0  0
   13.3900   -9.5445   22.0012 C   0  0  0  0  0  0
   14.0048   -9.9737   20.8386 C   0  0  0  0  0  0
   11.7306   -9.7995   23.8563 C   0  0  0  0  0  0
   12.0159   -8.6606   24.3210 N   0  0  0  0  0  0
   10.8160  -10.6537   24.4063 N   0  0  0  0  0  0
   19.2035  -13.5125   25.2302 H   0  0  0  0  0  0
   18.0205  -13.2985   23.1206 H   0  0  0  0  0  0
   21.7019  -13.7684   20.9843 H   0  0  0  0  0  0
   22.9038  -13.9891   23.0528 H   0  0  0  0  0  0
   20.3883  -13.1510   26.5873 H   0  0  0  0  0  0
   23.7697  -14.2532   26.4100 H   0  0  0  0  0  0
   23.5932  -14.5753   24.7097 H   0  0  0  0  0  0
   20.5598  -12.3101   19.6934 H   0  0  0  0  0  0
   19.9976  -13.8533   19.0618 H   0  0  0  0  0  0
   18.4751  -11.1960   19.1236 H   0  0  0  0  0  0
   19.2107  -11.9045   17.7013 H   0  0  0  0  0  0
   17.6084  -13.8529   17.9216 H   0  0  0  0  0  0
   16.8676  -13.0549   19.2843 H   0  0  0  0  0  0
   16.3637  -11.0923   17.6718 H   0  0  0  0  0  0
   16.9410  -12.1011   16.3776 H   0  0  0  0  0  0
   14.5118  -12.2166   16.4463 H   0  0  0  0  0  0
   15.1443  -13.7858   16.8433 H   0  0  0  0  0  0
   13.1866  -13.0496   18.2806 H   0  0  0  0  0  0
   14.6018  -13.4877   19.2237 H   0  0  0  0  0  0
   12.3484  -12.9037   20.4087 H   0  0  0  0  0  0
   11.2862  -12.1810   22.4430 H   0  0  0  0  0  0
   13.7250   -8.6035   22.4134 H   0  0  0  0  0  0
   14.7857   -9.3728   20.4035 H   0  0  0  0  0  0
   12.7260   -8.1867   23.7885 H   0  0  0  0  0  0
   10.1872  -10.2917   25.1196 H   0  0  0  0  0  0
   10.4855  -11.4504   23.8881 H   0  0  0  0  0  0
  1  6  1  0  0  0
  1  2  2  0  0  0
  1 27  1  0  0  0
  2  3  1  0  0  0
  2 28  1  0  0  0
  3  4  2  0  0  0
  3 10  1  0  0  0
  4  5  1  0  0  0
  4 29  1  0  0  0
  5  6  2  0  0  0
  5 30  1  0  0  0
  6  7  1  0  0  0
  7  8  2  3  0  0
  7  9  1  0  0  0
  8 31  1  0  0  0
  9 32  1  0  0  0
  9 33  1  0  0  0
 10 11  1  0  0  0
 11 12  1  0  0  0
 11 34  1  0  0  0
 11 35  1  0  0  0
 12 13  1  0  0  0
 12 36  1  0  0  0
 12 37  1  0  0  0
 13 14  1  0  0  0
 13 38  1  0  0  0
 13 39  1  0  0  0
 14 15  1  0  0  0
 14 40  1  0  0  0
 14 41  1  0  0  0
 15 16  1  0  0  0
 15 42  1  0  0  0
 15 43  1  0  0  0
 16 17  1  0  0  0
 16 44  1  0  0  0
 16 45  1  0  0  0
 17 18  1  0  0  0
 18 23  1  0  0  0
 18 19  2  0  0  0
 19 20  1  0  0  0
 19 46  1  0  0  0
 20 21  2  0  0  0
 20 47  1  0  0  0
 21 22  1  0  0  0
 21 24  1  0  0  0
 22 23  2  0  0  0
 22 48  1  0  0  0
 23 49  1  0  0  0
 24 25  2  3  0  0
 24 26  1  0  0  0
 25 50  1  0  0  0
 26 51  1  0  0  0
 26 52  1  0  0  0
M  END
> <s_m_entry_id>
38025

> <s_m_entry_name>
ligand_docking-pose.372

> <s_m_Source_Path>
/home/csk/Desktop/cluster/DUD-E-result/thrb

> <s_m_Source_File>
ligand_docking-pose.sdf

> <i_m_Source_File_Index>
372

> <i_lp_mmshare_version>
53161

> <i_f3d_flags>
0

> <r_lp_tautomer_probability>
1

> <s_lp_Force_Field>
OPLS_2005

> <r_lp_Energy>
16.057529

> <b_lp_Chiralities_Consistent>
1

> <s_lp_Variant>
28516-3

> <s_i_glide_gridfile>
glide-grid_1ype

> <i_i_glide_lignum>
1467

> <i_i_glide_rotatable_bonds>
11

> <r_i_docking_score>
-6.87755633389861

> <r_i_glide_ligand_efficiency>
-0.264521397457639

> <r_i_glide_ligand_efficiency_sa>
-0.783643599126817

> <r_i_glide_ligand_efficiency_ln>
-1.6151715379131

> <r_i_glide_gscore>
-6.87755633389861

> <r_i_glide_lipo>
-3.12432840472432

> <r_i_glide_hbond>
-0.39231957159438

> <r_i_glide_metal>
0

> <r_i_glide_rewards>
-1.71790002146732

> <r_i_glide_evdw>
-42.780876159668

> <r_i_glide_ecoul>
-5.21887063980103

> <r_i_glide_erotb>
1.36891392664735

> <r_i_glide_esite>
-0.0900478588063874

> <r_i_glide_emodel>
-63.956975254875

> <r_i_glide_energy>
-47.999746799469

> <r_i_glide_einternal>
7.07204580307007

> <i_i_glide_confnum>
36

> <i_i_glide_posenum>
285

> <r_i_glide_eff_state_penalty>
0

> <s_user_duplicate_titles>
28516

> <s_m_subgroup_title>
dock_pv

> <s_m_subgroupid>
dock_pv1

> <b_m_subgroup_collapsed>
0

$$$$
40750
                    3D
 Schrodinger Suite 2021-1.
 87 90  0  0  1  0            999 V2000
   18.1391  -16.7288   28.0162 C   0  0  0  0  0  0
   18.1930  -15.6365   27.1043 O   0  0  0  0  0  0
   18.9582  -15.7723   25.9644 C   0  0  0  0  0  0
   19.2312  -14.6072   25.2484 C   0  0  0  0  0  0
   20.0759  -14.6421   24.1423 C   0  0  0  0  0  0
   20.6373  -15.8554   23.7332 C   0  0  0  0  0  0
   20.3161  -17.0341   24.4059 C   0  0  0  0  0  0
   19.4857  -16.9951   25.5184 C   0  0  0  0  0  0
   21.6780  -15.8993   22.6246 C   0  0  0  0  0  0
   21.1474  -15.9854   21.1738 C   0  0  0  0  0  0
   20.4696  -14.8220   20.5965 N   0  0  0  0  0  0
   20.8027  -13.5207   20.7261 C   0  0  0  0  0  0
   21.6160  -13.0571   21.5174 O   0  0  0  0  0  0
   20.0163  -12.5559   19.7354 C   0  0  0  0  0  0
   20.5039  -11.4531   19.4715 O   0  0  0  0  0  0
   18.6799  -13.0481   19.1498 C   0  0  2  0  0  0
   17.9524  -11.9784   18.2934 C   0  0  0  0  0  0
   16.7740  -12.5336   17.4564 C   0  0  0  0  0  0
   15.9260  -11.4501   16.7670 C   0  0  0  0  0  0
   16.7541  -10.6401   15.8882 N   0  0  0  0  0  0
   16.4154  -10.4194   14.6869 C   0  0  0  0  0  0
   17.0799   -9.4532   13.9234 N   0  0  0  0  0  0
   15.3981  -11.0524   13.9418 N   0  0  0  0  0  0
   17.7785  -13.6402   20.1638 N   0  0  0  0  0  0
   17.4974  -13.2051   21.4077 C   0  0  0  0  0  0
   18.0665  -12.2502   21.9256 O   0  0  0  0  0  0
   16.3507  -13.9225   22.1595 C   0  0  2  0  0  0
   16.5666  -15.4429   22.2728 C   0  0  0  0  0  0
   15.4896  -16.0134   21.3476 C   0  0  0  0  0  0
   14.9655  -14.8922   20.5793 N   0  0  2  0  0  0
   15.0342  -13.7763   21.5151 N   0  0  2  0  0  0
   14.7191  -12.5056   20.8413 C   0  0  0  0  0  0
   13.3178  -12.4976   20.1755 C   0  0  1  0  0  0
   13.1686  -13.7908   19.3241 C   0  0  0  0  0  0
   13.6066  -15.0754   20.0655 C   0  0  0  0  0  0
   12.2023  -12.4488   21.2718 C   0  0  0  0  0  0
   12.1242  -11.2451   22.2228 C   0  0  0  0  0  0
   11.2712  -11.3479   23.3264 C   0  0  0  0  0  0
   11.2158  -10.3237   24.2694 C   0  0  0  0  0  0
   11.9914   -9.1805   24.1050 C   0  0  0  0  0  0
   12.8164   -9.0530   22.9973 C   0  0  0  0  0  0
   12.8793  -10.0734   22.0567 C   0  0  0  0  0  0
   13.2159  -11.3621   19.2758 N   0  0  0  0  0  0
   18.9347  -13.8507   18.4755 H   0  0  0  0  0  0
   16.3325  -13.4193   23.1213 H   0  0  0  0  0  0
   17.6166  -16.4202   28.9200 H   0  0  0  0  0  0
   19.1341  -17.0540   28.3208 H   0  0  0  0  0  0
   17.6161  -17.5821   27.5873 H   0  0  0  0  0  0
   18.8252  -13.6631   25.5822 H   0  0  0  0  0  0
   20.3209  -13.7220   23.6340 H   0  0  0  0  0  0
   20.7459  -17.9762   24.0967 H   0  0  0  0  0  0
   19.2828  -17.9184   26.0380 H   0  0  0  0  0  0
   22.3740  -15.0716   22.7410 H   0  0  0  0  0  0
   22.3210  -16.7643   22.7950 H   0  0  0  0  0  0
   21.9089  -16.3734   20.4948 H   0  0  0  0  0  0
   20.3809  -16.7632   21.1679 H   0  0  0  0  0  0
   19.7561  -15.0406   19.9202 H   0  0  0  0  0  0
   17.5978  -11.1746   18.9434 H   0  0  0  0  0  0
   18.6586  -11.5337   17.5951 H   0  0  0  0  0  0
   17.1584  -13.2118   16.6967 H   0  0  0  0  0  0
   16.1192  -13.1361   18.0848 H   0  0  0  0  0  0
   15.0750  -11.9245   16.2725 H   0  0  0  0  0  0
   15.4923  -10.8077   17.5294 H   0  0  0  0  0  0
   17.6037   -8.7746   14.4580 H   0  0  0  0  0  0
   16.4936   -8.9512   13.2608 H   0  0  0  0  0  0
   15.0332  -11.9229   14.2967 H   0  0  0  0  0  0
   15.5373  -11.1230   12.9429 H   0  0  0  0  0  0
   17.1078  -14.3082   19.8039 H   0  0  0  0  0  0
   17.5665  -15.7694   21.9808 H   0  0  0  0  0  0
   16.4164  -15.7694   23.3040 H   0  0  0  0  0  0
   15.7941  -16.8312   20.6936 H   0  0  0  0  0  0
   14.6986  -16.4431   21.9642 H   0  0  0  0  0  0
   14.8244  -11.7012   21.5658 H   0  0  0  0  0  0
   15.4559  -12.3014   20.0675 H   0  0  0  0  0  0
   13.7866  -13.7402   18.4271 H   0  0  0  0  0  0
   12.1430  -13.9007   18.9706 H   0  0  0  0  0  0
   13.5871  -15.9296   19.3877 H   0  0  0  0  0  0
   12.9263  -15.2953   20.8901 H   0  0  0  0  0  0
   11.2246  -12.5813   20.8107 H   0  0  0  0  0  0
   12.3171  -13.3248   21.9118 H   0  0  0  0  0  0
   10.6640  -12.2317   23.4725 H   0  0  0  0  0  0
   10.5549  -10.4190   25.1206 H   0  0  0  0  0  0
   11.9477   -8.3919   24.8414 H   0  0  0  0  0  0
   13.4295   -8.1739   22.8771 H   0  0  0  0  0  0
   13.5504   -9.9355   21.2251 H   0  0  0  0  0  0
   13.8715  -11.4886   18.5223 H   0  0  0  0  0  0
   12.2922  -11.3439   18.8690 H   0  0  0  0  0  0
  1  2  1  0  0  0
  1 46  1  0  0  0
  1 47  1  0  0  0
  1 48  1  0  0  0
  2  3  1  0  0  0
  3  8  1  0  0  0
  3  4  2  0  0  0
  4  5  1  0  0  0
  4 49  1  0  0  0
  5  6  2  0  0  0
  5 50  1  0  0  0
  6  7  1  0  0  0
  6  9  1  0  0  0
  7  8  2  0  0  0
  7 51  1  0  0  0
  8 52  1  0  0  0
  9 10  1  0  0  0
  9 53  1  0  0  0
  9 54  1  0  0  0
 10 11  1  0  0  0
 10 55  1  0  0  0
 10 56  1  0  0  0
 11 12  1  0  0  0
 11 57  1  0  0  0
 12 13  2  0  0  0
 12 14  1  0  0  0
 14 15  2  0  0  0
 14 16  1  0  0  0
 16 44  1  0  0  0
 16 17  1  0  0  0
 16 24  1  0  0  0
 17 18  1  0  0  0
 17 58  1  0  0  0
 17 59  1  0  0  0
 18 19  1  0  0  0
 18 60  1  0  0  0
 18 61  1  0  0  0
 19 20  1  0  0  0
 19 62  1  0  0  0
 19 63  1  0  0  0
 20 21  2  3  0  0
 21 22  1  0  0  0
 21 23  1  0  0  0
 22 64  1  0  0  0
 22 65  1  0  0  0
 23 66  1  0  0  0
 23 67  1  0  0  0
 24 25  1  0  0  0
 24 68  1  0  0  0
 25 26  2  0  0  0
 25 27  1  0  0  0
 27 45  1  0  0  0
 27 31  1  0  0  0
 27 28  1  0  0  0
 28 29  1  0  0  0
 28 69  1  0  0  0
 28 70  1  0  0  0
 29 30  1  0  0  0
 29 71  1  0  0  0
 29 72  1  0  0  0
 30 35  1  0  0  0
 30 31  1  0  0  0
 31 32  1  0  0  0
 32 33  1  0  0  0
 32 73  1  0  0  0
 32 74  1  0  0  0
 33 34  1  0  0  0
 33 36  1  0  0  0
 33 43  1  0  0  0
 34 35  1  0  0  0
 34 75  1  0  0  0
 34 76  1  0  0  0
 35 77  1  0  0  0
 35 78  1  0  0  0
 36 37  1  0  0  0
 36 79  1  0  0  0
 36 80  1  0  0  0
 37 42  1  0  0  0
 37 38  2  0  0  0
 38 39  1  0  0  0
 38 81  1  0  0  0
 39 40  2  0  0  0
 39 82  1  0  0  0
 40 41  1  0  0  0
 40 83  1  0  0  0
 41 42  2  0  0  0
 41 84  1  0  0  0
 42 85  1  0  0  0
 43 86  1  0  0  0
 43 87  1  0  0  0
M  END
> <s_m_entry_id>
38026

> <s_m_entry_name>
ligand_docking-pose.373

> <s_m_Source_Path>
/home/csk/Desktop/cluster/DUD-E-result/thrb

> <s_m_Source_File>
ligand_docking-pose.sdf

> <i_m_Source_File_Index>
373

> <i_lp_mmshare_version>
53161

> <i_f3d_flags>
0

> <r_lp_tautomer_probability>
0.99990000499975

> <s_lp_Force_Field>
OPLS_2005

> <r_lp_Energy>
50.316411

> <b_lp_Chiralities_Consistent>
1

> <s_lp_Variant>
40750-1

> <s_i_glide_gridfile>
glide-grid_1ype

> <i_i_glide_lignum>
4582

> <i_i_glide_rotatable_bonds>
16

> <r_i_docking_score>
-6.87411183870294

> <r_i_glide_ligand_efficiency>
-0.159863066016347

> <r_i_glide_ligand_efficiency_sa>
-0.560063954706976

> <r_i_glide_ligand_efficiency_ln>
-1.44377713006537

> <r_i_glide_gscore>
-6.87411183870294

> <r_i_glide_lipo>
-3.00465061417568

> <r_i_glide_hbond>
-0.32

> <r_i_glide_metal>
0

> <r_i_glide_rewards>
-0.69801203835099

> <r_i_glide_evdw>
-54.2793350219727

> <r_i_glide_ecoul>
-5.45961999893188

> <r_i_glide_erotb>
0.784358160226029

> <r_i_glide_esite>
-0.10289759546388

> <r_i_glide_emodel>
-76.8504261382554

> <r_i_glide_energy>
-59.7389550209045

> <r_i_glide_einternal>
17.5667572021484

> <i_i_glide_confnum>
16

> <i_i_glide_posenum>
113

> <r_i_glide_eff_state_penalty>
0

> <s_user_duplicate_titles>
40750

> <s_m_subgroup_title>
dock_pv

> <s_m_subgroupid>
dock_pv1

> <b_m_subgroup_collapsed>
0

$$$$
118518
                    3D
 Schrodinger Suite 2021-1.
 59 62  0  0  1  0            999 V2000
   14.6411  -15.2424   17.9012 C   0  0  0  0  0  0
   14.0672  -14.2597   18.9135 C   0  0  0  0  0  0
   12.7690  -14.4686   19.3861 C   0  0  0  0  0  0
   12.2183  -13.6147   20.3400 C   0  0  0  0  0  0
   12.9443  -12.5170   20.8148 C   0  0  0  0  0  0
   14.2383  -12.3154   20.3462 C   0  0  0  0  0  0
   14.8187  -13.1868   19.4258 C   0  0  0  0  0  0
   16.2442  -12.9720   19.1278 C   0  0  0  0  0  0
   16.6846  -12.4636   17.9088 C   0  0  0  0  0  0
   18.0364  -12.2009   17.6979 C   0  0  0  0  0  0
   18.9925  -12.4652   18.7218 C   0  0  0  0  0  0
   20.3990  -12.2519   18.6051 C   0  0  0  0  0  0
   21.2152  -12.5203   19.7033 C   0  0  0  0  0  0
   20.6749  -13.0623   20.8640 C   0  0  0  0  0  0
   19.3440  -13.2923   20.9956 N   0  0  0  0  0  0
   18.5228  -12.9946   19.9609 C   0  0  0  0  0  0
   17.1557  -13.2388   20.1427 C   0  0  0  0  0  0
   21.5147  -13.4075   21.9128 O   0  0  0  0  0  0
   21.0170  -14.0719   23.0124 C   0  0  0  0  0  0
   21.0604  -15.4617   23.0447 C   0  0  0  0  0  0
   20.4467  -16.1519   24.0859 C   0  0  0  0  0  0
   19.7694  -15.4744   25.1196 C   0  0  0  0  0  0
   19.7858  -14.0638   25.0858 C   0  0  0  0  0  0
   20.4036  -13.3720   24.0482 C   0  0  0  0  0  0
   19.0530  -16.2415   26.1852 C   0  0  0  0  0  0
   19.0779  -17.5019   26.2223 N   0  0  0  0  0  0
   18.3755  -15.4726   27.0955 N   0  0  0  0  0  0
   21.0246  -11.8028   17.2929 C   0  0  0  0  0  0
   12.3564  -11.5249   21.7744 C   0  0  0  0  0  0
   12.6296  -10.3272   21.6699 O   0  0  0  0  0  0
   11.5116  -12.0169   22.6986 N   0  0  0  0  0  0
   10.5834  -11.1978   23.4877 C   0  0  0  0  0  0
   11.2159  -10.6530   24.7201 C   0  0  0  0  0  0
   12.0115   -9.7367   24.7195 O   0  0  0  0  0  0
   10.8159  -11.4526   25.7695 O   0  0  0  0  0  0
   14.2834  -16.2524   18.1045 H   0  0  0  0  0  0
   14.3326  -14.9717   16.8919 H   0  0  0  0  0  0
   15.7290  -15.2932   17.9407 H   0  0  0  0  0  0
   12.1829  -15.2994   19.0188 H   0  0  0  0  0  0
   11.2166  -13.8037   20.6866 H   0  0  0  0  0  0
   14.8210  -11.4830   20.7201 H   0  0  0  0  0  0
   15.9692  -12.2553   17.1267 H   0  0  0  0  0  0
   18.3509  -11.8144   16.7429 H   0  0  0  0  0  0
   22.2780  -12.3563   19.6433 H   0  0  0  0  0  0
   16.8153  -13.6315   21.0914 H   0  0  0  0  0  0
   21.5400  -16.0011   22.2399 H   0  0  0  0  0  0
   20.4856  -17.2301   24.0521 H   0  0  0  0  0  0
   19.3008  -13.4718   25.8483 H   0  0  0  0  0  0
   20.3683  -12.2920   24.0260 H   0  0  0  0  0  0
   19.6203  -17.9041   25.4735 H   0  0  0  0  0  0
   17.8709  -15.9323   27.8373 H   0  0  0  0  0  0
   18.3968  -14.4671   27.0624 H   0  0  0  0  0  0
   22.0153  -11.3785   17.4560 H   0  0  0  0  0  0
   21.1350  -12.6578   16.6259 H   0  0  0  0  0  0
   20.4273  -11.0529   16.7844 H   0  0  0  0  0  0
   11.4013  -13.0203   22.7821 H   0  0  0  0  0  0
    9.6559  -11.7457   23.6695 H   0  0  0  0  0  0
   10.4161  -10.2844   22.9236 H   0  0  0  0  0  0
    9.9464  -11.8521   25.5934 H   0  0  0  0  0  0
  1  2  1  0  0  0
  1 36  1  0  0  0
  1 37  1  0  0  0
  1 38  1  0  0  0
  2  7  1  0  0  0
  2  3  2  0  0  0
  3  4  1  0  0  0
  3 39  1  0  0  0
  4  5  2  0  0  0
  4 40  1  0  0  0
  5  6  1  0  0  0
  5 29  1  0  0  0
  6  7  2  0  0  0
  6 41  1  0  0  0
  7  8  1  0  0  0
  8 17  1  0  0  0
  8  9  2  0  0  0
  9 10  1  0  0  0
  9 42  1  0  0  0
 10 11  2  0  0  0
 10 43  1  0  0  0
 11 16  1  0  0  0
 11 12  1  0  0  0
 12 13  2  0  0  0
 12 28  1  0  0  0
 13 14  1  0  0  0
 13 44  1  0  0  0
 14 15  2  0  0  0
 14 18  1  0  0  0
 15 16  1  0  0  0
 16 17  2  0  0  0
 17 45  1  0  0  0
 18 19  1  0  0  0
 19 24  1  0  0  0
 19 20  2  0  0  0
 20 21  1  0  0  0
 20 46  1  0  0  0
 21 22  2  0  0  0
 21 47  1  0  0  0
 22 23  1  0  0  0
 22 25  1  0  0  0
 23 24  2  0  0  0
 23 48  1  0  0  0
 24 49  1  0  0  0
 25 26  2  3  0  0
 25 27  1  0  0  0
 26 50  1  0  0  0
 27 51  1  0  0  0
 27 52  1  0  0  0
 28 53  1  0  0  0
 28 54  1  0  0  0
 28 55  1  0  0  0
 29 30  2  0  0  0
 29 31  1  0  0  0
 31 32  1  0  0  0
 31 56  1  0  0  0
 32 33  1  0  0  0
 32 57  1  0  0  0
 32 58  1  0  0  0
 33 34  2  0  0  0
 33 35  1  0  0  0
 35 59  1  0  0  0
M  END
> <s_m_entry_id>
38027

> <s_m_entry_name>
ligand_docking-pose.374

> <s_m_Source_Path>
/home/csk/Desktop/cluster/DUD-E-result/thrb

> <s_m_Source_File>
ligand_docking-pose.sdf

> <i_m_Source_File_Index>
374

> <i_lp_mmshare_version>
53161

> <i_f3d_flags>
0

> <r_lp_tautomer_probability>
1

> <s_lp_Force_Field>
OPLS_2005

> <r_lp_Energy>
29.816672

> <b_lp_Chiralities_Consistent>
1

> <s_lp_Variant>
118518-2

> <s_i_glide_gridfile>
glide-grid_1ype

> <i_i_glide_lignum>
2321

> <i_i_glide_rotatable_bonds>
9

> <r_i_docking_score>
-6.87213658563542

> <r_i_glide_ligand_efficiency>
-0.196346759589584

> <r_i_glide_ligand_efficiency_sa>
-0.642263269647029

> <r_i_glide_ligand_efficiency_ln>
-1.50858649940099

> <r_i_glide_gscore>
-6.87213658563542

> <r_i_glide_lipo>
-2.82877156443654

> <r_i_glide_hbond>
-0.304

> <r_i_glide_metal>
0

> <r_i_glide_rewards>
-0.90545612282821

> <r_i_glide_evdw>
-34.888256072998

> <r_i_glide_ecoul>
-11.0107488632202

> <r_i_glide_erotb>
0.64389867765967

> <r_i_glide_esite>
-0.0817824428974116

> <r_i_glide_emodel>
-61.9006877006152

> <r_i_glide_energy>
-45.8990049362183

> <r_i_glide_einternal>
9.05654048919678

> <i_i_glide_confnum>
9

> <i_i_glide_posenum>
1

> <r_i_glide_eff_state_penalty>
0

> <s_user_duplicate_titles>
118518

> <s_m_subgroup_title>
dock_pv

> <s_m_subgroupid>
dock_pv1

> <b_m_subgroup_collapsed>
0

$$$$
129736
                    3D
 Schrodinger Suite 2021-1.
 71 73  0  0  1  0            999 V2000
   13.6130  -10.0102   21.8551 C   0  0  0  0  0  0
   14.2970  -10.4144   20.7193 C   0  0  0  0  0  0
   13.8846  -11.5408   20.0146 C   0  0  0  0  0  0
   12.8161  -12.2962   20.4855 C   0  0  0  0  0  0
   12.1410  -11.9033   21.6382 C   0  0  0  0  0  0
   12.5048  -10.7325   22.3340 C   0  0  0  0  0  0
   11.7617  -10.2455   23.5312 C   0  0  0  0  0  0
   12.0160   -9.1198   24.0408 N   0  0  0  0  0  0
   10.8163  -11.1122   24.0123 N   0  0  0  0  0  0
   14.4578  -11.8504   18.8069 O   0  0  0  0  0  0
   15.6316  -12.6540   18.8410 C   0  0  0  0  0  0
   16.9141  -11.8099   19.0184 C   0  0  0  0  0  0
   17.4914  -11.8163   20.4544 C   0  0  2  0  0  0
   18.6994  -10.8722   20.6661 C   0  0  0  0  0  0
   20.0127  -11.4162   20.0563 C   0  0  0  0  0  0
   20.2852  -12.8594   20.5118 C   0  0  0  0  0  0
   19.0636  -13.7675   20.2770 C   0  0  0  0  0  0
   17.9080  -13.1520   20.9678 N   0  0  0  0  0  0
   17.3128  -13.6578   22.0874 C   0  0  0  0  0  0
   16.4139  -13.0526   22.6814 O   0  0  0  0  0  0
   17.6866  -15.0624   22.6606 C   0  0  1  0  0  0
   18.2534  -14.9545   24.1052 C   0  0  0  0  0  0
   19.5552  -14.1362   24.3181 C   0  0  0  0  0  0
   19.8096  -13.9000   25.8243 C   0  0  0  0  0  0
   21.0283  -12.9867   26.0543 C   0  0  0  0  0  0
   22.2960  -13.5762   25.3992 C   0  0  0  0  0  0
   22.0761  -13.9577   23.9174 C   0  0  0  0  0  0
   20.8076  -14.8185   23.7167 C   0  0  0  0  0  0
   16.4336  -15.8563   22.7211 N   0  0  2  0  0  0
   15.8581  -16.2941   21.4463 C   0  0  0  0  0  0
   14.5228  -16.9987   21.7105 C   0  0  0  0  0  0
   14.2905  -18.1489   21.3472 O   0  0  0  0  0  0
   13.6161  -16.1810   22.3202 O   0  0  0  0  0  0
   16.6960  -11.4100   21.0799 H   0  0  0  0  0  0
   18.4132  -15.6007   22.0611 H   0  0  0  0  0  0
   13.9620   -9.1165   22.3509 H   0  0  0  0  0  0
   15.1290   -9.8303   20.3603 H   0  0  0  0  0  0
   12.4858  -13.1662   19.9371 H   0  0  0  0  0  0
   11.3041  -12.5114   21.9541 H   0  0  0  0  0  0
   12.7498   -8.6271   23.5608 H   0  0  0  0  0  0
   10.1754  -10.7953   24.7322 H   0  0  0  0  0  0
   10.5708  -11.9561   23.5181 H   0  0  0  0  0  0
   15.6771  -13.1567   17.8742 H   0  0  0  0  0  0
   15.5523  -13.4542   19.5781 H   0  0  0  0  0  0
   16.7126  -10.7857   18.7062 H   0  0  0  0  0  0
   17.6692  -12.1713   18.3225 H   0  0  0  0  0  0
   18.8160  -10.7596   21.7442 H   0  0  0  0  0  0
   18.4737   -9.8563   20.3301 H   0  0  0  0  0  0
   20.8524  -10.7707   20.3209 H   0  0  0  0  0  0
   19.9506  -11.4036   18.9687 H   0  0  0  0  0  0
   20.5543  -12.8746   21.5650 H   0  0  0  0  0  0
   21.1483  -13.2613   19.9795 H   0  0  0  0  0  0
   19.2443  -14.8211   20.4702 H   0  0  0  0  0  0
   18.8250  -13.7702   19.2153 H   0  0  0  0  0  0
   18.4168  -15.9640   24.4855 H   0  0  0  0  0  0
   17.4741  -14.5405   24.7485 H   0  0  0  0  0  0
   19.4439  -13.1559   23.8510 H   0  0  0  0  0  0
   19.9301  -14.8523   26.3446 H   0  0  0  0  0  0
   18.9276  -13.4532   26.2817 H   0  0  0  0  0  0
   21.1934  -12.8426   27.1221 H   0  0  0  0  0  0
   20.8175  -11.9955   25.6473 H   0  0  0  0  0  0
   22.6041  -14.4634   25.9547 H   0  0  0  0  0  0
   23.1227  -12.8700   25.4832 H   0  0  0  0  0  0
   22.9494  -14.4890   23.5380 H   0  0  0  0  0  0
   21.9990  -13.0486   23.3231 H   0  0  0  0  0  0
   20.6566  -15.0276   22.6577 H   0  0  0  0  0  0
   20.9430  -15.8021   24.1693 H   0  0  0  0  0  0
   15.7836  -15.4031   23.3669 H   0  0  0  0  0  0
   15.6822  -15.4627   20.7643 H   0  0  0  0  0  0
   16.5414  -16.9842   20.9471 H   0  0  0  0  0  0
   13.9735  -15.3116   22.5246 H   0  0  0  0  0  0
  1  6  1  0  0  0
  1  2  2  0  0  0
  1 36  1  0  0  0
  2  3  1  0  0  0
  2 37  1  0  0  0
  3  4  2  0  0  0
  3 10  1  0  0  0
  4  5  1  0  0  0
  4 38  1  0  0  0
  5  6  2  0  0  0
  5 39  1  0  0  0
  6  7  1  0  0  0
  7  8  2  3  0  0
  7  9  1  0  0  0
  8 40  1  0  0  0
  9 41  1  0  0  0
  9 42  1  0  0  0
 10 11  1  0  0  0
 11 12  1  0  0  0
 11 43  1  0  0  0
 11 44  1  0  0  0
 12 13  1  0  0  0
 12 45  1  0  0  0
 12 46  1  0  0  0
 13 34  1  0  0  0
 13 18  1  0  0  0
 13 14  1  0  0  0
 14 15  1  0  0  0
 14 47  1  0  0  0
 14 48  1  0  0  0
 15 16  1  0  0  0
 15 49  1  0  0  0
 15 50  1  0  0  0
 16 17  1  0  0  0
 16 51  1  0  0  0
 16 52  1  0  0  0
 17 18  1  0  0  0
 17 53  1  0  0  0
 17 54  1  0  0  0
 18 19  1  0  0  0
 19 20  2  0  0  0
 19 21  1  0  0  0
 21 35  1  0  0  0
 21 22  1  0  0  0
 21 29  1  0  0  0
 22 23  1  0  0  0
 22 55  1  0  0  0
 22 56  1  0  0  0
 23 28  1  0  0  0
 23 24  1  0  0  0
 23 57  1  0  0  0
 24 25  1  0  0  0
 24 58  1  0  0  0
 24 59  1  0  0  0
 25 26  1  0  0  0
 25 60  1  0  0  0
 25 61  1  0  0  0
 26 27  1  0  0  0
 26 62  1  0  0  0
 26 63  1  0  0  0
 27 28  1  0  0  0
 27 64  1  0  0  0
 27 65  1  0  0  0
 28 66  1  0  0  0
 28 67  1  0  0  0
 29 30  1  0  0  0
 29 68  1  0  0  0
 30 31  1  0  0  0
 30 69  1  0  0  0
 30 70  1  0  0  0
 31 32  2  0  0  0
 31 33  1  0  0  0
 33 71  1  0  0  0
M  END
> <s_m_entry_id>
38028

> <s_m_entry_name>
ligand_docking-pose.375

> <s_m_Source_Path>
/home/csk/Desktop/cluster/DUD-E-result/thrb

> <s_m_Source_File>
ligand_docking-pose.sdf

> <i_m_Source_File_Index>
375

> <i_lp_mmshare_version>
53161

> <i_f3d_flags>
0

> <r_lp_tautomer_probability>
1

> <s_lp_Force_Field>
OPLS_2005

> <r_lp_Energy>
52.450506

> <b_lp_Chiralities_Consistent>
1

> <s_lp_Variant>
129736-2

> <s_i_glide_gridfile>
glide-grid_1ype

> <i_i_glide_lignum>
1473

> <i_i_glide_rotatable_bonds>
13

> <r_i_docking_score>
-6.86952670009531

> <r_i_glide_ligand_efficiency>
-0.208167475760464

> <r_i_glide_ligand_efficiency_sa>
-0.667704324112051

> <r_i_glide_ligand_efficiency_ln>
-1.52774716959553

> <r_i_glide_gscore>
-6.86952670009531

> <r_i_glide_lipo>
-3.77818164737872

> <r_i_glide_hbond>
-0.691173792749015

> <r_i_glide_metal>
0

> <r_i_glide_rewards>
1.0227930559722

> <r_i_glide_evdw>
-45.4675827026367

> <r_i_glide_ecoul>
-13.4885501861572

> <r_i_glide_erotb>
0.956405587753116

> <r_i_glide_esite>
-0.0827082406374746

> <r_i_glide_emodel>
-64.3832894062711

> <r_i_glide_energy>
-58.9561328887939

> <r_i_glide_einternal>
20.5527038574219

> <i_i_glide_confnum>
30

> <i_i_glide_posenum>
242

> <r_i_glide_eff_state_penalty>
0

> <s_user_duplicate_titles>
129736

> <s_m_subgroup_title>
dock_pv

> <s_m_subgroupid>
dock_pv1

> <b_m_subgroup_collapsed>
0

$$$$
74768
                    3D
 Schrodinger Suite 2021-1.
 36 39  0  0  1  0            999 V2000
   20.8123  -12.2752   19.5474 C   0  0  0  0  0  0
   20.8760  -11.8517   18.2200 C   0  0  0  0  0  0
   19.7550  -11.8602   17.3943 C   0  0  0  0  0  0
   18.5430  -12.3124   17.9376 C   0  0  0  0  0  0
   18.5175  -12.8030   19.2690 C   0  0  0  0  0  0
   19.6339  -12.7718   20.1064 C   0  0  0  0  0  0
   17.2376  -13.2728   19.4166 N   0  0  0  0  0  0
   16.5729  -13.0411   18.2334 C   0  0  0  0  0  0
   17.3081  -12.4168   17.3460 N   0  0  0  0  0  0
   15.0902  -13.3423   18.0838 C   0  0  0  0  0  0
   14.3220  -12.5374   19.1096 C   0  0  0  0  0  0
   14.7310  -11.2733   19.4364 N   0  0  0  0  0  0
   13.9862  -10.8496   20.4898 C   0  0  0  0  0  0
   14.0168   -9.6938   21.2556 C   0  0  0  0  0  0
   13.1321   -9.6544   22.3214 C   0  0  0  0  0  0
   12.2384  -10.6994   22.6258 C   0  0  0  0  0  0
   12.1983  -11.8353   21.7881 C   0  0  0  0  0  0
   13.0962  -11.9218   20.7209 C   0  0  0  0  0  0
   13.2968  -12.9400   19.8187 N   0  0  0  0  0  0
   11.3760  -10.5694   23.8189 C   0  0  0  0  0  0
   11.2159   -9.4520   24.3610 N   0  0  0  0  0  0
   10.8110  -11.7377   24.2479 N   0  0  0  0  0  0
   16.8081  -13.7103   20.2183 H   0  0  0  0  0  0
   15.5066  -10.8088   18.9857 H   0  0  0  0  0  0
   21.7021  -12.2348   20.1577 H   0  0  0  0  0  0
   21.8087  -11.4809   17.8274 H   0  0  0  0  0  0
   19.8160  -11.5401   16.3707 H   0  0  0  0  0  0
   19.6004  -13.1276   21.1257 H   0  0  0  0  0  0
   14.9152  -14.4093   18.2178 H   0  0  0  0  0  0
   14.7352  -13.1175   17.0779 H   0  0  0  0  0  0
   14.7216   -8.8940   21.0811 H   0  0  0  0  0  0
   13.1741   -8.7779   22.9544 H   0  0  0  0  0  0
   11.5159  -12.6539   21.9662 H   0  0  0  0  0  0
   10.5493   -9.5199   25.1208 H   0  0  0  0  0  0
    9.9854  -11.6813   24.8446 H   0  0  0  0  0  0
   10.9339  -12.5950   23.7303 H   0  0  0  0  0  0
  1  6  1  0  0  0
  1  2  2  0  0  0
  1 25  1  0  0  0
  2  3  1  0  0  0
  2 26  1  0  0  0
  3  4  2  0  0  0
  3 27  1  0  0  0
  4  9  1  0  0  0
  4  5  1  0  0  0
  5  6  2  0  0  0
  5  7  1  0  0  0
  6 28  1  0  0  0
  7 23  1  0  0  0
  7  8  1  0  0  0
  8  9  2  0  0  0
  8 10  1  0  0  0
 10 11  1  0  0  0
 10 29  1  0  0  0
 10 30  1  0  0  0
 11 19  2  0  0  0
 11 12  1  0  0  0
 12 24  1  0  0  0
 12 13  1  0  0  0
 13 18  2  0  0  0
 13 14  1  0  0  0
 14 15  2  0  0  0
 14 31  1  0  0  0
 15 16  1  0  0  0
 15 32  1  0  0  0
 16 17  2  0  0  0
 16 20  1  0  0  0
 17 18  1  0  0  0
 17 33  1  0  0  0
 18 19  1  0  0  0
 20 21  2  3  0  0
 20 22  1  0  0  0
 21 34  1  0  0  0
 22 35  1  0  0  0
 22 36  1  0  0  0
M  END
> <s_m_entry_id>
38029

> <s_m_entry_name>
ligand_docking-pose.376

> <s_m_Source_Path>
/home/csk/Desktop/cluster/DUD-E-result/thrb

> <s_m_Source_File>
ligand_docking-pose.sdf

> <i_m_Source_File_Index>
376

> <i_lp_mmshare_version>
53161

> <i_f3d_flags>
0

> <r_lp_tautomer_probability>
1

> <s_lp_Force_Field>
OPLS_2005

> <r_lp_Energy>
3.995096

> <b_lp_Chiralities_Consistent>
1

> <s_lp_Variant>
74768-1

> <s_i_glide_gridfile>
glide-grid_1ype

> <i_i_glide_lignum>
380

> <i_i_glide_rotatable_bonds>
3

> <r_i_docking_score>
-6.86662643962906

> <r_i_glide_ligand_efficiency>
-0.312119383619503

> <r_i_glide_ligand_efficiency_sa>
-0.874570787860652

> <r_i_glide_ligand_efficiency_ln>
-1.67845396813037

> <r_i_glide_gscore>
-6.86662643962906

> <r_i_glide_lipo>
-2.44463093511773

> <r_i_glide_hbond>
-0.536501478120827

> <r_i_glide_metal>
0

> <r_i_glide_rewards>
-1.79891876808146

> <r_i_glide_evdw>
-28.6370887756348

> <r_i_glide_ecoul>
-6.63200855255127

> <r_i_glide_erotb>
0.432405930571253

> <r_i_glide_esite>
-0.0923254672158624

> <r_i_glide_emodel>
-47.6565957167997

> <r_i_glide_energy>
-35.269097328186

> <r_i_glide_einternal>
1.08541452884674

> <i_i_glide_confnum>
1

> <i_i_glide_posenum>
5

> <r_i_glide_eff_state_penalty>
0

> <s_user_duplicate_titles>
74768

> <s_m_subgroup_title>
dock_pv

> <s_m_subgroupid>
dock_pv1

> <b_m_subgroup_collapsed>
0

$$$$
1570
                    3D
 Schrodinger Suite 2021-1.
 61 64  0  0  1  0            999 V2000
   15.6157  -13.1812   15.9965 C   0  0  0  0  0  0
   15.7944  -11.9895   16.6940 C   0  0  0  0  0  0
   15.6530  -11.9759   18.0787 C   0  0  0  0  0  0
   15.3343  -13.1486   18.7717 C   0  0  0  0  0  0
   15.1431  -14.3370   18.0561 C   0  0  0  0  0  0
   15.2806  -14.3528   16.6706 C   0  0  0  0  0  0
   15.2345  -13.1578   20.3071 C   0  0  0  0  0  0
   14.0774  -12.3001   20.8601 C   0  0  0  0  0  0
   14.1810  -10.9031   20.9315 C   0  0  0  0  0  0
   13.1512  -10.1449   21.4829 C   0  0  0  0  0  0
   12.0160  -10.7816   21.9762 C   0  0  0  0  0  0
   11.9031  -12.1676   21.9213 C   0  0  0  0  0  0
   12.9281  -12.9252   21.3603 C   0  0  0  0  0  0
   16.5949  -12.8646   21.0287 C   0  0  2  0  0  0
   17.7803  -13.7769   20.5859 C   0  0  0  0  0  0
   17.6729  -14.9979   20.7312 O   0  0  0  0  0  0
   18.9083  -13.1832   20.1148 N   0  0  0  0  0  0
   18.9851  -11.8414   19.5354 C   0  0  0  0  0  0
   20.2278  -11.8911   18.6590 C   0  0  0  0  0  0
   21.1514  -12.7183   19.5081 C   0  0  0  0  0  0
   20.2312  -13.8445   20.0167 C   0  0  1  0  0  0
   20.7372  -14.4767   21.3232 C   0  0  0  0  0  0
   21.3919  -13.7960   22.1124 O   0  0  0  0  0  0
   20.4181  -15.7689   21.5130 N   0  0  0  0  0  0
   20.7400  -16.5551   22.7032 C   0  0  0  0  0  0
   20.0485  -16.0529   23.9637 C   0  0  0  0  0  0
   18.8192  -16.5797   24.3766 C   0  0  0  0  0  0
   18.1945  -16.0826   25.5229 C   0  0  0  0  0  0
   18.7912  -15.0526   26.2526 C   0  0  0  0  0  0
   20.0168  -14.5284   25.8389 C   0  0  0  0  0  0
   20.6599  -15.0589   24.7292 C   0  0  0  0  0  0
   20.8160  -13.0500   26.7210 Br  0  0  0  0  0  0
   16.4776  -13.0531   22.4899 N   0  0  0  0  0  0
   15.7156  -13.1966   14.9207 H   0  0  0  0  0  0
   16.0398  -11.0811   16.1635 H   0  0  0  0  0  0
   15.8081  -11.0541   18.6127 H   0  0  0  0  0  0
   14.8951  -15.2547   18.5705 H   0  0  0  0  0  0
   15.1248  -15.2691   16.1193 H   0  0  0  0  0  0
   14.9879  -14.1871   20.5786 H   0  0  0  0  0  0
   15.0658  -10.3947   20.5819 H   0  0  0  0  0  0
   13.2379   -9.0700   21.5416 H   0  0  0  0  0  0
   11.2163  -10.2012   22.4141 H   0  0  0  0  0  0
   11.0216  -12.6518   22.3187 H   0  0  0  0  0  0
   12.8292  -14.0007   21.3342 H   0  0  0  0  0  0
   16.8489  -11.8192   20.8637 H   0  0  0  0  0  0
   18.1138  -11.5732   18.9436 H   0  0  0  0  0  0
   19.0999  -11.1083   20.3361 H   0  0  0  0  0  0
   20.0108  -12.4167   17.7273 H   0  0  0  0  0  0
   20.6675  -10.9370   18.4092 H   0  0  0  0  0  0
   22.0157  -13.0529   18.9466 H   0  0  0  0  0  0
   21.5282  -12.0975   20.3233 H   0  0  0  0  0  0
   20.1764  -14.6162   19.2523 H   0  0  0  0  0  0
   19.8083  -16.2050   20.8354 H   0  0  0  0  0  0
   20.4545  -17.5926   22.5247 H   0  0  0  0  0  0
   21.8223  -16.5713   22.8515 H   0  0  0  0  0  0
   18.3380  -17.3585   23.8024 H   0  0  0  0  0  0
   17.2392  -16.4796   25.8343 H   0  0  0  0  0  0
   18.2943  -14.6520   27.1225 H   0  0  0  0  0  0
   21.6142  -14.6481   24.4335 H   0  0  0  0  0  0
   15.8460  -13.8184   22.7083 H   0  0  0  0  0  0
   17.3713  -13.3073   22.8933 H   0  0  0  0  0  0
  1  6  1  0  0  0
  1  2  2  0  0  0
  1 34  1  0  0  0
  2  3  1  0  0  0
  2 35  1  0  0  0
  3  4  2  0  0  0
  3 36  1  0  0  0
  4  5  1  0  0  0
  4  7  1  0  0  0
  5  6  2  0  0  0
  5 37  1  0  0  0
  6 38  1  0  0  0
  7  8  1  0  0  0
  7 14  1  0  0  0
  7 39  1  0  0  0
  8 13  1  0  0  0
  8  9  2  0  0  0
  9 10  1  0  0  0
  9 40  1  0  0  0
 10 11  2  0  0  0
 10 41  1  0  0  0
 11 12  1  0  0  0
 11 42  1  0  0  0
 12 13  2  0  0  0
 12 43  1  0  0  0
 13 44  1  0  0  0
 14 15  1  0  0  0
 14 33  1  0  0  0
 14 45  1  0  0  0
 15 16  2  0  0  0
 15 17  1  0  0  0
 17 21  1  0  0  0
 17 18  1  0  0  0
 18 19  1  0  0  0
 18 46  1  0  0  0
 18 47  1  0  0  0
 19 20  1  0  0  0
 19 48  1  0  0  0
 19 49  1  0  0  0
 20 21  1  0  0  0
 20 50  1  0  0  0
 20 51  1  0  0  0
 21 22  1  0  0  0
 21 52  1  0  0  0
 22 23  2  0  0  0
 22 24  1  0  0  0
 24 25  1  0  0  0
 24 53  1  0  0  0
 25 26  1  0  0  0
 25 54  1  0  0  0
 25 55  1  0  0  0
 26 31  1  0  0  0
 26 27  2  0  0  0
 27 28  1  0  0  0
 27 56  1  0  0  0
 28 29  2  0  0  0
 28 57  1  0  0  0
 29 30  1  0  0  0
 29 58  1  0  0  0
 30 31  2  0  0  0
 30 32  1  0  0  0
 31 59  1  0  0  0
 33 60  1  0  0  0
 33 61  1  0  0  0
M  END
> <s_m_entry_id>
38030

> <s_m_entry_name>
ligand_docking-pose.377

> <s_m_Source_Path>
/home/csk/Desktop/cluster/DUD-E-result/thrb

> <s_m_Source_File>
ligand_docking-pose.sdf

> <i_m_Source_File_Index>
377

> <i_lp_mmshare_version>
53161

> <i_f3d_flags>
0

> <r_lp_tautomer_probability>
1

> <s_lp_Force_Field>
OPLS_2005

> <r_lp_Energy>
26.007297

> <b_lp_Chiralities_Consistent>
1

> <s_lp_Variant>
1570-1

> <s_i_glide_gridfile>
glide-grid_1ype

> <i_i_glide_lignum>
658

> <i_i_glide_rotatable_bonds>
9

> <r_i_docking_score>
-6.86591026556698

> <r_i_glide_ligand_efficiency>
-0.208057886835363

> <r_i_glide_ligand_efficiency_sa>
-0.667352813873012

> <r_i_glide_ligand_efficiency_ln>
-1.52694289328132

> <r_i_glide_gscore>
-6.86591026556698

> <r_i_glide_lipo>
-3.60400587610422

> <r_i_glide_hbond>
-0.43341686671606

> <r_i_glide_metal>
0

> <r_i_glide_rewards>
-0.447645082713487

> <r_i_glide_evdw>
-46.6129264831543

> <r_i_glide_ecoul>
-4.58923578262329

> <r_i_glide_erotb>
0.638189251517995

> <r_i_glide_esite>
0

> <r_i_glide_emodel>
-70.8877262735139

> <r_i_glide_energy>
-51.2021622657776

> <r_i_glide_einternal>
2.67069578170776

> <i_i_glide_confnum>
50

> <i_i_glide_posenum>
13

> <r_i_glide_eff_state_penalty>
0

> <s_user_duplicate_titles>
1570

> <s_m_subgroup_title>
dock_pv

> <s_m_subgroupid>
dock_pv1

> <b_m_subgroup_collapsed>
0

$$$$
289248
                    3D
 Schrodinger Suite 2021-1.
 77 81  0  0  1  0            999 V2000
   20.6567  -13.8681   19.1131 C   0  0  0  0  0  0
   20.1976  -13.1919   20.4144 C   0  0  2  0  0  0
   21.1750  -13.4031   21.5839 C   0  0  0  0  0  0
   21.2173  -14.8904   21.9400 C   0  0  0  0  0  0
   19.8278  -15.4461   22.2917 C   0  0  1  0  0  0
   18.6151  -14.8089   21.5506 C   0  0  0  0  0  0
   17.4689  -15.2217   21.7437 O   0  0  0  0  0  0
   18.8526  -13.6569   20.8472 N   0  0  0  0  0  0
   17.7701  -12.6902   20.5663 C   0  0  1  0  0  0
   18.3808  -11.2822   20.6480 C   0  0  0  0  0  0
   20.0142  -11.4565   19.9251 S   0  0  0  0  0  0
   16.8074  -12.9692   19.3886 C   0  0  0  0  0  0
   16.6137  -12.1150   18.5210 O   0  0  0  0  0  0
   16.1718  -14.1587   19.4546 N   0  0  0  0  0  0
   15.0633  -14.7575   18.6800 C   0  0  2  0  0  0
   15.2795  -15.0317   17.1546 C   0  0  0  0  0  0
   15.7290  -13.8480   16.2712 C   0  0  0  0  0  0
   15.7934  -14.1911   14.7707 C   0  0  0  0  0  0
   16.0983  -12.9800   14.0115 N   0  0  0  0  0  0
   17.0812  -12.9370   13.2102 C   0  0  0  0  0  0
   17.2631  -11.8418   12.3500 N   0  0  0  0  0  0
   18.0897  -13.9051   13.0305 N   0  0  0  0  0  0
   13.6476  -14.2903   19.0751 C   0  0  0  0  0  0
   12.7048  -15.0049   18.7221 O   0  0  0  0  0  0
   13.3651  -13.1084   19.9061 C   0  0  0  0  0  0
   13.9887  -11.9634   19.8960 N   0  0  0  0  0  0
   13.5260  -11.1100   20.8428 C   0  0  0  0  0  0
   14.0968   -9.8650   21.1363 C   0  0  0  0  0  0
   13.5490   -9.1267   22.1843 C   0  0  0  0  0  0
   12.4137   -9.5647   22.8667 C   0  0  0  0  0  0
   11.8172  -10.7949   22.5780 C   0  0  0  0  0  0
   12.4095  -11.5772   21.5769 C   0  0  0  0  0  0
   12.0185  -13.1918   21.0269 S   0  0  0  0  0  0
   19.7730  -17.0024   22.3015 C   0  0  0  0  0  0
   20.4646  -17.6411   23.5268 C   0  0  0  0  0  0
   19.7261  -17.3546   24.8239 C   0  0  0  0  0  0
   19.9683  -16.1663   25.5199 C   0  0  0  0  0  0
   19.1971  -15.8398   26.6277 C   0  0  0  0  0  0
   18.2469  -16.7427   27.0949 C   0  0  0  0  0  0
   18.0358  -17.9545   26.4375 C   0  0  0  0  0  0
   18.7619  -18.2508   25.2871 C   0  0  0  0  0  0
   19.5914  -15.0573   23.2779 H   0  0  0  0  0  0
   17.0225  -12.7668   21.3631 H   0  0  0  0  0  0
   20.7923  -14.9427   19.1950 H   0  0  0  0  0  0
   19.9399  -13.6742   18.3202 H   0  0  0  0  0  0
   21.6059  -13.4451   18.7859 H   0  0  0  0  0  0
   22.1669  -13.0356   21.3245 H   0  0  0  0  0  0
   20.8635  -12.8425   22.4637 H   0  0  0  0  0  0
   21.9059  -15.0562   22.7672 H   0  0  0  0  0  0
   21.6160  -15.4580   21.1016 H   0  0  0  0  0  0
   17.8153  -10.5265   20.0974 H   0  0  0  0  0  0
   18.4768  -10.9330   21.6767 H   0  0  0  0  0  0
   16.4562  -14.7316   20.2452 H   0  0  0  0  0  0
   15.0833  -15.7666   19.1075 H   0  0  0  0  0  0
   16.0068  -15.8381   17.0522 H   0  0  0  0  0  0
   14.3672  -15.4502   16.7221 H   0  0  0  0  0  0
   15.0693  -12.9923   16.4319 H   0  0  0  0  0  0
   16.7270  -13.5490   16.5706 H   0  0  0  0  0  0
   16.4940  -15.0136   14.6183 H   0  0  0  0  0  0
   14.8302  -14.5675   14.4301 H   0  0  0  0  0  0
   16.4650  -11.2244   12.2776 H   0  0  0  0  0  0
   17.5925  -12.0716   11.4266 H   0  0  0  0  0  0
   17.9150  -14.7968   13.4666 H   0  0  0  0  0  0
   18.4143  -14.0591   12.0904 H   0  0  0  0  0  0
   14.9784   -9.5190   20.6219 H   0  0  0  0  0  0
   14.0191   -8.2003   22.4782 H   0  0  0  0  0  0
   12.0048   -8.9537   23.6566 H   0  0  0  0  0  0
   10.9472  -11.1391   23.1309 H   0  0  0  0  0  0
   18.7432  -17.3664   22.2718 H   0  0  0  0  0  0
   20.2351  -17.3889   21.3940 H   0  0  0  0  0  0
   20.5276  -18.7201   23.3754 H   0  0  0  0  0  0
   21.5001  -17.3073   23.6206 H   0  0  0  0  0  0
   20.7160  -15.4666   25.1751 H   0  0  0  0  0  0
   19.3494  -14.8898   27.1151 H   0  0  0  0  0  0
   17.6576  -16.4864   27.9639 H   0  0  0  0  0  0
   17.2918  -18.6508   26.7971 H   0  0  0  0  0  0
   18.5714  -19.1692   24.7529 H   0  0  0  0  0  0
  1  2  1  0  0  0
  1 44  1  0  0  0
  1 45  1  0  0  0
  1 46  1  0  0  0
  2  8  1  0  0  0
  2 11  1  0  0  0
  2  3  1  0  0  0
  3  4  1  0  0  0
  3 47  1  0  0  0
  3 48  1  0  0  0
  4  5  1  0  0  0
  4 49  1  0  0  0
  4 50  1  0  0  0
  5 42  1  0  0  0
  5  6  1  0  0  0
  5 34  1  0  0  0
  6  7  2  0  0  0
  6  8  1  0  0  0
  8  9  1  0  0  0
  9 43  1  0  0  0
  9 10  1  0  0  0
  9 12  1  0  0  0
 10 11  1  0  0  0
 10 51  1  0  0  0
 10 52  1  0  0  0
 12 13  2  0  0  0
 12 14  1  0  0  0
 14 15  1  0  0  0
 14 53  1  0  0  0
 15 16  1  0  0  0
 15 23  1  0  0  0
 15 54  1  0  0  0
 16 17  1  0  0  0
 16 55  1  0  0  0
 16 56  1  0  0  0
 17 18  1  0  0  0
 17 57  1  0  0  0
 17 58  1  0  0  0
 18 19  1  0  0  0
 18 59  1  0  0  0
 18 60  1  0  0  0
 19 20  2  3  0  0
 20 21  1  0  0  0
 20 22  1  0  0  0
 21 61  1  0  0  0
 21 62  1  0  0  0
 22 63  1  0  0  0
 22 64  1  0  0  0
 23 24  2  0  0  0
 23 25  1  0  0  0
 25 33  1  0  0  0
 25 26  2  0  0  0
 26 27  1  0  0  0
 27 32  2  0  0  0
 27 28  1  0  0  0
 28 29  2  0  0  0
 28 65  1  0  0  0
 29 30  1  0  0  0
 29 66  1  0  0  0
 30 31  2  0  0  0
 30 67  1  0  0  0
 31 32  1  0  0  0
 31 68  1  0  0  0
 32 33  1  0  0  0
 34 35  1  0  0  0
 34 69  1  0  0  0
 34 70  1  0  0  0
 35 36  1  0  0  0
 35 71  1  0  0  0
 35 72  1  0  0  0
 36 41  1  0  0  0
 36 37  2  0  0  0
 37 38  1  0  0  0
 37 73  1  0  0  0
 38 39  2  0  0  0
 38 74  1  0  0  0
 39 40  1  0  0  0
 39 75  1  0  0  0
 40 41  2  0  0  0
 40 76  1  0  0  0
 41 77  1  0  0  0
M  END
> <s_m_entry_id>
38031

> <s_m_entry_name>
ligand_docking-pose.378

> <s_m_Source_Path>
/home/csk/Desktop/cluster/DUD-E-result/thrb

> <s_m_Source_File>
ligand_docking-pose.sdf

> <i_m_Source_File_Index>
378

> <i_lp_mmshare_version>
53161

> <i_f3d_flags>
0

> <r_lp_tautomer_probability>
0.99990000499975

> <s_lp_Force_Field>
OPLS_2005

> <r_lp_Energy>
34.862168

> <b_lp_Chiralities_Consistent>
1

> <s_lp_Variant>
289248-1

> <s_i_glide_gridfile>
glide-grid_1ype

> <i_i_glide_lignum>
2123

> <i_i_glide_rotatable_bonds>
12

> <r_i_docking_score>
-6.86457092242731

> <r_i_glide_ligand_efficiency>
-0.167428559083593

> <r_i_glide_ligand_efficiency_sa>
-0.577330043249832

> <r_i_glide_ligand_efficiency_ln>
-1.45634156543765

> <r_i_glide_gscore>
-6.86457092242731

> <r_i_glide_lipo>
-3.34449492651893

> <r_i_glide_hbond>
0

> <r_i_glide_metal>
0

> <r_i_glide_rewards>
-0.608109639462819

> <r_i_glide_evdw>
-46.7133483886719

> <r_i_glide_ecoul>
-6.91046619415283

> <r_i_glide_erotb>
0.545555312726705

> <r_i_glide_esite>
-0.0852843206157497

> <r_i_glide_emodel>
-70.8592949367309

> <r_i_glide_energy>
-53.6238145828247

> <r_i_glide_einternal>
12.5545463562012

> <i_i_glide_confnum>
34

> <i_i_glide_posenum>
130

> <r_i_glide_eff_state_penalty>
0

> <s_user_duplicate_titles>
289248

> <s_m_subgroup_title>
dock_pv

> <s_m_subgroupid>
dock_pv1

> <b_m_subgroup_collapsed>
0

$$$$
199092
                    3D
 Schrodinger Suite 2021-1.
 68 71  0  0  1  0            999 V2000
   18.4160  -16.7752   27.5135 C   0  0  0  0  0  0
   18.4109  -15.5026   26.9485 C   0  0  0  0  0  0
   18.8299  -15.3214   25.6378 C   0  0  0  0  0  0
   19.2564  -16.4195   24.8874 C   0  0  0  0  0  0
   19.2310  -17.7012   25.4520 C   0  0  0  0  0  0
   18.8137  -17.8792   26.7669 C   0  0  0  0  0  0
   19.7952  -16.2264   23.4648 C   0  0  0  0  0  0
   21.2054  -15.5989   23.5290 C   0  0  0  0  0  0
   21.4133  -14.2226   23.7012 C   0  0  0  0  0  0
   22.6984  -13.7235   23.9093 C   0  0  0  0  0  0
   23.7803  -14.5944   23.9832 C   0  0  0  0  0  0
   23.5902  -15.9640   23.8289 C   0  0  0  0  0  0
   22.3126  -16.4587   23.5787 C   0  0  0  0  0  0
   18.7324  -15.7385   22.3943 C   0  0  2  0  0  0
   18.4689  -14.2043   22.2704 C   0  0  0  0  0  0
   17.6436  -13.6819   23.0233 O   0  0  0  0  0  0
   19.0959  -13.5118   21.2859 N   0  0  0  0  0  0
   20.2035  -13.9779   20.4520 C   0  0  0  0  0  0
   21.0058  -12.7155   20.1821 C   0  0  0  0  0  0
   19.9330  -11.6458   20.0587 C   0  0  0  0  0  0
   18.7840  -12.0961   20.9865 C   0  0  1  0  0  0
   17.4152  -11.8230   20.3290 C   0  0  0  0  0  0
   16.9859  -10.6714   20.3211 O   0  0  0  0  0  0
   16.7638  -12.8510   19.7616 N   0  0  0  0  0  0
   15.4919  -12.7102   19.0515 C   0  0  0  0  0  0
   14.3086  -12.7787   19.9955 C   0  0  0  0  0  0
   13.8689  -11.7426   20.6757 N   0  0  0  0  0  0
   12.8243  -12.0216   21.4458 C   0  0  0  0  0  0
   12.4165  -13.3579   21.3840 C   0  0  0  0  0  0
   13.4104  -14.2350   20.2727 S   0  0  0  0  0  0
   12.1855  -10.9690   22.2746 C   0  0  0  0  0  0
   12.5493   -9.7666   22.1499 N   0  0  0  0  0  0
   11.2163  -11.4527   23.1210 N   0  0  0  0  0  0
   17.4008  -16.3677   22.6427 N   0  0  2  0  0  0
   16.5505  -16.5421   21.4614 C   0  0  0  0  0  0
   15.2863  -17.3257   21.8463 C   0  0  0  0  0  0
   15.0146  -18.4185   21.3565 O   0  0  0  0  0  0
   14.4777  -16.6530   22.7208 O   0  0  0  0  0  0
   19.0844  -16.0854   21.4215 H   0  0  0  0  0  0
   18.8161  -11.5335   21.9209 H   0  0  0  0  0  0
   18.0883  -16.9058   28.5350 H   0  0  0  0  0  0
   18.0831  -14.6534   27.5252 H   0  0  0  0  0  0
   18.8428  -14.3252   25.2226 H   0  0  0  0  0  0
   19.5531  -18.5604   24.8823 H   0  0  0  0  0  0
   18.8050  -18.8657   27.2063 H   0  0  0  0  0  0
   19.9811  -17.2416   23.1075 H   0  0  0  0  0  0
   20.5888  -13.5284   23.7234 H   0  0  0  0  0  0
   22.8593  -12.6641   24.0414 H   0  0  0  0  0  0
   24.7711  -14.2059   24.1720 H   0  0  0  0  0  0
   24.4305  -16.6393   23.8972 H   0  0  0  0  0  0
   22.1815  -17.5263   23.4810 H   0  0  0  0  0  0
   20.8322  -14.7394   20.9126 H   0  0  0  0  0  0
   19.8008  -14.3824   19.5234 H   0  0  0  0  0  0
   21.6368  -12.5033   21.0459 H   0  0  0  0  0  0
   21.6478  -12.7882   19.3042 H   0  0  0  0  0  0
   20.3101  -10.6567   20.3191 H   0  0  0  0  0  0
   19.5992  -11.6031   19.0206 H   0  0  0  0  0  0
   17.1789  -13.7697   19.7918 H   0  0  0  0  0  0
   15.4758  -11.7885   18.4643 H   0  0  0  0  0  0
   15.4383  -13.5089   18.3103 H   0  0  0  0  0  0
   11.6150  -13.8531   21.9048 H   0  0  0  0  0  0
   13.2852   -9.6681   21.4675 H   0  0  0  0  0  0
   10.6406  -10.8108   23.6485 H   0  0  0  0  0  0
   10.9760  -12.4329   23.1311 H   0  0  0  0  0  0
   16.9355  -15.7071   23.2587 H   0  0  0  0  0  0
   16.2698  -15.5900   21.0100 H   0  0  0  0  0  0
   17.0860  -17.1147   20.7026 H   0  0  0  0  0  0
   14.8159  -15.8006   23.0193 H   0  0  0  0  0  0
  1  6  1  0  0  0
  1  2  2  0  0  0
  1 41  1  0  0  0
  2  3  1  0  0  0
  2 42  1  0  0  0
  3  4  2  0  0  0
  3 43  1  0  0  0
  4  5  1  0  0  0
  4  7  1  0  0  0
  5  6  2  0  0  0
  5 44  1  0  0  0
  6 45  1  0  0  0
  7  8  1  0  0  0
  7 14  1  0  0  0
  7 46  1  0  0  0
  8 13  1  0  0  0
  8  9  2  0  0  0
  9 10  1  0  0  0
  9 47  1  0  0  0
 10 11  2  0  0  0
 10 48  1  0  0  0
 11 12  1  0  0  0
 11 49  1  0  0  0
 12 13  2  0  0  0
 12 50  1  0  0  0
 13 51  1  0  0  0
 14 39  1  0  0  0
 14 15  1  0  0  0
 14 34  1  0  0  0
 15 16  2  0  0  0
 15 17  1  0  0  0
 17 21  1  0  0  0
 17 18  1  0  0  0
 18 19  1  0  0  0
 18 52  1  0  0  0
 18 53  1  0  0  0
 19 20  1  0  0  0
 19 54  1  0  0  0
 19 55  1  0  0  0
 20 21  1  0  0  0
 20 56  1  0  0  0
 20 57  1  0  0  0
 21 40  1  0  0  0
 21 22  1  0  0  0
 22 23  2  0  0  0
 22 24  1  0  0  0
 24 25  1  0  0  0
 24 58  1  0  0  0
 25 26  1  0  0  0
 25 59  1  0  0  0
 25 60  1  0  0  0
 26 30  1  0  0  0
 26 27  2  0  0  0
 27 28  1  0  0  0
 28 29  2  0  0  0
 28 31  1  0  0  0
 29 30  1  0  0  0
 29 61  1  0  0  0
 31 32  2  3  0  0
 31 33  1  0  0  0
 32 62  1  0  0  0
 33 63  1  0  0  0
 33 64  1  0  0  0
 34 35  1  0  0  0
 34 65  1  0  0  0
 35 36  1  0  0  0
 35 66  1  0  0  0
 35 67  1  0  0  0
 36 37  2  0  0  0
 36 38  1  0  0  0
 38 68  1  0  0  0
M  END
> <s_m_entry_id>
38033

> <s_m_entry_name>
ligand_docking-pose.380

> <s_m_Source_Path>
/home/csk/Desktop/cluster/DUD-E-result/thrb

> <s_m_Source_File>
ligand_docking-pose.sdf

> <i_m_Source_File_Index>
380

> <i_lp_mmshare_version>
53161

> <i_f3d_flags>
0

> <r_lp_tautomer_probability>
1

> <s_lp_Force_Field>
OPLS_2005

> <r_lp_Energy>
28.627439

> <b_lp_Chiralities_Consistent>
1

> <s_lp_Variant>
199092-2

> <s_i_glide_gridfile>
glide-grid_1ype

> <i_i_glide_lignum>
751

> <i_i_glide_rotatable_bonds>
14

> <r_i_docking_score>
-6.86088134983368

> <r_i_glide_ligand_efficiency>
-0.180549509206149

> <r_i_glide_ligand_efficiency_sa>
-0.607003008924689

> <r_i_glide_ligand_efficiency_ln>
-1.47940784570533

> <r_i_glide_gscore>
-6.86088134983368

> <r_i_glide_lipo>
-2.62445733072833

> <r_i_glide_hbond>
-0.134182580580208

> <r_i_glide_metal>
0

> <r_i_glide_rewards>
-1.11604377480365

> <r_i_glide_evdw>
-50.306095123291

> <r_i_glide_ecoul>
-8.54787063598633

> <r_i_glide_erotb>
0.866506970011233

> <r_i_glide_esite>
-0.0552192821702217

> <r_i_glide_emodel>
-73.3403613955967

> <r_i_glide_energy>
-58.8539657592773

> <r_i_glide_einternal>
15.3516836166382

> <i_i_glide_confnum>
316

> <i_i_glide_posenum>
23

> <r_i_glide_eff_state_penalty>
0

> <s_user_duplicate_titles>
199092

> <s_m_subgroup_title>
dock_pv

> <s_m_subgroupid>
dock_pv1

> <b_m_subgroup_collapsed>
0

$$$$
57957
                    3D
 Schrodinger Suite 2021-1.
 61 63  0  0  1  0            999 V2000
   13.7280  -17.2107   21.0779 C   0  0  0  0  0  0
   15.1334  -16.7978   21.5088 C   0  0  0  0  0  0
   15.7037  -17.3654   22.5921 C   0  0  0  0  0  0
   17.0211  -16.9229   22.9876 C   0  0  0  0  0  0
   17.6501  -15.9540   22.2873 C   0  0  0  0  0  0
   17.0030  -15.2810   21.1446 C   0  0  0  0  0  0
   17.5058  -14.2912   20.5996 O   0  0  0  0  0  0
   15.7658  -15.7962   20.7648 N   0  0  0  0  0  0
   15.1498  -15.1785   19.5540 C   0  0  0  0  0  0
   14.4534  -13.8247   19.8118 C   0  0  0  0  0  0
   13.9099  -13.2754   18.8563 O   0  0  0  0  0  0
   14.4899  -13.2938   21.0511 N   0  0  0  0  0  0
   14.0105  -11.9729   21.4727 C   0  0  1  0  0  0
   14.3278  -10.7827   20.5221 C   0  0  0  0  0  0
   13.8126   -9.4460   21.0725 C   0  0  0  0  0  0
   12.3448   -9.5681   21.4885 C   0  0  0  0  0  0
   12.2463  -10.5705   22.5549 N   0  0  0  0  0  0
   12.5938  -11.9387   22.1265 C   0  0  1  0  0  0
   11.6288  -12.5886   21.3229 O   0  0  0  0  0  0
   11.5740  -10.2531   23.7714 C   0  0  0  0  0  0
   11.6163   -9.1228   24.3211 N   0  0  0  0  0  0
   10.8161  -11.2943   24.3214 N   0  0  0  0  0  0
   18.9020  -15.4572   22.7226 N   0  0  0  0  0  0
   20.3802  -15.4382   21.7446 S   0  0  0  0  0  0
   21.2708  -16.4558   22.3105 O   0  0  0  0  0  0
   20.0446  -15.4534   20.3210 O   0  0  0  0  0  0
   21.0932  -13.7388   22.1126 C   0  0  0  0  0  0
   21.3089  -13.5574   23.5999 C   0  0  0  0  0  0
   20.2617  -13.0820   24.3911 C   0  0  0  0  0  0
   20.4182  -13.0073   25.7693 C   0  0  0  0  0  0
   21.6234  -13.3949   26.3428 C   0  0  0  0  0  0
   22.6793  -13.8528   25.5579 C   0  0  0  0  0  0
   22.5211  -13.9366   24.1791 C   0  0  0  0  0  0
   14.6686  -11.7784   22.3192 H   0  0  0  0  0  0
   13.2871  -17.9299   21.7693 H   0  0  0  0  0  0
   13.0603  -16.3484   21.0420 H   0  0  0  0  0  0
   13.7455  -17.6827   20.0949 H   0  0  0  0  0  0
   15.1948  -18.1282   23.1629 H   0  0  0  0  0  0
   17.5052  -17.3885   23.8351 H   0  0  0  0  0  0
   14.4547  -15.8637   19.0732 H   0  0  0  0  0  0
   15.9191  -15.0204   18.7960 H   0  0  0  0  0  0
   14.8960  -13.8596   21.7814 H   0  0  0  0  0  0
   13.8229  -10.9341   19.5684 H   0  0  0  0  0  0
   15.3990  -10.7163   20.3225 H   0  0  0  0  0  0
   13.9113   -8.6631   20.3209 H   0  0  0  0  0  0
   14.4162   -9.1192   21.9213 H   0  0  0  0  0  0
   11.7375   -9.9075   20.6466 H   0  0  0  0  0  0
   11.9436   -8.5988   21.7784 H   0  0  0  0  0  0
   12.6602  -12.5706   23.0143 H   0  0  0  0  0  0
   11.0425  -13.0971   21.8895 H   0  0  0  0  0  0
   12.2069   -8.4830   23.8127 H   0  0  0  0  0  0
   10.1387  -11.0800   25.0479 H   0  0  0  0  0  0
   10.5570  -12.0981   23.7731 H   0  0  0  0  0  0
   19.1185  -15.6737   23.6987 H   0  0  0  0  0  0
   22.0190  -13.6463   21.5479 H   0  0  0  0  0  0
   20.3831  -13.0133   21.7179 H   0  0  0  0  0  0
   19.3209  -12.7970   23.9425 H   0  0  0  0  0  0
   19.6128  -12.6532   26.3937 H   0  0  0  0  0  0
   21.7393  -13.3312   27.4138 H   0  0  0  0  0  0
   23.6104  -14.1505   26.0188 H   0  0  0  0  0  0
   23.3274  -14.3158   23.5692 H   0  0  0  0  0  0
  1  2  1  0  0  0
  1 35  1  0  0  0
  1 36  1  0  0  0
  1 37  1  0  0  0
  2  8  1  0  0  0
  2  3  2  0  0  0
  3  4  1  0  0  0
  3 38  1  0  0  0
  4  5  2  0  0  0
  4 39  1  0  0  0
  5  6  1  0  0  0
  5 23  1  0  0  0
  6  7  2  0  0  0
  6  8  1  0  0  0
  8  9  1  0  0  0
  9 10  1  0  0  0
  9 40  1  0  0  0
  9 41  1  0  0  0
 10 11  2  0  0  0
 10 12  1  0  0  0
 12 13  1  0  0  0
 12 42  1  0  0  0
 13 34  1  0  0  0
 13 18  1  0  0  0
 13 14  1  0  0  0
 14 15  1  0  0  0
 14 43  1  0  0  0
 14 44  1  0  0  0
 15 16  1  0  0  0
 15 45  1  0  0  0
 15 46  1  0  0  0
 16 17  1  0  0  0
 16 47  1  0  0  0
 16 48  1  0  0  0
 17 18  1  0  0  0
 17 20  1  0  0  0
 18 19  1  0  0  0
 18 49  1  0  0  0
 19 50  1  0  0  0
 20 21  2  3  0  0
 20 22  1  0  0  0
 21 51  1  0  0  0
 22 52  1  0  0  0
 22 53  1  0  0  0
 23 24  1  0  0  0
 23 54  1  0  0  0
 24 25  2  0  0  0
 24 26  2  0  0  0
 24 27  1  0  0  0
 27 28  1  0  0  0
 27 55  1  0  0  0
 27 56  1  0  0  0
 28 33  1  0  0  0
 28 29  2  0  0  0
 29 30  1  0  0  0
 29 57  1  0  0  0
 30 31  2  0  0  0
 30 58  1  0  0  0
 31 32  1  0  0  0
 31 59  1  0  0  0
 32 33  2  0  0  0
 32 60  1  0  0  0
 33 61  1  0  0  0
M  END
> <s_m_entry_id>
38035

> <s_m_entry_name>
ligand_docking-pose.382

> <s_m_Source_Path>
/home/csk/Desktop/cluster/DUD-E-result/thrb

> <s_m_Source_File>
ligand_docking-pose.sdf

> <i_m_Source_File_Index>
382

> <i_lp_mmshare_version>
53161

> <i_f3d_flags>
0

> <r_lp_tautomer_probability>
1

> <s_lp_Force_Field>
OPLS_2005

> <r_lp_Energy>
33.723908

> <b_lp_Chiralities_Consistent>
1

> <s_lp_Variant>
57957-2

> <s_i_glide_gridfile>
glide-grid_1ype

> <i_i_glide_lignum>
2803

> <i_i_glide_rotatable_bonds>
10

> <r_i_docking_score>
-6.85715070072017

> <r_i_glide_ligand_efficiency>
-0.207792445476369

> <r_i_glide_ligand_efficiency_sa>
-0.66650140160243

> <r_i_glide_ligand_efficiency_ln>
-1.52499481141399

> <r_i_glide_gscore>
-6.85715070072017

> <r_i_glide_lipo>
-2.99122699466051

> <r_i_glide_hbond>
-0.0898840476112719

> <r_i_glide_metal>
0

> <r_i_glide_rewards>
-1.09721432164414

> <r_i_glide_evdw>
-46.7201232910156

> <r_i_glide_ecoul>
-5.85040855407715

> <r_i_glide_erotb>
0.624192157538962

> <r_i_glide_esite>
-0.0894500466808596

> <r_i_glide_emodel>
-67.3743053578965

> <r_i_glide_energy>
-52.5705318450928

> <r_i_glide_einternal>
14.0772581100464

> <i_i_glide_confnum>
80

> <i_i_glide_posenum>
346

> <r_i_glide_eff_state_penalty>
0

> <s_user_duplicate_titles>
57957

> <s_m_subgroup_title>
dock_pv

> <s_m_subgroupid>
dock_pv1

> <b_m_subgroup_collapsed>
0

$$$$
416177
                    3D
 Schrodinger Suite 2021-1.
 54 56  0  0  1  0            999 V2000
   17.5907  -16.2210   25.5218 C   0  0  0  0  0  0
   18.3289  -15.0703   25.2416 C   0  0  0  0  0  0
   19.7279  -15.1293   25.2363 C   0  0  0  0  0  0
   20.3364  -16.3558   25.5210 C   0  0  0  0  0  0
   19.6336  -17.4832   25.8118 N   0  0  0  0  0  0
   18.2785  -17.4005   25.8089 C   0  0  0  0  0  0
   20.5561  -13.8986   24.9021 C   0  0  0  0  0  0
   21.6810  -13.4589   25.8245 C   0  0  0  0  0  0
   20.4159  -12.6462   25.7530 C   0  0  0  0  0  0
   20.8219  -13.6411   23.4047 C   0  0  0  0  0  0
   19.6038  -13.3649   22.6511 N   0  0  0  0  0  0
   19.6276  -13.0637   21.2793 C   0  0  0  0  0  0
   20.7647  -13.2615   20.4901 C   0  0  0  0  0  0
   20.7653  -12.8939   19.1503 C   0  0  0  0  0  0
   19.6390  -12.3341   18.5629 C   0  0  0  0  0  0
   18.4645  -12.1797   19.3190 C   0  0  0  0  0  0
   18.4814  -12.5184   20.6868 C   0  0  0  0  0  0
   17.3816  -12.2924   21.4526 F   0  0  0  0  0  0
   17.1907  -11.6162   18.6807 C   0  0  0  0  0  0
   15.9542  -12.5048   18.8649 C   0  0  0  0  0  0
   16.0224  -13.7243   18.7321 O   0  0  0  0  0  0
   14.8306  -11.8467   19.1700 N   0  0  0  0  0  0
   13.5502  -12.4503   19.5110 C   0  0  0  0  0  0
   13.3760  -12.5947   21.0348 C   0  0  0  0  0  0
   11.9928  -12.4632   21.3221 O   0  0  0  0  0  0
   11.7901  -12.2439   22.7208 N   0  0  0  0  0  0
   11.5847  -10.9053   23.1402 C   0  0  0  0  0  0
   12.0162   -9.8918   22.5367 N   0  0  0  0  0  0
   10.8167  -10.8247   24.3171 N   0  0  0  0  0  0
   19.7577  -11.8538   16.8999 Cl  0  0  0  0  0  0
   16.5110  -16.1896   25.5199 H   0  0  0  0  0  0
   17.8174  -14.1439   25.0224 H   0  0  0  0  0  0
   21.4126  -16.4505   25.5234 H   0  0  0  0  0  0
   17.7423  -18.3085   26.0378 H   0  0  0  0  0  0
   21.8750  -14.0511   26.7194 H   0  0  0  0  0  0
   22.5992  -13.0540   25.3963 H   0  0  0  0  0  0
   20.4160  -11.6730   25.2598 H   0  0  0  0  0  0
   19.7364  -12.6670   26.6057 H   0  0  0  0  0  0
   21.3342  -14.4976   22.9640 H   0  0  0  0  0  0
   21.5018  -12.8005   23.2737 H   0  0  0  0  0  0
   18.7894  -13.0730   23.1728 H   0  0  0  0  0  0
   21.6594  -13.6972   20.9045 H   0  0  0  0  0  0
   21.6380  -13.0529   18.5456 H   0  0  0  0  0  0
   17.2910  -11.4552   17.6082 H   0  0  0  0  0  0
   17.0154  -10.6381   19.1241 H   0  0  0  0  0  0
   14.8799  -10.8423   19.2268 H   0  0  0  0  0  0
   13.4233  -13.4203   19.0214 H   0  0  0  0  0  0
   12.7714  -11.8061   19.0980 H   0  0  0  0  0  0
   13.9522  -11.8211   21.5489 H   0  0  0  0  0  0
   13.7573  -13.5556   21.3810 H   0  0  0  0  0  0
   11.2216  -13.0109   23.0718 H   0  0  0  0  0  0
   12.5190  -10.1906   21.7175 H   0  0  0  0  0  0
   10.3992   -9.9326   24.5394 H   0  0  0  0  0  0
   10.1614  -11.5709   24.5130 H   0  0  0  0  0  0
  1  6  1  0  0  0
  1  2  2  0  0  0
  1 31  1  0  0  0
  2  3  1  0  0  0
  2 32  1  0  0  0
  3  4  2  0  0  0
  3  7  1  0  0  0
  4  5  1  0  0  0
  4 33  1  0  0  0
  5  6  2  0  0  0
  6 34  1  0  0  0
  7  9  1  0  0  0
  7  8  1  0  0  0
  7 10  1  0  0  0
  8  9  1  0  0  0
  8 35  1  0  0  0
  8 36  1  0  0  0
  9 37  1  0  0  0
  9 38  1  0  0  0
 10 11  1  0  0  0
 10 39  1  0  0  0
 10 40  1  0  0  0
 11 12  1  0  0  0
 11 41  1  0  0  0
 12 17  1  0  0  0
 12 13  2  0  0  0
 13 14  1  0  0  0
 13 42  1  0  0  0
 14 15  2  0  0  0
 14 43  1  0  0  0
 15 16  1  0  0  0
 15 30  1  0  0  0
 16 17  2  0  0  0
 16 19  1  0  0  0
 17 18  1  0  0  0
 19 20  1  0  0  0
 19 44  1  0  0  0
 19 45  1  0  0  0
 20 21  2  0  0  0
 20 22  1  0  0  0
 22 23  1  0  0  0
 22 46  1  0  0  0
 23 24  1  0  0  0
 23 47  1  0  0  0
 23 48  1  0  0  0
 24 25  1  0  0  0
 24 49  1  0  0  0
 24 50  1  0  0  0
 25 26  1  0  0  0
 26 27  1  0  0  0
 26 51  1  0  0  0
 27 28  2  3  0  0
 27 29  1  0  0  0
 28 52  1  0  0  0
 29 53  1  0  0  0
 29 54  1  0  0  0
M  END
> <s_m_entry_id>
38037

> <s_m_entry_name>
ligand_docking-pose.384

> <s_m_Source_Path>
/home/csk/Desktop/cluster/DUD-E-result/thrb

> <s_m_Source_File>
ligand_docking-pose.sdf

> <i_m_Source_File_Index>
384

> <i_lp_mmshare_version>
53161

> <i_f3d_flags>
0

> <r_lp_tautomer_probability>
1

> <s_lp_Force_Field>
OPLS_2005

> <r_lp_Energy>
15.021855

> <b_lp_Chiralities_Consistent>
1

> <s_lp_Variant>
416177-2

> <s_i_glide_gridfile>
glide-grid_1ype

> <i_i_glide_lignum>
1927

> <i_i_glide_rotatable_bonds>
12

> <r_i_docking_score>
-6.85378028820859

> <r_i_glide_ligand_efficiency>
-0.228459342940286

> <r_i_glide_ligand_efficiency_sa>
-0.709876295868108

> <r_i_glide_ligand_efficiency_ln>
-1.55725355939846

> <r_i_glide_gscore>
-6.85378028820859

> <r_i_glide_lipo>
-2.87232661042469

> <r_i_glide_hbond>
-0.484787320732439

> <r_i_glide_metal>
0

> <r_i_glide_rewards>
-1.03363447049913

> <r_i_glide_evdw>
-45.4733200073242

> <r_i_glide_ecoul>
-9.09998893737793

> <r_i_glide_erotb>
1.26384841369353

> <r_i_glide_esite>
-0.0882159592729621

> <r_i_glide_emodel>
-74.2349033835659

> <r_i_glide_energy>
-54.5733089447021

> <r_i_glide_einternal>
8.32960414886475

> <i_i_glide_confnum>
8

> <i_i_glide_posenum>
291

> <r_i_glide_eff_state_penalty>
0

> <s_user_duplicate_titles>
416177

> <s_m_subgroup_title>
dock_pv

> <s_m_subgroupid>
dock_pv1

> <b_m_subgroup_collapsed>
0

$$$$
32732
                    3D
 Schrodinger Suite 2021-1.
 49 51  0  0  1  0            999 V2000
   21.0027  -12.5154   18.5571 C   0  0  0  0  0  0
   20.0309  -12.5979   19.7177 C   0  0  0  0  0  0
   20.4125  -13.2332   20.9024 C   0  0  0  0  0  0
   19.5639  -13.2599   22.0083 C   0  0  0  0  0  0
   18.2930  -12.6703   21.9006 C   0  0  0  0  0  0
   17.8931  -12.0485   20.7169 C   0  0  0  0  0  0
   18.7665  -12.0101   19.6300 C   0  0  0  0  0  0
   16.6518  -11.4764   20.6338 O   0  0  0  0  0  0
   15.4564  -12.3607   19.8658 S   0  0  0  0  0  0
   15.3192  -11.8531   18.4965 O   0  0  0  0  0  0
   15.6796  -13.7848   20.1503 O   0  0  0  0  0  0
   14.0184  -11.8116   20.8101 C   0  0  0  0  0  0
   14.0159  -10.5087   21.3271 C   0  0  0  0  0  0
   12.9677  -10.0646   22.1319 C   0  0  0  0  0  0
   11.9155  -10.9215   22.4375 C   0  0  0  0  0  0
   11.8906  -12.2090   21.9061 C   0  0  0  0  0  0
   12.9143  -12.6583   21.0592 C   0  0  0  0  0  0
   12.7732  -13.9853   20.4257 N   0  3  0  0  0  0
   12.4159  -14.9290   21.1226 O   0  5  0  0  0  0
   12.9751  -14.0723   19.2185 O   0  0  0  0  0  0
   20.0397  -13.8523   23.1620 O   0  0  0  0  0  0
   19.5576  -13.3597   24.4118 C   0  0  0  0  0  0
   20.3839  -13.8906   25.5917 C   0  0  0  0  0  0
   21.7766  -13.4547   25.5542 N   0  0  0  0  0  0
   22.7845  -14.2029   24.9299 C   0  0  0  0  0  0
   22.6273  -15.5331   24.5136 C   0  0  0  0  0  0
   23.7120  -16.1887   23.9236 C   0  0  0  0  0  0
   24.9127  -15.5922   23.7264 N   0  0  0  0  0  0
   25.0493  -14.3048   24.1262 C   0  0  0  0  0  0
   24.0160  -13.5798   24.7211 C   0  0  0  0  0  0
   20.7447  -11.7119   17.8672 H   0  0  0  0  0  0
   22.0102  -12.3065   18.9239 H   0  0  0  0  0  0
   21.0330  -13.4587   18.0108 H   0  0  0  0  0  0
   21.3926  -13.6852   20.9813 H   0  0  0  0  0  0
   17.5973  -12.6948   22.7205 H   0  0  0  0  0  0
   18.4473  -11.5232   18.7215 H   0  0  0  0  0  0
   14.8410   -9.8418   21.1239 H   0  0  0  0  0  0
   12.9826   -9.0629   22.5365 H   0  0  0  0  0  0
   11.1037  -10.5896   23.0694 H   0  0  0  0  0  0
   11.0463  -12.8470   22.1236 H   0  0  0  0  0  0
   18.5173  -13.6564   24.5494 H   0  0  0  0  0  0
   19.6150  -12.2678   24.4243 H   0  0  0  0  0  0
   20.2899  -14.9720   25.6621 H   0  0  0  0  0  0
   19.9588  -13.5237   26.5270 H   0  0  0  0  0  0
   21.9517  -12.4698   25.6982 H   0  0  0  0  0  0
   21.7032  -16.0684   24.6356 H   0  0  0  0  0  0
   23.6246  -17.2140   23.5975 H   0  0  0  0  0  0
   26.0160  -13.8544   23.9679 H   0  0  0  0  0  0
   24.1836  -12.5581   25.0269 H   0  0  0  0  0  0
  1  2  1  0  0  0
  1 31  1  0  0  0
  1 32  1  0  0  0
  1 33  1  0  0  0
  2  7  1  0  0  0
  2  3  2  0  0  0
  3  4  1  0  0  0
  3 34  1  0  0  0
  4  5  2  0  0  0
  4 21  1  0  0  0
  5  6  1  0  0  0
  5 35  1  0  0  0
  6  7  2  0  0  0
  6  8  1  0  0  0
  7 36  1  0  0  0
  8  9  1  0  0  0
  9 10  2  0  0  0
  9 11  2  0  0  0
  9 12  1  0  0  0
 12 17  1  0  0  0
 12 13  2  0  0  0
 13 14  1  0  0  0
 13 37  1  0  0  0
 14 15  2  0  0  0
 14 38  1  0  0  0
 15 16  1  0  0  0
 15 39  1  0  0  0
 16 17  2  0  0  0
 16 40  1  0  0  0
 17 18  1  0  0  0
 18 19  1  0  0  0
 18 20  2  0  0  0
 21 22  1  0  0  0
 22 23  1  0  0  0
 22 41  1  0  0  0
 22 42  1  0  0  0
 23 24  1  0  0  0
 23 43  1  0  0  0
 23 44  1  0  0  0
 24 25  1  0  0  0
 24 45  1  0  0  0
 25 30  1  0  0  0
 25 26  2  0  0  0
 26 27  1  0  0  0
 26 46  1  0  0  0
 27 28  2  0  0  0
 27 47  1  0  0  0
 28 29  1  0  0  0
 29 30  2  0  0  0
 29 48  1  0  0  0
 30 49  1  0  0  0
M  CHG  2  18   1  19  -1
M  END
> <s_m_entry_id>
38038

> <s_m_entry_name>
ligand_docking-pose.385

> <s_m_Source_Path>
/home/csk/Desktop/cluster/DUD-E-result/thrb

> <s_m_Source_File>
ligand_docking-pose.sdf

> <i_m_Source_File_Index>
385

> <i_lp_mmshare_version>
53161

> <i_f3d_flags>
0

> <r_lp_tautomer_probability>
0.999999106000799

> <s_lp_Force_Field>
OPLS_2005

> <r_lp_Energy>
17.53192

> <b_lp_Chiralities_Consistent>
1

> <s_lp_Variant>
32732-1

> <s_i_glide_gridfile>
glide-grid_1ype

> <i_i_glide_lignum>
2503

> <i_i_glide_rotatable_bonds>
9

> <r_i_docking_score>
-6.85220697031245

> <r_i_glide_ligand_efficiency>
-0.228406899010415

> <r_i_glide_ligand_efficiency_sa>
-0.709713340384656

> <r_i_glide_ligand_efficiency_ln>
-1.55689608442979

> <r_i_glide_gscore>
-6.85220697031245

> <r_i_glide_lipo>
-3.70686264903565

> <r_i_glide_hbond>
-0.176607545650347

> <r_i_glide_metal>
0

> <r_i_glide_rewards>
-0.781210498275556

> <r_i_glide_evdw>
-49.5380249023438

> <r_i_glide_ecoul>
-3.09935307502747

> <r_i_glide_erotb>
0.754277929020414

> <r_i_glide_esite>
0

> <r_i_glide_emodel>
-70.4124290542631

> <r_i_glide_energy>
-52.6373779773712

> <r_i_glide_einternal>
9.00749683380127

> <i_i_glide_confnum>
18

> <i_i_glide_posenum>
382

> <r_i_glide_eff_state_penalty>
0

> <s_user_duplicate_titles>
32732

> <s_m_subgroup_title>
dock_pv

> <s_m_subgroupid>
dock_pv1

> <b_m_subgroup_collapsed>
0

$$$$
276263
                    3D
 Schrodinger Suite 2021-1.
 68 72  0  0  1  0            999 V2000
   19.9794  -11.9881   19.4860 C   0  0  0  0  0  0
   18.8990  -11.5146   20.2269 C   0  0  0  0  0  0
   18.4859  -12.1959   21.3630 C   0  0  0  0  0  0
   19.1442  -13.3648   21.7576 C   0  0  0  0  0  0
   20.2156  -13.8491   20.9946 C   0  0  0  0  0  0
   20.6361  -13.1533   19.8651 C   0  0  0  0  0  0
   18.6502  -14.1212   22.9994 C   0  0  0  0  0  0
   19.7913  -14.3680   24.0077 C   0  0  0  0  0  0
   20.0159  -13.4359   25.0285 C   0  0  0  0  0  0
   21.0816  -13.5873   25.9097 C   0  0  0  0  0  0
   21.9268  -14.6867   25.7787 C   0  0  0  0  0  0
   21.7034  -15.6390   24.7892 C   0  0  0  0  0  0
   20.6357  -15.4806   23.9049 C   0  0  0  0  0  0
   17.8158  -15.3974   22.6147 C   0  0  2  0  0  0
   16.6147  -15.0889   21.6608 C   0  0  0  0  0  0
   16.0396  -14.0021   21.7733 O   0  0  0  0  0  0
   16.2312  -16.0404   20.7672 N   0  0  0  0  0  0
   16.9411  -17.2964   20.5080 C   0  0  0  0  0  0
   16.3083  -17.8734   19.2474 C   0  0  0  0  0  0
   14.8889  -17.3450   19.3004 C   0  0  0  0  0  0
   15.0263  -15.9376   19.9074 C   0  0  1  0  0  0
   13.7365  -15.5097   20.6395 C   0  0  0  0  0  0
   13.3333  -16.1704   21.5979 O   0  0  0  0  0  0
   13.1499  -14.3883   20.1855 N   0  0  0  0  0  0
   12.0431  -13.7098   20.8588 C   0  0  0  0  0  0
   12.5000  -12.4419   21.6238 C   0  0  1  0  0  0
   12.8879  -11.2935   20.6538 C   0  0  0  0  0  0
   13.5608  -10.1154   21.3836 C   0  0  0  0  0  0
   12.7270   -9.7618   22.6090 C   0  0  0  0  0  0
   11.7326  -10.6009   23.1506 C   0  0  0  0  0  0
   11.2997   -9.9345   24.2825 C   0  0  0  0  0  0
   12.0152   -8.7704   24.3198 N   0  0  0  0  0  0
   12.8651   -8.6530   23.2981 N   0  0  0  0  0  0
   11.3869  -11.9693   22.5938 C   0  0  0  0  0  0
   17.2165  -16.0411   23.8016 N   0  0  0  0  0  0
   18.5031  -16.0872   22.1300 H   0  0  0  0  0  0
   15.2651  -15.2246   19.1150 H   0  0  0  0  0  0
   11.9280   -8.0600   25.0292 H   0  0  0  0  0  0
   20.3125  -11.4560   18.6056 H   0  0  0  0  0  0
   18.3720  -10.6250   19.9275 H   0  0  0  0  0  0
   17.6432  -11.8200   21.9262 H   0  0  0  0  0  0
   20.7335  -14.7572   21.2694 H   0  0  0  0  0  0
   21.4683  -13.5169   19.2812 H   0  0  0  0  0  0
   17.9541  -13.4539   23.5159 H   0  0  0  0  0  0
   19.3745  -12.5764   25.1309 H   0  0  0  0  0  0
   21.2544  -12.8538   26.6841 H   0  0  0  0  0  0
   22.7617  -14.8030   26.4561 H   0  0  0  0  0  0
   22.3601  -16.4932   24.7000 H   0  0  0  0  0  0
   20.4917  -16.2177   23.1287 H   0  0  0  0  0  0
   18.0123  -17.1650   20.3433 H   0  0  0  0  0  0
   16.7960  -17.9682   21.3565 H   0  0  0  0  0  0
   16.8132  -17.4669   18.3686 H   0  0  0  0  0  0
   16.3670  -18.9600   19.1946 H   0  0  0  0  0  0
   14.4142  -17.3349   18.3187 H   0  0  0  0  0  0
   14.2907  -17.9937   19.9438 H   0  0  0  0  0  0
   13.5393  -13.9288   19.3757 H   0  0  0  0  0  0
   11.2955  -13.4373   20.1114 H   0  0  0  0  0  0
   11.4980  -14.3850   21.5205 H   0  0  0  0  0  0
   13.3555  -12.7405   22.2338 H   0  0  0  0  0  0
   13.5794  -11.6654   19.8976 H   0  0  0  0  0  0
   12.0162  -10.9683   20.0844 H   0  0  0  0  0  0
   14.5657  -10.4080   21.6846 H   0  0  0  0  0  0
   13.6641   -9.2583   20.7162 H   0  0  0  0  0  0
   10.5630  -10.1878   25.0362 H   0  0  0  0  0  0
   10.4161  -11.9445   22.1058 H   0  0  0  0  0  0
   11.2900  -12.6527   23.4312 H   0  0  0  0  0  0
   16.5850  -15.3979   24.2721 H   0  0  0  0  0  0
   16.6599  -16.8460   23.5476 H   0  0  0  0  0  0
  1  6  1  0  0  0
  1  2  2  0  0  0
  1 39  1  0  0  0
  2  3  1  0  0  0
  2 40  1  0  0  0
  3  4  2  0  0  0
  3 41  1  0  0  0
  4  5  1  0  0  0
  4  7  1  0  0  0
  5  6  2  0  0  0
  5 42  1  0  0  0
  6 43  1  0  0  0
  7  8  1  0  0  0
  7 14  1  0  0  0
  7 44  1  0  0  0
  8 13  1  0  0  0
  8  9  2  0  0  0
  9 10  1  0  0  0
  9 45  1  0  0  0
 10 11  2  0  0  0
 10 46  1  0  0  0
 11 12  1  0  0  0
 11 47  1  0  0  0
 12 13  2  0  0  0
 12 48  1  0  0  0
 13 49  1  0  0  0
 14 36  1  0  0  0
 14 15  1  0  0  0
 14 35  1  0  0  0
 15 16  2  0  0  0
 15 17  1  0  0  0
 17 21  1  0  0  0
 17 18  1  0  0  0
 18 19  1  0  0  0
 18 50  1  0  0  0
 18 51  1  0  0  0
 19 20  1  0  0  0
 19 52  1  0  0  0
 19 53  1  0  0  0
 20 21  1  0  0  0
 20 54  1  0  0  0
 20 55  1  0  0  0
 21 37  1  0  0  0
 21 22  1  0  0  0
 22 23  2  0  0  0
 22 24  1  0  0  0
 24 25  1  0  0  0
 24 56  1  0  0  0
 25 26  1  0  0  0
 25 57  1  0  0  0
 25 58  1  0  0  0
 26 34  1  0  0  0
 26 27  1  0  0  0
 26 59  1  0  0  0
 27 28  1  0  0  0
 27 60  1  0  0  0
 27 61  1  0  0  0
 28 29  1  0  0  0
 28 62  1  0  0  0
 28 63  1  0  0  0
 29 33  2  0  0  0
 29 30  1  0  0  0
 30 31  2  0  0  0
 30 34  1  0  0  0
 31 32  1  0  0  0
 31 64  1  0  0  0
 32 38  1  0  0  0
 32 33  1  0  0  0
 34 65  1  0  0  0
 34 66  1  0  0  0
 35 67  1  0  0  0
 35 68  1  0  0  0
M  END
> <s_m_entry_id>
38039

> <s_m_entry_name>
ligand_docking-pose.386

> <s_m_Source_Path>
/home/csk/Desktop/cluster/DUD-E-result/thrb

> <s_m_Source_File>
ligand_docking-pose.sdf

> <i_m_Source_File_Index>
386

> <i_lp_mmshare_version>
53161

> <i_f3d_flags>
0

> <r_lp_tautomer_probability>
0.5

> <s_lp_Force_Field>
OPLS_2005

> <r_lp_Energy>
33.67077

> <b_lp_Chiralities_Consistent>
1

> <s_lp_Variant>
276263-2

> <s_i_glide_gridfile>
glide-grid_1ype

> <i_i_glide_lignum>
701

> <i_i_glide_rotatable_bonds>
9

> <r_i_docking_score>
-6.85207353987405

> <r_i_glide_ligand_efficiency>
-0.195773529710687

> <r_i_glide_ligand_efficiency_sa>
-0.640388196704399

> <r_i_glide_ligand_efficiency_ln>
-1.50418221558106

> <r_i_glide_gscore>
-6.85207353987405

> <r_i_glide_lipo>
-3.75841739696509

> <r_i_glide_hbond>
-0.32

> <r_i_glide_metal>
0

> <r_i_glide_rewards>
-0.438621164360167

> <r_i_glide_evdw>
-48.7885780334473

> <r_i_glide_ecoul>
-4.09481716156006

> <r_i_glide_erotb>
0.727110260944015

> <r_i_glide_esite>
-0.00849376358643662

> <r_i_glide_emodel>
-71.8798962945211

> <r_i_glide_energy>
-52.8833951950073

> <r_i_glide_einternal>
5.23190402984619

> <i_i_glide_confnum>
35

> <i_i_glide_posenum>
211

> <r_i_glide_eff_state_penalty>
0

> <s_user_duplicate_titles>
276263

> <s_m_subgroup_title>
dock_pv

> <s_m_subgroupid>
dock_pv1

> <b_m_subgroup_collapsed>
0

$$$$
276063
                    3D
 Schrodinger Suite 2021-1.
 77 81  0  0  1  0            999 V2000
   13.4213  -14.7520   20.2267 B   0  0  0  0  0  0
   13.7928  -16.0204   20.5937 O   0  0  0  0  0  0
   13.8281  -16.8264   19.4288 C   0  0  2  0  0  0
   15.2890  -17.2959   19.0998 C   0  0  0  0  0  0
   15.7791  -16.8487   17.6857 C   0  0  2  0  0  0
   15.5187  -15.3450   17.5120 C   0  0  0  0  0  0
   14.0895  -15.7618   17.0625 C   0  0  2  0  0  0
   13.1584  -15.9571   18.3137 C   0  0  2  0  0  0
   13.0459  -14.6782   18.9095 O   0  0  0  0  0  0
   11.7096  -16.3911   17.9798 C   0  0  0  0  0  0
   14.7524  -17.0739   16.5369 C   0  0  0  0  0  0
   15.3328  -16.9411   15.1005 C   0  0  0  0  0  0
   13.9289  -18.3848   16.5774 C   0  0  0  0  0  0
   13.3916  -13.4990   21.2034 C   0  0  2  0  0  0
   12.1159  -12.6351   20.9478 C   0  0  0  0  0  0
   12.2237  -11.1079   21.1150 C   0  0  0  0  0  0
   12.3647  -10.6201   22.5578 C   0  0  0  0  0  0
   12.5134   -9.0950   22.5873 C   0  0  0  0  0  0
   12.4164   -8.6187   23.9438 N   0  0  0  0  0  0
   14.6464  -12.7149   21.2142 N   0  0  0  0  0  0
   15.9213  -13.1402   21.0877 C   0  0  0  0  0  0
   16.2380  -14.3159   20.9147 O   0  0  0  0  0  0
   17.0141  -12.0724   21.2626 C   0  0  0  0  0  0
   18.3356  -12.4427   20.7486 N   0  0  0  0  0  0
   19.3037  -13.2509   21.2961 C   0  0  0  0  0  0
   20.3144  -13.3244   20.4644 N   0  0  0  0  0  0
   19.9277  -12.5832   19.4374 C   0  0  0  0  0  0
   18.7379  -12.0205   19.5446 N   0  0  0  0  0  0
   20.8398  -12.4307   18.2264 C   0  0  0  0  0  0
   20.1657  -11.8531   17.1224 O   0  0  0  0  0  0
   19.1825  -14.0137   22.6119 C   0  0  0  0  0  0
   20.3144  -13.8026   23.6199 C   0  0  0  0  0  0
   21.6387  -14.1065   23.2834 C   0  0  0  0  0  0
   22.6519  -13.9757   24.2312 C   0  0  0  0  0  0
   22.3393  -13.5493   25.5195 C   0  0  0  0  0  0
   21.0262  -13.2393   25.8657 C   0  0  0  0  0  0
   20.0162  -13.3710   24.9167 C   0  0  0  0  0  0
   13.2236  -17.7050   19.6581 H   0  0  0  0  0  0
   16.7952  -17.1988   17.5099 H   0  0  0  0  0  0
   13.6162  -15.1092   16.3224 H   0  0  0  0  0  0
   13.2977  -13.8956   22.2179 H   0  0  0  0  0  0
   15.9793  -16.9127   19.8536 H   0  0  0  0  0  0
   15.3554  -18.3785   19.2103 H   0  0  0  0  0  0
   15.6210  -14.7083   18.3907 H   0  0  0  0  0  0
   16.1242  -14.8417   16.7581 H   0  0  0  0  0  0
   11.6424  -17.4483   17.7356 H   0  0  0  0  0  0
   11.0340  -16.2264   18.8196 H   0  0  0  0  0  0
   11.3084  -15.8530   17.1227 H   0  0  0  0  0  0
   14.5291  -16.8874   14.3618 H   0  0  0  0  0  0
   15.9449  -16.0538   14.9543 H   0  0  0  0  0  0
   15.9614  -17.7973   14.8487 H   0  0  0  0  0  0
   13.0549  -18.3092   15.9303 H   0  0  0  0  0  0
   14.5263  -19.2247   16.2260 H   0  0  0  0  0  0
   13.5719  -18.6647   17.5640 H   0  0  0  0  0  0
   11.7602  -12.7925   19.9286 H   0  0  0  0  0  0
   11.2980  -13.0159   21.5647 H   0  0  0  0  0  0
   13.0342  -10.7199   20.4962 H   0  0  0  0  0  0
   11.3189  -10.6478   20.7207 H   0  0  0  0  0  0
   11.4776  -10.9217   23.1227 H   0  0  0  0  0  0
   13.2156  -11.0935   23.0393 H   0  0  0  0  0  0
   13.4643   -8.7906   22.1529 H   0  0  0  0  0  0
   11.7220   -8.6364   21.9964 H   0  0  0  0  0  0
   13.1192   -9.0481   24.5369 H   0  0  0  0  0  0
   12.5627   -7.6214   23.9976 H   0  0  0  0  0  0
   14.5238  -11.7625   21.5222 H   0  0  0  0  0  0
   16.7102  -11.1393   20.7832 H   0  0  0  0  0  0
   17.1281  -11.8557   22.3208 H   0  0  0  0  0  0
   21.7116  -11.8225   18.4685 H   0  0  0  0  0  0
   21.2161  -13.4047   17.9149 H   0  0  0  0  0  0
   19.3435  -12.3400   17.0161 H   0  0  0  0  0  0
   18.2203  -13.8315   23.0921 H   0  0  0  0  0  0
   19.1754  -15.0780   22.3724 H   0  0  0  0  0  0
   21.8884  -14.4622   22.2949 H   0  0  0  0  0  0
   23.6718  -14.2197   23.9743 H   0  0  0  0  0  0
   23.1239  -13.4674   26.2578 H   0  0  0  0  0  0
   20.7911  -12.9079   26.8666 H   0  0  0  0  0  0
   18.9991  -13.1497   25.2032 H   0  0  0  0  0  0
  1  9  1  0  0  0
  1  2  1  0  0  0
  1 14  1  0  0  0
  2  3  1  0  0  0
  3 38  1  0  0  0
  3  8  1  0  0  0
  3  4  1  0  0  0
  4  5  1  0  0  0
  4 42  1  0  0  0
  4 43  1  0  0  0
  5 39  1  0  0  0
  5 11  1  0  0  0
  5  6  1  0  0  0
  6  7  1  0  0  0
  6 44  1  0  0  0
  6 45  1  0  0  0
  7 40  1  0  0  0
  7  8  1  0  0  0
  7 11  1  0  0  0
  8  9  1  0  0  0
  8 10  1  0  0  0
 10 46  1  0  0  0
 10 47  1  0  0  0
 10 48  1  0  0  0
 11 12  1  0  0  0
 11 13  1  0  0  0
 12 49  1  0  0  0
 12 50  1  0  0  0
 12 51  1  0  0  0
 13 52  1  0  0  0
 13 53  1  0  0  0
 13 54  1  0  0  0
 14 41  1  0  0  0
 14 15  1  0  0  0
 14 20  1  0  0  0
 15 16  1  0  0  0
 15 55  1  0  0  0
 15 56  1  0  0  0
 16 17  1  0  0  0
 16 57  1  0  0  0
 16 58  1  0  0  0
 17 18  1  0  0  0
 17 59  1  0  0  0
 17 60  1  0  0  0
 18 19  1  0  0  0
 18 61  1  0  0  0
 18 62  1  0  0  0
 19 63  1  0  0  0
 19 64  1  0  0  0
 20 21  1  0  0  0
 20 65  1  0  0  0
 21 22  2  0  0  0
 21 23  1  0  0  0
 23 24  1  0  0  0
 23 66  1  0  0  0
 23 67  1  0  0  0
 24 28  1  0  0  0
 24 25  1  0  0  0
 25 26  2  0  0  0
 25 31  1  0  0  0
 26 27  1  0  0  0
 27 28  2  0  0  0
 27 29  1  0  0  0
 29 30  1  0  0  0
 29 68  1  0  0  0
 29 69  1  0  0  0
 30 70  1  0  0  0
 31 32  1  0  0  0
 31 71  1  0  0  0
 31 72  1  0  0  0
 32 37  1  0  0  0
 32 33  2  0  0  0
 33 34  1  0  0  0
 33 73  1  0  0  0
 34 35  2  0  0  0
 34 74  1  0  0  0
 35 36  1  0  0  0
 35 75  1  0  0  0
 36 37  2  0  0  0
 36 76  1  0  0  0
 37 77  1  0  0  0
M  END
> <s_m_entry_id>
38040

> <s_m_entry_name>
ligand_docking-pose.387

> <s_m_Source_Path>
/home/csk/Desktop/cluster/DUD-E-result/thrb

> <s_m_Source_File>
ligand_docking-pose.sdf

> <i_m_Source_File_Index>
387

> <i_lp_mmshare_version>
53161

> <i_f3d_flags>
0

> <r_lp_tautomer_probability>
1

> <s_lp_Force_Field>
OPLS_2005

> <r_lp_Energy>
50.269237

> <b_lp_Chiralities_Consistent>
1

> <s_lp_Variant>
276063-1

> <s_i_glide_gridfile>
glide-grid_1ype

> <i_i_glide_lignum>
74

> <i_i_glide_rotatable_bonds>
13

> <r_i_docking_score>
-6.85179312290636

> <r_i_glide_ligand_efficiency>
-0.185183597916388

> <r_i_glide_ligand_efficiency_sa>
-0.617072830800673

> <r_i_glide_ligand_efficiency_ln>
-1.48599329953741

> <r_i_glide_gscore>
-6.85179312290636

> <r_i_glide_lipo>
-3.26589885024914

> <r_i_glide_hbond>
-0.32

> <r_i_glide_metal>
0

> <r_i_glide_rewards>
-1.09718917400516

> <r_i_glide_evdw>
-50.6041679382324

> <r_i_glide_ecoul>
-3.37666583061218

> <r_i_glide_erotb>
0.868003172851383

> <r_i_glide_esite>
0

> <r_i_glide_emodel>
-69.1338323084139

> <r_i_glide_energy>
-53.9808337688446

> <r_i_glide_einternal>
12.0357961654663

> <i_i_glide_confnum>
103

> <i_i_glide_posenum>
191

> <r_i_glide_eff_state_penalty>
0

> <s_user_duplicate_titles>
276063

> <s_m_subgroup_title>
dock_pv

> <s_m_subgroupid>
dock_pv1

> <b_m_subgroup_collapsed>
0

$$$$
61180
                    3D
 Schrodinger Suite 2021-1.
 74 78  0  0  1  0            999 V2000
   14.8281  -11.5698   19.8861 B   0  0  0  0  0  0
   13.6776  -11.1363   19.2900 O   0  0  0  0  0  0
   12.6540  -11.1439   20.2556 C   0  0  2  0  0  0
   12.0157   -9.7346   20.3756 C   0  0  0  0  0  0
   12.0005   -9.1618   21.7794 C   0  0  1  0  0  0
   11.5148  -10.2541   22.7342 C   0  0  0  0  0  0
   12.9981  -10.6328   22.7644 C   0  0  1  0  0  0
   13.3147  -11.6272   21.5792 C   0  0  2  0  0  0
   14.6947  -11.6651   21.2581 O   0  0  0  0  0  0
   12.9369  -13.0852   21.9162 C   0  0  0  0  0  0
   13.3057   -9.1052   22.5395 C   0  0  0  0  0  0
   14.5092   -8.6581   21.6912 C   0  0  0  0  0  0
   13.2079   -8.1729   23.7852 C   0  0  0  0  0  0
   16.2005  -11.6866   19.1112 C   0  0  2  0  0  0
   16.0563  -12.3492   17.7103 C   0  0  0  0  0  0
   15.7131  -11.3566   16.5768 C   0  0  0  0  0  0
   15.8285  -11.9771   15.1711 C   0  0  0  0  0  0
   15.4385  -10.9919   14.1720 N   0  0  0  0  0  0
   14.8178  -11.3632   13.1256 C   0  0  0  0  0  0
   14.8207  -12.6522   12.5587 N   0  0  0  0  0  0
   14.0415  -10.4842   12.3597 N   0  0  0  0  0  0
   17.1738  -12.3545   19.9787 N   0  0  0  0  0  0
   18.5031  -12.3800   19.8061 C   0  0  0  0  0  0
   19.0349  -11.9045   18.8000 O   0  0  0  0  0  0
   19.3546  -12.9924   20.9027 C   0  0  0  0  0  0
   20.7458  -13.0099   20.7218 C   0  0  0  0  0  0
   21.6149  -13.4523   21.6561 N   0  0  0  0  0  0
   21.0898  -13.9451   22.8028 C   0  0  0  0  0  0
   19.7595  -14.0115   23.0774 N   0  0  0  0  0  0
   18.8967  -13.5315   22.1368 C   0  0  0  0  0  0
   17.4353  -13.6441   22.5652 C   0  0  0  0  0  0
   22.0607  -14.5036   23.7968 C   0  0  0  0  0  0
   21.6831  -15.5364   24.6673 C   0  0  0  0  0  0
   22.6124  -16.1198   25.5234 C   0  0  0  0  0  0
   23.9273  -15.6647   25.5272 C   0  0  0  0  0  0
   24.3169  -14.6150   24.7029 C   0  0  0  0  0  0
   23.3858  -14.0366   23.8474 C   0  0  0  0  0  0
   11.8991  -11.8566   19.9228 H   0  0  0  0  0  0
   16.5305  -10.6524   19.0066 H   0  0  0  0  0  0
   12.3481   -9.0223   19.6182 H   0  0  0  0  0  0
   10.9450   -9.8352   20.3210 H   0  0  0  0  0  0
   11.4851   -8.2529   21.7370 H   0  0  0  0  0  0
   11.0728   -9.9189   23.6747 H   0  0  0  0  0  0
   10.8153  -11.0040   22.3670 H   0  0  0  0  0  0
   13.2159  -11.0534   23.7122 H   0  0  0  0  0  0
   11.8967  -13.1592   22.2297 H   0  0  0  0  0  0
   13.0700  -13.7464   21.0586 H   0  0  0  0  0  0
   13.5544  -13.4784   22.7210 H   0  0  0  0  0  0
   15.3532   -9.2797   21.9194 H   0  0  0  0  0  0
   14.3603   -8.7241   20.6204 H   0  0  0  0  0  0
   14.8160   -7.6472   21.9210 H   0  0  0  0  0  0
   14.0622   -8.2528   24.4172 H   0  0  0  0  0  0
   13.2164   -7.1203   23.5216 H   0  0  0  0  0  0
   12.3365   -8.3413   24.4160 H   0  0  0  0  0  0
   16.9821  -12.8605   17.4413 H   0  0  0  0  0  0
   15.2999  -13.1360   17.7479 H   0  0  0  0  0  0
   14.7030  -10.9732   16.7282 H   0  0  0  0  0  0
   16.3788  -10.4937   16.6348 H   0  0  0  0  0  0
   16.8656  -12.2676   14.9952 H   0  0  0  0  0  0
   15.2243  -12.8898   15.1347 H   0  0  0  0  0  0
   15.2310  -13.3802   13.1215 H   0  0  0  0  0  0
   13.9327  -12.9810   12.2040 H   0  0  0  0  0  0
   14.2563   -9.5074   12.5048 H   0  0  0  0  0  0
   14.0126  -10.6655   11.3689 H   0  0  0  0  0  0
   16.8112  -12.6864   20.8586 H   0  0  0  0  0  0
   21.2087  -12.6287   19.8227 H   0  0  0  0  0  0
   16.8655  -14.2408   21.8530 H   0  0  0  0  0  0
   17.3233  -14.1333   23.5350 H   0  0  0  0  0  0
   16.9836  -12.6568   22.6528 H   0  0  0  0  0  0
   20.6722  -15.9170   24.6586 H   0  0  0  0  0  0
   22.3160  -16.9264   26.1775 H   0  0  0  0  0  0
   24.6477  -16.1125   26.1977 H   0  0  0  0  0  0
   25.3358  -14.2543   24.7287 H   0  0  0  0  0  0
   23.7051  -13.2273   23.2071 H   0  0  0  0  0  0
  1  9  1  0  0  0
  1  2  1  0  0  0
  1 14  1  0  0  0
  2  3  1  0  0  0
  3 38  1  0  0  0
  3  8  1  0  0  0
  3  4  1  0  0  0
  4  5  1  0  0  0
  4 40  1  0  0  0
  4 41  1  0  0  0
  5 11  1  0  0  0
  5  6  1  0  0  0
  5 42  1  0  0  0
  6  7  1  0  0  0
  6 43  1  0  0  0
  6 44  1  0  0  0
  7  8  1  0  0  0
  7 11  1  0  0  0
  7 45  1  0  0  0
  8  9  1  0  0  0
  8 10  1  0  0  0
 10 46  1  0  0  0
 10 47  1  0  0  0
 10 48  1  0  0  0
 11 12  1  0  0  0
 11 13  1  0  0  0
 12 49  1  0  0  0
 12 50  1  0  0  0
 12 51  1  0  0  0
 13 52  1  0  0  0
 13 53  1  0  0  0
 13 54  1  0  0  0
 14 39  1  0  0  0
 14 15  1  0  0  0
 14 22  1  0  0  0
 15 16  1  0  0  0
 15 55  1  0  0  0
 15 56  1  0  0  0
 16 17  1  0  0  0
 16 57  1  0  0  0
 16 58  1  0  0  0
 17 18  1  0  0  0
 17 59  1  0  0  0
 17 60  1  0  0  0
 18 19  2  3  0  0
 19 20  1  0  0  0
 19 21  1  0  0  0
 20 61  1  0  0  0
 20 62  1  0  0  0
 21 63  1  0  0  0
 21 64  1  0  0  0
 22 23  1  0  0  0
 22 65  1  0  0  0
 23 24  2  0  0  0
 23 25  1  0  0  0
 25 30  1  0  0  0
 25 26  2  0  0  0
 26 27  1  0  0  0
 26 66  1  0  0  0
 27 28  2  0  0  0
 28 29  1  0  0  0
 28 32  1  0  0  0
 29 30  2  0  0  0
 30 31  1  0  0  0
 31 67  1  0  0  0
 31 68  1  0  0  0
 31 69  1  0  0  0
 32 37  1  0  0  0
 32 33  2  0  0  0
 33 34  1  0  0  0
 33 70  1  0  0  0
 34 35  2  0  0  0
 34 71  1  0  0  0
 35 36  1  0  0  0
 35 72  1  0  0  0
 36 37  2  0  0  0
 36 73  1  0  0  0
 37 74  1  0  0  0
M  END
> <s_m_entry_id>
38041

> <s_m_entry_name>
ligand_docking-pose.388

> <s_m_Source_Path>
/home/csk/Desktop/cluster/DUD-E-result/thrb

> <s_m_Source_File>
ligand_docking-pose.sdf

> <i_m_Source_File_Index>
388

> <i_lp_mmshare_version>
53161

> <i_f3d_flags>
0

> <r_lp_tautomer_probability>
1

> <s_lp_Force_Field>
OPLS_2005

> <r_lp_Energy>
56.287326

> <b_lp_Chiralities_Consistent>
1

> <s_lp_Variant>
61180-1

> <s_i_glide_gridfile>
glide-grid_1ype

> <i_i_glide_lignum>
44

> <i_i_glide_rotatable_bonds>
9

> <r_i_docking_score>
-6.84966600976936

> <r_i_glide_ligand_efficiency>
-0.185126108372145

> <r_i_glide_ligand_efficiency_sa>
-0.616881262885336

> <r_i_glide_ligand_efficiency_ln>
-1.48553197856461

> <r_i_glide_gscore>
-6.84966600976936

> <r_i_glide_lipo>
-3.82304088194784

> <r_i_glide_hbond>
-0.374723551419987

> <r_i_glide_metal>
0

> <r_i_glide_rewards>
-0.76767227102909

> <r_i_glide_evdw>
-32.5099296569824

> <r_i_glide_ecoul>
-6.07550716400146

> <r_i_glide_erotb>
0.72319995296702

> <r_i_glide_esite>
-0.0706067008901275

> <r_i_glide_emodel>
-53.614269142647

> <r_i_glide_energy>
-38.5854368209839

> <r_i_glide_einternal>
11.8839559555054

> <i_i_glide_confnum>
6

> <i_i_glide_posenum>
8

> <r_i_glide_eff_state_penalty>
0

> <s_user_duplicate_titles>
61180

> <s_m_subgroup_title>
dock_pv

> <s_m_subgroupid>
dock_pv1

> <b_m_subgroup_collapsed>
0

$$$$
172067
                    3D
 Schrodinger Suite 2021-1.
 78 81  0  0  1  0            999 V2000
   22.0002  -13.7910   23.6246 C   0  0  0  0  0  0
   20.7909  -14.0312   24.5916 C   0  0  0  0  0  0
   20.9747  -15.2215   25.5593 C   0  0  1  0  0  0
   19.6258  -15.2934   26.3193 C   0  0  0  0  0  0
   18.6086  -14.9461   25.2128 C   0  0  0  0  0  0
   19.5119  -14.6799   23.9684 C   0  0  2  0  0  0
   20.0669  -16.0670   23.5224 C   0  0  0  0  0  0
   19.8354  -16.6944   22.4910 O   0  0  0  0  0  0
   21.0638  -16.4521   24.6255 C   0  0  0  0  0  0
   18.8693  -13.8879   22.7853 C   0  0  0  0  0  0
   17.3335  -13.9679   22.6195 C   0  0  0  0  0  0
   16.7197  -15.6175   21.9238 S   0  0  0  0  0  0
   16.6199  -16.5822   23.0212 O   0  0  0  0  0  0
   17.5016  -15.9250   20.7209 O   0  0  0  0  0  0
   15.0671  -15.2239   21.4303 N   0  0  2  0  0  0
   14.8686  -14.4914   20.1472 C   0  0  2  0  0  0
   13.4912  -13.7800   20.0731 C   0  0  0  0  0  0
   13.4617  -12.4137   20.7483 C   0  0  0  0  0  0
   14.3105  -11.4009   20.3000 C   0  0  0  0  0  0
   14.2887  -10.1506   20.9022 C   0  0  0  0  0  0
   13.3957   -9.8880   21.9285 C   0  0  0  0  0  0
   12.5231  -10.8805   22.4110 C   0  0  0  0  0  0
   12.5761  -12.1489   21.7933 C   0  0  0  0  0  0
   11.6149  -10.5806   23.5496 C   0  0  0  0  0  0
   11.6161   -9.4532   24.1125 N   0  0  0  0  0  0
   10.8151  -11.6221   23.9313 N   0  0  0  0  0  0
   15.0781  -15.4443   18.9342 C   0  0  0  0  0  0
   14.7070  -16.6162   19.0372 O   0  0  0  0  0  0
   15.5093  -14.9288   17.7488 N   0  0  0  0  0  0
   15.6628  -15.8335   16.5706 C   0  0  0  0  0  0
   15.2153  -15.0383   15.3251 C   0  0  0  0  0  0
   16.0168  -13.8026   15.2339 N   0  0  0  0  0  0
   15.7269  -12.9010   16.3515 C   0  0  0  0  0  0
   16.1872  -13.6034   17.6395 C   0  0  0  0  0  0
   16.6311  -13.1646   13.7020 S   0  0  0  0  0  0
   17.0068  -14.3009   12.8561 O   0  0  0  0  0  0
   17.6165  -12.1274   14.0240 O   0  0  0  0  0  0
   15.1617  -12.3042   12.9215 C   0  0  0  0  0  0
   20.5578  -12.6672   25.3164 C   0  0  0  0  0  0
   15.6508  -13.7450   20.1503 H   0  0  0  0  0  0
   22.8770  -13.4407   24.1725 H   0  0  0  0  0  0
   22.3189  -14.6708   23.0650 H   0  0  0  0  0  0
   21.7579  -13.0309   22.8815 H   0  0  0  0  0  0
   21.8348  -15.1261   26.2228 H   0  0  0  0  0  0
   19.4423  -16.2741   26.7615 H   0  0  0  0  0  0
   19.5801  -14.5585   27.1209 H   0  0  0  0  0  0
   18.0237  -14.0695   25.4919 H   0  0  0  0  0  0
   17.8937  -15.7572   25.0584 H   0  0  0  0  0  0
   22.0611  -16.5802   24.2085 H   0  0  0  0  0  0
   20.7791  -17.3816   25.1194 H   0  0  0  0  0  0
   19.3530  -14.1288   21.8357 H   0  0  0  0  0  0
   19.0983  -12.8311   22.9311 H   0  0  0  0  0  0
   16.9968  -13.1940   21.9314 H   0  0  0  0  0  0
   16.8150  -13.8029   23.5588 H   0  0  0  0  0  0
   14.4826  -14.8943   22.2029 H   0  0  0  0  0  0
   13.2187  -13.5795   19.0335 H   0  0  0  0  0  0
   12.6974  -14.4324   20.4447 H   0  0  0  0  0  0
   14.9918  -11.5623   19.4825 H   0  0  0  0  0  0
   14.9701   -9.3777   20.5822 H   0  0  0  0  0  0
   13.4184   -8.8997   22.3628 H   0  0  0  0  0  0
   11.9289  -12.9536   22.1148 H   0  0  0  0  0  0
   12.2791   -8.8110   23.7106 H   0  0  0  0  0  0
   10.0825  -11.4445   24.6111 H   0  0  0  0  0  0
   10.8180  -12.5108   23.4582 H   0  0  0  0  0  0
   15.0990  -16.7647   16.6451 H   0  0  0  0  0  0
   16.7263  -16.0635   16.4714 H   0  0  0  0  0  0
   14.1782  -14.7507   15.5062 H   0  0  0  0  0  0
   15.2651  -15.6055   14.3940 H   0  0  0  0  0  0
   16.2101  -11.9353   16.2051 H   0  0  0  0  0  0
   14.6477  -12.7381   16.3845 H   0  0  0  0  0  0
   17.2311  -13.8521   17.5211 H   0  0  0  0  0  0
   16.1244  -12.9213   18.4734 H   0  0  0  0  0  0
   15.4802  -11.8435   11.9877 H   0  0  0  0  0  0
   14.7786  -11.5494   13.6055 H   0  0  0  0  0  0
   14.4065  -13.0528   12.7178 H   0  0  0  0  0  0
   21.4170  -12.3994   25.9349 H   0  0  0  0  0  0
   20.4160  -11.8548   24.6056 H   0  0  0  0  0  0
   19.6895  -12.6500   25.9721 H   0  0  0  0  0  0
  1  2  1  0  0  0
  1 41  1  0  0  0
  1 42  1  0  0  0
  1 43  1  0  0  0
  2  6  1  0  0  0
  2  3  1  0  0  0
  2 39  1  0  0  0
  3  9  1  0  0  0
  3  4  1  0  0  0
  3 44  1  0  0  0
  4  5  1  0  0  0
  4 45  1  0  0  0
  4 46  1  0  0  0
  5  6  1  0  0  0
  5 47  1  0  0  0
  5 48  1  0  0  0
  6  7  1  0  0  0
  6 10  1  0  0  0
  7  8  2  0  0  0
  7  9  1  0  0  0
  9 49  1  0  0  0
  9 50  1  0  0  0
 10 11  1  0  0  0
 10 51  1  0  0  0
 10 52  1  0  0  0
 11 12  1  0  0  0
 11 53  1  0  0  0
 11 54  1  0  0  0
 12 13  2  0  0  0
 12 14  2  0  0  0
 12 15  1  0  0  0
 15 16  1  0  0  0
 15 55  1  0  0  0
 16 40  1  0  0  0
 16 17  1  0  0  0
 16 27  1  0  0  0
 17 18  1  0  0  0
 17 56  1  0  0  0
 17 57  1  0  0  0
 18 23  1  0  0  0
 18 19  2  0  0  0
 19 20  1  0  0  0
 19 58  1  0  0  0
 20 21  2  0  0  0
 20 59  1  0  0  0
 21 22  1  0  0  0
 21 60  1  0  0  0
 22 23  2  0  0  0
 22 24  1  0  0  0
 23 61  1  0  0  0
 24 25  2  3  0  0
 24 26  1  0  0  0
 25 62  1  0  0  0
 26 63  1  0  0  0
 26 64  1  0  0  0
 27 28  2  0  0  0
 27 29  1  0  0  0
 29 34  1  0  0  0
 29 30  1  0  0  0
 30 31  1  0  0  0
 30 65  1  0  0  0
 30 66  1  0  0  0
 31 32  1  0  0  0
 31 67  1  0  0  0
 31 68  1  0  0  0
 32 33  1  0  0  0
 32 35  1  0  0  0
 33 34  1  0  0  0
 33 69  1  0  0  0
 33 70  1  0  0  0
 34 71  1  0  0  0
 34 72  1  0  0  0
 35 36  2  0  0  0
 35 37  2  0  0  0
 35 38  1  0  0  0
 38 73  1  0  0  0
 38 74  1  0  0  0
 38 75  1  0  0  0
 39 76  1  0  0  0
 39 77  1  0  0  0
 39 78  1  0  0  0
M  END
> <s_m_entry_id>
38042

> <s_m_entry_name>
ligand_docking-pose.389

> <s_m_Source_Path>
/home/csk/Desktop/cluster/DUD-E-result/thrb

> <s_m_Source_File>
ligand_docking-pose.sdf

> <i_m_Source_File_Index>
389

> <i_lp_mmshare_version>
53161

> <i_f3d_flags>
0

> <r_lp_tautomer_probability>
0.99995

> <s_lp_Force_Field>
OPLS_2005

> <r_lp_Energy>
69.763741

> <b_lp_Chiralities_Consistent>
1

> <s_lp_Variant>
172067-4

> <s_i_glide_gridfile>
glide-grid_1ype

> <i_i_glide_lignum>
2148

> <i_i_glide_rotatable_bonds>
11

> <r_i_docking_score>
-6.84685963232907

> <r_i_glide_ligand_efficiency>
-0.175560503393053

> <r_i_glide_ligand_efficiency_sa>
-0.595362787320799

> <r_i_glide_ligand_efficiency_ln>
-1.46816106484008

> <r_i_glide_gscore>
-6.84685963232907

> <r_i_glide_lipo>
-3.06834820860063

> <r_i_glide_hbond>
-0.191411329194341

> <r_i_glide_metal>
0

> <r_i_glide_rewards>
-0.0779823710367225

> <r_i_glide_evdw>
-48.0497436523438

> <r_i_glide_ecoul>
-8.28562068939209

> <r_i_glide_erotb>
0.4549649203451

> <r_i_glide_esite>
-0.318752357816465

> <r_i_glide_emodel>
-74.405710677434

> <r_i_glide_energy>
-56.3353643417358

> <r_i_glide_einternal>
12.5541257858276

> <i_i_glide_confnum>
4

> <i_i_glide_posenum>
24

> <r_i_glide_eff_state_penalty>
0

> <s_user_duplicate_titles>
172067,171852

> <s_m_subgroup_title>
dock_pv

> <s_m_subgroupid>
dock_pv1

> <b_m_subgroup_collapsed>
0

$$$$
20114
                    3D
 Schrodinger Suite 2021-1.
 66 69  0  0  1  0            999 V2000
   24.9723  -14.6525   23.9217 C   0  0  0  0  0  0
   24.4178  -13.4985   24.4718 C   0  0  0  0  0  0
   23.1525  -13.5459   25.0516 C   0  0  0  0  0  0
   22.4367  -14.7443   25.0596 C   0  0  0  0  0  0
   22.9925  -15.8965   24.4950 C   0  0  0  0  0  0
   24.2638  -15.8514   23.9278 C   0  0  0  0  0  0
   21.0293  -14.7905   25.6390 C   0  0  0  0  0  0
   19.7453  -14.0886   24.4442 S   0  0  0  0  0  0
   20.0155  -12.6530   24.3186 O   0  0  0  0  0  0
   18.4339  -14.5746   24.8864 O   0  0  0  0  0  0
   20.1727  -14.8947   22.9129 N   0  0  1  0  0  0
   19.2101  -15.8428   22.3444 C   0  0  0  0  0  0
   18.1296  -15.0546   21.5981 C   0  0  2  0  0  0
   17.2559  -15.8919   20.6597 C   0  0  0  0  0  0
   16.7092  -14.8849   19.6586 C   0  0  0  0  0  0
   17.8085  -13.8071   19.5380 C   0  0  2  0  0  0
   18.7104  -14.0331   20.6900 N   0  0  0  0  0  0
   19.9733  -13.5078   20.8065 C   0  0  0  0  0  0
   20.3903  -12.6593   20.0189 O   0  0  0  0  0  0
   20.9180  -14.1209   21.8821 C   0  0  0  0  0  0
   17.2064  -12.4027   19.3959 C   0  0  0  0  0  0
   17.0314  -11.9143   18.2767 O   0  0  0  0  0  0
   16.8492  -11.7963   20.5302 N   0  0  0  0  0  0
   16.0980  -10.5597   20.5874 C   0  0  0  0  0  0
   14.5624  -10.7394   20.6013 C   0  0  0  0  0  0
   14.0300  -11.9972   21.3454 C   0  0  0  0  0  0
   12.5103  -11.9916   21.6200 C   0  0  0  0  0  0
   12.1564  -10.7015   22.2271 N   0  0  0  0  0  0
   12.3261   -9.6227   21.2535 C   0  0  0  0  0  0
   13.8327   -9.4458   21.0276 C   0  0  0  0  0  0
   11.5522  -10.5348   23.5217 C   0  0  0  0  0  0
   11.5907   -9.5343   24.3172 N   0  0  0  0  0  0
   12.4163   -8.4653   23.9292 O   0  0  0  0  0  0
   10.8160  -11.6660   23.9241 N   0  0  0  0  0  0
   17.4922  -14.5439   22.3232 H   0  0  0  0  0  0
   18.3991  -13.8530   18.6250 H   0  0  0  0  0  0
   25.9656  -14.6193   23.4978 H   0  0  0  0  0  0
   24.9791  -12.5766   24.4650 H   0  0  0  0  0  0
   22.7257  -12.6532   25.4837 H   0  0  0  0  0  0
   22.4401  -16.8247   24.4881 H   0  0  0  0  0  0
   24.6996  -16.7424   23.5011 H   0  0  0  0  0  0
   20.9589  -14.2170   26.5625 H   0  0  0  0  0  0
   20.7309  -15.8144   25.8598 H   0  0  0  0  0  0
   18.8448  -16.5159   23.1216 H   0  0  0  0  0  0
   19.7581  -16.4745   21.6427 H   0  0  0  0  0  0
   16.4776  -16.4345   21.1979 H   0  0  0  0  0  0
   17.8580  -16.6426   20.1440 H   0  0  0  0  0  0
   15.7966  -14.4804   20.0992 H   0  0  0  0  0  0
   16.4159  -15.3200   18.7027 H   0  0  0  0  0  0
   21.6162  -14.7788   21.3672 H   0  0  0  0  0  0
   21.4829  -13.3160   22.3543 H   0  0  0  0  0  0
   17.1065  -12.2268   21.4075 H   0  0  0  0  0  0
   16.4162   -9.8534   19.8291 H   0  0  0  0  0  0
   16.4133  -10.1043   21.5117 H   0  0  0  0  0  0
   14.2361  -10.9077   19.5727 H   0  0  0  0  0  0
   14.5094  -12.0521   22.3211 H   0  0  0  0  0  0
   14.3355  -12.9125   20.8413 H   0  0  0  0  0  0
   12.2563  -12.8385   22.2578 H   0  0  0  0  0  0
   11.9565  -12.1241   20.6889 H   0  0  0  0  0  0
   11.8378   -9.9071   20.3210 H   0  0  0  0  0  0
   11.8516   -8.6918   21.5624 H   0  0  0  0  0  0
   14.0184   -8.6493   20.3213 H   0  0  0  0  0  0
   14.2575   -9.0857   21.9671 H   0  0  0  0  0  0
   12.3552   -7.8798   24.6883 H   0  0  0  0  0  0
   10.2074  -11.6255   24.7324 H   0  0  0  0  0  0
   10.6587  -12.4575   23.3183 H   0  0  0  0  0  0
  1  6  1  0  0  0
  1  2  2  0  0  0
  1 37  1  0  0  0
  2  3  1  0  0  0
  2 38  1  0  0  0
  3  4  2  0  0  0
  3 39  1  0  0  0
  4  5  1  0  0  0
  4  7  1  0  0  0
  5  6  2  0  0  0
  5 40  1  0  0  0
  6 41  1  0  0  0
  7  8  1  0  0  0
  7 42  1  0  0  0
  7 43  1  0  0  0
  8  9  2  0  0  0
  8 10  2  0  0  0
  8 11  1  0  0  0
 11 20  1  0  0  0
 11 12  1  0  0  0
 12 13  1  0  0  0
 12 44  1  0  0  0
 12 45  1  0  0  0
 13 35  1  0  0  0
 13 17  1  0  0  0
 13 14  1  0  0  0
 14 15  1  0  0  0
 14 46  1  0  0  0
 14 47  1  0  0  0
 15 16  1  0  0  0
 15 48  1  0  0  0
 15 49  1  0  0  0
 16 36  1  0  0  0
 16 17  1  0  0  0
 16 21  1  0  0  0
 17 18  1  0  0  0
 18 19  2  0  0  0
 18 20  1  0  0  0
 20 50  1  0  0  0
 20 51  1  0  0  0
 21 22  2  0  0  0
 21 23  1  0  0  0
 23 24  1  0  0  0
 23 52  1  0  0  0
 24 25  1  0  0  0
 24 53  1  0  0  0
 24 54  1  0  0  0
 25 30  1  0  0  0
 25 26  1  0  0  0
 25 55  1  0  0  0
 26 27  1  0  0  0
 26 56  1  0  0  0
 26 57  1  0  0  0
 27 28  1  0  0  0
 27 58  1  0  0  0
 27 59  1  0  0  0
 28 29  1  0  0  0
 28 31  1  0  0  0
 29 30  1  0  0  0
 29 60  1  0  0  0
 29 61  1  0  0  0
 30 62  1  0  0  0
 30 63  1  0  0  0
 31 32  2  0  0  0
 31 34  1  0  0  0
 32 33  1  0  0  0
 33 64  1  0  0  0
 34 65  1  0  0  0
 34 66  1  0  0  0
M  END
> <s_m_entry_id>
38044

> <s_m_entry_name>
ligand_docking-pose.391

> <s_m_Source_Path>
/home/csk/Desktop/cluster/DUD-E-result/thrb

> <s_m_Source_File>
ligand_docking-pose.sdf

> <i_m_Source_File_Index>
391

> <i_lp_mmshare_version>
53161

> <i_f3d_flags>
0

> <r_lp_tautomer_probability>
1

> <s_lp_Force_Field>
OPLS_2005

> <r_lp_Energy>
25.650799

> <b_lp_Chiralities_Consistent>
1

> <s_lp_Variant>
20114-1

> <s_i_glide_gridfile>
glide-grid_1ype

> <i_i_glide_lignum>
1516

> <i_i_glide_rotatable_bonds>
9

> <r_i_docking_score>
-6.84175698778516

> <r_i_glide_ligand_efficiency>
-0.201228146699563

> <r_i_glide_ligand_efficiency_sa>
-0.651901078030823

> <r_i_glide_ligand_efficiency_ln>
-1.511536023385

> <r_i_glide_gscore>
-6.84175698778516

> <r_i_glide_lipo>
-2.67570441057709

> <r_i_glide_hbond>
-0.236593391831758

> <r_i_glide_metal>
0

> <r_i_glide_rewards>
-1.33221143325837

> <r_i_glide_evdw>
-50.2114410400391

> <r_i_glide_ecoul>
-5.04078435897827

> <r_i_glide_erotb>
0.755378044018396

> <r_i_glide_esite>
-0.0859360902876405

> <r_i_glide_emodel>
-69.5577525773442

> <r_i_glide_energy>
-55.2522253990173

> <r_i_glide_einternal>
12.9509716033936

> <i_i_glide_confnum>
19

> <i_i_glide_posenum>
264

> <r_i_glide_eff_state_penalty>
0

> <s_user_duplicate_titles>
20114

> <s_m_subgroup_title>
dock_pv

> <s_m_subgroupid>
dock_pv1

> <b_m_subgroup_collapsed>
0

$$$$
60904
                    3D
 Schrodinger Suite 2021-1.
 53 55  0  0  1  0            999 V2000
   21.0906  -12.7296   19.8065 C   0  0  0  0  0  0
   19.9481  -13.1408   20.7134 C   0  0  0  0  0  0
   18.7145  -12.4925   20.6259 C   0  0  0  0  0  0
   17.6601  -12.8599   21.4705 C   0  0  0  0  0  0
   17.8571  -13.8643   22.4152 C   0  0  0  0  0  0
   19.0860  -14.5173   22.5116 C   0  0  0  0  0  0
   20.1298  -14.1567   21.6563 C   0  0  0  0  0  0
   19.2465  -15.5296   23.4213 O   0  0  0  0  0  0
   19.5955  -15.1170   25.0056 S   0  0  0  0  0  0
   18.8766  -13.8827   25.3391 O   0  0  0  0  0  0
   19.4588  -16.3240   25.8273 O   0  0  0  0  0  0
   21.3606  -14.8065   24.8212 C   0  0  0  0  0  0
   22.1028  -15.7653   24.1200 C   0  0  0  0  0  0
   23.4723  -15.6005   23.9211 C   0  0  0  0  0  0
   24.1140  -14.4661   24.4108 C   0  0  0  0  0  0
   23.3861  -13.5146   25.1210 C   0  0  0  0  0  0
   22.0185  -13.6830   25.3532 C   0  0  0  0  0  0
   21.2160  -12.4938   26.3209 Cl  0  0  0  0  0  0
   16.4298  -12.2530   21.4262 O   0  0  0  0  0  0
   15.8564  -12.0498   20.1362 C   0  0  0  0  0  0
   14.3659  -11.7035   20.3027 C   0  0  0  0  0  0
   13.5917  -12.7827   21.1032 C   0  0  0  0  0  0
   12.1297  -12.3739   21.3691 C   0  0  0  0  0  0
   12.1264  -11.0716   22.0586 N   0  0  0  0  0  0
   12.6773  -10.0038   21.2128 C   0  0  0  0  0  0
   14.1592  -10.3207   20.9609 C   0  0  0  0  0  0
   11.5317  -10.7940   23.3305 C   0  0  0  0  0  0
   11.6144   -9.6871   23.9212 N   0  0  0  0  0  0
   10.8160  -11.8530   23.9210 N   0  0  0  0  0  0
   22.0161  -12.6756   20.3787 H   0  0  0  0  0  0
   21.2200  -13.4618   19.0091 H   0  0  0  0  0  0
   20.9307  -11.7448   19.3669 H   0  0  0  0  0  0
   18.5781  -11.6978   19.9086 H   0  0  0  0  0  0
   17.0483  -14.1470   23.0737 H   0  0  0  0  0  0
   21.0794  -14.6675   21.7247 H   0  0  0  0  0  0
   21.6147  -16.6460   23.7261 H   0  0  0  0  0  0
   24.0337  -16.3535   23.3879 H   0  0  0  0  0  0
   25.1760  -14.3308   24.2606 H   0  0  0  0  0  0
   23.8981  -12.6529   25.5206 H   0  0  0  0  0  0
   15.9534  -12.9497   19.5251 H   0  0  0  0  0  0
   16.3683  -11.2448   19.6066 H   0  0  0  0  0  0
   13.9010  -11.6481   19.3170 H   0  0  0  0  0  0
   14.0709  -12.9600   22.0687 H   0  0  0  0  0  0
   13.6473  -13.7475   20.5974 H   0  0  0  0  0  0
   11.6121  -13.1581   21.9211 H   0  0  0  0  0  0
   11.6159  -12.2667   20.4146 H   0  0  0  0  0  0
   12.5709   -9.0150   21.6624 H   0  0  0  0  0  0
   12.1227   -9.9822   20.2740 H   0  0  0  0  0  0
   14.6352   -9.5374   20.3746 H   0  0  0  0  0  0
   14.6695  -10.2847   21.9195 H   0  0  0  0  0  0
   11.0787   -9.7050   24.7767 H   0  0  0  0  0  0
   10.2337  -11.7148   24.7377 H   0  0  0  0  0  0
   10.7199  -12.7657   23.4917 H   0  0  0  0  0  0
  1  2  1  0  0  0
  1 30  1  0  0  0
  1 31  1  0  0  0
  1 32  1  0  0  0
  2  7  1  0  0  0
  2  3  2  0  0  0
  3  4  1  0  0  0
  3 33  1  0  0  0
  4  5  2  0  0  0
  4 19  1  0  0  0
  5  6  1  0  0  0
  5 34  1  0  0  0
  6  7  2  0  0  0
  6  8  1  0  0  0
  7 35  1  0  0  0
  8  9  1  0  0  0
  9 10  2  0  0  0
  9 11  2  0  0  0
  9 12  1  0  0  0
 12 17  1  0  0  0
 12 13  2  0  0  0
 13 14  1  0  0  0
 13 36  1  0  0  0
 14 15  2  0  0  0
 14 37  1  0  0  0
 15 16  1  0  0  0
 15 38  1  0  0  0
 16 17  2  0  0  0
 16 39  1  0  0  0
 17 18  1  0  0  0
 19 20  1  0  0  0
 20 21  1  0  0  0
 20 40  1  0  0  0
 20 41  1  0  0  0
 21 26  1  0  0  0
 21 22  1  0  0  0
 21 42  1  0  0  0
 22 23  1  0  0  0
 22 43  1  0  0  0
 22 44  1  0  0  0
 23 24  1  0  0  0
 23 45  1  0  0  0
 23 46  1  0  0  0
 24 25  1  0  0  0
 24 27  1  0  0  0
 25 26  1  0  0  0
 25 47  1  0  0  0
 25 48  1  0  0  0
 26 49  1  0  0  0
 26 50  1  0  0  0
 27 28  2  3  0  0
 27 29  1  0  0  0
 28 51  1  0  0  0
 29 52  1  0  0  0
 29 53  1  0  0  0
M  END
> <s_m_entry_id>
38045

> <s_m_entry_name>
ligand_docking-pose.392

> <s_m_Source_Path>
/home/csk/Desktop/cluster/DUD-E-result/thrb

> <s_m_Source_File>
ligand_docking-pose.sdf

> <i_m_Source_File_Index>
392

> <i_lp_mmshare_version>
53161

> <i_f3d_flags>
0

> <r_lp_tautomer_probability>
1

> <s_lp_Force_Field>
OPLS_2005

> <r_lp_Energy>
23.635132

> <b_lp_Chiralities_Consistent>
1

> <s_lp_Variant>
60904-1

> <s_i_glide_gridfile>
glide-grid_1ype

> <i_i_glide_lignum>
2473

> <i_i_glide_rotatable_bonds>
7

> <r_i_docking_score>
-6.8406926077366

> <r_i_glide_ligand_efficiency>
-0.235885951990917

> <r_i_glide_ligand_efficiency_sa>
-0.724716378431174

> <r_i_glide_ligand_efficiency_ln>
-1.56634514217412

> <r_i_glide_gscore>
-6.8406926077366

> <r_i_glide_lipo>
-3.47609308098911

> <r_i_glide_hbond>
-0.394006066844153

> <r_i_glide_metal>
0

> <r_i_glide_rewards>
-0.48472481575326

> <r_i_glide_evdw>
-45.7456893920898

> <r_i_glide_ecoul>
-5.00356388092041

> <r_i_glide_erotb>
0.62397495017276

> <r_i_glide_esite>
-0.0720245425802862

> <r_i_glide_emodel>
-66.9310756421127

> <r_i_glide_energy>
-50.7492532730103

> <r_i_glide_einternal>
6.39977407455444

> <i_i_glide_confnum>
77

> <i_i_glide_posenum>
397

> <r_i_glide_eff_state_penalty>
0

> <s_user_duplicate_titles>
60904

> <s_m_subgroup_title>
dock_pv

> <s_m_subgroupid>
dock_pv1

> <b_m_subgroup_collapsed>
0

$$$$
172243
                    3D
 Schrodinger Suite 2021-1.
 65 68  0  0  1  0            999 V2000
   21.9032  -15.9908   25.4569 C   0  0  0  0  0  0
   22.3997  -15.0916   24.3252 C   0  0  0  0  0  0
   23.5527  -15.2581   23.9213 O   0  0  0  0  0  0
   21.5667  -14.1524   23.8081 N   0  0  0  0  0  0
   21.9992  -13.2712   22.7210 C   0  0  0  0  0  0
   21.0487  -13.4523   21.5153 C   0  0  0  0  0  0
   19.6331  -13.2973   21.9344 N   0  0  0  0  0  0
   19.2170  -14.1065   23.1002 C   0  0  0  0  0  0
   20.1980  -13.8916   24.2776 C   0  0  0  0  0  0
   18.7617  -12.6716   21.0860 C   0  0  0  0  0  0
   19.1682  -11.9230   20.1906 O   0  0  0  0  0  0
   17.2296  -12.9581   21.1394 C   0  0  1  0  0  0
   16.3544  -11.7907   20.5675 C   0  0  0  0  0  0
   14.8430  -12.0415   20.5856 C   0  0  0  0  0  0
   14.2627  -12.9164   19.6662 C   0  0  0  0  0  0
   12.9110  -13.2335   19.7590 C   0  0  0  0  0  0
   12.1352  -12.6991   20.7862 C   0  0  0  0  0  0
   12.6587  -11.7405   21.6699 C   0  0  0  0  0  0
   14.0157  -11.4100   21.5228 C   0  0  0  0  0  0
   11.8367  -11.0818   22.7206 C   0  0  0  0  0  0
   12.0911   -9.9069   23.0965 N   0  0  0  0  0  0
   10.8162  -11.8530   23.2134 N   0  0  0  0  0  0
   17.0815  -14.1896   20.3144 N   0  0  2  0  0  0
   16.7709  -15.7717   21.0333 S   0  0  0  0  0  0
   17.6174  -16.7383   20.3282 O   0  0  0  0  0  0
   16.8160  -15.6582   22.4941 O   0  0  0  0  0  0
   15.0877  -16.1423   20.5829 C   0  0  0  0  0  0
   14.0543  -15.8798   21.4777 C   0  0  0  0  0  0
   12.7343  -16.1259   21.1211 C   0  0  0  0  0  0
   12.4190  -16.6368   19.8405 C   0  0  0  0  0  0
   11.0815  -16.8574   19.4363 C   0  0  0  0  0  0
   10.8043  -17.3214   18.1546 C   0  0  0  0  0  0
   11.8342  -17.6002   17.2643 C   0  0  0  0  0  0
   13.1616  -17.4001   17.6311 C   0  0  0  0  0  0
   13.4781  -16.9075   18.9209 C   0  0  0  0  0  0
   14.8137  -16.6578   19.3163 C   0  0  0  0  0  0
   16.8839  -13.1503   22.1519 H   0  0  0  0  0  0
   21.6261  -15.3895   26.3211 H   0  0  0  0  0  0
   22.6869  -16.6830   25.7670 H   0  0  0  0  0  0
   21.0410  -16.5761   25.1355 H   0  0  0  0  0  0
   21.9442  -12.2555   23.1050 H   0  0  0  0  0  0
   23.0326  -13.4503   22.4212 H   0  0  0  0  0  0
   21.3436  -12.7488   20.7353 H   0  0  0  0  0  0
   21.1786  -14.4700   21.1419 H   0  0  0  0  0  0
   19.2545  -15.1604   22.8214 H   0  0  0  0  0  0
   18.2293  -13.8508   23.4758 H   0  0  0  0  0  0
   19.9090  -14.5002   25.1341 H   0  0  0  0  0  0
   20.1513  -12.8531   24.6106 H   0  0  0  0  0  0
   16.5686  -10.8718   21.1172 H   0  0  0  0  0  0
   16.6405  -11.5688   19.5375 H   0  0  0  0  0  0
   14.8647  -13.3883   18.9034 H   0  0  0  0  0  0
   12.4747  -13.9359   19.0640 H   0  0  0  0  0  0
   11.1104  -13.0255   20.8649 H   0  0  0  0  0  0
   14.4159  -10.6744   22.1982 H   0  0  0  0  0  0
   11.4418   -9.6122   23.8114 H   0  0  0  0  0  0
   10.1153  -11.4490   23.8231 H   0  0  0  0  0  0
   10.8157  -12.8623   23.1100 H   0  0  0  0  0  0
   17.7381  -14.2322   19.5309 H   0  0  0  0  0  0
   14.2674  -15.4533   22.4456 H   0  0  0  0  0  0
   11.9430  -15.8778   21.8116 H   0  0  0  0  0  0
   10.2744  -16.6473   20.1219 H   0  0  0  0  0  0
    9.7790  -17.4557   17.8439 H   0  0  0  0  0  0
   11.6009  -17.9462   16.2671 H   0  0  0  0  0  0
   13.9525  -17.5998   16.9224 H   0  0  0  0  0  0
   15.6150  -16.8528   18.6176 H   0  0  0  0  0  0
  1  2  1  0  0  0
  1 38  1  0  0  0
  1 39  1  0  0  0
  1 40  1  0  0  0
  2  3  2  0  0  0
  2  4  1  0  0  0
  4  9  1  0  0  0
  4  5  1  0  0  0
  5  6  1  0  0  0
  5 41  1  0  0  0
  5 42  1  0  0  0
  6  7  1  0  0  0
  6 43  1  0  0  0
  6 44  1  0  0  0
  7  8  1  0  0  0
  7 10  1  0  0  0
  8  9  1  0  0  0
  8 45  1  0  0  0
  8 46  1  0  0  0
  9 47  1  0  0  0
  9 48  1  0  0  0
 10 11  2  0  0  0
 10 12  1  0  0  0
 12 37  1  0  0  0
 12 13  1  0  0  0
 12 23  1  0  0  0
 13 14  1  0  0  0
 13 49  1  0  0  0
 13 50  1  0  0  0
 14 19  1  0  0  0
 14 15  2  0  0  0
 15 16  1  0  0  0
 15 51  1  0  0  0
 16 17  2  0  0  0
 16 52  1  0  0  0
 17 18  1  0  0  0
 17 53  1  0  0  0
 18 19  2  0  0  0
 18 20  1  0  0  0
 19 54  1  0  0  0
 20 21  2  3  0  0
 20 22  1  0  0  0
 21 55  1  0  0  0
 22 56  1  0  0  0
 22 57  1  0  0  0
 23 24  1  0  0  0
 23 58  1  0  0  0
 24 25  2  0  0  0
 24 26  2  0  0  0
 24 27  1  0  0  0
 27 36  1  0  0  0
 27 28  2  0  0  0
 28 29  1  0  0  0
 28 59  1  0  0  0
 29 30  2  0  0  0
 29 60  1  0  0  0
 30 35  1  0  0  0
 30 31  1  0  0  0
 31 32  2  0  0  0
 31 61  1  0  0  0
 32 33  1  0  0  0
 32 62  1  0  0  0
 33 34  2  0  0  0
 33 63  1  0  0  0
 34 35  1  0  0  0
 34 64  1  0  0  0
 35 36  2  0  0  0
 36 65  1  0  0  0
M  END
> <s_m_entry_id>
38047

> <s_m_entry_name>
ligand_docking-pose.394

> <s_m_Source_Path>
/home/csk/Desktop/cluster/DUD-E-result/thrb

> <s_m_Source_File>
ligand_docking-pose.sdf

> <i_m_Source_File_Index>
394

> <i_lp_mmshare_version>
53161

> <i_f3d_flags>
0

> <r_lp_tautomer_probability>
1

> <s_lp_Force_Field>
OPLS_2005

> <r_lp_Energy>
41.558493

> <b_lp_Chiralities_Consistent>
1

> <s_lp_Variant>
172243-1

> <s_i_glide_gridfile>
glide-grid_1ype

> <i_i_glide_lignum>
4065

> <i_i_glide_rotatable_bonds>
9

> <r_i_docking_score>
-6.84048651884532

> <r_i_glide_ligand_efficiency>
-0.19001351441237

> <r_i_glide_ligand_efficiency_sa>
-0.627410800146991

> <r_i_glide_ligand_efficiency_ln>
-1.49240934982357

> <r_i_glide_gscore>
-6.84048651884532

> <r_i_glide_lipo>
-2.69109957013163

> <r_i_glide_hbond>
-0.338065550502196

> <r_i_glide_metal>
0

> <r_i_glide_rewards>
-0.903657588750204

> <r_i_glide_evdw>
-45.4958572387695

> <r_i_glide_ecoul>
-6.93857431411743

> <r_i_glide_erotb>
0.476616666685812

> <r_i_glide_esite>
-0.0687014670910165

> <r_i_glide_emodel>
-66.5010117039647

> <r_i_glide_energy>
-52.434431552887

> <r_i_glide_einternal>
14.7925539016724

> <i_i_glide_confnum>
2

> <i_i_glide_posenum>
2

> <r_i_glide_eff_state_penalty>
0

> <s_user_duplicate_titles>
172243,172419

> <s_m_subgroup_title>
dock_pv

> <s_m_subgroupid>
dock_pv1

> <b_m_subgroup_collapsed>
0

$$$$
216546
                    3D
 Schrodinger Suite 2021-1.
 55 58  0  0  1  0            999 V2000
   18.2273  -15.7751   26.6457 C   0  0  0  0  0  0
   17.3757  -16.2591   25.6410 C   0  0  0  0  0  0
   17.6172  -15.9665   24.2963 C   0  0  0  0  0  0
   18.7577  -15.2383   23.9796 C   0  0  0  0  0  0
   19.5854  -14.7237   24.9785 C   0  0  0  0  0  0
   19.3325  -14.9838   26.3207 C   0  0  0  0  0  0
   20.4848  -14.0007   23.9833 C   0  0  0  0  0  0
   19.5917  -14.6281   22.8590 C   0  0  2  0  0  0
   18.8844  -13.5651   21.9845 C   0  0  0  0  0  0
   17.7910  -13.1059   22.3213 O   0  0  0  0  0  0
   19.5275  -13.1403   20.8725 N   0  0  0  0  0  0
   20.8210  -13.6498   20.4187 C   0  0  0  0  0  0
   20.9804  -13.0980   19.0207 C   0  0  0  0  0  0
   20.2534  -11.7811   19.0836 C   0  0  0  0  0  0
   19.0751  -12.0091   20.0403 C   0  0  1  0  0  0
   17.7428  -12.2532   19.3100 C   0  0  0  0  0  0
   17.7200  -12.8779   18.2512 O   0  0  0  0  0  0
   16.6622  -11.7241   19.8916 N   0  0  0  0  0  0
   15.3003  -11.8420   19.3846 C   0  0  0  0  0  0
   14.2715  -11.6831   20.5237 C   0  0  2  0  0  0
   13.8923  -13.0526   21.1306 C   0  0  0  0  0  0
   12.9294  -12.8923   22.3248 C   0  0  0  0  0  0
   11.6761  -12.0541   21.9824 C   0  0  2  0  0  0
   12.0583  -10.7333   21.2743 C   0  0  0  0  0  0
   12.9758  -10.9878   20.0635 C   0  0  0  0  0  0
   10.8160  -11.8530   23.1314 N   0  0  0  0  0  0
   18.9626  -11.1238   20.6699 H   0  0  0  0  0  0
   18.0157  -15.9971   27.6834 H   0  0  0  0  0  0
   16.5125  -16.8469   25.9163 H   0  0  0  0  0  0
   16.9478  -16.3230   23.5278 H   0  0  0  0  0  0
   19.9683  -14.5829   27.0968 H   0  0  0  0  0  0
   20.4803  -12.9112   24.0477 H   0  0  0  0  0  0
   21.5247  -14.3299   23.9620 H   0  0  0  0  0  0
   20.1028  -15.3696   22.2502 H   0  0  0  0  0  0
   21.6050  -13.2704   21.0762 H   0  0  0  0  0  0
   20.8896  -14.7368   20.3852 H   0  0  0  0  0  0
   22.0137  -12.9750   18.7212 H   0  0  0  0  0  0
   20.4870  -13.7674   18.3205 H   0  0  0  0  0  0
   20.9261  -11.0454   19.5195 H   0  0  0  0  0  0
   19.9727  -11.4531   18.0848 H   0  0  0  0  0  0
   16.7818  -11.2422   20.7714 H   0  0  0  0  0  0
   15.1729  -11.0534   18.6462 H   0  0  0  0  0  0
   15.1269  -12.7644   18.8267 H   0  0  0  0  0  0
   14.7047  -11.0701   21.3174 H   0  0  0  0  0  0
   13.4510  -13.6973   20.3675 H   0  0  0  0  0  0
   14.7948  -13.5781   21.4496 H   0  0  0  0  0  0
   13.4697  -12.3916   23.1209 H   0  0  0  0  0  0
   12.6493  -13.8761   22.7036 H   0  0  0  0  0  0
   11.1329  -12.6527   21.2502 H   0  0  0  0  0  0
   12.5751  -10.0817   21.9817 H   0  0  0  0  0  0
   11.1770  -10.1857   20.9556 H   0  0  0  0  0  0
   13.2112  -10.0386   19.5833 H   0  0  0  0  0  0
   12.4757  -11.5741   19.2907 H   0  0  0  0  0  0
    9.9378  -11.4052   22.8674 H   0  0  0  0  0  0
   10.5623  -12.7605   23.5193 H   0  0  0  0  0  0
  1  6  1  0  0  0
  1  2  2  0  0  0
  1 28  1  0  0  0
  2  3  1  0  0  0
  2 29  1  0  0  0
  3  4  2  0  0  0
  3 30  1  0  0  0
  4  8  1  0  0  0
  4  5  1  0  0  0
  5  6  2  0  0  0
  5  7  1  0  0  0
  6 31  1  0  0  0
  7  8  1  0  0  0
  7 32  1  0  0  0
  7 33  1  0  0  0
  8  9  1  0  0  0
  8 34  1  0  0  0
  9 10  2  0  0  0
  9 11  1  0  0  0
 11 15  1  0  0  0
 11 12  1  0  0  0
 12 13  1  0  0  0
 12 35  1  0  0  0
 12 36  1  0  0  0
 13 14  1  0  0  0
 13 37  1  0  0  0
 13 38  1  0  0  0
 14 15  1  0  0  0
 14 39  1  0  0  0
 14 40  1  0  0  0
 15 27  1  0  0  0
 15 16  1  0  0  0
 16 17  2  0  0  0
 16 18  1  0  0  0
 18 19  1  0  0  0
 18 41  1  0  0  0
 19 20  1  0  0  0
 19 42  1  0  0  0
 19 43  1  0  0  0
 20 25  1  0  0  0
 20 21  1  0  0  0
 20 44  1  0  0  0
 21 22  1  0  0  0
 21 45  1  0  0  0
 21 46  1  0  0  0
 22 23  1  0  0  0
 22 47  1  0  0  0
 22 48  1  0  0  0
 23 24  1  0  0  0
 23 26  1  0  0  0
 23 49  1  0  0  0
 24 25  1  0  0  0
 24 50  1  0  0  0
 24 51  1  0  0  0
 25 52  1  0  0  0
 25 53  1  0  0  0
 26 54  1  0  0  0
 26 55  1  0  0  0
M  END
> <s_m_entry_id>
38048

> <s_m_entry_name>
ligand_docking-pose.395

> <s_m_Source_Path>
/home/csk/Desktop/cluster/DUD-E-result/thrb

> <s_m_Source_File>
ligand_docking-pose.sdf

> <i_m_Source_File_Index>
395

> <i_lp_mmshare_version>
53161

> <i_f3d_flags>
0

> <r_lp_tautomer_probability>
1

> <s_lp_Force_Field>
OPLS_2005

> <r_lp_Energy>
115.64376

> <b_lp_Chiralities_Consistent>
1

> <s_lp_Variant>
216546-4

> <s_i_glide_gridfile>
glide-grid_1ype

> <i_i_glide_lignum>
278

> <i_i_glide_rotatable_bonds>
6

> <r_i_docking_score>
-6.83936258695777

> <r_i_glide_ligand_efficiency>
-0.263052407190684

> <r_i_glide_ligand_efficiency_sa>
-0.779291721241159

> <r_i_glide_ligand_efficiency_ln>
-1.60620186176795

> <r_i_glide_gscore>
-6.83936258695777

> <r_i_glide_lipo>
-2.82925391221333

> <r_i_glide_hbond>
-0.608

> <r_i_glide_metal>
0

> <r_i_glide_rewards>
-1.65079487469902

> <r_i_glide_evdw>
-33.0593032836914

> <r_i_glide_ecoul>
-6.70843839645386

> <r_i_glide_erotb>
0.907917123607226

> <r_i_glide_esite>
0

> <r_i_glide_emodel>
-52.4822479616188

> <r_i_glide_energy>
-39.7677416801453

> <r_i_glide_einternal>
4.86398077011108

> <i_i_glide_confnum>
8

> <i_i_glide_posenum>
136

> <r_i_glide_eff_state_penalty>
0

> <s_user_duplicate_titles>
216546

> <s_m_subgroup_title>
dock_pv

> <s_m_subgroupid>
dock_pv1

> <b_m_subgroup_collapsed>
0

$$$$
202956
                    3D
 Schrodinger Suite 2021-1.
 59 62  0  0  1  0            999 V2000
   24.9631  -14.7850   24.3210 C   0  0  0  0  0  0
   24.3327  -16.0209   24.2127 C   0  0  0  0  0  0
   22.9724  -16.0770   23.9210 C   0  0  0  0  0  0
   22.2348  -14.8984   23.7473 C   0  0  0  0  0  0
   22.8889  -13.6662   23.8440 C   0  0  0  0  0  0
   24.2483  -13.6064   24.1361 C   0  0  0  0  0  0
   20.7297  -14.9329   23.4254 C   0  0  0  0  0  0
   19.8954  -15.6282   24.5170 C   0  0  0  0  0  0
   19.1470  -14.8486   25.4089 C   0  0  0  0  0  0
   18.4119  -15.4523   26.4252 C   0  0  0  0  0  0
   18.4166  -16.8374   26.5543 C   0  0  0  0  0  0
   19.1476  -17.6259   25.6714 C   0  0  0  0  0  0
   19.8851  -17.0227   24.6565 C   0  0  0  0  0  0
   20.4567  -15.3465   21.9362 C   0  0  2  0  0  0
   19.1391  -14.7944   21.2989 C   0  0  0  0  0  0
   19.2529  -13.8188   20.5505 O   0  0  0  0  0  0
   17.9291  -15.3707   21.5487 N   0  0  0  0  0  0
   17.6396  -16.5591   22.3521 C   0  0  0  0  0  0
   16.3363  -17.1023   21.7901 C   0  0  0  0  0  0
   15.5839  -15.8365   21.4323 C   0  0  0  0  0  0
   16.6710  -14.8550   20.9566 C   0  0  1  0  0  0
   16.3335  -13.4071   21.3567 C   0  0  0  0  0  0
   16.4465  -13.0530   22.5297 O   0  0  0  0  0  0
   15.9360  -12.6017   20.3599 N   0  0  0  0  0  0
   15.6886  -11.1646   20.5080 C   0  0  0  0  0  0
   14.3487  -10.7596   21.1213 C   0  0  0  0  0  0
   13.9845   -9.4580   21.4591 C   0  0  0  0  0  0
   12.4160   -9.4530   22.2010 S   0  0  0  0  0  0
   12.3826  -11.1639   22.0051 C   0  0  0  0  0  0
   13.4401  -11.6804   21.4276 N   0  0  0  0  0  0
   11.3021  -11.8559   22.4640 N   0  0  0  0  0  0
   20.7074  -16.7446   21.5301 N   0  0  0  0  0  0
   21.2267  -14.8034   21.3824 H   0  0  0  0  0  0
   16.7712  -14.9312   19.8722 H   0  0  0  0  0  0
   26.0159  -14.7403   24.5537 H   0  0  0  0  0  0
   24.8969  -16.9309   24.3567 H   0  0  0  0  0  0
   22.5038  -17.0436   23.8355 H   0  0  0  0  0  0
   22.3413  -12.7506   23.6824 H   0  0  0  0  0  0
   24.7488  -12.6529   24.2172 H   0  0  0  0  0  0
   20.4137  -13.8876   23.4661 H   0  0  0  0  0  0
   19.1377  -13.7711   25.3273 H   0  0  0  0  0  0
   17.8419  -14.8476   27.1148 H   0  0  0  0  0  0
   17.8464  -17.3020   27.3455 H   0  0  0  0  0  0
   19.1434  -18.7011   25.7722 H   0  0  0  0  0  0
   20.4361  -17.6520   23.9765 H   0  0  0  0  0  0
   18.4038  -17.3310   22.3298 H   0  0  0  0  0  0
   17.4853  -16.2478   23.3846 H   0  0  0  0  0  0
   16.5399  -17.6776   20.8860 H   0  0  0  0  0  0
   15.7987  -17.7443   22.4885 H   0  0  0  0  0  0
   14.8180  -16.0116   20.6763 H   0  0  0  0  0  0
   15.0784  -15.4562   22.3211 H   0  0  0  0  0  0
   15.8812  -12.9807   19.4261 H   0  0  0  0  0  0
   16.4967  -10.7277   21.1019 H   0  0  0  0  0  0
   15.7985  -10.7063   19.5253 H   0  0  0  0  0  0
   14.5601   -8.5531   21.3402 H   0  0  0  0  0  0
   11.2622  -12.8682   22.4657 H   0  0  0  0  0  0
   10.4738  -11.3838   22.8086 H   0  0  0  0  0  0
   20.5630  -16.8407   20.5352 H   0  0  0  0  0  0
   21.6851  -16.9575   21.6775 H   0  0  0  0  0  0
  1  6  1  0  0  0
  1  2  2  0  0  0
  1 35  1  0  0  0
  2  3  1  0  0  0
  2 36  1  0  0  0
  3  4  2  0  0  0
  3 37  1  0  0  0
  4  5  1  0  0  0
  4  7  1  0  0  0
  5  6  2  0  0  0
  5 38  1  0  0  0
  6 39  1  0  0  0
  7  8  1  0  0  0
  7 14  1  0  0  0
  7 40  1  0  0  0
  8 13  1  0  0  0
  8  9  2  0  0  0
  9 10  1  0  0  0
  9 41  1  0  0  0
 10 11  2  0  0  0
 10 42  1  0  0  0
 11 12  1  0  0  0
 11 43  1  0  0  0
 12 13  2  0  0  0
 12 44  1  0  0  0
 13 45  1  0  0  0
 14 33  1  0  0  0
 14 15  1  0  0  0
 14 32  1  0  0  0
 15 16  2  0  0  0
 15 17  1  0  0  0
 17 21  1  0  0  0
 17 18  1  0  0  0
 18 19  1  0  0  0
 18 46  1  0  0  0
 18 47  1  0  0  0
 19 20  1  0  0  0
 19 48  1  0  0  0
 19 49  1  0  0  0
 20 21  1  0  0  0
 20 50  1  0  0  0
 20 51  1  0  0  0
 21 34  1  0  0  0
 21 22  1  0  0  0
 22 23  2  0  0  0
 22 24  1  0  0  0
 24 25  1  0  0  0
 24 52  1  0  0  0
 25 26  1  0  0  0
 25 53  1  0  0  0
 25 54  1  0  0  0
 26 30  1  0  0  0
 26 27  2  0  0  0
 27 28  1  0  0  0
 27 55  1  0  0  0
 28 29  1  0  0  0
 29 30  2  0  0  0
 29 31  1  0  0  0
 31 56  1  0  0  0
 31 57  1  0  0  0
 32 58  1  0  0  0
 32 59  1  0  0  0
M  END
> <s_m_entry_id>
38050

> <s_m_entry_name>
ligand_docking-pose.397

> <s_m_Source_Path>
/home/csk/Desktop/cluster/DUD-E-result/thrb

> <s_m_Source_File>
ligand_docking-pose.sdf

> <i_m_Source_File_Index>
397

> <i_lp_mmshare_version>
53161

> <i_f3d_flags>
0

> <r_lp_tautomer_probability>
1

> <s_lp_Force_Field>
OPLS_2005

> <r_lp_Energy>
20.839724

> <b_lp_Chiralities_Consistent>
1

> <s_lp_Variant>
202956-1

> <s_i_glide_gridfile>
glide-grid_1ype

> <i_i_glide_lignum>
749

> <i_i_glide_rotatable_bonds>
9

> <r_i_docking_score>
-6.8356493045122

> <r_i_glide_ligand_efficiency>
-0.213614040766006

> <r_i_glide_ligand_efficiency_sa>
-0.678182305270806

> <r_i_glide_ligand_efficiency_ln>
-1.53068821204288

> <r_i_glide_gscore>
-6.8356493045122

> <r_i_glide_lipo>
-3.11703387093449

> <r_i_glide_hbond>
-0.661258222094639

> <r_i_glide_metal>
0

> <r_i_glide_rewards>
-0.654706939307776

> <r_i_glide_evdw>
-44.8964729309082

> <r_i_glide_ecoul>
-7.00191640853882

> <r_i_glide_erotb>
0.892460835650933

> <r_i_glide_esite>
0

> <r_i_glide_emodel>
-71.3960136386949

> <r_i_glide_energy>
-51.898389339447

> <r_i_glide_einternal>
3.29770803451538

> <i_i_glide_confnum>
123

> <i_i_glide_posenum>
372

> <r_i_glide_eff_state_penalty>
0

> <s_user_duplicate_titles>
202956

> <s_m_subgroup_title>
dock_pv

> <s_m_subgroupid>
dock_pv1

> <b_m_subgroup_collapsed>
0

$$$$
435048
                    3D
 Schrodinger Suite 2021-1.
 74 78  0  0  1  0            999 V2000
   17.7345  -15.2017   24.5026 C   0  0  0  0  0  0
   18.2821  -16.6381   24.6684 C   0  0  2  0  0  0
   19.5822  -16.6670   25.4841 C   0  0  0  0  0  0
   20.7428  -16.0775   24.6868 C   0  0  2  0  0  0
   20.9406  -16.9088   23.3987 C   0  0  0  0  0  0
   19.6585  -17.4079   22.6814 C   0  0  0  0  0  0
   19.7432  -17.9515   21.5796 O   0  0  0  0  0  0
   18.4643  -17.3089   23.3554 N   0  0  0  0  0  0
   17.2414  -17.9991   22.8582 C   0  0  1  0  0  0
   16.2008  -18.0475   24.0009 C   0  0  0  0  0  0
   17.0685  -17.6612   25.5203 S   0  0  0  0  0  0
   16.5903  -17.4928   21.5556 C   0  0  0  0  0  0
   16.3839  -18.2871   20.6405 O   0  0  0  0  0  0
   16.1942  -16.2084   21.4991 N   0  0  0  0  0  0
   15.3209  -15.6677   20.4462 C   0  0  1  0  0  0
   13.8476  -16.0619   20.7566 C   0  0  0  0  0  0
   12.8282  -15.7003   19.6614 C   0  0  0  0  0  0
   12.8322  -16.7020   18.4943 C   0  0  0  0  0  0
   11.7975  -16.3950   17.5211 N   0  0  0  0  0  0
   10.4190  -16.5225   17.6289 C   0  0  0  0  0  0
    9.6161  -16.1841   16.7211 N   0  0  0  0  0  0
   10.0166  -17.0536   18.8313 N   0  0  0  0  0  0
   15.6894  -14.1789   20.3529 C   0  0  0  0  0  0
   16.7694  -13.9064   19.8208 O   0  0  0  0  0  0
   14.8314  -13.0851   20.8641 C   0  0  0  0  0  0
   13.6922  -13.1925   21.4980 N   0  0  0  0  0  0
   13.1768  -11.9932   21.8727 C   0  0  0  0  0  0
   11.9794  -11.8163   22.5806 C   0  0  0  0  0  0
   11.6166  -10.5270   22.9652 C   0  0  0  0  0  0
   12.4157   -9.4323   22.6443 C   0  0  0  0  0  0
   13.5933   -9.5752   21.9084 C   0  0  0  0  0  0
   13.9644  -10.8704   21.5211 C   0  0  0  0  0  0
   15.3755  -11.4262   20.6364 S   0  0  0  0  0  0
   22.0015  -16.0304   25.5864 C   0  0  0  0  0  0
   23.2825  -15.6747   24.8591 C   0  0  0  0  0  0
   23.6046  -14.3365   24.6212 C   0  0  0  0  0  0
   24.7835  -14.0265   23.9526 C   0  0  0  0  0  0
   25.6175  -15.0532   23.5204 C   0  0  0  0  0  0
   25.3052  -16.3859   23.7593 C   0  0  0  0  0  0
   24.1331  -16.6982   24.4352 C   0  0  0  0  0  0
   20.5163  -15.0528   24.3914 H   0  0  0  0  0  0
   17.5856  -19.0103   22.6270 H   0  0  0  0  0  0
   15.5948  -16.1120   19.4861 H   0  0  0  0  0  0
   18.4270  -14.5488   23.9728 H   0  0  0  0  0  0
   16.8177  -15.1901   23.9273 H   0  0  0  0  0  0
   17.5196  -14.7412   25.4671 H   0  0  0  0  0  0
   19.4498  -16.1218   26.4211 H   0  0  0  0  0  0
   19.8352  -17.6852   25.7935 H   0  0  0  0  0  0
   21.5322  -17.8008   23.6074 H   0  0  0  0  0  0
   21.5051  -16.3294   22.6664 H   0  0  0  0  0  0
   15.3660  -17.3537   23.8904 H   0  0  0  0  0  0
   15.7896  -19.0514   24.1041 H   0  0  0  0  0  0
   16.3689  -15.6076   22.2915 H   0  0  0  0  0  0
   13.7874  -17.1402   20.9104 H   0  0  0  0  0  0
   13.5292  -15.6591   21.7177 H   0  0  0  0  0  0
   11.8403  -15.6591   20.1194 H   0  0  0  0  0  0
   13.0124  -14.6972   19.2762 H   0  0  0  0  0  0
   13.7963  -16.6926   17.9852 H   0  0  0  0  0  0
   12.6782  -17.7186   18.8575 H   0  0  0  0  0  0
   12.1329  -16.1892   16.5847 H   0  0  0  0  0  0
   10.1487  -15.8810   15.9028 H   0  0  0  0  0  0
    9.1444  -17.5635   18.7619 H   0  0  0  0  0  0
   10.7045  -17.6666   19.2431 H   0  0  0  0  0  0
   11.3546  -12.6533   22.8480 H   0  0  0  0  0  0
   10.7036  -10.3755   23.5296 H   0  0  0  0  0  0
   12.1098   -8.4528   22.9806 H   0  0  0  0  0  0
   14.2119   -8.7217   21.6692 H   0  0  0  0  0  0
   21.8501  -15.2975   26.3778 H   0  0  0  0  0  0
   22.1446  -16.9826   26.1022 H   0  0  0  0  0  0
   22.9518  -13.5436   24.9566 H   0  0  0  0  0  0
   25.0531  -12.9973   23.7725 H   0  0  0  0  0  0
   26.5386  -14.8138   23.0101 H   0  0  0  0  0  0
   25.9703  -17.1710   23.4303 H   0  0  0  0  0  0
   23.8881  -17.7324   24.6275 H   0  0  0  0  0  0
  1  2  1  0  0  0
  1 44  1  0  0  0
  1 45  1  0  0  0
  1 46  1  0  0  0
  2  8  1  0  0  0
  2 11  1  0  0  0
  2  3  1  0  0  0
  3  4  1  0  0  0
  3 47  1  0  0  0
  3 48  1  0  0  0
  4 41  1  0  0  0
  4  5  1  0  0  0
  4 34  1  0  0  0
  5  6  1  0  0  0
  5 49  1  0  0  0
  5 50  1  0  0  0
  6  7  2  0  0  0
  6  8  1  0  0  0
  8  9  1  0  0  0
  9 42  1  0  0  0
  9 10  1  0  0  0
  9 12  1  0  0  0
 10 11  1  0  0  0
 10 51  1  0  0  0
 10 52  1  0  0  0
 12 13  2  0  0  0
 12 14  1  0  0  0
 14 15  1  0  0  0
 14 53  1  0  0  0
 15 43  1  0  0  0
 15 16  1  0  0  0
 15 23  1  0  0  0
 16 17  1  0  0  0
 16 54  1  0  0  0
 16 55  1  0  0  0
 17 18  1  0  0  0
 17 56  1  0  0  0
 17 57  1  0  0  0
 18 19  1  0  0  0
 18 58  1  0  0  0
 18 59  1  0  0  0
 19 20  1  0  0  0
 19 60  1  0  0  0
 20 21  2  3  0  0
 20 22  1  0  0  0
 21 61  1  0  0  0
 22 62  1  0  0  0
 22 63  1  0  0  0
 23 24  2  0  0  0
 23 25  1  0  0  0
 25 33  1  0  0  0
 25 26  2  0  0  0
 26 27  1  0  0  0
 27 32  2  0  0  0
 27 28  1  0  0  0
 28 29  2  0  0  0
 28 64  1  0  0  0
 29 30  1  0  0  0
 29 65  1  0  0  0
 30 31  2  0  0  0
 30 66  1  0  0  0
 31 32  1  0  0  0
 31 67  1  0  0  0
 32 33  1  0  0  0
 34 35  1  0  0  0
 34 68  1  0  0  0
 34 69  1  0  0  0
 35 40  1  0  0  0
 35 36  2  0  0  0
 36 37  1  0  0  0
 36 70  1  0  0  0
 37 38  2  0  0  0
 37 71  1  0  0  0
 38 39  1  0  0  0
 38 72  1  0  0  0
 39 40  2  0  0  0
 39 73  1  0  0  0
 40 74  1  0  0  0
M  END
> <s_m_entry_id>
38051

> <s_m_entry_name>
ligand_docking-pose.398

> <s_m_Source_Path>
/home/csk/Desktop/cluster/DUD-E-result/thrb

> <s_m_Source_File>
ligand_docking-pose.sdf

> <i_m_Source_File_Index>
398

> <i_lp_mmshare_version>
53161

> <i_f3d_flags>
0

> <r_lp_tautomer_probability>
0.99990000499975

> <s_lp_Force_Field>
OPLS_2005

> <r_lp_Energy>
34.47777

> <b_lp_Chiralities_Consistent>
1

> <s_lp_Variant>
435048-2

> <s_i_glide_gridfile>
glide-grid_1ype

> <i_i_glide_lignum>
2134

> <i_i_glide_rotatable_bonds>
12

> <r_i_docking_score>
-6.835105441954

> <r_i_glide_ligand_efficiency>
-0.17087763604885

> <r_i_glide_ligand_efficiency_sa>
-0.584393294218431

> <r_i_glide_ligand_efficiency_ln>
-1.45772684259498

> <r_i_glide_gscore>
-6.835105441954

> <r_i_glide_lipo>
-2.73304256953745

> <r_i_glide_hbond>
-0.851449958510242

> <r_i_glide_metal>
0

> <r_i_glide_rewards>
-0.0245305998968271

> <r_i_glide_evdw>
-45.7094230651855

> <r_i_glide_ecoul>
-9.72063159942627

> <r_i_glide_erotb>
0.58782096421429

> <r_i_glide_esite>
-0.0703373850505545

> <r_i_glide_emodel>
-67.03071627181

> <r_i_glide_energy>
-55.4300546646118

> <r_i_glide_einternal>
23.980827331543

> <i_i_glide_confnum>
25

> <i_i_glide_posenum>
381

> <r_i_glide_eff_state_penalty>
0

> <s_user_duplicate_titles>
435048

> <s_m_subgroup_title>
dock_pv

> <s_m_subgroupid>
dock_pv1

> <b_m_subgroup_collapsed>
0

$$$$
167793
                    3D
 Schrodinger Suite 2021-1.
 59 62  0  0  1  0            999 V2000
   21.1927  -13.1726   25.8230 C   0  0  0  0  0  0
   21.8436  -13.4700   24.6323 C   0  0  0  0  0  0
   21.3004  -14.3946   23.7489 C   0  0  0  0  0  0
   20.0933  -15.0562   24.0669 C   0  0  0  0  0  0
   19.4317  -14.7260   25.2695 C   0  0  0  0  0  0
   19.9931  -13.7977   26.1366 C   0  0  0  0  0  0
   19.4697  -16.0406   23.0797 C   0  0  0  0  0  0
   18.2318  -15.5951   22.2384 C   0  0  2  0  0  0
   18.0610  -14.0537   22.0352 C   0  0  0  0  0  0
   17.2251  -13.4527   22.7203 O   0  0  0  0  0  0
   18.8454  -13.4138   21.1256 N   0  0  0  0  0  0
   19.9259  -14.0318   20.3461 C   0  0  0  0  0  0
   20.9318  -12.8895   20.2203 C   0  0  0  0  0  0
   20.0574  -11.6611   20.0670 C   0  0  0  0  0  0
   18.8419  -11.9454   20.9656 C   0  0  1  0  0  0
   17.5157  -11.2850   20.5153 C   0  0  0  0  0  0
   16.8388  -11.8798   19.2747 C   0  0  0  0  0  0
   17.4100  -11.8731   18.1839 O   0  0  0  0  0  0
   15.5934  -12.3321   19.4561 N   0  0  0  0  0  0
   14.7052  -12.8470   18.4189 C   0  0  0  0  0  0
   13.7464  -13.9152   18.9454 C   0  0  0  0  0  0
   13.7820  -15.1727   18.3257 C   0  0  0  0  0  0
   12.9411  -16.2007   18.7408 C   0  0  0  0  0  0
   12.0588  -15.9924   19.7946 C   0  0  0  0  0  0
   12.0160  -14.7540   20.4299 C   0  0  0  0  0  0
   12.8396  -13.6968   20.0158 C   0  0  0  0  0  0
   12.7180  -12.4635   20.7156 N   0  0  0  0  0  0
   12.4207  -12.2475   22.0443 C   0  0  0  0  0  0
   12.3605  -10.9698   22.3203 N   0  0  0  0  0  0
   12.6150  -10.3288   21.1151 N   0  0  0  0  0  0
   12.8174  -11.2648   20.1190 N   0  0  0  0  0  0
   16.9805  -16.1547   22.7973 N   0  0  0  0  0  0
   18.3235  -16.0344   21.2439 H   0  0  0  0  0  0
   19.0214  -11.5537   21.9657 H   0  0  0  0  0  0
   21.6108  -12.4484   26.5052 H   0  0  0  0  0  0
   22.7854  -13.0004   24.3949 H   0  0  0  0  0  0
   21.8158  -14.6152   22.8250 H   0  0  0  0  0  0
   18.4906  -15.1934   25.5195 H   0  0  0  0  0  0
   19.4872  -13.5468   27.0581 H   0  0  0  0  0  0
   19.2240  -16.9397   23.6468 H   0  0  0  0  0  0
   20.2578  -16.3737   22.4045 H   0  0  0  0  0  0
   19.5539  -14.2524   19.3467 H   0  0  0  0  0  0
   20.3972  -14.8956   20.8096 H   0  0  0  0  0  0
   21.6208  -13.0331   19.3875 H   0  0  0  0  0  0
   21.5351  -12.8161   21.1259 H   0  0  0  0  0  0
   19.7660  -11.5805   19.0206 H   0  0  0  0  0  0
   20.5566  -10.7256   20.3208 H   0  0  0  0  0  0
   17.6923  -10.2338   20.3220 H   0  0  0  0  0  0
   16.8187  -11.2958   21.3530 H   0  0  0  0  0  0
   15.1776  -12.2071   20.3671 H   0  0  0  0  0  0
   15.2801  -13.2278   17.5714 H   0  0  0  0  0  0
   14.1206  -12.0222   18.0092 H   0  0  0  0  0  0
   14.4560  -15.3638   17.5017 H   0  0  0  0  0  0
   12.9698  -17.1579   18.2414 H   0  0  0  0  0  0
   11.4000  -16.7870   20.1147 H   0  0  0  0  0  0
   11.3152  -14.6192   21.2406 H   0  0  0  0  0  0
   12.2648  -13.0676   22.7281 H   0  0  0  0  0  0
   17.0116  -16.1536   23.8079 H   0  0  0  0  0  0
   16.1995  -15.5546   22.5556 H   0  0  0  0  0  0
  1  6  1  0  0  0
  1  2  2  0  0  0
  1 35  1  0  0  0
  2  3  1  0  0  0
  2 36  1  0  0  0
  3  4  2  0  0  0
  3 37  1  0  0  0
  4  5  1  0  0  0
  4  7  1  0  0  0
  5  6  2  0  0  0
  5 38  1  0  0  0
  6 39  1  0  0  0
  7  8  1  0  0  0
  7 40  1  0  0  0
  7 41  1  0  0  0
  8 33  1  0  0  0
  8  9  1  0  0  0
  8 32  1  0  0  0
  9 10  2  0  0  0
  9 11  1  0  0  0
 11 15  1  0  0  0
 11 12  1  0  0  0
 12 13  1  0  0  0
 12 42  1  0  0  0
 12 43  1  0  0  0
 13 14  1  0  0  0
 13 44  1  0  0  0
 13 45  1  0  0  0
 14 15  1  0  0  0
 14 46  1  0  0  0
 14 47  1  0  0  0
 15 34  1  0  0  0
 15 16  1  0  0  0
 16 17  1  0  0  0
 16 48  1  0  0  0
 16 49  1  0  0  0
 17 18  2  0  0  0
 17 19  1  0  0  0
 19 20  1  0  0  0
 19 50  1  0  0  0
 20 21  1  0  0  0
 20 51  1  0  0  0
 20 52  1  0  0  0
 21 26  1  0  0  0
 21 22  2  0  0  0
 22 23  1  0  0  0
 22 53  1  0  0  0
 23 24  2  0  0  0
 23 54  1  0  0  0
 24 25  1  0  0  0
 24 55  1  0  0  0
 25 26  2  0  0  0
 25 56  1  0  0  0
 26 27  1  0  0  0
 27 31  1  0  0  0
 27 28  1  0  0  0
 28 29  2  0  0  0
 28 57  1  0  0  0
 29 30  1  0  0  0
 30 31  2  0  0  0
 32 58  1  0  0  0
 32 59  1  0  0  0
M  END
> <s_m_entry_id>
38052

> <s_m_entry_name>
ligand_docking-pose.399

> <s_m_Source_Path>
/home/csk/Desktop/cluster/DUD-E-result/thrb

> <s_m_Source_File>
ligand_docking-pose.sdf

> <i_m_Source_File_Index>
399

> <i_lp_mmshare_version>
53161

> <i_f3d_flags>
0

> <r_lp_tautomer_probability>
1

> <s_lp_Force_Field>
OPLS_2005

> <r_lp_Energy>
51.068535

> <b_lp_Chiralities_Consistent>
1

> <s_lp_Variant>
167793-1

> <s_i_glide_gridfile>
glide-grid_1ype

> <i_i_glide_lignum>
1076

> <i_i_glide_rotatable_bonds>
10

> <r_i_docking_score>
-6.8321165888283

> <r_i_glide_ligand_efficiency>
-0.213503643400884

> <r_i_glide_ligand_efficiency_sa>
-0.677831815484153

> <r_i_glide_ligand_efficiency_ln>
-1.52989714070306

> <r_i_glide_gscore>
-6.8321165888283

> <r_i_glide_lipo>
-2.9271003911615

> <r_i_glide_hbond>
0

> <r_i_glide_metal>
0

> <r_i_glide_rewards>
-1.62584037981269

> <r_i_glide_evdw>
-47.3923110961914

> <r_i_glide_ecoul>
-5.75304937362671

> <r_i_glide_erotb>
0.95339714299946

> <r_i_glide_esite>
0

> <r_i_glide_emodel>
-72.8702824744748

> <r_i_glide_energy>
-53.1453604698181

> <r_i_glide_einternal>
5.13279914855957

> <i_i_glide_confnum>
49

> <i_i_glide_posenum>
378

> <r_i_glide_eff_state_penalty>
0

> <s_user_duplicate_titles>
167793

> <s_m_subgroup_title>
dock_pv

> <s_m_subgroupid>
dock_pv1

> <b_m_subgroup_collapsed>
0

$$$$
177933
                    3D
 Schrodinger Suite 2021-1.
 58 59  0  0  1  0            999 V2000
   16.6429  -16.3785   21.8203 C   0  0  0  0  0  0
   17.7149  -16.1496   22.7296 O   0  0  0  0  0  0
   18.4156  -14.9047   22.5755 C   0  0  1  0  0  0
   19.1190  -14.5423   23.9001 C   0  0  0  0  0  0
   18.5662  -15.0011   25.1025 C   0  0  0  0  0  0
   19.1375  -14.6541   26.3208 C   0  0  0  0  0  0
   20.2509  -13.8208   26.3507 C   0  0  0  0  0  0
   20.8019  -13.3340   25.1725 C   0  0  0  0  0  0
   20.2373  -13.6909   23.9527 C   0  0  0  0  0  0
   19.3921  -14.9974   21.3676 C   0  0  0  0  0  0
   19.9249  -16.0814   21.1206 O   0  0  0  0  0  0
   19.6903  -13.8871   20.6465 N   0  0  0  0  0  0
   20.8185  -13.8497   19.7235 C   0  0  0  0  0  0
   21.2943  -12.4083   19.7926 C   0  0  0  0  0  0
   19.9849  -11.6465   19.8912 C   0  0  0  0  0  0
   19.0598  -12.5529   20.7356 C   0  0  1  0  0  0
   17.6126  -12.5331   20.2162 C   0  0  0  0  0  0
   17.3847  -12.7765   19.0323 O   0  0  0  0  0  0
   16.6758  -12.2261   21.1354 N   0  0  0  0  0  0
   15.2343  -11.9720   20.9523 C   0  0  1  0  0  0
   14.9677  -10.5742   20.3322 C   0  0  0  0  0  0
   13.9813   -9.6679   21.0968 C   0  0  0  0  0  0
   12.4919  -10.0591   20.9803 C   0  0  0  0  0  0
   11.9153  -10.1843   22.3047 N   0  0  0  0  0  0
   11.6179  -11.3227   22.7812 C   0  0  0  0  0  0
   10.8160  -11.4528   23.9219 N   0  0  0  0  0  0
   12.0160  -12.5866   22.3006 N   0  0  0  0  0  0
   14.5698  -13.1287   20.2117 C   0  0  0  0  0  0
   13.5300  -13.0159   19.5639 O   0  0  0  0  0  0
   17.6702  -14.1291   22.4447 H   0  0  0  0  0  0
   19.0931  -12.2225   21.7739 H   0  0  0  0  0  0
   16.2029  -17.3562   22.0171 H   0  0  0  0  0  0
   15.8592  -15.6308   21.9450 H   0  0  0  0  0  0
   16.9769  -16.3677   20.7821 H   0  0  0  0  0  0
   17.6869  -15.6298   25.0998 H   0  0  0  0  0  0
   18.7002  -15.0187   27.2385 H   0  0  0  0  0  0
   20.6854  -13.5373   27.2983 H   0  0  0  0  0  0
   21.6580  -12.6763   25.2096 H   0  0  0  0  0  0
   20.6914  -13.2939   23.0580 H   0  0  0  0  0  0
   21.6155  -14.5447   19.9899 H   0  0  0  0  0  0
   20.4723  -14.0981   18.7216 H   0  0  0  0  0  0
   21.8723  -12.2629   20.7068 H   0  0  0  0  0  0
   21.9231  -12.1133   18.9515 H   0  0  0  0  0  0
   20.1141  -10.6536   20.3212 H   0  0  0  0  0  0
   19.5919  -11.5062   18.8825 H   0  0  0  0  0  0
   17.0299  -11.9194   22.0292 H   0  0  0  0  0  0
   14.8250  -11.9888   21.9627 H   0  0  0  0  0  0
   15.9081  -10.0180   20.3197 H   0  0  0  0  0  0
   14.6813  -10.6535   19.2827 H   0  0  0  0  0  0
   14.2986   -9.5908   22.1386 H   0  0  0  0  0  0
   14.0892   -8.6530   20.7207 H   0  0  0  0  0  0
   11.9481   -9.2784   20.4454 H   0  0  0  0  0  0
   12.3521  -10.9417   20.3544 H   0  0  0  0  0  0
   10.2667  -10.6460   24.1867 H   0  0  0  0  0  0
   10.2292  -12.2721   23.9789 H   0  0  0  0  0  0
   12.3347  -12.6497   21.3449 H   0  0  0  0  0  0
   11.4175  -13.3725   22.5327 H   0  0  0  0  0  0
   15.0616  -14.0939   20.3260 H   0  0  0  0  0  0
  1  2  1  0  0  0
  1 32  1  0  0  0
  1 33  1  0  0  0
  1 34  1  0  0  0
  2  3  1  0  0  0
  3 30  1  0  0  0
  3  4  1  0  0  0
  3 10  1  0  0  0
  4  9  1  0  0  0
  4  5  2  0  0  0
  5  6  1  0  0  0
  5 35  1  0  0  0
  6  7  2  0  0  0
  6 36  1  0  0  0
  7  8  1  0  0  0
  7 37  1  0  0  0
  8  9  2  0  0  0
  8 38  1  0  0  0
  9 39  1  0  0  0
 10 11  2  0  0  0
 10 12  1  0  0  0
 12 16  1  0  0  0
 12 13  1  0  0  0
 13 14  1  0  0  0
 13 40  1  0  0  0
 13 41  1  0  0  0
 14 15  1  0  0  0
 14 42  1  0  0  0
 14 43  1  0  0  0
 15 16  1  0  0  0
 15 44  1  0  0  0
 15 45  1  0  0  0
 16 31  1  0  0  0
 16 17  1  0  0  0
 17 18  2  0  0  0
 17 19  1  0  0  0
 19 20  1  0  0  0
 19 46  1  0  0  0
 20 21  1  0  0  0
 20 28  1  0  0  0
 20 47  1  0  0  0
 21 22  1  0  0  0
 21 48  1  0  0  0
 21 49  1  0  0  0
 22 23  1  0  0  0
 22 50  1  0  0  0
 22 51  1  0  0  0
 23 24  1  0  0  0
 23 52  1  0  0  0
 23 53  1  0  0  0
 24 25  2  3  0  0
 25 26  1  0  0  0
 25 27  1  0  0  0
 26 54  1  0  0  0
 26 55  1  0  0  0
 27 56  1  0  0  0
 27 57  1  0  0  0
 28 29  2  0  0  0
 28 58  1  0  0  0
M  END
> <s_m_entry_id>
38053

> <s_m_entry_name>
ligand_docking-pose.400

> <s_m_Source_Path>
/home/csk/Desktop/cluster/DUD-E-result/thrb

> <s_m_Source_File>
ligand_docking-pose.sdf

> <i_m_Source_File_Index>
400

> <i_lp_mmshare_version>
53161

> <i_f3d_flags>
0

> <r_lp_tautomer_probability>
0.99990000499975

> <s_lp_Force_Field>
OPLS_2005

> <r_lp_Energy>
17.228839

> <b_lp_Chiralities_Consistent>
1

> <s_lp_Variant>
177933-2

> <s_i_glide_gridfile>
glide-grid_1ype

> <i_i_glide_lignum>
4704

> <i_i_glide_rotatable_bonds>
12

> <r_i_docking_score>
-6.83052543957124

> <r_i_glide_ligand_efficiency>
-0.235535359985215

> <r_i_glide_ligand_efficiency_sa>
-0.723639248714314

> <r_i_glide_ligand_efficiency_ln>
-1.56401711848139

> <r_i_glide_gscore>
-6.83052543957124

> <r_i_glide_lipo>
-3.0425158088883

> <r_i_glide_hbond>
-0.343612083659028

> <r_i_glide_metal>
0

> <r_i_glide_rewards>
-1.4342201778775

> <r_i_glide_evdw>
-45.6098747253418

> <r_i_glide_ecoul>
-5.7298469543457

> <r_i_glide_erotb>
1.20606536399074

> <r_i_glide_esite>
-0.0762719537182067

> <r_i_glide_emodel>
-64.8200558655102

> <r_i_glide_energy>
-51.3397216796875

> <r_i_glide_einternal>
15.0331468582153

> <i_i_glide_confnum>
451

> <i_i_glide_posenum>
60

> <r_i_glide_eff_state_penalty>
0

> <s_user_duplicate_titles>
177933

> <s_m_subgroup_title>
dock_pv

> <s_m_subgroupid>
dock_pv1

> <b_m_subgroup_collapsed>
0

$$$$
36664
                    3D
 Schrodinger Suite 2021-1.
 34 36  0  0  1  0            999 V2000
   20.8113  -13.4534   20.8499 C   0  0  0  0  0  0
   19.5405  -13.8586   21.2485 C   0  0  0  0  0  0
   18.4281  -13.4558   20.5149 C   0  0  0  0  0  0
   18.5837  -12.6421   19.3853 C   0  0  0  0  0  0
   19.8665  -12.2531   18.9870 C   0  0  0  0  0  0
   20.9775  -12.6510   19.7241 C   0  0  0  0  0  0
   17.3758  -12.1957   18.5608 C   0  0  0  0  0  0
   16.1045  -11.9990   19.3641 C   0  0  0  0  0  0
   15.7674  -11.0601   20.3209 C   0  0  0  0  0  0
   14.4631  -11.3821   20.8146 C   0  0  0  0  0  0
   13.6251  -10.8302   21.7902 C   0  0  0  0  0  0
   12.4087  -11.4509   22.1141 C   0  0  0  0  0  0
   12.0162  -12.5802   21.3748 C   0  0  0  0  0  0
   12.7947  -13.1381   20.3601 C   0  0  0  0  0  0
   14.0281  -12.5357   20.1100 C   0  0  0  0  0  0
   15.0414  -12.8627   19.2346 N   0  0  0  0  0  0
   11.5812  -10.9129   23.2221 C   0  0  0  0  0  0
   11.6161   -9.6957   23.5327 N   0  0  0  0  0  0
   10.8160  -11.8529   23.8639 N   0  0  0  0  0  0
   15.0595  -13.6438   18.5962 H   0  0  0  0  0  0
   21.6759  -13.7694   21.4149 H   0  0  0  0  0  0
   19.4177  -14.4845   22.1201 H   0  0  0  0  0  0
   17.4475  -13.7799   20.8307 H   0  0  0  0  0  0
   20.0107  -11.6463   18.1069 H   0  0  0  0  0  0
   21.9691  -12.3491   19.4193 H   0  0  0  0  0  0
   17.2297  -12.9357   17.7728 H   0  0  0  0  0  0
   17.6163  -11.2710   18.0372 H   0  0  0  0  0  0
   16.4052  -10.2510   20.6477 H   0  0  0  0  0  0
   13.9517   -9.9528   22.3302 H   0  0  0  0  0  0
   11.0705  -13.0563   21.5922 H   0  0  0  0  0  0
   12.4630  -14.0148   19.8227 H   0  0  0  0  0  0
   10.9877   -9.5108   24.3019 H   0  0  0  0  0  0
   10.1093  -11.5620   24.5322 H   0  0  0  0  0  0
   10.8163  -12.8275   23.5802 H   0  0  0  0  0  0
  1  6  1  0  0  0
  1  2  2  0  0  0
  1 21  1  0  0  0
  2  3  1  0  0  0
  2 22  1  0  0  0
  3  4  2  0  0  0
  3 23  1  0  0  0
  4  5  1  0  0  0
  4  7  1  0  0  0
  5  6  2  0  0  0
  5 24  1  0  0  0
  6 25  1  0  0  0
  7  8  1  0  0  0
  7 26  1  0  0  0
  7 27  1  0  0  0
  8 16  1  0  0  0
  8  9  2  0  0  0
  9 10  1  0  0  0
  9 28  1  0  0  0
 10 15  2  0  0  0
 10 11  1  0  0  0
 11 12  2  0  0  0
 11 29  1  0  0  0
 12 13  1  0  0  0
 12 17  1  0  0  0
 13 14  2  0  0  0
 13 30  1  0  0  0
 14 15  1  0  0  0
 14 31  1  0  0  0
 15 16  1  0  0  0
 16 20  1  0  0  0
 17 18  2  3  0  0
 17 19  1  0  0  0
 18 32  1  0  0  0
 19 33  1  0  0  0
 19 34  1  0  0  0
M  END
> <s_m_entry_id>
38055

> <s_m_entry_name>
ligand_docking-pose.402

> <s_m_Source_Path>
/home/csk/Desktop/cluster/DUD-E-result/thrb

> <s_m_Source_File>
ligand_docking-pose.sdf

> <i_m_Source_File_Index>
402

> <i_lp_mmshare_version>
53161

> <i_f3d_flags>
0

> <r_lp_tautomer_probability>
1

> <s_lp_Force_Field>
OPLS_2005

> <r_lp_Energy>
3.338992

> <b_lp_Chiralities_Consistent>
1

> <s_lp_Variant>
36664-1

> <s_i_glide_gridfile>
glide-grid_1ype

> <i_i_glide_lignum>
652

> <i_i_glide_rotatable_bonds>
3

> <r_i_docking_score>
-6.82822198675131

> <r_i_glide_ligand_efficiency>
-0.359380104565858

> <r_i_glide_ligand_efficiency_sa>
-0.958970462600192

> <r_i_glide_ligand_efficiency_ln>
-1.7311009304026

> <r_i_glide_gscore>
-6.82822198675131

> <r_i_glide_lipo>
-2.56169306923267

> <r_i_glide_hbond>
-0.406232022692016

> <r_i_glide_metal>
0

> <r_i_glide_rewards>
-1.88028046893405

> <r_i_glide_evdw>
-32.1788520812988

> <r_i_glide_ecoul>
-5.52321434020996

> <r_i_glide_erotb>
0.562657572875193

> <r_i_glide_esite>
-0.105249243671333

> <r_i_glide_emodel>
-53.7834654352298

> <r_i_glide_energy>
-37.7020664215088

> <r_i_glide_einternal>
1.38810038566589

> <i_i_glide_confnum>
5

> <i_i_glide_posenum>
211

> <r_i_glide_eff_state_penalty>
0

> <s_user_duplicate_titles>
36664

> <s_m_subgroup_title>
dock_pv

> <s_m_subgroupid>
dock_pv1

> <b_m_subgroup_collapsed>
0

$$$$
347011
                    3D
 Schrodinger Suite 2021-1.
 66 68  0  0  1  0            999 V2000
   14.4809   -9.3034   21.1099 C   0  0  0  0  0  0
   13.4892  -10.3834   21.4891 C   0  0  0  0  0  0
   13.5039  -11.6240   20.8493 C   0  0  0  0  0  0
   12.5511  -12.5520   21.2550 C   0  0  0  0  0  0
   11.6160  -11.8503   22.5215 S   0  0  0  0  0  0
   12.5350  -10.3598   22.5244 C   0  0  0  0  0  0
   12.2554   -9.2944   23.5109 C   0  0  0  0  0  0
   12.9547   -8.2532   23.5213 N   0  0  0  0  0  0
   11.2160   -9.5670   24.3559 N   0  0  0  0  0  0
   12.2620  -13.9566   20.7525 C   0  0  0  0  0  0
   13.4699  -14.6439   20.2917 N   0  0  0  0  0  0
   14.0686  -14.3972   19.1135 C   0  0  0  0  0  0
   13.6345  -13.5657   18.3208 O   0  0  0  0  0  0
   15.3594  -15.1695   18.7677 C   0  0  2  0  0  0
   15.0869  -16.6535   18.6103 C   0  0  0  0  0  0
   15.8242  -17.3594   19.4794 C   0  0  0  0  0  0
   16.6867  -16.4336   20.3026 C   0  0  0  0  0  0
   16.4068  -15.0892   19.7998 N   0  0  0  0  0  0
   17.0817  -13.9542   20.1365 C   0  0  0  0  0  0
   16.7797  -12.8449   19.6869 O   0  0  0  0  0  0
   18.3034  -14.0738   21.1069 C   0  0  2  0  0  0
   17.8379  -13.8594   22.5668 C   0  0  0  0  0  0
   18.8450  -14.3129   23.6584 C   0  0  0  0  0  0
   20.0117  -13.3120   23.9068 C   0  0  0  0  0  0
   20.9353  -13.7347   25.0585 C   0  0  0  0  0  0
   20.1368  -14.0023   26.3409 C   0  0  0  0  0  0
   19.0531  -15.0702   26.1244 C   0  0  0  0  0  0
   18.1101  -14.6949   24.9677 C   0  0  0  0  0  0
   19.3845  -13.1207   20.7437 N   0  0  2  0  0  0
   20.0761  -13.4261   19.4823 C   0  0  0  0  0  0
   20.7954  -12.1777   18.9403 C   0  0  0  0  0  0
   20.8166  -11.8802   17.7450 O   0  0  0  0  0  0
   21.4051  -11.4531   19.9202 O   0  0  0  0  0  0
   15.7247  -14.7356   17.8366 H   0  0  0  0  0  0
   14.8255   -8.6812   21.9255 H   0  0  0  0  0  0
   15.3960   -9.7277   20.6933 H   0  0  0  0  0  0
   14.0403   -8.6523   20.3585 H   0  0  0  0  0  0
   14.2124  -11.8307   20.0631 H   0  0  0  0  0  0
   13.6635   -8.2819   22.8073 H   0  0  0  0  0  0
   10.9242   -8.8754   25.0293 H   0  0  0  0  0  0
   10.6094  -10.3616   24.2004 H   0  0  0  0  0  0
   11.5261  -13.9201   19.9477 H   0  0  0  0  0  0
   11.8038  -14.5753   21.5212 H   0  0  0  0  0  0
   13.8485  -15.3663   20.8859 H   0  0  0  0  0  0
   14.3930  -17.0449   17.8789 H   0  0  0  0  0  0
   15.8398  -18.4342   19.5942 H   0  0  0  0  0  0
   17.7379  -16.7011   20.1960 H   0  0  0  0  0  0
   16.4629  -16.5082   21.3684 H   0  0  0  0  0  0
   18.7162  -15.0802   21.0615 H   0  0  0  0  0  0
   16.9010  -14.4004   22.7245 H   0  0  0  0  0  0
   17.5846  -12.8100   22.7206 H   0  0  0  0  0  0
   19.3224  -15.2413   23.3373 H   0  0  0  0  0  0
   19.6160  -12.3255   24.1462 H   0  0  0  0  0  0
   20.6075  -13.1575   23.0108 H   0  0  0  0  0  0
   21.6842  -12.9624   25.2425 H   0  0  0  0  0  0
   21.4882  -14.6329   24.7749 H   0  0  0  0  0  0
   19.6789  -13.0758   26.6936 H   0  0  0  0  0  0
   20.8191  -14.3171   27.1210 H   0  0  0  0  0  0
   18.4798  -15.2108   27.0422 H   0  0  0  0  0  0
   19.5271  -16.0299   25.9105 H   0  0  0  0  0  0
   17.3945  -15.4969   24.7846 H   0  0  0  0  0  0
   17.5011  -13.8530   25.2812 H   0  0  0  0  0  0
   20.0599  -13.2428   21.4848 H   0  0  0  0  0  0
   20.7898  -14.2375   19.6178 H   0  0  0  0  0  0
   19.3651  -13.7383   18.7203 H   0  0  0  0  0  0
   21.1427  -11.7749   20.7829 H   0  0  0  0  0  0
  1  2  1  0  0  0
  1 35  1  0  0  0
  1 36  1  0  0  0
  1 37  1  0  0  0
  2  6  2  0  0  0
  2  3  1  0  0  0
  3  4  2  0  0  0
  3 38  1  0  0  0
  4  5  1  0  0  0
  4 10  1  0  0  0
  5  6  1  0  0  0
  6  7  1  0  0  0
  7  8  2  3  0  0
  7  9  1  0  0  0
  8 39  1  0  0  0
  9 40  1  0  0  0
  9 41  1  0  0  0
 10 11  1  0  0  0
 10 42  1  0  0  0
 10 43  1  0  0  0
 11 12  1  0  0  0
 11 44  1  0  0  0
 12 13  2  0  0  0
 12 14  1  0  0  0
 14 34  1  0  0  0
 14 18  1  0  0  0
 14 15  1  0  0  0
 15 16  2  0  0  0
 15 45  1  0  0  0
 16 17  1  0  0  0
 16 46  1  0  0  0
 17 18  1  0  0  0
 17 47  1  0  0  0
 17 48  1  0  0  0
 18 19  1  0  0  0
 19 20  2  0  0  0
 19 21  1  0  0  0
 21 22  1  0  0  0
 21 29  1  0  0  0
 21 49  1  0  0  0
 22 23  1  0  0  0
 22 50  1  0  0  0
 22 51  1  0  0  0
 23 28  1  0  0  0
 23 24  1  0  0  0
 23 52  1  0  0  0
 24 25  1  0  0  0
 24 53  1  0  0  0
 24 54  1  0  0  0
 25 26  1  0  0  0
 25 55  1  0  0  0
 25 56  1  0  0  0
 26 27  1  0  0  0
 26 57  1  0  0  0
 26 58  1  0  0  0
 27 28  1  0  0  0
 27 59  1  0  0  0
 27 60  1  0  0  0
 28 61  1  0  0  0
 28 62  1  0  0  0
 29 30  1  0  0  0
 29 63  1  0  0  0
 30 31  1  0  0  0
 30 64  1  0  0  0
 30 65  1  0  0  0
 31 32  2  0  0  0
 31 33  1  0  0  0
 33 66  1  0  0  0
M  END
> <s_m_entry_id>
38056

> <s_m_entry_name>
ligand_docking-pose.403

> <s_m_Source_Path>
/home/csk/Desktop/cluster/DUD-E-result/thrb

> <s_m_Source_File>
ligand_docking-pose.sdf

> <i_m_Source_File_Index>
403

> <i_lp_mmshare_version>
53161

> <i_f3d_flags>
0

> <r_lp_tautomer_probability>
1

> <s_lp_Force_Field>
OPLS_2005

> <r_lp_Energy>
29.073413

> <b_lp_Chiralities_Consistent>
1

> <s_lp_Variant>
347011-2

> <s_i_glide_gridfile>
glide-grid_1ype

> <i_i_glide_lignum>
3005

> <i_i_glide_rotatable_bonds>
13

> <r_i_docking_score>
-6.82672901792682

> <r_i_glide_ligand_efficiency>
-0.206870576300813

> <r_i_glide_ligand_efficiency_sa>
-0.663544474577515

> <r_i_glide_ligand_efficiency_ln>
-1.5182291866758

> <r_i_glide_gscore>
-6.82672901792682

> <r_i_glide_lipo>
-3.33507111222113

> <r_i_glide_hbond>
0

> <r_i_glide_metal>
0

> <r_i_glide_rewards>
-1.12096586223095

> <r_i_glide_evdw>
-48.541633605957

> <r_i_glide_ecoul>
-5.14724779129028

> <r_i_glide_erotb>
0.894941707056267

> <r_i_glide_esite>
-0.0664649015396063

> <r_i_glide_emodel>
-71.754340775543

> <r_i_glide_energy>
-53.6888813972473

> <r_i_glide_einternal>
10.7960596084595

> <i_i_glide_confnum>
88

> <i_i_glide_posenum>
128

> <r_i_glide_eff_state_penalty>
0

> <s_user_duplicate_titles>
347011

> <s_m_subgroup_title>
dock_pv

> <s_m_subgroupid>
dock_pv1

> <b_m_subgroup_collapsed>
0

$$$$
130534
                    3D
 Schrodinger Suite 2021-1.
 77 79  0  0  1  0            999 V2000
   17.8859  -14.5438   25.0385 C   0  0  0  0  0  0
   18.8821  -15.0126   24.0622 N   0  0  2  0  0  0
   20.1884  -14.3117   24.2469 C   0  0  0  0  0  0
   20.7753  -14.5113   25.6811 C   0  0  0  0  0  0
   21.9778  -13.6163   26.0679 C   0  0  0  0  0  0
   23.2942  -13.8531   25.3426 C   0  0  0  0  0  0
   23.4772  -13.8501   24.0177 C   0  0  0  0  0  0
   22.3647  -13.6575   23.0295 C   0  0  0  0  0  0
   21.2458  -14.6930   23.1749 C   0  0  0  0  0  0
   18.3392  -15.1605   22.6557 C   0  0  1  0  0  0
   17.0390  -15.9997   22.4654 C   0  0  0  0  0  0
   17.0648  -17.3747   23.1385 C   0  0  0  0  0  0
   17.5951  -18.3665   22.6433 O   0  0  0  0  0  0
   16.4158  -17.3746   24.3361 O   0  0  0  0  0  0
   18.1664  -13.7626   21.9645 C   0  0  0  0  0  0
   17.3417  -13.0033   22.4701 O   0  0  0  0  0  0
   18.9068  -13.4106   20.8720 N   0  0  0  0  0  0
   19.4604  -14.4175   19.9542 C   0  0  0  0  0  0
   20.8810  -14.0446   19.4964 C   0  0  0  0  0  0
   20.9330  -12.6414   18.8967 C   0  0  0  0  0  0
   20.2623  -11.6566   19.8572 C   0  0  0  0  0  0
   18.8146  -12.0416   20.2982 C   0  0  1  0  0  0
   17.7916  -11.8901   19.1303 C   0  0  0  0  0  0
   16.5229  -11.1075   19.4646 C   0  0  0  0  0  0
   15.7137  -11.9221   20.2923 O   0  0  0  0  0  0
   14.3520  -11.5456   20.4187 C   0  0  0  0  0  0
   13.6649  -12.6058   21.2980 C   0  0  0  0  0  0
   12.1983  -12.2318   21.5941 C   0  0  0  0  0  0
   12.1802  -10.8972   22.2211 N   0  0  0  0  0  0
   12.6690   -9.8548   21.3100 C   0  0  0  0  0  0
   14.1515  -10.1297   21.0070 C   0  0  0  0  0  0
   11.5507  -10.5761   23.4629 C   0  0  0  0  0  0
   11.6155   -9.4535   24.0228 N   0  0  0  0  0  0
   10.8160  -11.6179   24.0530 N   0  0  0  0  0  0
   19.0634  -15.7717   22.1331 H   0  0  0  0  0  0
   18.5452  -11.3426   21.0946 H   0  0  0  0  0  0
   16.8726  -14.8369   24.7851 H   0  0  0  0  0  0
   18.0763  -14.9643   26.0259 H   0  0  0  0  0  0
   17.8976  -13.4581   25.1213 H   0  0  0  0  0  0
   19.9753  -13.2467   24.1255 H   0  0  0  0  0  0
   21.0478  -15.5580   25.8213 H   0  0  0  0  0  0
   20.0258  -14.2950   26.4412 H   0  0  0  0  0  0
   22.1917  -13.7956   27.1206 H   0  0  0  0  0  0
   21.7095  -12.5600   26.0056 H   0  0  0  0  0  0
   24.1828  -14.0162   25.9214 H   0  0  0  0  0  0
   24.4768  -14.0049   23.6351 H   0  0  0  0  0  0
   22.8160  -13.7073   22.0472 H   0  0  0  0  0  0
   21.9652  -12.6528   23.1164 H   0  0  0  0  0  0
   20.8186  -14.7471   22.1903 H   0  0  0  0  0  0
   21.6505  -15.6894   23.3643 H   0  0  0  0  0  0
   16.1497  -15.4525   22.7795 H   0  0  0  0  0  0
   16.8846  -16.1819   21.3995 H   0  0  0  0  0  0
   16.0745  -16.5027   24.5530 H   0  0  0  0  0  0
   19.3522  -15.4663   20.2168 H   0  0  0  0  0  0
   18.8149  -14.2530   19.1116 H   0  0  0  0  0  0
   21.6058  -14.1377   20.2997 H   0  0  0  0  0  0
   21.2156  -14.7595   18.7476 H   0  0  0  0  0  0
   21.9697  -12.3444   18.7221 H   0  0  0  0  0  0
   20.4303  -12.6279   17.9295 H   0  0  0  0  0  0
   20.9149  -11.6045   20.7208 H   0  0  0  0  0  0
   20.2890  -10.6531   19.4579 H   0  0  0  0  0  0
   18.2741  -11.4525   18.2620 H   0  0  0  0  0  0
   17.4560  -12.8556   18.7558 H   0  0  0  0  0  0
   16.7589  -10.1642   19.9590 H   0  0  0  0  0  0
   16.0057  -10.8889   18.5298 H   0  0  0  0  0  0
   13.9079  -11.5777   19.4206 H   0  0  0  0  0  0
   13.6700  -13.5695   20.7881 H   0  0  0  0  0  0
   14.1874  -12.7285   22.2500 H   0  0  0  0  0  0
   11.6171  -12.2007   20.6718 H   0  0  0  0  0  0
   11.7482  -13.0036   22.2173 H   0  0  0  0  0  0
   12.0765   -9.8807   20.3920 H   0  0  0  0  0  0
   12.5494   -8.8531   21.7270 H   0  0  0  0  0  0
   14.7162   -9.9981   21.9210 H   0  0  0  0  0  0
   14.4918   -9.3632   20.3211 H   0  0  0  0  0  0
   11.0544   -9.4533   24.8636 H   0  0  0  0  0  0
   10.1830  -11.4487   24.8273 H   0  0  0  0  0  0
   10.6521  -12.4921   23.5752 H   0  0  0  0  0  0
  1  2  1  0  0  0
  1 37  1  0  0  0
  1 38  1  0  0  0
  1 39  1  0  0  0
  2  3  1  0  0  0
  2 10  1  0  0  0
  3  9  1  0  0  0
  3  4  1  0  0  0
  3 40  1  0  0  0
  4  5  1  0  0  0
  4 41  1  0  0  0
  4 42  1  0  0  0
  5  6  1  0  0  0
  5 43  1  0  0  0
  5 44  1  0  0  0
  6  7  2  0  0  0
  6 45  1  0  0  0
  7  8  1  0  0  0
  7 46  1  0  0  0
  8  9  1  0  0  0
  8 47  1  0  0  0
  8 48  1  0  0  0
  9 49  1  0  0  0
  9 50  1  0  0  0
 10 35  1  0  0  0
 10 11  1  0  0  0
 10 15  1  0  0  0
 11 12  1  0  0  0
 11 51  1  0  0  0
 11 52  1  0  0  0
 12 13  2  0  0  0
 12 14  1  0  0  0
 14 53  1  0  0  0
 15 16  2  0  0  0
 15 17  1  0  0  0
 17 22  1  0  0  0
 17 18  1  0  0  0
 18 19  1  0  0  0
 18 54  1  0  0  0
 18 55  1  0  0  0
 19 20  1  0  0  0
 19 56  1  0  0  0
 19 57  1  0  0  0
 20 21  1  0  0  0
 20 58  1  0  0  0
 20 59  1  0  0  0
 21 22  1  0  0  0
 21 60  1  0  0  0
 21 61  1  0  0  0
 22 36  1  0  0  0
 22 23  1  0  0  0
 23 24  1  0  0  0
 23 62  1  0  0  0
 23 63  1  0  0  0
 24 25  1  0  0  0
 24 64  1  0  0  0
 24 65  1  0  0  0
 25 26  1  0  0  0
 26 31  1  0  0  0
 26 27  1  0  0  0
 26 66  1  0  0  0
 27 28  1  0  0  0
 27 67  1  0  0  0
 27 68  1  0  0  0
 28 29  1  0  0  0
 28 69  1  0  0  0
 28 70  1  0  0  0
 29 30  1  0  0  0
 29 32  1  0  0  0
 30 31  1  0  0  0
 30 71  1  0  0  0
 30 72  1  0  0  0
 31 73  1  0  0  0
 31 74  1  0  0  0
 32 33  2  3  0  0
 32 34  1  0  0  0
 33 75  1  0  0  0
 34 76  1  0  0  0
 34 77  1  0  0  0
M  END
> <s_m_entry_id>
38057

> <s_m_entry_name>
ligand_docking-pose.404

> <s_m_Source_Path>
/home/csk/Desktop/cluster/DUD-E-result/thrb

> <s_m_Source_File>
ligand_docking-pose.sdf

> <i_m_Source_File_Index>
404

> <i_lp_mmshare_version>
53161

> <i_f3d_flags>
0

> <r_lp_tautomer_probability>
1

> <s_lp_Force_Field>
OPLS_2005

> <r_lp_Energy>
57.849964

> <b_lp_Chiralities_Consistent>
1

> <s_lp_Variant>
130534-1

> <s_i_glide_gridfile>
glide-grid_1ype

> <i_i_glide_lignum>
4326

> <i_i_glide_rotatable_bonds>
12

> <r_i_docking_score>
-6.82665157766044

> <r_i_glide_ligand_efficiency>
-0.200783869931189

> <r_i_glide_ligand_efficiency_sa>
-0.650461793770656

> <r_i_glide_ligand_efficiency_ln>
-1.50819881459605

> <r_i_glide_gscore>
-6.82665157766044

> <r_i_glide_lipo>
-3.36149571576462

> <r_i_glide_hbond>
-0.0819543652107963

> <r_i_glide_metal>
0

> <r_i_glide_rewards>
-0.991177590399708

> <r_i_glide_evdw>
-41.1482543945312

> <r_i_glide_ecoul>
-7.05326890945435

> <r_i_glide_erotb>
0.79919104988692

> <r_i_glide_esite>
-0.0758119000275135

> <r_i_glide_emodel>
-60.2951017143754

> <r_i_glide_energy>
-48.2015233039856

> <r_i_glide_einternal>
7.05279207229614

> <i_i_glide_confnum>
10

> <i_i_glide_posenum>
242

> <r_i_glide_eff_state_penalty>
0

> <s_user_duplicate_titles>
130534

> <s_m_subgroup_title>
dock_pv

> <s_m_subgroupid>
dock_pv1

> <b_m_subgroup_collapsed>
0

$$$$
216305
                    3D
 Schrodinger Suite 2021-1.
 68 72  0  0  1  0            999 V2000
   20.2085  -11.8533   19.5075 C   0  0  0  0  0  0
   19.1413  -11.4869   20.3223 C   0  0  0  0  0  0
   18.6805  -12.3713   21.2904 C   0  0  0  0  0  0
   19.2864  -13.6242   21.4407 C   0  0  0  0  0  0
   20.3592  -13.9855   20.6194 C   0  0  0  0  0  0
   20.8148  -13.0982   19.6502 C   0  0  0  0  0  0
   18.7188  -14.6051   22.4809 C   0  0  0  0  0  0
   18.5903  -16.0837   22.1298 C   0  0  0  0  0  0
   17.3271  -15.2630   22.2405 C   0  0  2  0  0  0
   16.6001  -15.1012   20.8811 C   0  0  0  0  0  0
   17.2132  -14.6527   19.9210 O   0  0  0  0  0  0
   15.3084  -15.4803   20.7345 N   0  0  0  0  0  0
   14.4589  -16.0815   21.7595 C   0  0  0  0  0  0
   13.4029  -16.8478   20.9733 C   0  0  0  0  0  0
   13.2108  -15.9914   19.7335 C   0  0  0  0  0  0
   14.6088  -15.4240   19.4284 C   0  0  1  0  0  0
   14.5062  -14.0359   18.7655 C   0  0  0  0  0  0
   14.4158  -13.9555   17.5418 O   0  0  0  0  0  0
   14.5098  -12.9772   19.5861 N   0  0  0  0  0  0
   14.1642  -11.6153   19.1948 C   0  0  0  0  0  0
   13.3207  -10.8860   20.2659 C   0  0  2  0  0  0
   14.2169  -10.2894   21.3705 C   0  0  0  0  0  0
   13.3746   -9.4816   22.3711 C   0  0  0  0  0  0
   12.3023  -10.3655   23.0373 C   0  0  2  0  0  0
   11.4021  -11.0186   21.9711 C   0  0  0  0  0  0
   12.2451  -11.7902   20.9339 C   0  0  0  0  0  0
   11.5772   -9.6511   24.0637 N   0  0  0  0  0  0
   19.1695  -14.3020   23.9288 C   0  0  0  0  0  0
   18.6442  -15.0213   25.0145 C   0  0  0  0  0  0
   19.0747  -14.7592   26.3103 C   0  0  0  0  0  0
   20.0316  -13.7739   26.5291 C   0  0  0  0  0  0
   20.5640  -13.0502   25.4769 C   0  0  0  0  0  0
   20.1355  -13.3130   24.1843 C   0  0  0  0  0  0
   15.1324  -16.0965   18.7480 H   0  0  0  0  0  0
   20.5691  -11.1728   18.7518 H   0  0  0  0  0  0
   18.6661  -10.5206   20.2283 H   0  0  0  0  0  0
   17.8474  -12.0929   21.9202 H   0  0  0  0  0  0
   20.8294  -14.9533   20.7189 H   0  0  0  0  0  0
   21.6162  -13.3820   18.9916 H   0  0  0  0  0  0
   18.9299  -16.4274   21.1501 H   0  0  0  0  0  0
   18.7824  -16.8396   22.8889 H   0  0  0  0  0  0
   16.6716  -15.3818   23.1008 H   0  0  0  0  0  0
   14.9894  -16.7364   22.4502 H   0  0  0  0  0  0
   13.9917  -15.2736   22.3213 H   0  0  0  0  0  0
   13.7990  -17.8225   20.6818 H   0  0  0  0  0  0
   12.4757  -17.0108   21.5216 H   0  0  0  0  0  0
   12.7951  -16.5548   18.8958 H   0  0  0  0  0  0
   12.5064  -15.1875   19.9656 H   0  0  0  0  0  0
   14.6690  -13.1352   20.5702 H   0  0  0  0  0  0
   15.0989  -11.0805   19.0104 H   0  0  0  0  0  0
   13.6159  -11.6067   18.2548 H   0  0  0  0  0  0
   12.8005  -10.0552   19.7847 H   0  0  0  0  0  0
   14.7653  -11.0910   21.8704 H   0  0  0  0  0  0
   14.9850   -9.6485   20.9326 H   0  0  0  0  0  0
   12.8899   -8.6534   21.8578 H   0  0  0  0  0  0
   14.0198   -9.0295   23.1212 H   0  0  0  0  0  0
   12.8167  -11.1932   23.5213 H   0  0  0  0  0  0
   10.8163  -10.2507   21.4682 H   0  0  0  0  0  0
   10.6974  -11.7041   22.4458 H   0  0  0  0  0  0
   11.6164  -12.2416   20.1685 H   0  0  0  0  0  0
   12.7114  -12.6453   21.4257 H   0  0  0  0  0  0
   10.7880  -10.1943   24.4003 H   0  0  0  0  0  0
   12.1863   -9.4841   24.8530 H   0  0  0  0  0  0
   17.9048  -15.7947   24.8714 H   0  0  0  0  0  0
   18.6646  -15.3161   27.1400 H   0  0  0  0  0  0
   20.3733  -13.5464   27.5208 H   0  0  0  0  0  0
   21.3004  -12.2832   25.6685 H   0  0  0  0  0  0
   20.5831  -12.7349   23.3913 H   0  0  0  0  0  0
  1  6  1  0  0  0
  1  2  2  0  0  0
  1 35  1  0  0  0
  2  3  1  0  0  0
  2 36  1  0  0  0
  3  4  2  0  0  0
  3 37  1  0  0  0
  4  5  1  0  0  0
  4  7  1  0  0  0
  5  6  2  0  0  0
  5 38  1  0  0  0
  6 39  1  0  0  0
  7  9  1  0  0  0
  7  8  1  0  0  0
  7 28  1  0  0  0
  8  9  1  0  0  0
  8 40  1  0  0  0
  8 41  1  0  0  0
  9 10  1  0  0  0
  9 42  1  0  0  0
 10 11  2  0  0  0
 10 12  1  0  0  0
 12 16  1  0  0  0
 12 13  1  0  0  0
 13 14  1  0  0  0
 13 43  1  0  0  0
 13 44  1  0  0  0
 14 15  1  0  0  0
 14 45  1  0  0  0
 14 46  1  0  0  0
 15 16  1  0  0  0
 15 47  1  0  0  0
 15 48  1  0  0  0
 16 34  1  0  0  0
 16 17  1  0  0  0
 17 18  2  0  0  0
 17 19  1  0  0  0
 19 20  1  0  0  0
 19 49  1  0  0  0
 20 21  1  0  0  0
 20 50  1  0  0  0
 20 51  1  0  0  0
 21 26  1  0  0  0
 21 22  1  0  0  0
 21 52  1  0  0  0
 22 23  1  0  0  0
 22 53  1  0  0  0
 22 54  1  0  0  0
 23 24  1  0  0  0
 23 55  1  0  0  0
 23 56  1  0  0  0
 24 25  1  0  0  0
 24 27  1  0  0  0
 24 57  1  0  0  0
 25 26  1  0  0  0
 25 58  1  0  0  0
 25 59  1  0  0  0
 26 60  1  0  0  0
 26 61  1  0  0  0
 27 62  1  0  0  0
 27 63  1  0  0  0
 28 33  1  0  0  0
 28 29  2  0  0  0
 29 30  1  0  0  0
 29 64  1  0  0  0
 30 31  2  0  0  0
 30 65  1  0  0  0
 31 32  1  0  0  0
 31 66  1  0  0  0
 32 33  2  0  0  0
 32 67  1  0  0  0
 33 68  1  0  0  0
M  END
> <s_m_entry_id>
38058

> <s_m_entry_name>
ligand_docking-pose.405

> <s_m_Source_Path>
/home/csk/Desktop/cluster/DUD-E-result/thrb

> <s_m_Source_File>
ligand_docking-pose.sdf

> <i_m_Source_File_Index>
405

> <i_lp_mmshare_version>
53161

> <i_f3d_flags>
0

> <r_lp_tautomer_probability>
1

> <s_lp_Force_Field>
OPLS_2005

> <r_lp_Energy>
32.993125

> <b_lp_Chiralities_Consistent>
1

> <s_lp_Variant>
216305-4

> <s_i_glide_gridfile>
glide-grid_1ype

> <i_i_glide_lignum>
548

> <i_i_glide_rotatable_bonds>
8

> <r_i_docking_score>
-6.82628267200914

> <r_i_glide_ligand_efficiency>
-0.206857050666944

> <r_i_glide_ligand_efficiency_sa>
-0.663501090642596

> <r_i_glide_ligand_efficiency_ln>
-1.51812992165476

> <r_i_glide_gscore>
-6.82628267200914

> <r_i_glide_lipo>
-4.31927038959083

> <r_i_glide_hbond>
-0.0311880592586173

> <r_i_glide_metal>
0

> <r_i_glide_rewards>
-0.640630223854558

> <r_i_glide_evdw>
-42.9965209960938

> <r_i_glide_ecoul>
-3.26820373535156

> <r_i_glide_erotb>
0.806200200468818

> <r_i_glide_esite>
-0.0013375896665342

> <r_i_glide_emodel>
-59.6653813925234

> <r_i_glide_energy>
-46.2647247314453

> <r_i_glide_einternal>
11.5103559494019

> <i_i_glide_confnum>
5

> <i_i_glide_posenum>
111

> <r_i_glide_eff_state_penalty>
0

> <s_user_duplicate_titles>
216305

> <s_m_subgroup_title>
dock_pv

> <s_m_subgroupid>
dock_pv1

> <b_m_subgroup_collapsed>
0

$$$$
132834
                    3D
 Schrodinger Suite 2021-1.
 55 58  0  0  1  0            999 V2000
   20.3202  -13.6216   24.9382 C   0  0  0  0  0  0
   20.1589  -13.7016   23.4386 C   0  0  0  0  0  0
   20.9074  -14.3865   22.5046 C   0  0  0  0  0  0
   20.3551  -14.1126   21.2798 N   0  0  0  0  0  0
   19.2863  -13.2689   21.5376 C   0  0  0  0  0  0
   19.1829  -13.0528   22.8356 N   0  0  0  0  0  0
   18.3196  -12.6510   20.5437 C   0  0  0  0  0  0
   18.3748  -12.8452   19.1531 C   0  0  0  0  0  0
   17.4275  -12.2821   18.3000 C   0  0  0  0  0  0
   16.4142  -11.4847   18.8171 C   0  0  0  0  0  0
   16.3540  -11.2425   20.1869 C   0  0  0  0  0  0
   17.2950  -11.8262   21.0349 C   0  0  0  0  0  0
   15.4101  -10.3896   20.7071 O   0  0  0  0  0  0
   14.1796  -10.8483   21.1249 C   0  0  0  0  0  0
   13.4746  -10.0614   22.0293 C   0  0  0  0  0  0
   12.3506  -10.5962   22.6691 C   0  0  0  0  0  0
   11.8948  -11.8628   22.2714 C   0  0  0  0  0  0
   12.6206  -12.5814   21.3231 C   0  0  0  0  0  0
   13.7621  -12.0904   20.7612 N   0  0  0  0  0  0
   12.2101  -13.8637   21.0012 O   0  0  0  0  0  0
   13.0797  -14.7914   20.4586 C   0  0  0  0  0  0
   14.3195  -15.0393   21.0632 C   0  0  0  0  0  0
   15.2506  -15.9517   20.5306 C   0  0  0  0  0  0
   14.8588  -16.6429   19.3674 C   0  0  0  0  0  0
   13.6122  -16.4376   18.7757 C   0  0  0  0  0  0
   12.7190  -15.5192   19.3208 C   0  0  0  0  0  0
   11.4988  -15.3416   18.7217 O   0  0  0  0  0  0
   16.5947  -16.1720   21.1482 C   0  0  0  0  0  0
   17.4536  -16.9173   20.6049 N   0  0  0  0  0  0
   16.8154  -15.4958   22.3220 N   0  0  0  0  0  0
   11.7069   -9.8509   23.8094 C   0  0  0  0  0  0
   12.0125   -8.6935   24.0977 O   0  0  0  0  0  0
   10.8159  -10.5908   24.5218 O   0  0  0  0  0  0
   20.8281  -14.6505   20.0232 C   0  0  0  0  0  0
   21.1733  -14.2030   25.2885 H   0  0  0  0  0  0
   20.4762  -12.5953   25.2712 H   0  0  0  0  0  0
   19.4393  -13.9967   25.4596 H   0  0  0  0  0  0
   21.7703  -15.0293   22.5967 H   0  0  0  0  0  0
   19.1363  -13.4371   18.6861 H   0  0  0  0  0  0
   17.4790  -12.4653   17.2373 H   0  0  0  0  0  0
   15.6762  -11.0523   18.1582 H   0  0  0  0  0  0
   17.2197  -11.6223   22.0915 H   0  0  0  0  0  0
   13.8747   -9.0992   22.3167 H   0  0  0  0  0  0
   11.0241  -12.3205   22.7231 H   0  0  0  0  0  0
   14.5500  -14.4710   21.9514 H   0  0  0  0  0  0
   15.5143  -17.3625   18.8985 H   0  0  0  0  0  0
   13.3467  -16.9941   17.8882 H   0  0  0  0  0  0
   11.3806  -15.8860   17.9388 H   0  0  0  0  0  0
   17.1293  -17.3392   19.7499 H   0  0  0  0  0  0
   17.7228  -15.5707   22.7560 H   0  0  0  0  0  0
   16.0657  -15.0580   22.8402 H   0  0  0  0  0  0
   10.2446  -10.0874   25.1181 H   0  0  0  0  0  0
   21.6160  -15.3818   20.2019 H   0  0  0  0  0  0
   20.0147  -15.1574   19.5217 H   0  0  0  0  0  0
   21.2239  -13.8440   19.4074 H   0  0  0  0  0  0
  1  2  1  0  0  0
  1 35  1  0  0  0
  1 36  1  0  0  0
  1 37  1  0  0  0
  2  6  1  0  0  0
  2  3  2  0  0  0
  3  4  1  0  0  0
  3 38  1  0  0  0
  4  5  1  0  0  0
  4 34  1  0  0  0
  5  6  2  0  0  0
  5  7  1  0  0  0
  7 12  1  0  0  0
  7  8  2  0  0  0
  8  9  1  0  0  0
  8 39  1  0  0  0
  9 10  2  0  0  0
  9 40  1  0  0  0
 10 11  1  0  0  0
 10 41  1  0  0  0
 11 12  2  0  0  0
 11 13  1  0  0  0
 12 42  1  0  0  0
 13 14  1  0  0  0
 14 19  1  0  0  0
 14 15  2  0  0  0
 15 16  1  0  0  0
 15 43  1  0  0  0
 16 17  2  0  0  0
 16 31  1  0  0  0
 17 18  1  0  0  0
 17 44  1  0  0  0
 18 19  2  0  0  0
 18 20  1  0  0  0
 20 21  1  0  0  0
 21 26  1  0  0  0
 21 22  2  0  0  0
 22 23  1  0  0  0
 22 45  1  0  0  0
 23 24  2  0  0  0
 23 28  1  0  0  0
 24 25  1  0  0  0
 24 46  1  0  0  0
 25 26  2  0  0  0
 25 47  1  0  0  0
 26 27  1  0  0  0
 27 48  1  0  0  0
 28 29  2  3  0  0
 28 30  1  0  0  0
 29 49  1  0  0  0
 30 50  1  0  0  0
 30 51  1  0  0  0
 31 32  2  0  0  0
 31 33  1  0  0  0
 33 52  1  0  0  0
 34 53  1  0  0  0
 34 54  1  0  0  0
 34 55  1  0  0  0
M  END
> <s_m_entry_id>
38059

> <s_m_entry_name>
ligand_docking-pose.406

> <s_m_Source_Path>
/home/csk/Desktop/cluster/DUD-E-result/thrb

> <s_m_Source_File>
ligand_docking-pose.sdf

> <i_m_Source_File_Index>
406

> <i_lp_mmshare_version>
53161

> <i_f3d_flags>
0

> <r_lp_tautomer_probability>
1

> <s_lp_Force_Field>
OPLS_2005

> <r_lp_Energy>
22.605528

> <b_lp_Chiralities_Consistent>
1

> <s_lp_Variant>
132834-2

> <s_i_glide_gridfile>
glide-grid_1ype

> <i_i_glide_lignum>
3107

> <i_i_glide_rotatable_bonds>
9

> <r_i_docking_score>
-6.82364742584635

> <r_i_glide_ligand_efficiency>
-0.200695512524893

> <r_i_glide_ligand_efficiency_sa>
-0.650175550074824

> <r_i_glide_ligand_efficiency_ln>
-1.50753511319671

> <r_i_glide_gscore>
-6.82364742584635

> <r_i_glide_lipo>
-2.87189033153524

> <r_i_glide_hbond>
-0.240926409888939

> <r_i_glide_metal>
0

> <r_i_glide_rewards>
-0.921663443341609

> <r_i_glide_evdw>
-49.0095748901367

> <r_i_glide_ecoul>
-5.95550632476807

> <r_i_glide_erotb>
0.571887818193928

> <r_i_glide_esite>
-0.0172503660524398

> <r_i_glide_emodel>
-74.8859901150957

> <r_i_glide_energy>
-54.9650812149048

> <r_i_glide_einternal>
7.03271675109863

> <i_i_glide_confnum>
2

> <i_i_glide_posenum>
193

> <r_i_glide_eff_state_penalty>
0

> <s_user_duplicate_titles>
132834

> <s_m_subgroup_title>
dock_pv

> <s_m_subgroupid>
dock_pv1

> <b_m_subgroup_collapsed>
0

$$$$
199286
                    3D
 Schrodinger Suite 2021-1.
 69 72  0  0  1  0            999 V2000
   19.7928  -12.0265   19.5215 C   0  0  0  0  0  0
   20.5606  -13.1600   19.7563 C   0  0  0  0  0  0
   20.3535  -13.9059   20.9114 C   0  0  0  0  0  0
   19.3806  -13.5146   21.8390 C   0  0  0  0  0  0
   18.6057  -12.3778   21.5818 C   0  0  0  0  0  0
   18.8137  -11.6302   20.4281 C   0  0  0  0  0  0
   19.1390  -14.3254   23.1288 C   0  0  0  0  0  0
   20.3137  -14.1543   24.1050 C   0  0  0  0  0  0
   20.1563  -13.3857   25.2639 C   0  0  0  0  0  0
   21.2048  -13.2663   26.1729 C   0  0  0  0  0  0
   22.4117  -13.9169   25.9218 C   0  0  0  0  0  0
   22.5866  -14.6698   24.7676 C   0  0  0  0  0  0
   21.5383  -14.7920   23.8607 C   0  0  0  0  0  0
   18.6729  -15.8326   22.9474 C   0  0  2  0  0  0
   17.5978  -15.9727   21.7999 C   0  0  0  0  0  0
   18.0008  -15.8061   20.6519 O   0  0  0  0  0  0
   16.2774  -16.2325   22.0217 N   0  0  0  0  0  0
   15.6982  -17.1745   22.9833 C   0  0  0  0  0  0
   14.3672  -17.5947   22.3785 C   0  0  0  0  0  0
   13.9259  -16.3249   21.6754 C   0  0  0  0  0  0
   15.2325  -15.7690   21.0810 C   0  0  1  0  0  0
   15.1710  -14.2391   20.9009 C   0  0  0  0  0  0
   15.6359  -13.4900   21.7621 O   0  0  0  0  0  0
   14.5675  -13.8150   19.7770 N   0  0  0  0  0  0
   14.3824  -12.4125   19.3832 C   0  0  0  0  0  0
   13.7760  -11.5194   20.4605 C   0  0  0  0  0  0
   14.1770  -10.2536   20.8663 C   0  0  0  0  0  0
   13.4449   -9.7160   21.9241 C   0  0  0  0  0  0
   12.4585  -10.5694   22.4175 C   0  0  0  0  0  0
   12.4165  -12.0160   21.4337 S   0  0  0  0  0  0
   11.6064  -10.3772   23.6081 C   0  0  0  0  0  0
   11.6652   -9.2840   24.2293 N   0  0  0  0  0  0
   10.8159  -11.4521   23.9214 N   0  0  0  0  0  0
   18.1403  -16.3842   24.2238 N   0  0  2  0  0  0
   19.0954  -16.9532   25.1832 C   0  0  0  0  0  0
   18.6189  -16.6763   26.6175 C   0  0  0  0  0  0
   18.8132  -17.4595   27.5411 O   0  0  0  0  0  0
   18.0161  -15.4585   26.7367 O   0  0  0  0  0  0
   19.5124  -16.4369   22.5974 H   0  0  0  0  0  0
   15.4191  -16.2410   20.1150 H   0  0  0  0  0  0
   19.9654  -11.4561   18.6250 H   0  0  0  0  0  0
   21.3111  -13.4684   19.0432 H   0  0  0  0  0  0
   20.9451  -14.7946   21.0641 H   0  0  0  0  0  0
   17.8483  -12.0634   22.2842 H   0  0  0  0  0  0
   18.2200  -10.7452   20.2514 H   0  0  0  0  0  0
   18.2844  -13.8455   23.6101 H   0  0  0  0  0  0
   19.2218  -12.8853   25.4762 H   0  0  0  0  0  0
   21.0795  -12.6825   27.0729 H   0  0  0  0  0  0
   23.2177  -13.8538   26.6363 H   0  0  0  0  0  0
   23.5254  -15.1761   24.5877 H   0  0  0  0  0  0
   21.6803  -15.4092   22.9882 H   0  0  0  0  0  0
   16.3296  -18.0450   23.1665 H   0  0  0  0  0  0
   15.5251  -16.6534   23.9217 H   0  0  0  0  0  0
   14.5299  -18.3776   21.6353 H   0  0  0  0  0  0
   13.6591  -17.9731   23.1131 H   0  0  0  0  0  0
   13.1621  -16.5054   20.9176 H   0  0  0  0  0  0
   13.5079  -15.6235   22.4019 H   0  0  0  0  0  0
   14.2617  -14.5138   19.1139 H   0  0  0  0  0  0
   15.3457  -12.0231   19.0550 H   0  0  0  0  0  0
   13.7412  -12.4073   18.5013 H   0  0  0  0  0  0
   15.0147   -9.7392   20.4236 H   0  0  0  0  0  0
   13.6709   -8.7545   22.3591 H   0  0  0  0  0  0
   12.3298   -8.6421   23.8274 H   0  0  0  0  0  0
   10.0891  -11.3498   24.6218 H   0  0  0  0  0  0
   10.8346  -12.2984   23.3669 H   0  0  0  0  0  0
   17.4558  -17.0990   24.0105 H   0  0  0  0  0  0
   19.2206  -18.0231   25.0147 H   0  0  0  0  0  0
   20.0810  -16.5067   25.0946 H   0  0  0  0  0  0
   17.9222  -15.1013   25.8481 H   0  0  0  0  0  0
  1  6  1  0  0  0
  1  2  2  0  0  0
  1 41  1  0  0  0
  2  3  1  0  0  0
  2 42  1  0  0  0
  3  4  2  0  0  0
  3 43  1  0  0  0
  4  5  1  0  0  0
  4  7  1  0  0  0
  5  6  2  0  0  0
  5 44  1  0  0  0
  6 45  1  0  0  0
  7  8  1  0  0  0
  7 14  1  0  0  0
  7 46  1  0  0  0
  8 13  1  0  0  0
  8  9  2  0  0  0
  9 10  1  0  0  0
  9 47  1  0  0  0
 10 11  2  0  0  0
 10 48  1  0  0  0
 11 12  1  0  0  0
 11 49  1  0  0  0
 12 13  2  0  0  0
 12 50  1  0  0  0
 13 51  1  0  0  0
 14 39  1  0  0  0
 14 15  1  0  0  0
 14 34  1  0  0  0
 15 16  2  0  0  0
 15 17  1  0  0  0
 17 21  1  0  0  0
 17 18  1  0  0  0
 18 19  1  0  0  0
 18 52  1  0  0  0
 18 53  1  0  0  0
 19 20  1  0  0  0
 19 54  1  0  0  0
 19 55  1  0  0  0
 20 21  1  0  0  0
 20 56  1  0  0  0
 20 57  1  0  0  0
 21 40  1  0  0  0
 21 22  1  0  0  0
 22 23  2  0  0  0
 22 24  1  0  0  0
 24 25  1  0  0  0
 24 58  1  0  0  0
 25 26  1  0  0  0
 25 59  1  0  0  0
 25 60  1  0  0  0
 26 30  1  0  0  0
 26 27  2  0  0  0
 27 28  1  0  0  0
 27 61  1  0  0  0
 28 29  2  0  0  0
 28 62  1  0  0  0
 29 30  1  0  0  0
 29 31  1  0  0  0
 31 32  2  3  0  0
 31 33  1  0  0  0
 32 63  1  0  0  0
 33 64  1  0  0  0
 33 65  1  0  0  0
 34 35  1  0  0  0
 34 66  1  0  0  0
 35 36  1  0  0  0
 35 67  1  0  0  0
 35 68  1  0  0  0
 36 37  2  0  0  0
 36 38  1  0  0  0
 38 69  1  0  0  0
M  END
> <s_m_entry_id>
38060

> <s_m_entry_name>
ligand_docking-pose.407

> <s_m_Source_Path>
/home/csk/Desktop/cluster/DUD-E-result/thrb

> <s_m_Source_File>
ligand_docking-pose.sdf

> <i_m_Source_File_Index>
407

> <i_lp_mmshare_version>
53161

> <i_f3d_flags>
0

> <r_lp_tautomer_probability>
1

> <s_lp_Force_Field>
OPLS_2005

> <r_lp_Energy>
25.5765

> <b_lp_Chiralities_Consistent>
1

> <s_lp_Variant>
199286-2

> <s_i_glide_gridfile>
glide-grid_1ype

> <i_i_glide_lignum>
733

> <i_i_glide_rotatable_bonds>
14

> <r_i_docking_score>
-6.82299377913799

> <r_i_glide_ligand_efficiency>
-0.179552467872052

> <r_i_glide_ligand_efficiency_sa>
-0.603650980483957

> <r_i_glide_ligand_efficiency_ln>
-1.47123817092393

> <r_i_glide_gscore>
-6.82299377913799

> <r_i_glide_lipo>
-4.05775951601114

> <r_i_glide_hbond>
-0.176578941058076

> <r_i_glide_metal>
0

> <r_i_glide_rewards>
0.0608580568905194

> <r_i_glide_evdw>
-57.669376373291

> <r_i_glide_ecoul>
-3.62967967987061

> <r_i_glide_erotb>
0.869465014998759

> <r_i_glide_esite>
-0.0910576233129125

> <r_i_glide_emodel>
-78.7463705080645

> <r_i_glide_energy>
-61.2990560531616

> <r_i_glide_einternal>
8.59495735168457

> <i_i_glide_confnum>
55

> <i_i_glide_posenum>
7

> <r_i_glide_eff_state_penalty>
0

> <s_user_duplicate_titles>
199286

> <s_m_subgroup_title>
dock_pv

> <s_m_subgroupid>
dock_pv1

> <b_m_subgroup_collapsed>
0

$$$$
69328
                    3D
 Schrodinger Suite 2021-1.
 83 85  0  0  1  0            999 V2000
   16.2618  -17.7752   20.1846 C   0  0  0  0  0  0
   16.7891  -16.9097   21.3248 C   0  0  0  0  0  0
   16.0057  -16.4731   22.1650 O   0  0  0  0  0  0
   18.1147  -16.6763   21.3343 N   0  0  0  0  0  0
   18.8590  -15.7950   22.2428 C   0  0  2  0  0  0
   18.7415  -16.1932   23.7438 C   0  0  0  0  0  0
   19.7220  -15.5434   24.7661 C   0  0  0  0  0  0
   21.2075  -15.6761   24.3467 C   0  0  0  0  0  0
   22.1545  -15.1841   25.4587 C   0  0  0  0  0  0
   21.8259  -13.7356   25.8829 C   0  0  0  0  0  0
   20.3343  -13.5339   26.2116 C   0  0  0  0  0  0
   19.4435  -14.0498   25.0743 C   0  0  0  0  0  0
   18.4729  -14.3226   21.9637 C   0  0  0  0  0  0
   17.6165  -13.8031   22.6797 O   0  0  0  0  0  0
   19.0658  -13.6879   20.9217 N   0  0  0  0  0  0
   20.3207  -14.1193   20.2913 C   0  0  0  0  0  0
   20.9056  -12.8624   19.6740 C   0  0  0  0  0  0
   19.6622  -12.1062   19.2629 C   0  0  0  0  0  0
   18.6463  -12.3633   20.3973 C   0  0  1  0  0  0
   17.1674  -12.2045   19.9431 C   0  0  0  0  0  0
   16.9178  -11.8783   18.7830 O   0  0  0  0  0  0
   16.2296  -12.3836   20.8940 N   0  0  0  0  0  0
   14.7554  -12.3283   20.8318 C   0  0  1  0  0  0
   14.2316  -10.9955   20.2169 C   0  0  0  0  0  0
   12.7136  -10.7103   20.2869 C   0  0  0  0  0  0
   12.0645  -10.7621   21.6830 C   0  0  0  0  0  0
   12.5966   -9.7042   22.5206 N   0  0  0  0  0  0
   12.0161   -9.4514   23.6202 C   0  0  0  0  0  0
   12.2583   -8.2589   24.3207 N   0  0  0  0  0  0
   11.1119  -10.2860   24.3109 N   0  0  0  0  0  0
   14.1973  -13.5964   20.1679 C   0  0  0  0  0  0
   14.8177  -14.2547   19.3281 O   0  0  0  0  0  0
   12.7979  -14.0412   20.6515 C   0  0  0  0  0  0
   12.4289  -15.4637   20.2447 C   0  0  0  0  0  0
   11.6261  -15.6854   19.1221 C   0  0  0  0  0  0
   11.2482  -16.9824   18.7816 C   0  0  0  0  0  0
   11.6751  -18.0523   19.5654 C   0  0  0  0  0  0
   12.4726  -17.8378   20.6871 C   0  0  0  0  0  0
   12.8429  -16.5399   21.0319 C   0  0  0  0  0  0
   19.8921  -15.9841   21.9762 H   0  0  0  0  0  0
   18.8203  -11.6400   21.1952 H   0  0  0  0  0  0
   14.4556  -12.3478   21.8803 H   0  0  0  0  0  0
   16.9814  -17.8499   19.3661 H   0  0  0  0  0  0
   16.0393  -18.7795   20.5494 H   0  0  0  0  0  0
   15.3432  -17.3430   19.7858 H   0  0  0  0  0  0
   18.6734  -17.1003   20.6092 H   0  0  0  0  0  0
   17.7197  -16.0324   24.0939 H   0  0  0  0  0  0
   18.8745  -17.2738   23.8112 H   0  0  0  0  0  0
   19.5955  -16.0862   25.7051 H   0  0  0  0  0  0
   21.4301  -16.7214   24.1239 H   0  0  0  0  0  0
   21.4005  -15.1429   23.4157 H   0  0  0  0  0  0
   22.0752  -15.8473   26.3208 H   0  0  0  0  0  0
   23.1900  -15.2460   25.1225 H   0  0  0  0  0  0
   22.4174  -13.4548   26.7491 H   0  0  0  0  0  0
   22.1133  -13.0540   25.0821 H   0  0  0  0  0  0
   20.0834  -14.0727   27.1210 H   0  0  0  0  0  0
   20.1302  -12.4789   26.4042 H   0  0  0  0  0  0
   19.5874  -13.4199   24.1987 H   0  0  0  0  0  0
   18.3950  -13.9251   25.3509 H   0  0  0  0  0  0
   20.1045  -14.8592   19.5223 H   0  0  0  0  0  0
   21.0504  -14.5369   20.9826 H   0  0  0  0  0  0
   21.6004  -13.0606   18.8557 H   0  0  0  0  0  0
   21.4418  -12.2964   20.4382 H   0  0  0  0  0  0
   19.3048  -12.5118   18.3160 H   0  0  0  0  0  0
   19.8733  -11.0530   19.1210 H   0  0  0  0  0  0
   16.5908  -12.7372   21.7779 H   0  0  0  0  0  0
   14.7560  -10.1642   20.6921 H   0  0  0  0  0  0
   14.5307  -10.9534   19.1691 H   0  0  0  0  0  0
   12.5216   -9.7271   19.8576 H   0  0  0  0  0  0
   12.2030  -11.3996   19.6205 H   0  0  0  0  0  0
   10.9844  -10.6530   21.5604 H   0  0  0  0  0  0
   12.2299  -11.7384   22.1416 H   0  0  0  0  0  0
   13.0553   -7.7281   24.0085 H   0  0  0  0  0  0
   12.2945   -8.3469   25.3234 H   0  0  0  0  0  0
   10.7532  -11.0839   23.8083 H   0  0  0  0  0  0
   10.3329   -9.8452   24.7883 H   0  0  0  0  0  0
   12.0366  -13.3665   20.2711 H   0  0  0  0  0  0
   12.7608  -13.9773   21.7391 H   0  0  0  0  0  0
   11.2863  -14.8561   18.5184 H   0  0  0  0  0  0
   10.6265  -17.1583   17.9155 H   0  0  0  0  0  0
   11.3792  -19.0574   19.3017 H   0  0  0  0  0  0
   12.7976  -18.6726   21.2897 H   0  0  0  0  0  0
   13.4484  -16.3701   21.9099 H   0  0  0  0  0  0
  1  2  1  0  0  0
  1 43  1  0  0  0
  1 44  1  0  0  0
  1 45  1  0  0  0
  2  3  2  0  0  0
  2  4  1  0  0  0
  4  5  1  0  0  0
  4 46  1  0  0  0
  5 40  1  0  0  0
  5  6  1  0  0  0
  5 13  1  0  0  0
  6  7  1  0  0  0
  6 47  1  0  0  0
  6 48  1  0  0  0
  7 12  1  0  0  0
  7  8  1  0  0  0
  7 49  1  0  0  0
  8  9  1  0  0  0
  8 50  1  0  0  0
  8 51  1  0  0  0
  9 10  1  0  0  0
  9 52  1  0  0  0
  9 53  1  0  0  0
 10 11  1  0  0  0
 10 54  1  0  0  0
 10 55  1  0  0  0
 11 12  1  0  0  0
 11 56  1  0  0  0
 11 57  1  0  0  0
 12 58  1  0  0  0
 12 59  1  0  0  0
 13 14  2  0  0  0
 13 15  1  0  0  0
 15 19  1  0  0  0
 15 16  1  0  0  0
 16 17  1  0  0  0
 16 60  1  0  0  0
 16 61  1  0  0  0
 17 18  1  0  0  0
 17 62  1  0  0  0
 17 63  1  0  0  0
 18 19  1  0  0  0
 18 64  1  0  0  0
 18 65  1  0  0  0
 19 41  1  0  0  0
 19 20  1  0  0  0
 20 21  2  0  0  0
 20 22  1  0  0  0
 22 23  1  0  0  0
 22 66  1  0  0  0
 23 42  1  0  0  0
 23 24  1  0  0  0
 23 31  1  0  0  0
 24 25  1  0  0  0
 24 67  1  0  0  0
 24 68  1  0  0  0
 25 26  1  0  0  0
 25 69  1  0  0  0
 25 70  1  0  0  0
 26 27  1  0  0  0
 26 71  1  0  0  0
 26 72  1  0  0  0
 27 28  2  3  0  0
 28 29  1  0  0  0
 28 30  1  0  0  0
 29 73  1  0  0  0
 29 74  1  0  0  0
 30 75  1  0  0  0
 30 76  1  0  0  0
 31 32  2  0  0  0
 31 33  1  0  0  0
 33 34  1  0  0  0
 33 77  1  0  0  0
 33 78  1  0  0  0
 34 39  1  0  0  0
 34 35  2  0  0  0
 35 36  1  0  0  0
 35 79  1  0  0  0
 36 37  2  0  0  0
 36 80  1  0  0  0
 37 38  1  0  0  0
 37 81  1  0  0  0
 38 39  2  0  0  0
 38 82  1  0  0  0
 39 83  1  0  0  0
M  END
> <s_m_entry_id>
38062

> <s_m_entry_name>
ligand_docking-pose.409

> <s_m_Source_Path>
/home/csk/Desktop/cluster/DUD-E-result/thrb

> <s_m_Source_File>
ligand_docking-pose.sdf

> <i_m_Source_File_Index>
409

> <i_lp_mmshare_version>
53161

> <i_f3d_flags>
0

> <r_lp_tautomer_probability>
0.999999960000001

> <s_lp_Force_Field>
OPLS_2005

> <r_lp_Energy>
26.377207

> <b_lp_Chiralities_Consistent>
1

> <s_lp_Variant>
69328-1

> <s_i_glide_gridfile>
glide-grid_1ype

> <i_i_glide_lignum>
4099

> <i_i_glide_rotatable_bonds>
16

> <r_i_docking_score>
-6.82285373614901

> <r_i_glide_ligand_efficiency>
-0.174944967593564

> <r_i_glide_ligand_efficiency_sa>
-0.593275375276538

> <r_i_glide_ligand_efficiency_ln>
-1.46301351925119

> <r_i_glide_gscore>
-6.82285373614901

> <r_i_glide_lipo>
-3.88013077086517

> <r_i_glide_hbond>
-0.116951403939652

> <r_i_glide_metal>
0

> <r_i_glide_rewards>
-0.691555069046446

> <r_i_glide_evdw>
-54.8685264587402

> <r_i_glide_ecoul>
-1.61966967582703

> <r_i_glide_erotb>
0.919394931010975

> <r_i_glide_esite>
-0.0672346489976448

> <r_i_glide_emodel>
-73.6695517927131

> <r_i_glide_energy>
-56.4881961345673

> <r_i_glide_einternal>
12.3981666564941

> <i_i_glide_confnum>
16

> <i_i_glide_posenum>
365

> <r_i_glide_eff_state_penalty>
0

> <s_user_duplicate_titles>
69328

> <s_m_subgroup_title>
dock_pv

> <s_m_subgroupid>
dock_pv1

> <b_m_subgroup_collapsed>
0

$$$$
64454
                    3D
 Schrodinger Suite 2021-1.
 44 45  0  0  1  0            999 V2000
   21.0107  -13.0346   20.4627 C   0  0  0  0  0  0
   20.5847  -13.4886   21.8552 C   0  0  0  0  0  0
   21.4595  -13.4553   22.8815 C   0  0  0  0  0  0
   21.0418  -13.8507   24.2203 C   0  0  0  0  0  0
   19.7446  -14.2408   24.3703 C   0  0  0  0  0  0
   18.7799  -14.3067   23.2480 C   0  0  0  0  0  0
   17.6177  -14.7066   23.4088 O   0  0  0  0  0  0
   19.2653  -13.9059   22.0107 N   0  0  0  0  0  0
   18.2975  -13.9823   20.8771 C   0  0  0  0  0  0
   17.4730  -12.6882   20.7327 C   0  0  0  0  0  0
   17.6186  -11.7372   21.5002 O   0  0  0  0  0  0
   16.5964  -12.6818   19.7166 N   0  0  0  0  0  0
   15.6225  -11.6216   19.4491 C   0  0  0  0  0  0
   14.4006  -11.6509   20.3680 C   0  0  0  0  0  0
   14.0684  -10.5159   21.1208 C   0  0  0  0  0  0
   12.9761  -10.5498   21.9901 C   0  0  0  0  0  0
   12.2555  -11.7374   22.1006 C   0  0  0  0  0  0
   12.5374  -12.8376   21.3683 N   0  0  0  0  0  0
   13.5830  -12.7881   20.5049 C   0  0  0  0  0  0
   13.8003  -14.0672   19.7113 C   0  0  0  0  0  0
   11.2164  -11.8530   23.0108 N   0  0  0  0  0  0
   19.2143  -14.6147   25.5926 N   0  0  0  0  0  0
   22.0326  -13.8187   25.3921 C   0  0  0  0  0  0
   23.2410  -13.4137   24.9954 F   0  0  0  0  0  0
   22.1566  -15.0366   25.9193 F   0  0  0  0  0  0
   21.5992  -12.9806   26.3320 F   0  0  0  0  0  0
   22.0154  -12.6172   20.4669 H   0  0  0  0  0  0
   21.0110  -13.8711   19.7626 H   0  0  0  0  0  0
   20.3493  -12.2543   20.0848 H   0  0  0  0  0  0
   22.4713  -13.1143   22.7137 H   0  0  0  0  0  0
   18.8088  -14.1945   19.9400 H   0  0  0  0  0  0
   17.5981  -14.8091   21.0107 H   0  0  0  0  0  0
   16.5042  -13.5193   19.1618 H   0  0  0  0  0  0
   16.1159  -10.6506   19.5136 H   0  0  0  0  0  0
   15.2755  -11.7173   18.4193 H   0  0  0  0  0  0
   14.6639   -9.6169   21.0543 H   0  0  0  0  0  0
   12.7236   -9.6897   22.5919 H   0  0  0  0  0  0
   14.6079  -14.6489   20.1580 H   0  0  0  0  0  0
   12.9045  -14.6915   19.7011 H   0  0  0  0  0  0
   14.0547  -13.8495   18.6733 H   0  0  0  0  0  0
   10.8668  -11.0542   23.5220 H   0  0  0  0  0  0
   10.7942  -12.7712   23.1233 H   0  0  0  0  0  0
   18.2429  -14.8921   25.6543 H   0  0  0  0  0  0
   19.7452  -14.5551   26.4499 H   0  0  0  0  0  0
  1  2  1  0  0  0
  1 27  1  0  0  0
  1 28  1  0  0  0
  1 29  1  0  0  0
  2  8  1  0  0  0
  2  3  2  0  0  0
  3  4  1  0  0  0
  3 30  1  0  0  0
  4  5  2  0  0  0
  4 23  1  0  0  0
  5  6  1  0  0  0
  5 22  1  0  0  0
  6  7  2  0  0  0
  6  8  1  0  0  0
  8  9  1  0  0  0
  9 10  1  0  0  0
  9 31  1  0  0  0
  9 32  1  0  0  0
 10 11  2  0  0  0
 10 12  1  0  0  0
 12 13  1  0  0  0
 12 33  1  0  0  0
 13 14  1  0  0  0
 13 34  1  0  0  0
 13 35  1  0  0  0
 14 19  1  0  0  0
 14 15  2  0  0  0
 15 16  1  0  0  0
 15 36  1  0  0  0
 16 17  2  0  0  0
 16 37  1  0  0  0
 17 18  1  0  0  0
 17 21  1  0  0  0
 18 19  2  0  0  0
 19 20  1  0  0  0
 20 38  1  0  0  0
 20 39  1  0  0  0
 20 40  1  0  0  0
 21 41  1  0  0  0
 21 42  1  0  0  0
 22 43  1  0  0  0
 22 44  1  0  0  0
 23 24  1  0  0  0
 23 25  1  0  0  0
 23 26  1  0  0  0
M  END
> <s_m_entry_id>
38063

> <s_m_entry_name>
ligand_docking-pose.410

> <s_m_Source_Path>
/home/csk/Desktop/cluster/DUD-E-result/thrb

> <s_m_Source_File>
ligand_docking-pose.sdf

> <i_m_Source_File_Index>
410

> <i_lp_mmshare_version>
53161

> <i_f3d_flags>
0

> <r_lp_tautomer_probability>
0.999999772200052

> <s_lp_Force_Field>
OPLS_2005

> <r_lp_Energy>
21.163519

> <b_lp_Chiralities_Consistent>
1

> <s_lp_Variant>
64454-1

> <s_i_glide_gridfile>
glide-grid_1ype

> <i_i_glide_lignum>
2754

> <i_i_glide_rotatable_bonds>
6

> <r_i_docking_score>
-6.81875294758386

> <r_i_glide_ligand_efficiency>
-0.262259728753225

> <r_i_glide_ligand_efficiency_sa>
-0.776943414489228

> <r_i_glide_ligand_efficiency_ln>
-1.60136175558673

> <r_i_glide_gscore>
-6.81875294758386

> <r_i_glide_lipo>
-2.70478949677093

> <r_i_glide_hbond>
-0.32

> <r_i_glide_metal>
0

> <r_i_glide_rewards>
-2.31789959295256

> <r_i_glide_evdw>
-39.9995574951172

> <r_i_glide_ecoul>
-1.1226224899292

> <r_i_glide_erotb>
0.706673412576385

> <r_i_glide_esite>
-0.0143660221915188

> <r_i_glide_emodel>
-57.7588828792217

> <r_i_glide_energy>
-41.1221799850464

> <r_i_glide_einternal>
0.558313548564911

> <i_i_glide_confnum>
2

> <i_i_glide_posenum>
117

> <r_i_glide_eff_state_penalty>
0

> <s_user_duplicate_titles>
64454

> <s_m_subgroup_title>
dock_pv

> <s_m_subgroupid>
dock_pv1

> <b_m_subgroup_collapsed>
0

$$$$
119944
                    3D
 Schrodinger Suite 2021-1.
 52 55  0  0  1  0            999 V2000
   14.3834   -9.3090   21.2474 C   0  0  0  0  0  0
   14.9513  -10.4570   20.7214 C   0  0  0  0  0  0
   14.4454  -11.7153   21.0624 C   0  0  0  0  0  0
   13.3340  -11.7942   21.9190 C   0  0  0  0  0  0
   12.7456  -10.6389   22.4795 C   0  0  0  0  0  0
   13.3004   -9.4014   22.1140 C   0  0  0  0  0  0
   11.6148  -10.6717   23.4540 C   0  0  0  0  0  0
   11.3155   -9.6626   24.1437 N   0  0  0  0  0  0
   10.9217  -11.8530   23.5207 N   0  0  0  0  0  0
   15.1011  -12.9955   20.5340 C   0  0  0  0  0  0
   16.1956  -12.8012   19.5591 N   0  0  0  0  0  0
   15.9743  -12.3228   18.2728 C   0  0  0  0  0  0
   14.7900  -11.9350   17.6350 C   0  0  0  0  0  0
   14.8853  -11.4771   16.3212 C   0  0  0  0  0  0
   16.0883  -11.4438   15.6408 C   0  0  0  0  0  0
   17.2594  -11.8316   16.2725 C   0  0  0  0  0  0
   17.2269  -12.2497   17.6124 C   0  0  0  0  0  0
   18.2094  -12.6531   18.5608 C   0  0  0  0  0  0
   17.5647  -13.0037   19.7432 C   0  0  0  0  0  0
   18.2140  -13.3880   20.9784 C   0  0  0  0  0  0
   17.7528  -13.0934   22.0814 O   0  0  0  0  0  0
   19.3351  -14.1087   20.7655 N   0  0  0  0  0  0
   20.2881  -14.7126   21.7067 C   0  0  0  0  0  0
   20.0212  -14.5783   23.2014 C   0  0  0  0  0  0
   20.8159  -13.7368   23.9851 C   0  0  0  0  0  0
   20.6067  -13.6588   25.3609 C   0  0  0  0  0  0
   19.5977  -14.4113   25.9597 C   0  0  0  0  0  0
   18.8111  -15.2624   25.1837 C   0  0  0  0  0  0
   19.0289  -15.3545   23.8104 C   0  0  0  0  0  0
   17.5785  -16.2145   25.9209 Cl  0  0  0  0  0  0
   21.6155  -12.6530   26.3252 Cl  0  0  0  0  0  0
   18.4128  -11.8530   15.5524 O   0  0  0  0  0  0
   14.8132   -8.3467   21.0073 H   0  0  0  0  0  0
   15.8160  -10.3430   20.0866 H   0  0  0  0  0  0
   12.9630  -12.7739   22.1855 H   0  0  0  0  0  0
   12.9053   -8.4841   22.5254 H   0  0  0  0  0  0
   10.5024   -9.8426   24.7215 H   0  0  0  0  0  0
   10.0886  -11.8904   24.0970 H   0  0  0  0  0  0
   11.2169  -12.7068   23.0707 H   0  0  0  0  0  0
   15.4409  -13.6155   21.3626 H   0  0  0  0  0  0
   14.3326  -13.5892   20.0347 H   0  0  0  0  0  0
   13.8389  -11.9798   18.1438 H   0  0  0  0  0  0
   14.0132  -11.1580   15.7828 H   0  0  0  0  0  0
   16.1035  -11.1136   14.6121 H   0  0  0  0  0  0
   19.2767  -12.6807   18.3949 H   0  0  0  0  0  0
   19.5533  -14.2766   19.7938 H   0  0  0  0  0  0
   20.3286  -15.7799   21.4761 H   0  0  0  0  0  0
   21.2851  -14.3295   21.4751 H   0  0  0  0  0  0
   21.5998  -13.1461   23.5327 H   0  0  0  0  0  0
   19.4306  -14.3403   27.0246 H   0  0  0  0  0  0
   18.4177  -16.0183   23.2157 H   0  0  0  0  0  0
   18.2019  -12.2531   14.7038 H   0  0  0  0  0  0
  1  6  1  0  0  0
  1  2  2  0  0  0
  1 33  1  0  0  0
  2  3  1  0  0  0
  2 34  1  0  0  0
  3  4  2  0  0  0
  3 10  1  0  0  0
  4  5  1  0  0  0
  4 35  1  0  0  0
  5  6  2  0  0  0
  5  7  1  0  0  0
  6 36  1  0  0  0
  7  8  2  3  0  0
  7  9  1  0  0  0
  8 37  1  0  0  0
  9 38  1  0  0  0
  9 39  1  0  0  0
 10 11  1  0  0  0
 10 40  1  0  0  0
 10 41  1  0  0  0
 11 19  1  0  0  0
 11 12  1  0  0  0
 12 17  2  0  0  0
 12 13  1  0  0  0
 13 14  2  0  0  0
 13 42  1  0  0  0
 14 15  1  0  0  0
 14 43  1  0  0  0
 15 16  2  0  0  0
 15 44  1  0  0  0
 16 17  1  0  0  0
 16 32  1  0  0  0
 17 18  1  0  0  0
 18 19  2  0  0  0
 18 45  1  0  0  0
 19 20  1  0  0  0
 20 21  2  0  0  0
 20 22  1  0  0  0
 22 23  1  0  0  0
 22 46  1  0  0  0
 23 24  1  0  0  0
 23 47  1  0  0  0
 23 48  1  0  0  0
 24 29  1  0  0  0
 24 25  2  0  0  0
 25 26  1  0  0  0
 25 49  1  0  0  0
 26 27  2  0  0  0
 26 31  1  0  0  0
 27 28  1  0  0  0
 27 50  1  0  0  0
 28 29  2  0  0  0
 28 30  1  0  0  0
 29 51  1  0  0  0
 32 52  1  0  0  0
M  END
> <s_m_entry_id>
38064

> <s_m_entry_name>
ligand_docking-pose.411

> <s_m_Source_Path>
/home/csk/Desktop/cluster/DUD-E-result/thrb

> <s_m_Source_File>
ligand_docking-pose.sdf

> <i_m_Source_File_Index>
411

> <i_lp_mmshare_version>
53161

> <i_f3d_flags>
0

> <r_lp_tautomer_probability>
1

> <s_lp_Force_Field>
OPLS_2005

> <r_lp_Energy>
9.511279

> <b_lp_Chiralities_Consistent>
1

> <s_lp_Variant>
119944-1

> <s_i_glide_gridfile>
glide-grid_1ype

> <i_i_glide_lignum>
1459

> <i_i_glide_rotatable_bonds>
8

> <r_i_docking_score>
-6.81656010121767

> <r_i_glide_ligand_efficiency>
-0.213017503163052

> <r_i_glide_ligand_efficiency_sa>
-0.676288416436057

> <r_i_glide_ligand_efficiency_ln>
-1.5264136190732

> <r_i_glide_gscore>
-6.81656010121767

> <r_i_glide_lipo>
-3.44500266373396

> <r_i_glide_hbond>
-0.344182373090995

> <r_i_glide_metal>
0

> <r_i_glide_rewards>
-0.47389522272364

> <r_i_glide_evdw>
-43.0051956176758

> <r_i_glide_ecoul>
-5.2368221282959

> <r_i_glide_erotb>
0.462006988209911

> <r_i_glide_esite>
-0.0797037297508083

> <r_i_glide_emodel>
-64.9173350795533

> <r_i_glide_energy>
-48.2420177459717

> <r_i_glide_einternal>
6.80929088592529

> <i_i_glide_confnum>
15

> <i_i_glide_posenum>
172

> <r_i_glide_eff_state_penalty>
0

> <s_user_duplicate_titles>
119944

> <s_m_subgroup_title>
dock_pv

> <s_m_subgroupid>
dock_pv1

> <b_m_subgroup_collapsed>
0

$$$$
129876
                    3D
 Schrodinger Suite 2021-1.
 76 78  0  0  1  0            999 V2000
   17.6650  -14.6668   25.1209 C   0  0  0  0  0  0
   18.7663  -14.9438   24.1924 N   0  0  2  0  0  0
   19.9979  -14.1589   24.4654 C   0  0  0  0  0  0
   20.3492  -13.9445   25.9705 C   0  0  0  0  0  0
   21.6006  -13.0761   26.2038 C   0  0  0  0  0  0
   22.8268  -13.5915   25.4314 C   0  0  0  0  0  0
   22.5112  -13.8189   23.9455 C   0  0  0  0  0  0
   21.2647  -14.6994   23.7427 C   0  0  0  0  0  0
   18.3688  -15.1331   22.7455 C   0  0  1  0  0  0
   17.1889  -16.1126   22.4656 C   0  0  0  0  0  0
   17.3614  -17.5094   23.0661 C   0  0  0  0  0  0
   18.1405  -18.3485   22.6214 O   0  0  0  0  0  0
   16.5304  -17.7227   24.1261 O   0  0  0  0  0  0
   18.0697  -13.7622   22.0449 C   0  0  0  0  0  0
   17.2009  -13.0529   22.5517 O   0  0  0  0  0  0
   18.7365  -13.4010   20.9113 N   0  0  0  0  0  0
   19.3462  -14.4015   20.0264 C   0  0  0  0  0  0
   20.7900  -14.0057   19.6998 C   0  0  0  0  0  0
   20.8092  -12.6422   19.0058 C   0  0  0  0  0  0
   20.0400  -11.6230   19.8566 C   0  0  0  0  0  0
   18.6059  -12.0432   20.3142 C   0  0  1  0  0  0
   17.5818  -11.9060   19.1506 C   0  0  0  0  0  0
   16.1138  -12.1622   19.5104 C   0  0  0  0  0  0
   15.6570  -11.0530   20.2696 O   0  0  0  0  0  0
   14.2568  -10.9959   20.5092 C   0  0  0  0  0  0
   13.7690  -12.1196   21.4507 C   0  0  0  0  0  0
   12.3117  -11.9023   21.9201 C   0  0  0  0  0  0
   12.1899  -10.5568   22.5064 N   0  0  0  0  0  0
   12.4588   -9.5115   21.5131 C   0  0  0  0  0  0
   13.9287   -9.6038   21.0789 C   0  0  0  0  0  0
   11.5546  -10.2530   23.7517 C   0  0  0  0  0  0
   11.6160   -9.1336   24.3210 N   0  0  0  0  0  0
   10.8165  -11.3016   24.3210 N   0  0  0  0  0  0
   19.2230  -15.6071   22.2739 H   0  0  0  0  0  0
   18.3095  -11.3414   21.0981 H   0  0  0  0  0  0
   16.8160  -15.3070   24.9231 H   0  0  0  0  0  0
   17.9457  -14.8851   26.1507 H   0  0  0  0  0  0
   17.3312  -13.6338   25.0668 H   0  0  0  0  0  0
   19.8356  -13.1537   24.0719 H   0  0  0  0  0  0
   20.4953  -14.9143   26.4486 H   0  0  0  0  0  0
   19.5310  -13.4529   26.4959 H   0  0  0  0  0  0
   21.8233  -13.0520   27.2702 H   0  0  0  0  0  0
   21.3837  -12.0454   25.9211 H   0  0  0  0  0  0
   23.1704  -14.5257   25.8790 H   0  0  0  0  0  0
   23.6551  -12.8879   25.5212 H   0  0  0  0  0  0
   23.3711  -14.2729   23.4525 H   0  0  0  0  0  0
   22.3526  -12.8604   23.4516 H   0  0  0  0  0  0
   21.1069  -14.7690   22.6708 H   0  0  0  0  0  0
   21.4741  -15.7131   24.0867 H   0  0  0  0  0  0
   16.2376  -15.6845   22.7856 H   0  0  0  0  0  0
   17.0834  -16.2541   21.3888 H   0  0  0  0  0  0
   16.0159  -16.9398   24.3333 H   0  0  0  0  0  0
   19.1999  -15.4510   20.2768 H   0  0  0  0  0  0
   18.7709  -14.2530   19.1210 H   0  0  0  0  0  0
   21.4108  -14.0026   20.5950 H   0  0  0  0  0  0
   21.2159  -14.7571   19.0373 H   0  0  0  0  0  0
   21.8360  -12.3090   18.8509 H   0  0  0  0  0  0
   20.3575  -12.7194   18.0158 H   0  0  0  0  0  0
   20.6648  -11.4652   20.7210 H   0  0  0  0  0  0
   20.0309  -10.6531   19.3878 H   0  0  0  0  0  0
   17.6295  -10.9008   18.7395 H   0  0  0  0  0  0
   17.8560  -12.5605   18.3248 H   0  0  0  0  0  0
   15.5346  -12.2410   18.5885 H   0  0  0  0  0  0
   15.9952  -13.1020   20.0495 H   0  0  0  0  0  0
   13.7482  -11.0949   19.5470 H   0  0  0  0  0  0
   13.7984  -13.0788   20.9343 H   0  0  0  0  0  0
   14.4170  -12.2004   22.3210 H   0  0  0  0  0  0
   11.6161  -11.9976   21.0849 H   0  0  0  0  0  0
   12.0540  -12.6841   22.6362 H   0  0  0  0  0  0
   11.7963   -9.6630   20.6581 H   0  0  0  0  0  0
   12.2375   -8.5176   21.8952 H   0  0  0  0  0  0
   14.5633   -9.3608   21.9301 H   0  0  0  0  0  0
   14.0809   -8.8388   20.3212 H   0  0  0  0  0  0
   12.1932   -8.4856   23.8107 H   0  0  0  0  0  0
   10.1662  -11.1052   25.0741 H   0  0  0  0  0  0
   10.5838  -12.1242   23.7867 H   0  0  0  0  0  0
  1  2  1  0  0  0
  1 36  1  0  0  0
  1 37  1  0  0  0
  1 38  1  0  0  0
  2  3  1  0  0  0
  2  9  1  0  0  0
  3  8  1  0  0  0
  3  4  1  0  0  0
  3 39  1  0  0  0
  4  5  1  0  0  0
  4 40  1  0  0  0
  4 41  1  0  0  0
  5  6  1  0  0  0
  5 42  1  0  0  0
  5 43  1  0  0  0
  6  7  1  0  0  0
  6 44  1  0  0  0
  6 45  1  0  0  0
  7  8  1  0  0  0
  7 46  1  0  0  0
  7 47  1  0  0  0
  8 48  1  0  0  0
  8 49  1  0  0  0
  9 34  1  0  0  0
  9 10  1  0  0  0
  9 14  1  0  0  0
 10 11  1  0  0  0
 10 50  1  0  0  0
 10 51  1  0  0  0
 11 12  2  0  0  0
 11 13  1  0  0  0
 13 52  1  0  0  0
 14 15  2  0  0  0
 14 16  1  0  0  0
 16 21  1  0  0  0
 16 17  1  0  0  0
 17 18  1  0  0  0
 17 53  1  0  0  0
 17 54  1  0  0  0
 18 19  1  0  0  0
 18 55  1  0  0  0
 18 56  1  0  0  0
 19 20  1  0  0  0
 19 57  1  0  0  0
 19 58  1  0  0  0
 20 21  1  0  0  0
 20 59  1  0  0  0
 20 60  1  0  0  0
 21 35  1  0  0  0
 21 22  1  0  0  0
 22 23  1  0  0  0
 22 61  1  0  0  0
 22 62  1  0  0  0
 23 24  1  0  0  0
 23 63  1  0  0  0
 23 64  1  0  0  0
 24 25  1  0  0  0
 25 30  1  0  0  0
 25 26  1  0  0  0
 25 65  1  0  0  0
 26 27  1  0  0  0
 26 66  1  0  0  0
 26 67  1  0  0  0
 27 28  1  0  0  0
 27 68  1  0  0  0
 27 69  1  0  0  0
 28 29  1  0  0  0
 28 31  1  0  0  0
 29 30  1  0  0  0
 29 70  1  0  0  0
 29 71  1  0  0  0
 30 72  1  0  0  0
 30 73  1  0  0  0
 31 32  2  3  0  0
 31 33  1  0  0  0
 32 74  1  0  0  0
 33 75  1  0  0  0
 33 76  1  0  0  0
M  END
> <s_m_entry_id>
38065

> <s_m_entry_name>
ligand_docking-pose.412

> <s_m_Source_Path>
/home/csk/Desktop/cluster/DUD-E-result/thrb

> <s_m_Source_File>
ligand_docking-pose.sdf

> <i_m_Source_File_Index>
412

> <i_lp_mmshare_version>
53161

> <i_f3d_flags>
0

> <r_lp_tautomer_probability>
1

> <s_lp_Force_Field>
OPLS_2005

> <r_lp_Energy>
50.612577

> <b_lp_Chiralities_Consistent>
1

> <s_lp_Variant>
129876-2

> <s_i_glide_gridfile>
glide-grid_1ype

> <i_i_glide_lignum>
4314

> <i_i_glide_rotatable_bonds>
12

> <r_i_docking_score>
-6.81627588917623

> <r_i_glide_ligand_efficiency>
-0.206553814823522

> <r_i_glide_ligand_efficiency_sa>
-0.66252845126587

> <r_i_glide_ligand_efficiency_ln>
-1.51590446496507

> <r_i_glide_gscore>
-6.81627588917623

> <r_i_glide_lipo>
-3.67321232903223

> <r_i_glide_hbond>
-0.0733202288344179

> <r_i_glide_metal>
0

> <r_i_glide_rewards>
-1.09128842732634

> <r_i_glide_evdw>
-43.0216484069824

> <r_i_glide_ecoul>
-3.85926413536072

> <r_i_glide_erotb>
0.837213766479198

> <r_i_glide_esite>
-0.0856966298092165

> <r_i_glide_emodel>
-62.5011181494234

> <r_i_glide_energy>
-46.8809125423431

> <r_i_glide_einternal>
5.08044338226318

> <i_i_glide_confnum>
99

> <i_i_glide_posenum>
354

> <r_i_glide_eff_state_penalty>
0

> <s_user_duplicate_titles>
129876

> <s_m_subgroup_title>
dock_pv

> <s_m_subgroupid>
dock_pv1

> <b_m_subgroup_collapsed>
0

$$$$
216692
                    3D
 Schrodinger Suite 2021-1.
 68 71  0  0  1  0            999 V2000
   12.7089  -17.2310   19.6746 C   0  0  0  0  0  0
   13.2320  -17.0477   20.9526 C   0  0  0  0  0  0
   13.4586  -15.7576   21.4259 C   0  0  0  0  0  0
   13.1642  -14.6524   20.6216 C   0  0  0  0  0  0
   12.6394  -14.8502   19.3393 C   0  0  0  0  0  0
   12.4145  -16.1380   18.8621 C   0  0  0  0  0  0
   13.3751  -13.2344   21.1623 C   0  0  2  0  0  0
   12.0167  -12.4721   21.2448 C   0  0  0  0  0  0
   12.0162  -11.2748   22.1909 C   0  0  0  0  0  0
   11.2179  -11.2872   23.3409 C   0  0  0  0  0  0
   11.2160  -10.1906   24.1989 C   0  0  0  0  0  0
   12.0162   -9.0866   23.9123 C   0  0  0  0  0  0
   12.8189   -9.0794   22.7782 C   0  0  0  0  0  0
   12.8016  -10.1559   21.9061 C   0  0  0  0  0  0
   12.0133   -7.9842   24.7208 O   0  0  0  0  0  0
   14.4667  -12.4824   20.3436 C   0  0  0  0  0  0
   14.1243  -11.8631   19.3317 O   0  0  0  0  0  0
   15.7579  -12.4866   20.7640 N   0  0  0  0  0  0
   16.2588  -13.1974   21.9403 C   0  0  0  0  0  0
   17.7703  -12.9990   21.9279 C   0  0  0  0  0  0
   17.9204  -11.6504   21.2390 C   0  0  0  0  0  0
   16.8297  -11.6675   20.1547 C   0  0  1  0  0  0
   17.3406  -12.2125   18.8086 C   0  0  0  0  0  0
   18.4879  -12.6410   18.7099 O   0  0  0  0  0  0
   16.4671  -12.1621   17.7997 N   0  0  0  0  0  0
   16.7042  -12.6523   16.4519 C   0  0  0  0  0  0
   15.5642  -12.2638   15.4898 C   0  0  2  0  0  0
   15.7505  -12.8746   14.0769 C   0  0  0  0  0  0
   16.8750  -12.1816   13.2683 C   0  0  0  0  0  0
   16.6343  -10.6592   13.1593 C   0  0  1  0  0  0
   16.4409  -10.0297   14.5569 C   0  0  0  0  0  0
   15.3200  -10.7384   15.3469 C   0  0  0  0  0  0
   17.6160   -9.9591   12.3496 N   0  0  0  0  0  0
   16.4771  -10.6470   19.9883 H   0  0  0  0  0  0
   12.5281  -18.2305   19.3070 H   0  0  0  0  0  0
   13.4587  -17.9031   21.5710 H   0  0  0  0  0  0
   13.8585  -15.6186   22.4186 H   0  0  0  0  0  0
   12.3997  -13.9992   18.7208 H   0  0  0  0  0  0
   12.0132  -16.2888   17.8690 H   0  0  0  0  0  0
   13.7062  -13.3286   22.1966 H   0  0  0  0  0  0
   11.2342  -13.1588   21.5757 H   0  0  0  0  0  0
   11.6971  -12.1285   20.2606 H   0  0  0  0  0  0
   10.5875  -12.1346   23.5692 H   0  0  0  0  0  0
   10.5831  -10.2115   25.0744 H   0  0  0  0  0  0
   13.4654   -8.2461   22.5714 H   0  0  0  0  0  0
   13.4111  -10.1071   21.0195 H   0  0  0  0  0  0
   11.3069   -8.0175   25.3689 H   0  0  0  0  0  0
   15.8410  -12.7203   22.8221 H   0  0  0  0  0  0
   15.9900  -14.2541   21.9482 H   0  0  0  0  0  0
   18.2268  -13.0516   22.9159 H   0  0  0  0  0  0
   18.2317  -13.7723   21.3106 H   0  0  0  0  0  0
   17.7054  -10.8342   21.9215 H   0  0  0  0  0  0
   18.9323  -11.4786   20.8694 H   0  0  0  0  0  0
   15.5241  -11.8583   18.0232 H   0  0  0  0  0  0
   17.6519  -12.2523   16.0869 H   0  0  0  0  0  0
   16.8159  -13.7375   16.4563 H   0  0  0  0  0  0
   14.6580  -12.6935   15.9209 H   0  0  0  0  0  0
   15.9517  -13.9451   14.1489 H   0  0  0  0  0  0
   14.8172  -12.7915   13.5165 H   0  0  0  0  0  0
   16.9194  -12.6208   12.2710 H   0  0  0  0  0  0
   17.8379  -12.3809   13.7380 H   0  0  0  0  0  0
   15.6765  -10.5485   12.6477 H   0  0  0  0  0  0
   16.1859   -8.9758   14.4518 H   0  0  0  0  0  0
   17.3705  -10.0680   15.1242 H   0  0  0  0  0  0
   14.3718  -10.5747   14.8336 H   0  0  0  0  0  0
   15.2167  -10.2687   16.3247 H   0  0  0  0  0  0
   17.5912  -10.3588   11.4221 H   0  0  0  0  0  0
   17.2506   -9.0172   12.2402 H   0  0  0  0  0  0
  1  6  1  0  0  0
  1  2  2  0  0  0
  1 35  1  0  0  0
  2  3  1  0  0  0
  2 36  1  0  0  0
  3  4  2  0  0  0
  3 37  1  0  0  0
  4  5  1  0  0  0
  4  7  1  0  0  0
  5  6  2  0  0  0
  5 38  1  0  0  0
  6 39  1  0  0  0
  7  8  1  0  0  0
  7 16  1  0  0  0
  7 40  1  0  0  0
  8  9  1  0  0  0
  8 41  1  0  0  0
  8 42  1  0  0  0
  9 14  1  0  0  0
  9 10  2  0  0  0
 10 11  1  0  0  0
 10 43  1  0  0  0
 11 12  2  0  0  0
 11 44  1  0  0  0
 12 13  1  0  0  0
 12 15  1  0  0  0
 13 14  2  0  0  0
 13 45  1  0  0  0
 14 46  1  0  0  0
 15 47  1  0  0  0
 16 17  2  0  0  0
 16 18  1  0  0  0
 18 22  1  0  0  0
 18 19  1  0  0  0
 19 20  1  0  0  0
 19 48  1  0  0  0
 19 49  1  0  0  0
 20 21  1  0  0  0
 20 50  1  0  0  0
 20 51  1  0  0  0
 21 22  1  0  0  0
 21 52  1  0  0  0
 21 53  1  0  0  0
 22 34  1  0  0  0
 22 23  1  0  0  0
 23 24  2  0  0  0
 23 25  1  0  0  0
 25 26  1  0  0  0
 25 54  1  0  0  0
 26 27  1  0  0  0
 26 55  1  0  0  0
 26 56  1  0  0  0
 27 32  1  0  0  0
 27 28  1  0  0  0
 27 57  1  0  0  0
 28 29  1  0  0  0
 28 58  1  0  0  0
 28 59  1  0  0  0
 29 30  1  0  0  0
 29 60  1  0  0  0
 29 61  1  0  0  0
 30 31  1  0  0  0
 30 33  1  0  0  0
 30 62  1  0  0  0
 31 32  1  0  0  0
 31 63  1  0  0  0
 31 64  1  0  0  0
 32 65  1  0  0  0
 32 66  1  0  0  0
 33 67  1  0  0  0
 33 68  1  0  0  0
M  END
> <s_m_entry_id>
38066

> <s_m_entry_name>
ligand_docking-pose.413

> <s_m_Source_Path>
/home/csk/Desktop/cluster/DUD-E-result/thrb

> <s_m_Source_File>
ligand_docking-pose.sdf

> <i_m_Source_File_Index>
413

> <i_lp_mmshare_version>
53161

> <i_f3d_flags>
0

> <r_lp_tautomer_probability>
0.999999999997365

> <s_lp_Force_Field>
OPLS_2005

> <r_lp_Energy>
33.903796

> <b_lp_Chiralities_Consistent>
1

> <s_lp_Variant>
216692-1

> <s_i_glide_gridfile>
glide-grid_1ype

> <i_i_glide_lignum>
874

> <i_i_glide_rotatable_bonds>
10

> <r_i_docking_score>
-6.81430949798474

> <r_i_glide_ligand_efficiency>
-0.206494227211659

> <r_i_glide_ligand_efficiency_sa>
-0.662337321955398

> <r_i_glide_ligand_efficiency_ln>
-1.51546714974551

> <r_i_glide_gscore>
-6.81430949798474

> <r_i_glide_lipo>
-2.77776073171721

> <r_i_glide_hbond>
-0.299866467710679

> <r_i_glide_metal>
0

> <r_i_glide_rewards>
-0.807792598513684

> <r_i_glide_evdw>
-50.0770378112793

> <r_i_glide_ecoul>
-8.78294849395752

> <r_i_glide_erotb>
0.892404464614424

> <r_i_glide_esite>
0

> <r_i_glide_emodel>
-78.8440617881268

> <r_i_glide_energy>
-58.8599863052368

> <r_i_glide_einternal>
6.20709133148193

> <i_i_glide_confnum>
102

> <i_i_glide_posenum>
340

> <r_i_glide_eff_state_penalty>
0

> <s_user_duplicate_titles>
216692

> <s_m_subgroup_title>
dock_pv

> <s_m_subgroupid>
dock_pv1

> <b_m_subgroup_collapsed>
0

$$$$
216539
                    3D
 Schrodinger Suite 2021-1.
 67 70  0  0  1  0            999 V2000
   17.4592  -17.7538   20.3356 C   0  0  0  0  0  0
   16.0809  -17.1444   20.5459 C   0  0  0  0  0  0
   14.9880  -17.6796   19.8546 C   0  0  0  0  0  0
   13.7051  -17.1677   20.0472 C   0  0  0  0  0  0
   13.5047  -16.1150   20.9366 C   0  0  0  0  0  0
   14.5897  -15.5659   21.6163 C   0  0  0  0  0  0
   15.8853  -16.0658   21.4286 C   0  0  0  0  0  0
   17.0059  -15.4266   22.1648 C   0  0  0  0  0  0
   17.2893  -15.7750   23.4539 C   0  0  0  0  0  0
   18.2762  -15.1569   24.1717 N   0  0  0  0  0  0
   18.9921  -14.2607   23.5815 C   0  0  0  0  0  0
   18.8357  -13.8435   22.1523 C   0  0  0  0  0  0
   19.6100  -13.0531   21.5987 O   0  0  0  0  0  0
   17.7588  -14.4426   21.5088 N   0  0  0  0  0  0
   17.5764  -14.0755   20.0822 C   0  0  0  0  0  0
   16.5868  -12.9110   19.9329 C   0  0  0  0  0  0
   16.9390  -11.7617   20.1957 O   0  0  0  0  0  0
   15.3731  -13.2247   19.4472 N   0  0  0  0  0  0
   14.3043  -12.2679   19.1572 C   0  0  0  0  0  0
   13.6537  -11.6593   20.3921 C   0  0  0  0  0  0
   14.0285  -10.3896   20.8240 C   0  0  0  0  0  0
   13.3995   -9.8103   21.9209 C   0  0  0  0  0  0
   12.3815  -10.4832   22.6234 C   0  0  0  0  0  0
   12.0165  -11.7643   22.1584 C   0  0  0  0  0  0
   12.6330  -12.3397   21.0520 C   0  0  0  0  0  0
   11.7293   -9.8534   23.8142 C   0  0  0  0  0  0
   12.0161   -8.6835   24.1894 N   0  0  0  0  0  0
   10.8160  -10.6532   24.4424 N   0  0  0  0  0  0
   19.9948  -13.6133   24.2974 N   0  0  0  0  0  0
   20.2671  -13.7982   25.7199 C   0  0  0  0  0  0
   21.6842  -13.3597   26.1323 C   0  0  0  0  0  0
   22.7994  -14.1866   25.4980 C   0  0  0  0  0  0
   22.8508  -15.5686   25.7124 C   0  0  0  0  0  0
   23.8800  -16.3233   25.1577 C   0  0  0  0  0  0
   24.8599  -15.6974   24.3930 C   0  0  0  0  0  0
   24.8140  -14.3232   24.1698 C   0  0  0  0  0  0
   23.7818  -13.5643   24.7211 C   0  0  0  0  0  0
   16.4158  -17.0438   24.3255 Cl  0  0  0  0  0  0
   17.4882  -18.4234   19.4737 H   0  0  0  0  0  0
   18.2012  -16.9746   20.1665 H   0  0  0  0  0  0
   17.7663  -18.3054   21.2256 H   0  0  0  0  0  0
   15.1232  -18.5030   19.1677 H   0  0  0  0  0  0
   12.8656  -17.5924   19.5160 H   0  0  0  0  0  0
   12.5095  -15.7269   21.0990 H   0  0  0  0  0  0
   14.4213  -14.7537   22.3131 H   0  0  0  0  0  0
   17.2153  -14.9342   19.5218 H   0  0  0  0  0  0
   18.5097  -13.7962   19.5905 H   0  0  0  0  0  0
   15.1356  -14.2023   19.3481 H   0  0  0  0  0  0
   13.5358  -12.7834   18.5772 H   0  0  0  0  0  0
   14.6775  -11.4756   18.5045 H   0  0  0  0  0  0
   14.8211   -9.8537   20.3215 H   0  0  0  0  0  0
   13.7383   -8.8313   22.2271 H   0  0  0  0  0  0
   11.2388  -12.3441   22.6365 H   0  0  0  0  0  0
   12.3153  -13.3162   20.7172 H   0  0  0  0  0  0
   12.7232   -8.2533   23.6160 H   0  0  0  0  0  0
   10.1911  -10.2301   25.1209 H   0  0  0  0  0  0
   10.4774  -11.4929   24.0016 H   0  0  0  0  0  0
   20.5033  -12.8740   23.8338 H   0  0  0  0  0  0
   19.5404  -13.1963   26.2704 H   0  0  0  0  0  0
   20.0870  -14.8267   26.0430 H   0  0  0  0  0  0
   21.8191  -12.2984   25.9211 H   0  0  0  0  0  0
   21.7773  -13.4530   27.2127 H   0  0  0  0  0  0
   22.0992  -16.0548   26.3181 H   0  0  0  0  0  0
   23.9226  -17.3893   25.3304 H   0  0  0  0  0  0
   25.6685  -16.2805   23.9766 H   0  0  0  0  0  0
   25.5857  -13.8515   23.5828 H   0  0  0  0  0  0
   23.7592  -12.4992   24.5587 H   0  0  0  0  0  0
  1  2  1  0  0  0
  1 39  1  0  0  0
  1 40  1  0  0  0
  1 41  1  0  0  0
  2  7  1  0  0  0
  2  3  2  0  0  0
  3  4  1  0  0  0
  3 42  1  0  0  0
  4  5  2  0  0  0
  4 43  1  0  0  0
  5  6  1  0  0  0
  5 44  1  0  0  0
  6  7  2  0  0  0
  6 45  1  0  0  0
  7  8  1  0  0  0
  8 14  1  0  0  0
  8  9  2  0  0  0
  9 10  1  0  0  0
  9 38  1  0  0  0
 10 11  2  0  0  0
 11 12  1  0  0  0
 11 29  1  0  0  0
 12 13  2  0  0  0
 12 14  1  0  0  0
 14 15  1  0  0  0
 15 16  1  0  0  0
 15 46  1  0  0  0
 15 47  1  0  0  0
 16 17  2  0  0  0
 16 18  1  0  0  0
 18 19  1  0  0  0
 18 48  1  0  0  0
 19 20  1  0  0  0
 19 49  1  0  0  0
 19 50  1  0  0  0
 20 25  1  0  0  0
 20 21  2  0  0  0
 21 22  1  0  0  0
 21 51  1  0  0  0
 22 23  2  0  0  0
 22 52  1  0  0  0
 23 24  1  0  0  0
 23 26  1  0  0  0
 24 25  2  0  0  0
 24 53  1  0  0  0
 25 54  1  0  0  0
 26 27  2  3  0  0
 26 28  1  0  0  0
 27 55  1  0  0  0
 28 56  1  0  0  0
 28 57  1  0  0  0
 29 30  1  0  0  0
 29 58  1  0  0  0
 30 31  1  0  0  0
 30 59  1  0  0  0
 30 60  1  0  0  0
 31 32  1  0  0  0
 31 61  1  0  0  0
 31 62  1  0  0  0
 32 37  1  0  0  0
 32 33  2  0  0  0
 33 34  1  0  0  0
 33 63  1  0  0  0
 34 35  2  0  0  0
 34 64  1  0  0  0
 35 36  1  0  0  0
 35 65  1  0  0  0
 36 37  2  0  0  0
 36 66  1  0  0  0
 37 67  1  0  0  0
M  END
> <s_m_entry_id>
38068

> <s_m_entry_name>
ligand_docking-pose.415

> <s_m_Source_Path>
/home/csk/Desktop/cluster/DUD-E-result/thrb

> <s_m_Source_File>
ligand_docking-pose.sdf

> <i_m_Source_File_Index>
415

> <i_lp_mmshare_version>
53161

> <i_f3d_flags>
0

> <r_lp_tautomer_probability>
1

> <s_lp_Force_Field>
OPLS_2005

> <r_lp_Energy>
26.381469

> <b_lp_Chiralities_Consistent>
1

> <s_lp_Variant>
216539-2

> <s_i_glide_gridfile>
glide-grid_1ype

> <i_i_glide_lignum>
2327

> <i_i_glide_rotatable_bonds>
11

> <r_i_docking_score>
-6.80164469536433

> <r_i_glide_ligand_efficiency>
-0.178990649878009

> <r_i_glide_ligand_efficiency_sa>
-0.601762162207175

> <r_i_glide_ligand_efficiency_ln>
-1.46663468043592

> <r_i_glide_gscore>
-6.80164469536433

> <r_i_glide_lipo>
-3.45889798956043

> <r_i_glide_hbond>
-0.155044557921038

> <r_i_glide_metal>
0

> <r_i_glide_rewards>
-0.419107496878604

> <r_i_glide_evdw>
-54.8303565979004

> <r_i_glide_ecoul>
-3.98057293891907

> <r_i_glide_erotb>
0.662603185030497

> <r_i_glide_esite>
-0.0925940653018735

> <r_i_glide_emodel>
-80.3301064474456

> <r_i_glide_energy>
-58.8109295368195

> <r_i_glide_einternal>
6.4986743927002

> <i_i_glide_confnum>
6

> <i_i_glide_posenum>
76

> <r_i_glide_eff_state_penalty>
0

> <s_user_duplicate_titles>
216539

> <s_m_subgroup_title>
dock_pv

> <s_m_subgroupid>
dock_pv1

> <b_m_subgroup_collapsed>
0

$$$$
335139
                    3D
 Schrodinger Suite 2021-1.
 53 55  0  0  1  0            999 V2000
   13.7401  -14.7983   18.5352 C   0  0  0  0  0  0
   14.9967  -14.0199   18.9212 C   0  0  0  0  0  0
   15.9434  -13.7597   17.9970 C   0  0  0  0  0  0
   17.1332  -13.0520   18.4068 C   0  0  0  0  0  0
   17.3062  -12.6974   19.7003 C   0  0  0  0  0  0
   16.2610  -12.9633   20.7123 C   0  0  0  0  0  0
   16.4164  -12.6285   21.8945 O   0  0  0  0  0  0
   15.1179  -13.6156   20.2552 N   0  0  0  0  0  0
   14.0360  -13.7925   21.2639 C   0  0  0  0  0  0
   13.0132  -12.6427   21.1827 C   0  0  0  0  0  0
   12.8796  -11.9741   20.1554 O   0  0  0  0  0  0
   12.3097  -12.4079   22.2996 N   0  0  0  0  0  0
   11.3522  -11.3175   22.4702 C   0  0  0  0  0  0
   11.9887  -10.0781   23.0627 C   0  0  0  0  0  0
   13.0683   -9.2686   22.6869 C   0  0  0  0  0  0
   13.2158   -8.2529   23.5211 N   0  0  0  0  0  0
   12.2268   -8.3372   24.3698 C   0  0  0  0  0  0
   11.4748   -9.4622   24.1756 N   0  0  0  0  0  0
   14.0160   -9.3913   21.5101 C   0  0  0  0  0  0
   18.4689  -12.0413   20.1974 N   0  0  0  0  0  0
   20.1237  -12.4668   19.7058 S   0  0  0  0  0  0
   20.1518  -12.6530   18.2524 O   0  0  0  0  0  0
   21.0330  -11.4912   20.3099 O   0  0  0  0  0  0
   20.4362  -14.1323   20.5430 C   0  0  0  0  0  0
   20.2108  -14.0727   22.0473 C   0  0  0  0  0  0
   18.9891  -14.4809   22.5872 C   0  0  0  0  0  0
   18.7591  -14.3644   23.9563 C   0  0  0  0  0  0
   19.7556  -13.8515   24.7831 C   0  0  0  0  0  0
   20.9829  -13.4575   24.2537 C   0  0  0  0  0  0
   21.2115  -13.5703   22.8832 C   0  0  0  0  0  0
   10.6553   -9.7487   24.7050 H   0  0  0  0  0  0
   13.7385  -15.0625   17.4764 H   0  0  0  0  0  0
   13.6743  -15.7306   19.0970 H   0  0  0  0  0  0
   12.8387  -14.2164   18.7219 H   0  0  0  0  0  0
   15.8329  -14.0923   16.9739 H   0  0  0  0  0  0
   17.8715  -12.8112   17.6580 H   0  0  0  0  0  0
   14.4300  -13.8838   22.2786 H   0  0  0  0  0  0
   13.5273  -14.7395   21.1003 H   0  0  0  0  0  0
   12.3542  -13.0814   23.0501 H   0  0  0  0  0  0
   10.5449  -11.6927   23.1052 H   0  0  0  0  0  0
   10.8781  -11.0561   21.5261 H   0  0  0  0  0  0
   12.0045   -7.6574   25.1777 H   0  0  0  0  0  0
   13.4742   -9.3683   20.5651 H   0  0  0  0  0  0
   14.7528   -8.5877   21.4716 H   0  0  0  0  0  0
   14.5822  -10.3201   21.5294 H   0  0  0  0  0  0
   18.3917  -11.8068   21.1924 H   0  0  0  0  0  0
   19.7754  -14.8585   20.0703 H   0  0  0  0  0  0
   21.4645  -14.4189   20.3162 H   0  0  0  0  0  0
   18.2103  -14.8740   21.9492 H   0  0  0  0  0  0
   17.8084  -14.6660   24.3719 H   0  0  0  0  0  0
   19.5731  -13.7526   25.8440 H   0  0  0  0  0  0
   21.7490  -13.0569   24.9008 H   0  0  0  0  0  0
   22.1569  -13.2462   22.4716 H   0  0  0  0  0  0
  1  2  1  0  0  0
  1 32  1  0  0  0
  1 33  1  0  0  0
  1 34  1  0  0  0
  2  8  1  0  0  0
  2  3  2  0  0  0
  3  4  1  0  0  0
  3 35  1  0  0  0
  4  5  2  0  0  0
  4 36  1  0  0  0
  5  6  1  0  0  0
  5 20  1  0  0  0
  6  7  2  0  0  0
  6  8  1  0  0  0
  8  9  1  0  0  0
  9 10  1  0  0  0
  9 37  1  0  0  0
  9 38  1  0  0  0
 10 11  2  0  0  0
 10 12  1  0  0  0
 12 13  1  0  0  0
 12 39  1  0  0  0
 13 14  1  0  0  0
 13 40  1  0  0  0
 13 41  1  0  0  0
 14 18  1  0  0  0
 14 15  2  0  0  0
 15 16  1  0  0  0
 15 19  1  0  0  0
 16 17  2  0  0  0
 17 18  1  0  0  0
 17 42  1  0  0  0
 18 31  1  0  0  0
 19 43  1  0  0  0
 19 44  1  0  0  0
 19 45  1  0  0  0
 20 21  1  0  0  0
 20 46  1  0  0  0
 21 22  2  0  0  0
 21 23  2  0  0  0
 21 24  1  0  0  0
 24 25  1  0  0  0
 24 47  1  0  0  0
 24 48  1  0  0  0
 25 30  1  0  0  0
 25 26  2  0  0  0
 26 27  1  0  0  0
 26 49  1  0  0  0
 27 28  2  0  0  0
 27 50  1  0  0  0
 28 29  1  0  0  0
 28 51  1  0  0  0
 29 30  2  0  0  0
 29 52  1  0  0  0
 30 53  1  0  0  0
M  END
> <s_m_entry_id>
38069

> <s_m_entry_name>
ligand_docking-pose.416

> <s_m_Source_Path>
/home/csk/Desktop/cluster/DUD-E-result/thrb

> <s_m_Source_File>
ligand_docking-pose.sdf

> <i_m_Source_File_Index>
416

> <i_lp_mmshare_version>
53161

> <i_f3d_flags>
0

> <r_lp_tautomer_probability>
0.499999999999999

> <s_lp_Force_Field>
OPLS_2005

> <r_lp_Energy>
18.124761

> <b_lp_Chiralities_Consistent>
1

> <s_lp_Variant>
335139-1

> <s_i_glide_gridfile>
glide-grid_1ype

> <i_i_glide_lignum>
2788

> <i_i_glide_rotatable_bonds>
9

> <r_i_docking_score>
-6.80164357879719

> <r_i_glide_ligand_efficiency>
-0.226721452626573

> <r_i_glide_ligand_efficiency_sa>
-0.704476266599678

> <r_i_glide_ligand_efficiency_ln>
-1.54540753094525

> <r_i_glide_gscore>
-6.80164357879719

> <r_i_glide_lipo>
-2.46766241792625

> <r_i_glide_hbond>
-0.0200406235860156

> <r_i_glide_metal>
0

> <r_i_glide_rewards>
-1.62585596386208

> <r_i_glide_evdw>
-47.6734161376953

> <r_i_glide_ecoul>
-7.70191812515259

> <r_i_glide_erotb>
0.86186340290977

> <r_i_glide_esite>
-0.0109894506749622

> <r_i_glide_emodel>
-74.1638162421921

> <r_i_glide_energy>
-55.3753342628479

> <r_i_glide_einternal>
5.1924843788147

> <i_i_glide_confnum>
34

> <i_i_glide_posenum>
5

> <r_i_glide_eff_state_penalty>
0

> <s_user_duplicate_titles>
335139

> <s_m_subgroup_title>
dock_pv

> <s_m_subgroupid>
dock_pv1

> <b_m_subgroup_collapsed>
0

$$$$
549337
                    3D
 Schrodinger Suite 2021-1.
 62 64  0  0  1  0            999 V2000
   25.2403  -14.2268   24.3845 C   0  0  0  0  0  0
   23.9689  -14.9618   24.7623 C   0  0  0  0  0  0
   23.9874  -16.3466   24.9246 C   0  0  0  0  0  0
   22.8127  -17.0294   25.2352 C   0  0  0  0  0  0
   21.6005  -16.3457   25.3708 C   0  0  0  0  0  0
   21.5774  -14.9468   25.2062 C   0  0  0  0  0  0
   22.7723  -14.2657   24.9364 C   0  0  0  0  0  0
   20.0521  -13.9859   25.2730 S   0  0  0  0  0  0
   20.4006  -12.5665   25.1546 O   0  0  0  0  0  0
   19.2662  -14.4737   26.4098 O   0  0  0  0  0  0
   19.1348  -14.4277   23.8160 N   0  0  0  0  0  0
   19.3807  -13.9088   22.5310 C   0  0  0  0  0  0
   20.6712  -13.5313   22.1569 C   0  0  0  0  0  0
   20.9358  -13.0530   20.8828 C   0  0  0  0  0  0
   19.9220  -12.9573   19.9349 C   0  0  0  0  0  0
   18.6179  -13.3756   20.2682 C   0  0  0  0  0  0
   18.3474  -13.8170   21.5814 C   0  0  0  0  0  0
   17.0666  -14.1832   21.9259 O   0  0  0  0  0  0
   17.5187  -13.4530   19.2001 C   0  0  0  0  0  0
   16.4711  -12.3410   19.2502 C   0  0  0  0  0  0
   16.8054  -11.1643   19.3841 O   0  0  0  0  0  0
   15.2073  -12.7487   19.0476 N   0  0  0  0  0  0
   14.0250  -11.9026   18.9585 C   0  0  0  0  0  0
   13.4910  -11.4214   20.2988 C   0  0  0  0  0  0
   12.5074  -12.1508   20.9626 C   0  0  0  0  0  0
   11.9497  -11.6570   22.1366 C   0  0  0  0  0  0
   12.3354  -10.4089   22.6668 C   0  0  0  0  0  0
   13.3348   -9.6985   21.9780 C   0  0  0  0  0  0
   13.9089  -10.1997   20.8168 C   0  0  0  0  0  0
   11.7174   -9.8407   23.9015 C   0  0  0  0  0  0
   12.0161   -8.6875   24.3210 N   0  0  0  0  0  0
   10.8160  -10.6659   24.5119 N   0  0  0  0  0  0
   20.2936  -12.3961   18.5711 C   0  0  0  0  0  0
   20.3466  -17.1548   25.6758 C   0  0  0  0  0  0
   25.0994  -13.1445   24.3219 H   0  0  0  0  0  0
   26.0160  -14.4305   25.1223 H   0  0  0  0  0  0
   25.6151  -14.5851   23.4238 H   0  0  0  0  0  0
   24.9101  -16.8966   24.8054 H   0  0  0  0  0  0
   22.8472  -18.1013   25.3565 H   0  0  0  0  0  0
   22.7687  -13.1917   24.8177 H   0  0  0  0  0  0
   18.4278  -15.1381   23.9266 H   0  0  0  0  0  0
   21.4934  -13.5959   22.8447 H   0  0  0  0  0  0
   21.9437  -12.7532   20.6358 H   0  0  0  0  0  0
   16.9513  -14.3330   22.8672 H   0  0  0  0  0  0
   17.0271  -14.4213   19.3012 H   0  0  0  0  0  0
   17.9359  -13.4529   18.1962 H   0  0  0  0  0  0
   15.0331  -13.7425   19.0270 H   0  0  0  0  0  0
   13.2449  -12.4768   18.4585 H   0  0  0  0  0  0
   14.2240  -11.0528   18.3053 H   0  0  0  0  0  0
   12.1630  -13.0970   20.5708 H   0  0  0  0  0  0
   11.1891  -12.2637   22.6078 H   0  0  0  0  0  0
   13.6934   -8.7454   22.3359 H   0  0  0  0  0  0
   14.6824   -9.6330   20.3211 H   0  0  0  0  0  0
   12.7082   -8.2324   23.7503 H   0  0  0  0  0  0
   10.1702  -10.2607   25.1821 H   0  0  0  0  0  0
   10.4903  -11.4971   24.0449 H   0  0  0  0  0  0
   21.1069  -11.6755   18.6599 H   0  0  0  0  0  0
   20.6240  -13.2018   17.9186 H   0  0  0  0  0  0
   19.4705  -11.8538   18.1094 H   0  0  0  0  0  0
   20.5073  -18.2247   25.5374 H   0  0  0  0  0  0
   20.0157  -16.9839   26.7027 H   0  0  0  0  0  0
   19.5331  -16.8724   25.0077 H   0  0  0  0  0  0
  1  2  1  0  0  0
  1 35  1  0  0  0
  1 36  1  0  0  0
  1 37  1  0  0  0
  2  7  1  0  0  0
  2  3  2  0  0  0
  3  4  1  0  0  0
  3 38  1  0  0  0
  4  5  2  0  0  0
  4 39  1  0  0  0
  5  6  1  0  0  0
  5 34  1  0  0  0
  6  7  2  0  0  0
  6  8  1  0  0  0
  7 40  1  0  0  0
  8  9  2  0  0  0
  8 10  2  0  0  0
  8 11  1  0  0  0
 11 12  1  0  0  0
 11 41  1  0  0  0
 12 17  1  0  0  0
 12 13  2  0  0  0
 13 14  1  0  0  0
 13 42  1  0  0  0
 14 15  2  0  0  0
 14 43  1  0  0  0
 15 16  1  0  0  0
 15 33  1  0  0  0
 16 17  2  0  0  0
 16 19  1  0  0  0
 17 18  1  0  0  0
 18 44  1  0  0  0
 19 20  1  0  0  0
 19 45  1  0  0  0
 19 46  1  0  0  0
 20 21  2  0  0  0
 20 22  1  0  0  0
 22 23  1  0  0  0
 22 47  1  0  0  0
 23 24  1  0  0  0
 23 48  1  0  0  0
 23 49  1  0  0  0
 24 29  1  0  0  0
 24 25  2  0  0  0
 25 26  1  0  0  0
 25 50  1  0  0  0
 26 27  2  0  0  0
 26 51  1  0  0  0
 27 28  1  0  0  0
 27 30  1  0  0  0
 28 29  2  0  0  0
 28 52  1  0  0  0
 29 53  1  0  0  0
 30 31  2  3  0  0
 30 32  1  0  0  0
 31 54  1  0  0  0
 32 55  1  0  0  0
 32 56  1  0  0  0
 33 57  1  0  0  0
 33 58  1  0  0  0
 33 59  1  0  0  0
 34 60  1  0  0  0
 34 61  1  0  0  0
 34 62  1  0  0  0
M  END
> <s_m_entry_id>
38070

> <s_m_entry_name>
ligand_docking-pose.417

> <s_m_Source_Path>
/home/csk/Desktop/cluster/DUD-E-result/thrb

> <s_m_Source_File>
ligand_docking-pose.sdf

> <i_m_Source_File_Index>
417

> <i_lp_mmshare_version>
53161

> <i_f3d_flags>
0

> <r_lp_tautomer_probability>
1

> <s_lp_Force_Field>
OPLS_2005

> <r_lp_Energy>
11.532709

> <b_lp_Chiralities_Consistent>
1

> <s_lp_Variant>
549337-2

> <s_i_glide_gridfile>
glide-grid_1ype

> <i_i_glide_lignum>
2529

> <i_i_glide_rotatable_bonds>
10

> <r_i_docking_score>
-6.8010122237494

> <r_i_glide_ligand_efficiency>
-0.200029771286747

> <r_i_glide_ligand_efficiency_sa>
-0.648018806905666

> <r_i_glide_ligand_efficiency_ln>
-1.50253436215758

> <r_i_glide_gscore>
-6.8010122237494

> <r_i_glide_lipo>
-3.66162566763507

> <r_i_glide_hbond>
-0.154838872207302

> <r_i_glide_metal>
0

> <r_i_glide_rewards>
-0.570370726283355

> <r_i_glide_evdw>
-54.5431327819824

> <r_i_glide_ecoul>
-1.94572877883911

> <r_i_glide_erotb>
0.702470262128153

> <r_i_glide_esite>
-0.0976312638268397

> <r_i_glide_emodel>
-75.3259191996457

> <r_i_glide_energy>
-56.4888615608215

> <r_i_glide_einternal>
4.84841632843018

> <i_i_glide_confnum>
46

> <i_i_glide_posenum>
121

> <r_i_glide_eff_state_penalty>
0

> <s_user_duplicate_titles>
549337

> <s_m_subgroup_title>
dock_pv

> <s_m_subgroupid>
dock_pv1

> <b_m_subgroup_collapsed>
0

$$$$
251238
                    3D
 Schrodinger Suite 2021-1.
 51 53  0  0  1  0            999 V2000
   12.6867  -12.2917   21.0344 C   0  0  0  0  0  0
   12.0443  -11.7296   22.1282 C   0  0  0  0  0  0
   12.3891  -10.4471   22.6024 C   0  0  0  0  0  0
   13.3955   -9.7483   21.9089 C   0  0  0  0  0  0
   14.0426  -10.3120   20.8144 C   0  0  0  0  0  0
   13.6964  -11.5883   20.3856 C   0  0  0  0  0  0
   14.3849  -12.2131   19.2472 C   0  0  0  0  0  0
   15.3065  -13.2093   19.2783 C   0  0  0  0  0  0
   15.8019  -13.8377   17.9820 C   0  0  0  0  0  0
   15.0982  -15.1634   17.6276 C   0  0  0  0  0  0
   15.3399  -16.3379   18.6018 C   0  0  0  0  0  0
   14.9450  -16.0832   20.0722 C   0  0  0  0  0  0
   15.8940  -15.1579   20.8405 C   0  0  0  0  0  0
   16.6834  -15.6742   21.8238 C   0  0  0  0  0  0
   17.7078  -15.0512   22.6925 C   0  0  0  0  0  0
   18.7873  -14.3430   22.1575 C   0  0  0  0  0  0
   19.7770  -13.8344   22.9968 C   0  0  0  0  0  0
   19.6887  -14.0061   24.3854 C   0  0  0  0  0  0
   18.5957  -14.7027   24.9181 C   0  0  0  0  0  0
   17.6278  -15.2381   24.0739 C   0  0  0  0  0  0
   20.7876  -13.4817   25.2781 C   0  0  0  0  0  0
   21.9593  -13.4513   24.9065 O   0  0  0  0  0  0
   20.4325  -13.0541   26.4895 N   0  0  0  0  0  0
   15.8309  -13.7037   20.5683 C   0  0  0  0  0  0
   16.1895  -12.8814   21.4175 O   0  0  0  0  0  0
   11.7320   -9.8473   23.8002 C   0  0  0  0  0  0
   12.0223   -8.6882   24.2079 N   0  0  0  0  0  0
   10.8161  -10.6614   24.4038 N   0  0  0  0  0  0
   12.4054  -13.2818   20.7043 H   0  0  0  0  0  0
   11.2797  -12.3288   22.6010 H   0  0  0  0  0  0
   13.7131   -8.7646   22.2228 H   0  0  0  0  0  0
   14.8394   -9.7725   20.3260 H   0  0  0  0  0  0
   14.0568  -11.8527   18.2824 H   0  0  0  0  0  0
   15.6273  -13.1354   17.1645 H   0  0  0  0  0  0
   16.8835  -13.9625   18.0098 H   0  0  0  0  0  0
   14.0236  -14.9868   17.5460 H   0  0  0  0  0  0
   15.4131  -15.4693   16.6292 H   0  0  0  0  0  0
   14.7719  -17.1951   18.2366 H   0  0  0  0  0  0
   16.3846  -16.6461   18.5549 H   0  0  0  0  0  0
   13.9212  -15.7064   20.1307 H   0  0  0  0  0  0
   14.9136  -17.0490   20.5801 H   0  0  0  0  0  0
   16.5935  -16.7349   22.0046 H   0  0  0  0  0  0
   18.8739  -14.2085   21.0898 H   0  0  0  0  0  0
   20.6168  -13.3119   22.5594 H   0  0  0  0  0  0
   18.5009  -14.8689   25.9808 H   0  0  0  0  0  0
   16.8128  -15.8038   24.5011 H   0  0  0  0  0  0
   19.4616  -13.0074   26.7517 H   0  0  0  0  0  0
   21.1422  -12.6990   27.1088 H   0  0  0  0  0  0
   12.7296   -8.2414   23.6510 H   0  0  0  0  0  0
   10.1896  -10.2599   25.0928 H   0  0  0  0  0  0
   10.4834  -11.4862   23.9303 H   0  0  0  0  0  0
  1  6  1  0  0  0
  1  2  2  0  0  0
  1 29  1  0  0  0
  2  3  1  0  0  0
  2 30  1  0  0  0
  3  4  2  0  0  0
  3 26  1  0  0  0
  4  5  1  0  0  0
  4 31  1  0  0  0
  5  6  2  0  0  0
  5 32  1  0  0  0
  6  7  1  0  0  0
  7  8  2  0  0  0
  7 33  1  0  0  0
  8 24  1  0  0  0
  8  9  1  0  0  0
  9 10  1  0  0  0
  9 34  1  0  0  0
  9 35  1  0  0  0
 10 11  1  0  0  0
 10 36  1  0  0  0
 10 37  1  0  0  0
 11 12  1  0  0  0
 11 38  1  0  0  0
 11 39  1  0  0  0
 12 13  1  0  0  0
 12 40  1  0  0  0
 12 41  1  0  0  0
 13 14  2  0  0  0
 13 24  1  0  0  0
 14 15  1  0  0  0
 14 42  1  0  0  0
 15 20  1  0  0  0
 15 16  2  0  0  0
 16 17  1  0  0  0
 16 43  1  0  0  0
 17 18  2  0  0  0
 17 44  1  0  0  0
 18 19  1  0  0  0
 18 21  1  0  0  0
 19 20  2  0  0  0
 19 45  1  0  0  0
 20 46  1  0  0  0
 21 22  2  0  0  0
 21 23  1  0  0  0
 23 47  1  0  0  0
 23 48  1  0  0  0
 24 25  2  0  0  0
 26 27  2  3  0  0
 26 28  1  0  0  0
 27 49  1  0  0  0
 28 50  1  0  0  0
 28 51  1  0  0  0
M  END
> <s_m_entry_id>
38071

> <s_m_entry_name>
ligand_docking-pose.418

> <s_m_Source_Path>
/home/csk/Desktop/cluster/DUD-E-result/thrb

> <s_m_Source_File>
ligand_docking-pose.sdf

> <i_m_Source_File_Index>
418

> <i_lp_mmshare_version>
53161

> <i_f3d_flags>
0

> <r_lp_tautomer_probability>
1

> <s_lp_Force_Field>
OPLS_2005

> <r_lp_Energy>
36.592035

> <b_lp_Chiralities_Consistent>
1

> <s_lp_Variant>
251238-2

> <s_i_glide_gridfile>
glide-grid_1ype

> <i_i_glide_lignum>
778

> <i_i_glide_rotatable_bonds>
4

> <r_i_docking_score>
-6.7996701579341

> <r_i_glide_ligand_efficiency>
-0.242845362783361

> <r_i_glide_ligand_efficiency_sa>
-0.737421549680018

> <r_i_glide_ligand_efficiency_ln>
-1.56956351944223

> <r_i_glide_gscore>
-6.7996701579341

> <r_i_glide_lipo>
-2.34574716035326

> <r_i_glide_hbond>
-0.156864677877921

> <r_i_glide_metal>
0

> <r_i_glide_rewards>
-1.61462071834163

> <r_i_glide_evdw>
-42.9346771240234

> <r_i_glide_ecoul>
-4.81889152526855

> <r_i_glide_erotb>
0.277136958444851

> <r_i_glide_esite>
-0.0900069748146783

> <r_i_glide_emodel>
-65.8116240417729

> <r_i_glide_energy>
-47.753568649292

> <r_i_glide_einternal>
3.60821676254272

> <i_i_glide_confnum>
6

> <i_i_glide_posenum>
290

> <r_i_glide_eff_state_penalty>
0

> <s_user_duplicate_titles>
251238

> <s_m_subgroup_title>
dock_pv

> <s_m_subgroupid>
dock_pv1

> <b_m_subgroup_collapsed>
0

$$$$
